MODEL 1
REMARK VINA RESULT:      -6.0      0.000      0.000
REMARK  0 active torsions:
REMARK  status: ('A' for Active; 'I' for Inactive)
ROOT
HETATM    1  C1  UNL     1     -33.724   7.248   5.578  1.00 20.00     0.009 C 
HETATM    2  C2  UNL     1     -33.544   7.763   4.147  1.00 20.00     0.035 C 
HETATM    3  C3  UNL     1     -34.321   5.832   5.689  1.00 20.00     0.082 C 
HETATM    4  C4  UNL     1     -32.973   6.698   3.266  1.00 20.00     0.157 A 
HETATM    5  C5  UNL     1     -33.603   5.338   3.360  1.00 20.00     0.223 A 
HETATM    6  C6  UNL     1     -34.701   5.203   4.355  1.00 20.00     0.271 C 
HETATM    7  O7  UNL     1     -33.856   6.207   2.252  1.00 20.00    -0.369 OA
HETATM    8  F8  UNL     1     -34.995   3.891   4.539  1.00 20.00    -0.203 F 
HETATM    9  F9  UNL     1     -35.836   5.788   3.889  1.00 20.00    -0.203 F 
ENDROOT
TORSDOF 0
ENDMDL
MODEL 2
REMARK VINA RESULT:      -5.4      1.400      1.894
REMARK  0 active torsions:
REMARK  status: ('A' for Active; 'I' for Inactive)
ROOT
HETATM    1  C1  UNL     1     -34.481   5.351   5.624  1.00 20.00     0.009 C 
HETATM    2  C2  UNL     1     -34.369   6.869   5.454  1.00 20.00     0.035 C 
HETATM    3  C3  UNL     1     -34.162   4.530   4.360  1.00 20.00     0.082 C 
HETATM    4  C4  UNL     1     -33.139   7.228   4.684  1.00 20.00     0.157 A 
HETATM    5  C5  UNL     1     -32.875   6.444   3.432  1.00 20.00     0.223 A 
HETATM    6  C6  UNL     1     -33.856   5.368   3.126  1.00 20.00     0.271 C 
HETATM    7  O7  UNL     1     -33.372   7.785   3.386  1.00 20.00    -0.369 OA
HETATM    8  F8  UNL     1     -33.369   4.568   2.143  1.00 20.00    -0.203 F 
HETATM    9  F9  UNL     1     -35.011   5.902   2.647  1.00 20.00    -0.203 F 
ENDROOT
TORSDOF 0
ENDMDL
MODEL 3
REMARK VINA RESULT:      -5.2      1.798      2.610
REMARK  0 active torsions:
REMARK  status: ('A' for Active; 'I' for Inactive)
ROOT
HETATM    1  C1  UNL     1     -33.563   7.434   5.238  1.00 20.00     0.009 C 
HETATM    2  C2  UNL     1     -33.746   6.090   5.950  1.00 20.00     0.035 C 
HETATM    3  C3  UNL     1     -33.715   7.384   3.706  1.00 20.00     0.082 C 
HETATM    4  C4  UNL     1     -34.919   5.348   5.392  1.00 20.00     0.157 A 
HETATM    5  C5  UNL     1     -35.019   5.275   3.896  1.00 20.00     0.223 A 
HETATM    6  C6  UNL     1     -33.953   5.989   3.142  1.00 20.00     0.271 C 
HETATM    7  O7  UNL     1     -34.599   4.151   4.676  1.00 20.00    -0.369 OA
HETATM    8  F8  UNL     1     -34.300   6.081   1.833  1.00 20.00    -0.203 F 
HETATM    9  F9  UNL     1     -32.792   5.283   3.181  1.00 20.00    -0.203 F 
ENDROOT
TORSDOF 0
ENDMDL
MODEL 4
REMARK VINA RESULT:      -5.0      1.855      2.650
REMARK  0 active torsions:
REMARK  status: ('A' for Active; 'I' for Inactive)
ROOT
HETATM    1  C1  UNL     1     -34.455   4.367   4.477  1.00 20.00     0.009 C 
HETATM    2  C2  UNL     1     -33.470   4.783   3.379  1.00 20.00     0.035 C 
HETATM    3  C3  UNL     1     -34.751   5.452   5.530  1.00 20.00     0.082 C 
HETATM    4  C4  UNL     1     -33.772   6.164   2.890  1.00 20.00     0.157 A 
HETATM    5  C5  UNL     1     -34.010   7.212   3.938  1.00 20.00     0.223 A 
HETATM    6  C6  UNL     1     -33.958   6.740   5.348  1.00 20.00     0.271 C 
HETATM    7  O7  UNL     1     -32.784   7.152   3.204  1.00 20.00    -0.369 OA
HETATM    8  F8  UNL     1     -34.452   7.698   6.172  1.00 20.00    -0.203 F 
HETATM    9  F9  UNL     1     -32.670   6.533   5.730  1.00 20.00    -0.203 F 
ENDROOT
TORSDOF 0
ENDMDL
MODEL 5
REMARK VINA RESULT:      -4.8      1.605      2.467
REMARK  0 active torsions:
REMARK  status: ('A' for Active; 'I' for Inactive)
ROOT
HETATM    1  C1  UNL     1     -32.900   6.556   2.961  1.00 20.00     0.009 C 
HETATM    2  C2  UNL     1     -33.453   5.175   2.596  1.00 20.00     0.035 C 
HETATM    3  C3  UNL     1     -33.402   7.124   4.302  1.00 20.00     0.082 C 
HETATM    4  C4  UNL     1     -33.440   4.266   3.783  1.00 20.00     0.157 A 
HETATM    5  C5  UNL     1     -33.978   4.828   5.067  1.00 20.00     0.223 A 
HETATM    6  C6  UNL     1     -34.425   6.247   5.013  1.00 20.00     0.271 C 
HETATM    7  O7  UNL     1     -34.730   3.897   4.283  1.00 20.00    -0.369 OA
HETATM    8  F8  UNL     1     -34.625   6.713   6.272  1.00 20.00    -0.203 F 
HETATM    9  F9  UNL     1     -35.621   6.342   4.375  1.00 20.00    -0.203 F 
ENDROOT
TORSDOF 0
ENDMDL
MODEL 6
REMARK VINA RESULT:      -4.2      1.625      2.478
REMARK  0 active torsions:
REMARK  status: ('A' for Active; 'I' for Inactive)
ROOT
HETATM    1  C1  UNL     1     -32.899   7.129   2.505  1.00 20.00     0.009 C 
HETATM    2  C2  UNL     1     -32.209   7.473   3.829  1.00 20.00     0.035 C 
HETATM    3  C3  UNL     1     -34.151   6.241   2.636  1.00 20.00     0.082 C 
HETATM    4  C4  UNL     1     -33.215   7.840   4.873  1.00 20.00     0.157 A 
HETATM    5  C5  UNL     1     -34.402   6.932   5.012  1.00 20.00     0.223 A 
HETATM    6  C6  UNL     1     -34.457   5.790   4.059  1.00 20.00     0.271 C 
HETATM    7  O7  UNL     1     -33.331   6.915   5.960  1.00 20.00    -0.369 OA
HETATM    8  F8  UNL     1     -35.686   5.217   4.099  1.00 20.00    -0.203 F 
HETATM    9  F9  UNL     1     -33.572   4.825   4.426  1.00 20.00    -0.203 F 
ENDROOT
TORSDOF 0
ENDMDL
MODEL 7
REMARK VINA RESULT:      -4.1     12.328     13.331
REMARK  0 active torsions:
REMARK  status: ('A' for Active; 'I' for Inactive)
ROOT
HETATM    1  C1  UNL     1     -32.936  15.515  -5.293  1.00 20.00     0.009 C 
HETATM    2  C2  UNL     1     -33.356  14.367  -4.369  1.00 20.00     0.035 C 
HETATM    3  C3  UNL     1     -33.704  15.590  -6.627  1.00 20.00     0.082 C 
HETATM    4  C4  UNL     1     -34.846  14.240  -4.322  1.00 20.00     0.157 A 
HETATM    5  C5  UNL     1     -35.566  14.270  -5.638  1.00 20.00     0.223 A 
HETATM    6  C6  UNL     1     -34.708  14.464  -6.839  1.00 20.00     0.271 C 
HETATM    7  O7  UNL     1     -35.376  13.050  -4.915  1.00 20.00    -0.369 OA
HETATM    8  F8  UNL     1     -35.484  14.745  -7.917  1.00 20.00    -0.203 F 
HETATM    9  F9  UNL     1     -34.042  13.317  -7.135  1.00 20.00    -0.203 F 
ENDROOT
TORSDOF 0
ENDMDL
MODEL 8
REMARK VINA RESULT:      -4.0     11.898     12.526
REMARK  0 active torsions:
REMARK  status: ('A' for Active; 'I' for Inactive)
ROOT
HETATM    1  C1  UNL     1     -36.499  15.566  -4.169  1.00 20.00     0.009 C 
HETATM    2  C2  UNL     1     -37.022  14.310  -4.873  1.00 20.00     0.035 C 
HETATM    3  C3  UNL     1     -34.967  15.642  -4.028  1.00 20.00     0.082 C 
HETATM    4  C4  UNL     1     -36.196  13.993  -6.079  1.00 20.00     0.157 A 
HETATM    5  C5  UNL     1     -34.706  14.029  -5.903  1.00 20.00     0.223 A 
HETATM    6  C6  UNL     1     -34.225  14.418  -4.549  1.00 20.00     0.271 C 
HETATM    7  O7  UNL     1     -35.421  12.793  -5.990  1.00 20.00    -0.369 OA
HETATM    8  F8  UNL     1     -32.894  14.678  -4.591  1.00 20.00    -0.203 F 
HETATM    9  F9  UNL     1     -34.387  13.388  -3.676  1.00 20.00    -0.203 F 
ENDROOT
TORSDOF 0
ENDMDL
MODEL 9
REMARK VINA RESULT:      -3.9      8.573      9.329
REMARK  0 active torsions:
REMARK  status: ('A' for Active; 'I' for Inactive)
ROOT
HETATM    1  C1  UNL     1     -43.040   4.921  -0.026  1.00 20.00     0.009 C 
HETATM    2  C2  UNL     1     -43.415   5.838  -1.195  1.00 20.00     0.035 C 
HETATM    3  C3  UNL     1     -41.766   5.329   0.738  1.00 20.00     0.082 C 
HETATM    4  C4  UNL     1     -43.265   7.276  -0.812  1.00 20.00     0.157 A 
HETATM    5  C5  UNL     1     -41.995   7.656  -0.109  1.00 20.00     0.223 A 
HETATM    6  C6  UNL     1     -41.046   6.540   0.159  1.00 20.00     0.271 C 
HETATM    7  O7  UNL     1     -42.217   7.980  -1.485  1.00 20.00    -0.369 OA
HETATM    8  F8  UNL     1     -40.086   6.953   1.024  1.00 20.00    -0.203 F 
HETATM    9  F9  UNL     1     -40.405   6.180  -0.983  1.00 20.00    -0.203 F 
ENDROOT
TORSDOF 0
ENDMDL
