MODEL 1
REMARK VINA RESULT:      -4.4      0.000      0.000
REMARK  2 active torsions:
REMARK  status: ('A' for Active; 'I' for Inactive)
REMARK    1  A    between atoms: C1_1  and  C3_3 
REMARK    2  A    between atoms: C3_3  and  C4_4 
ROOT
HETATM    1  C1  UNL     1     -33.533   6.149   3.058  1.00 20.00     0.078 C 
HETATM    2  S5  UNL     1     -32.699   7.533   2.658  1.00 20.00    -0.072 SA
HETATM    3 CL6  UNL     1     -32.896   4.645   2.544  1.00 20.00    -0.076 Cl
ENDROOT
BRANCH   1   4
HETATM    4  C3  UNL     1     -34.804   6.124   3.865  1.00 20.00     0.063 C 
BRANCH   4   5
HETATM    5  C4  UNL     1     -34.510   5.881   5.344  1.00 20.00     0.002 C 
HETATM    6  C2  UNL     1     -33.885   7.104   5.995  1.00 20.00     0.005 C 
ENDBRANCH   4   5
ENDBRANCH   1   4
TORSDOF 2
ENDMDL
MODEL 2
REMARK VINA RESULT:      -4.3      2.083      2.369
REMARK  2 active torsions:
REMARK  status: ('A' for Active; 'I' for Inactive)
REMARK    1  A    between atoms: C1_1  and  C3_3 
REMARK    2  A    between atoms: C3_3  and  C4_4 
ROOT
HETATM    1  C1  UNL     1     -33.090   7.237   3.857  1.00 20.00     0.078 C 
HETATM    2  S5  UNL     1     -31.898   8.116   3.099  1.00 20.00    -0.072 SA
HETATM    3 CL6  UNL     1     -33.367   7.519   5.522  1.00 20.00    -0.076 Cl
ENDROOT
BRANCH   1   4
HETATM    4  C3  UNL     1     -33.966   6.221   3.172  1.00 20.00     0.063 C 
BRANCH   4   5
HETATM    5  C4  UNL     1     -34.960   5.601   4.153  1.00 20.00     0.002 C 
HETATM    6  C2  UNL     1     -34.471   4.255   4.663  1.00 20.00     0.005 C 
ENDBRANCH   4   5
ENDBRANCH   1   4
TORSDOF 2
ENDMDL
MODEL 3
REMARK VINA RESULT:      -4.2      2.850      3.495
REMARK  2 active torsions:
REMARK  status: ('A' for Active; 'I' for Inactive)
REMARK    1  A    between atoms: C1_1  and  C3_3 
REMARK    2  A    between atoms: C3_3  and  C4_4 
ROOT
HETATM    1  C1  UNL     1     -33.989   6.313   4.480  1.00 20.00     0.078 C 
HETATM    2  S5  UNL     1     -34.668   4.818   4.748  1.00 20.00    -0.072 SA
HETATM    3 CL6  UNL     1     -33.778   7.357   5.820  1.00 20.00    -0.076 Cl
ENDROOT
BRANCH   1   4
HETATM    4  C3  UNL     1     -33.520   6.808   3.137  1.00 20.00     0.063 C 
BRANCH   4   5
HETATM    5  C4  UNL     1     -32.261   7.662   3.274  1.00 20.00     0.002 C 
HETATM    6  C2  UNL     1     -31.971   8.434   1.997  1.00 20.00     0.005 C 
ENDBRANCH   4   5
ENDBRANCH   1   4
TORSDOF 2
ENDMDL
MODEL 4
REMARK VINA RESULT:      -4.1      2.334      3.126
REMARK  2 active torsions:
REMARK  status: ('A' for Active; 'I' for Inactive)
REMARK    1  A    between atoms: C1_1  and  C3_3 
REMARK    2  A    between atoms: C3_3  and  C4_4 
ROOT
HETATM    1  C1  UNL     1     -33.918   6.327   4.331  1.00 20.00     0.078 C 
HETATM    2  S5  UNL     1     -33.728   7.252   5.701  1.00 20.00    -0.072 SA
HETATM    3 CL6  UNL     1     -34.860   4.902   4.443  1.00 20.00    -0.076 Cl
ENDROOT
BRANCH   1   4
HETATM    4  C3  UNL     1     -33.336   6.669   2.985  1.00 20.00     0.063 C 
BRANCH   4   5
HETATM    5  C4  UNL     1     -32.196   7.677   3.119  1.00 20.00     0.002 C 
HETATM    6  C2  UNL     1     -32.104   8.579   1.898  1.00 20.00     0.005 C 
ENDBRANCH   4   5
ENDBRANCH   1   4
TORSDOF 2
ENDMDL
MODEL 5
REMARK VINA RESULT:      -4.0      2.228      2.566
REMARK  2 active torsions:
REMARK  status: ('A' for Active; 'I' for Inactive)
REMARK    1  A    between atoms: C1_1  and  C3_3 
REMARK    2  A    between atoms: C3_3  and  C4_4 
ROOT
HETATM    1  C1  UNL     1     -33.199   7.218   4.078  1.00 20.00     0.078 C 
HETATM    2  S5  UNL     1     -33.490   7.512   5.689  1.00 20.00    -0.072 SA
HETATM    3 CL6  UNL     1     -31.881   8.018   3.335  1.00 20.00    -0.076 Cl
ENDROOT
BRANCH   1   4
HETATM    4  C3  UNL     1     -34.004   6.271   3.226  1.00 20.00     0.063 C 
BRANCH   4   5
HETATM    5  C4  UNL     1     -34.983   5.464   4.076  1.00 20.00     0.002 C 
HETATM    6  C2  UNL     1     -34.381   4.135   4.504  1.00 20.00     0.005 C 
ENDBRANCH   4   5
ENDBRANCH   1   4
TORSDOF 2
ENDMDL
MODEL 6
REMARK VINA RESULT:      -4.0      2.148      3.038
REMARK  2 active torsions:
REMARK  status: ('A' for Active; 'I' for Inactive)
REMARK    1  A    between atoms: C1_1  and  C3_3 
REMARK    2  A    between atoms: C3_3  and  C4_4 
ROOT
HETATM    1  C1  UNL     1     -34.382   6.072   5.006  1.00 20.00     0.078 C 
HETATM    2  S5  UNL     1     -33.655   7.364   5.761  1.00 20.00    -0.072 SA
HETATM    3 CL6  UNL     1     -34.602   4.631   5.904  1.00 20.00    -0.076 Cl
ENDROOT
BRANCH   1   4
HETATM    4  C3  UNL     1     -34.887   6.088   3.588  1.00 20.00     0.063 C 
BRANCH   4   5
HETATM    5  C4  UNL     1     -33.729   6.097   2.592  1.00 20.00     0.002 C 
HETATM    6  C2  UNL     1     -32.979   4.774   2.600  1.00 20.00     0.005 C 
ENDBRANCH   4   5
ENDBRANCH   1   4
TORSDOF 2
ENDMDL
MODEL 7
REMARK VINA RESULT:      -3.9      3.003      3.884
REMARK  2 active torsions:
REMARK  status: ('A' for Active; 'I' for Inactive)
REMARK    1  A    between atoms: C1_1  and  C3_3 
REMARK    2  A    between atoms: C3_3  and  C4_4 
ROOT
HETATM    1  C1  UNL     1     -32.930   7.244   3.785  1.00 20.00     0.078 C 
HETATM    2  S5  UNL     1     -33.645   6.042   2.884  1.00 20.00    -0.072 SA
HETATM    3 CL6  UNL     1     -33.436   7.447   5.408  1.00 20.00    -0.076 Cl
ENDROOT
BRANCH   1   4
HETATM    4  C3  UNL     1     -31.843   8.156   3.279  1.00 20.00     0.063 C 
BRANCH   4   5
HETATM    5  C4  UNL     1     -31.921   8.315   1.762  1.00 20.00     0.002 C 
HETATM    6  C2  UNL     1     -32.428   9.695   1.372  1.00 20.00     0.005 C 
ENDBRANCH   4   5
ENDBRANCH   1   4
TORSDOF 2
ENDMDL
MODEL 8
REMARK VINA RESULT:      -3.9      1.678      1.678
REMARK  2 active torsions:
REMARK  status: ('A' for Active; 'I' for Inactive)
REMARK    1  A    between atoms: C1_1  and  C3_3 
REMARK    2  A    between atoms: C3_3  and  C4_4 
ROOT
HETATM    1  C1  UNL     1     -33.666   6.047   3.086  1.00 20.00     0.078 C 
HETATM    2  S5  UNL     1     -32.989   4.620   2.562  1.00 20.00    -0.072 SA
HETATM    3 CL6  UNL     1     -32.954   7.516   2.569  1.00 20.00    -0.076 Cl
ENDROOT
BRANCH   1   4
HETATM    4  C3  UNL     1     -34.883   6.140   3.968  1.00 20.00     0.063 C 
BRANCH   4   5
HETATM    5  C4  UNL     1     -34.510   5.973   5.440  1.00 20.00     0.002 C 
HETATM    6  C2  UNL     1     -33.798   7.205   5.975  1.00 20.00     0.005 C 
ENDBRANCH   4   5
ENDBRANCH   1   4
TORSDOF 2
ENDMDL
MODEL 9
REMARK VINA RESULT:      -3.8      2.706      3.657
REMARK  2 active torsions:
REMARK  status: ('A' for Active; 'I' for Inactive)
REMARK    1  A    between atoms: C1_1  and  C3_3 
REMARK    2  A    between atoms: C3_3  and  C4_4 
ROOT
HETATM    1  C1  UNL     1     -32.905   7.152   3.669  1.00 20.00     0.078 C 
HETATM    2  S5  UNL     1     -33.603   7.314   5.170  1.00 20.00    -0.072 SA
HETATM    3 CL6  UNL     1     -33.300   5.769   2.739  1.00 20.00    -0.076 Cl
ENDROOT
BRANCH   1   4
HETATM    4  C3  UNL     1     -31.963   8.153   3.054  1.00 20.00     0.063 C 
BRANCH   4   5
HETATM    5  C4  UNL     1     -32.323   8.421   1.594  1.00 20.00     0.002 C 
HETATM    6  C2  UNL     1     -32.474   9.910   1.322  1.00 20.00     0.005 C 
ENDBRANCH   4   5
ENDBRANCH   1   4
TORSDOF 2
ENDMDL
