MODEL 1
REMARK VINA RESULT:      -5.4      0.000      0.000
REMARK  1 active torsions:
REMARK  status: ('A' for Active; 'I' for Inactive)
REMARK    1  A    between atoms: C1_1  and  C3_3 
ROOT
HETATM    1  C1  UNL     1     -33.704   6.566   4.401  1.00 20.00     0.143 C 
HETATM    2  C2  UNL     1     -33.109   6.826   3.232  1.00 20.00     0.190 C 
HETATM    3  F4  UNL     1     -33.425   6.108   2.133  1.00 20.00    -0.193 F 
HETATM    4 CL8  UNL     1     -31.933   8.079   3.091  1.00 20.00    -0.051 Cl
ENDROOT
BRANCH   1   5
HETATM    5  C3  UNL     1     -34.729   5.509   4.624  1.00 20.00     0.411 C 
HETATM    6  F5  UNL     1     -34.332   4.273   4.229  1.00 20.00    -0.167 F 
HETATM    7  F6  UNL     1     -35.875   5.786   3.951  1.00 20.00    -0.167 F 
HETATM    8  F7  UNL     1     -35.060   5.413   5.937  1.00 20.00    -0.167 F 
ENDBRANCH   1   5
TORSDOF 1
ENDMDL
MODEL 2
REMARK VINA RESULT:      -5.4      0.076      1.339
REMARK  1 active torsions:
REMARK  status: ('A' for Active; 'I' for Inactive)
REMARK    1  A    between atoms: C1_1  and  C3_3 
ROOT
HETATM    1  C1  UNL     1     -33.682   6.552   4.390  1.00 20.00     0.143 C 
HETATM    2  C2  UNL     1     -33.149   6.868   3.204  1.00 20.00     0.190 C 
HETATM    3  F4  UNL     1     -33.563   6.238   2.084  1.00 20.00    -0.193 F 
HETATM    4 CL8  UNL     1     -31.931   8.080   3.071  1.00 20.00    -0.051 Cl
ENDROOT
BRANCH   1   5
HETATM    5  C3  UNL     1     -34.737   5.524   4.609  1.00 20.00     0.411 C 
HETATM    6  F5  UNL     1     -35.895   5.782   3.949  1.00 20.00    -0.167 F 
HETATM    7  F6  UNL     1     -35.053   5.414   5.924  1.00 20.00    -0.167 F 
HETATM    8  F7  UNL     1     -34.321   4.297   4.202  1.00 20.00    -0.167 F 
ENDBRANCH   1   5
TORSDOF 1
ENDMDL
MODEL 3
REMARK VINA RESULT:      -5.3      1.193      1.893
REMARK  1 active torsions:
REMARK  status: ('A' for Active; 'I' for Inactive)
REMARK    1  A    between atoms: C1_1  and  C3_3 
ROOT
HETATM    1  C1  UNL     1     -33.702   6.227   3.594  1.00 20.00     0.143 C 
HETATM    2  C2  UNL     1     -33.018   7.259   4.101  1.00 20.00     0.190 C 
HETATM    3  F4  UNL     1     -33.249   7.671   5.366  1.00 20.00    -0.193 F 
HETATM    4 CL8  UNL     1     -31.829   8.085   3.165  1.00 20.00    -0.051 Cl
ENDROOT
BRANCH   1   5
HETATM    5  C3  UNL     1     -34.745   5.451   4.319  1.00 20.00     0.411 C 
HETATM    6  F5  UNL     1     -34.749   5.665   5.660  1.00 20.00    -0.167 F 
HETATM    7  F6  UNL     1     -34.582   4.116   4.137  1.00 20.00    -0.167 F 
HETATM    8  F7  UNL     1     -35.988   5.758   3.871  1.00 20.00    -0.167 F 
ENDBRANCH   1   5
TORSDOF 1
ENDMDL
MODEL 4
REMARK VINA RESULT:      -5.3      1.211      1.381
REMARK  1 active torsions:
REMARK  status: ('A' for Active; 'I' for Inactive)
REMARK    1  A    between atoms: C1_1  and  C3_3 
ROOT
HETATM    1  C1  UNL     1     -33.708   6.233   3.592  1.00 20.00     0.143 C 
HETATM    2  C2  UNL     1     -33.017   7.254   4.112  1.00 20.00     0.190 C 
HETATM    3  F4  UNL     1     -33.248   7.655   5.381  1.00 20.00    -0.193 F 
HETATM    4 CL8  UNL     1     -31.817   8.078   3.189  1.00 20.00    -0.051 Cl
ENDROOT
BRANCH   1   5
HETATM    5  C3  UNL     1     -34.761   5.460   4.307  1.00 20.00     0.411 C 
HETATM    6  F5  UNL     1     -34.638   4.115   4.167  1.00 20.00    -0.167 F 
HETATM    7  F6  UNL     1     -36.001   5.787   3.861  1.00 20.00    -0.167 F 
HETATM    8  F7  UNL     1     -34.743   5.718   5.639  1.00 20.00    -0.167 F 
ENDBRANCH   1   5
TORSDOF 1
ENDMDL
MODEL 5
REMARK VINA RESULT:      -5.3      1.197      1.911
REMARK  1 active torsions:
REMARK  status: ('A' for Active; 'I' for Inactive)
REMARK    1  A    between atoms: C1_1  and  C3_3 
ROOT
HETATM    1  C1  UNL     1     -33.709   6.235   3.588  1.00 20.00     0.143 C 
HETATM    2  C2  UNL     1     -33.027   7.263   4.106  1.00 20.00     0.190 C 
HETATM    3  F4  UNL     1     -33.281   7.683   5.364  1.00 20.00    -0.193 F 
HETATM    4 CL8  UNL     1     -31.810   8.074   3.192  1.00 20.00    -0.051 Cl
ENDROOT
BRANCH   1   5
HETATM    5  C3  UNL     1     -34.774   5.471   4.295  1.00 20.00     0.411 C 
HETATM    6  F5  UNL     1     -36.029   5.766   3.869  1.00 20.00    -0.167 F 
HETATM    7  F6  UNL     1     -34.749   5.711   5.631  1.00 20.00    -0.167 F 
HETATM    8  F7  UNL     1     -34.611   4.134   4.134  1.00 20.00    -0.167 F 
ENDBRANCH   1   5
TORSDOF 1
ENDMDL
MODEL 6
REMARK VINA RESULT:      -4.8      2.630      4.086
REMARK  1 active torsions:
REMARK  status: ('A' for Active; 'I' for Inactive)
REMARK    1  A    between atoms: C1_1  and  C3_3 
ROOT
HETATM    1  C1  UNL     1     -32.931   6.753   2.856  1.00 20.00     0.143 C 
HETATM    2  C2  UNL     1     -33.762   6.553   3.885  1.00 20.00     0.190 C 
HETATM    3  F4  UNL     1     -34.029   7.556   4.749  1.00 20.00    -0.193 F 
HETATM    4 CL8  UNL     1     -34.516   5.023   4.135  1.00 20.00    -0.051 Cl
ENDROOT
BRANCH   1   5
HETATM    5  C3  UNL     1     -32.233   8.034   2.555  1.00 20.00     0.411 C 
HETATM    6  F5  UNL     1     -31.412   7.967   1.477  1.00 20.00    -0.167 F 
HETATM    7  F6  UNL     1     -31.471   8.438   3.603  1.00 20.00    -0.167 F 
HETATM    8  F7  UNL     1     -33.120   9.032   2.310  1.00 20.00    -0.167 F 
ENDBRANCH   1   5
TORSDOF 1
ENDMDL
MODEL 7
REMARK VINA RESULT:      -4.8      2.623      4.078
REMARK  1 active torsions:
REMARK  status: ('A' for Active; 'I' for Inactive)
REMARK    1  A    between atoms: C1_1  and  C3_3 
ROOT
HETATM    1  C1  UNL     1     -32.943   6.745   2.861  1.00 20.00     0.143 C 
HETATM    2  C2  UNL     1     -33.771   6.538   3.891  1.00 20.00     0.190 C 
HETATM    3  F4  UNL     1     -34.040   7.537   4.759  1.00 20.00    -0.193 F 
HETATM    4 CL8  UNL     1     -34.516   5.003   4.138  1.00 20.00    -0.051 Cl
ENDROOT
BRANCH   1   5
HETATM    5  C3  UNL     1     -32.253   8.031   2.562  1.00 20.00     0.411 C 
HETATM    6  F5  UNL     1     -33.102   9.055   2.294  1.00 20.00    -0.167 F 
HETATM    7  F6  UNL     1     -31.433   7.911   1.487  1.00 20.00    -0.167 F 
HETATM    8  F7  UNL     1     -31.479   8.427   3.603  1.00 20.00    -0.167 F 
ENDBRANCH   1   5
TORSDOF 1
ENDMDL
MODEL 8
REMARK VINA RESULT:      -4.8      2.659      4.129
REMARK  1 active torsions:
REMARK  status: ('A' for Active; 'I' for Inactive)
REMARK    1  A    between atoms: C1_1  and  C3_3 
ROOT
HETATM    1  C1  UNL     1     -32.907   6.821   2.822  1.00 20.00     0.143 C 
HETATM    2  C2  UNL     1     -33.737   6.624   3.853  1.00 20.00     0.190 C 
HETATM    3  F4  UNL     1     -33.988   7.624   4.725  1.00 20.00    -0.193 F 
HETATM    4 CL8  UNL     1     -34.508   5.101   4.095  1.00 20.00    -0.051 Cl
ENDROOT
BRANCH   1   5
HETATM    5  C3  UNL     1     -32.195   8.096   2.528  1.00 20.00     0.411 C 
HETATM    6  F5  UNL     1     -31.414   8.532   3.548  1.00 20.00    -0.167 F 
HETATM    7  F6  UNL     1     -33.071   9.095   2.250  1.00 20.00    -0.167 F 
HETATM    8  F7  UNL     1     -31.388   7.970   1.444  1.00 20.00    -0.167 F 
ENDBRANCH   1   5
TORSDOF 1
ENDMDL
MODEL 9
REMARK VINA RESULT:      -4.7      3.031      3.944
REMARK  1 active torsions:
REMARK  status: ('A' for Active; 'I' for Inactive)
REMARK    1  A    between atoms: C1_1  and  C3_3 
ROOT
HETATM    1  C1  UNL     1     -32.813   8.562   2.149  1.00 20.00     0.143 C 
HETATM    2  C2  UNL     1     -32.228   8.876   0.987  1.00 20.00     0.190 C 
HETATM    3  F4  UNL     1     -30.995   8.407   0.699  1.00 20.00    -0.193 F 
HETATM    4 CL8  UNL     1     -33.024   9.877  -0.168  1.00 20.00    -0.051 Cl
ENDROOT
BRANCH   1   5
HETATM    5  C3  UNL     1     -32.210   7.707   3.208  1.00 20.00     0.411 C 
HETATM    6  F5  UNL     1     -32.912   7.703   4.370  1.00 20.00    -0.167 F 
HETATM    7  F6  UNL     1     -30.952   8.114   3.513  1.00 20.00    -0.167 F 
HETATM    8  F7  UNL     1     -32.116   6.414   2.804  1.00 20.00    -0.167 F 
ENDBRANCH   1   5
TORSDOF 1
ENDMDL
