MODEL 1
REMARK VINA RESULT:      -5.5      0.000      0.000
REMARK  1 active torsions:
REMARK  status: ('A' for Active; 'I' for Inactive)
REMARK    1  A    between atoms: C6_6  and  C7_7 
ROOT
HETATM    1  C1  UNL     1     -34.461   5.863   5.847  1.00 20.00     0.005 C 
HETATM    2  C2  UNL     1     -33.652   6.935   5.109  1.00 20.00     0.011 C 
HETATM    3  C3  UNL     1     -35.356   6.062   3.579  1.00 20.00     0.015 C 
HETATM    4  C4  UNL     1     -33.631   4.887   3.763  1.00 20.00     0.015 C 
HETATM    5  C5  UNL     1     -34.906   5.022   4.654  1.00 20.00    -0.013 C 
HETATM    6  C6  UNL     1     -33.839   6.436   3.671  1.00 20.00    -0.031 C 
ENDROOT
BRANCH   6   7
HETATM    7  C7  UNL     1     -33.179   7.238   2.587  1.00 20.00     0.094 C 
HETATM    8 BR8  UNL     1     -31.667   8.230   3.311  1.00 20.00    -0.096 Br
ENDBRANCH   6   7
TORSDOF 1
ENDMDL
MODEL 2
REMARK VINA RESULT:      -4.9      0.565      1.700
REMARK  1 active torsions:
REMARK  status: ('A' for Active; 'I' for Inactive)
REMARK    1  A    between atoms: C6_6  and  C7_7 
ROOT
HETATM    1  C1  UNL     1     -34.003   4.145   4.152  1.00 20.00     0.005 C 
HETATM    2  C2  UNL     1     -33.313   5.123   3.195  1.00 20.00     0.011 C 
HETATM    3  C3  UNL     1     -34.013   6.360   5.193  1.00 20.00     0.015 C 
HETATM    4  C4  UNL     1     -35.516   6.029   3.772  1.00 20.00     0.015 C 
HETATM    5  C5  UNL     1     -34.915   5.121   4.890  1.00 20.00    -0.013 C 
HETATM    6  C6  UNL     1     -34.007   6.421   3.628  1.00 20.00    -0.031 C 
ENDROOT
BRANCH   6   7
HETATM    7  C7  UNL     1     -33.602   7.675   2.911  1.00 20.00     0.094 C 
HETATM    8 BR8  UNL     1     -31.693   7.989   3.131  1.00 20.00    -0.096 Br
ENDBRANCH   6   7
TORSDOF 1
ENDMDL
MODEL 3
REMARK VINA RESULT:      -4.2      2.099      3.270
REMARK  1 active torsions:
REMARK  status: ('A' for Active; 'I' for Inactive)
REMARK    1  A    between atoms: C6_6  and  C7_7 
ROOT
HETATM    1  C1  UNL     1     -31.851   8.148   3.965  1.00 20.00     0.005 C 
HETATM    2  C2  UNL     1     -33.013   7.498   4.725  1.00 20.00     0.011 C 
HETATM    3  C3  UNL     1     -32.547   6.155   2.727  1.00 20.00     0.015 C 
HETATM    4  C4  UNL     1     -33.714   7.865   2.404  1.00 20.00     0.015 C 
HETATM    5  C5  UNL     1     -32.174   7.661   2.554  1.00 20.00    -0.013 C 
HETATM    6  C6  UNL     1     -33.712   6.799   3.552  1.00 20.00    -0.031 C 
ENDROOT
BRANCH   6   7
HETATM    7  C7  UNL     1     -34.949   6.014   3.875  1.00 20.00     0.094 C 
HETATM    8 BR8  UNL     1     -34.675   4.961   5.490  1.00 20.00    -0.096 Br
ENDBRANCH   6   7
TORSDOF 1
ENDMDL
MODEL 4
REMARK VINA RESULT:      -3.8      1.110      1.964
REMARK  1 active torsions:
REMARK  status: ('A' for Active; 'I' for Inactive)
REMARK    1  A    between atoms: C6_6  and  C7_7 
ROOT
HETATM    1  C1  UNL     1     -34.131   4.653   3.737  1.00 20.00     0.005 C 
HETATM    2  C2  UNL     1     -32.846   5.326   3.241  1.00 20.00     0.011 C 
HETATM    3  C3  UNL     1     -33.788   6.691   5.046  1.00 20.00     0.015 C 
HETATM    4  C4  UNL     1     -34.662   6.971   3.162  1.00 20.00     0.015 C 
HETATM    5  C5  UNL     1     -34.869   5.882   4.261  1.00 20.00    -0.013 C 
HETATM    6  C6  UNL     1     -33.173   6.779   3.609  1.00 20.00    -0.031 C 
ENDROOT
BRANCH   6   7
HETATM    7  C7  UNL     1     -32.133   7.809   3.280  1.00 20.00     0.094 C 
HETATM    8 BR8  UNL     1     -32.437   8.527   1.496  1.00 20.00    -0.096 Br
ENDBRANCH   6   7
TORSDOF 1
ENDMDL
MODEL 5
REMARK VINA RESULT:      -3.5      3.189      5.068
REMARK  1 active torsions:
REMARK  status: ('A' for Active; 'I' for Inactive)
REMARK    1  A    between atoms: C6_6  and  C7_7 
ROOT
HETATM    1  C1  UNL     1     -33.310   9.256  -0.407  1.00 20.00     0.005 C 
HETATM    2  C2  UNL     1     -33.510   8.210   0.695  1.00 20.00     0.011 C 
HETATM    3  C3  UNL     1     -32.524  10.216   1.702  1.00 20.00     0.015 C 
HETATM    4  C4  UNL     1     -31.170   8.940   0.737  1.00 20.00     0.015 C 
HETATM    5  C5  UNL     1     -32.144  10.034   0.198  1.00 20.00    -0.013 C 
HETATM    6  C6  UNL     1     -32.404   8.656   1.659  1.00 20.00    -0.031 C 
ENDROOT
BRANCH   6   7
HETATM    7  C7  UNL     1     -32.251   7.863   2.924  1.00 20.00     0.094 C 
HETATM    8 BR8  UNL     1     -33.431   6.314   2.893  1.00 20.00    -0.096 Br
ENDBRANCH   6   7
TORSDOF 1
ENDMDL
MODEL 6
REMARK VINA RESULT:      -3.4     11.899     12.527
REMARK  1 active torsions:
REMARK  status: ('A' for Active; 'I' for Inactive)
REMARK    1  A    between atoms: C6_6  and  C7_7 
ROOT
HETATM    1  C1  UNL     1     -35.296  14.228  -5.113  1.00 20.00     0.005 C 
HETATM    2  C2  UNL     1     -35.385  15.136  -3.882  1.00 20.00     0.011 C 
HETATM    3  C3  UNL     1     -33.750  16.096  -5.435  1.00 20.00     0.015 C 
HETATM    4  C4  UNL     1     -33.034  14.536  -4.233  1.00 20.00     0.015 C 
HETATM    5  C5  UNL     1     -33.869  14.543  -5.552  1.00 20.00    -0.013 C 
HETATM    6  C6  UNL     1     -33.979  15.747  -3.926  1.00 20.00    -0.031 C 
ENDROOT
BRANCH   6   7
HETATM    7  C7  UNL     1     -33.638  16.735  -2.849  1.00 20.00     0.094 C 
HETATM    8 BR8  UNL     1     -35.123  16.909  -1.602  1.00 20.00    -0.096 Br
ENDBRANCH   6   7
TORSDOF 1
ENDMDL
MODEL 7
REMARK VINA RESULT:      -3.3     11.814     12.544
REMARK  1 active torsions:
REMARK  status: ('A' for Active; 'I' for Inactive)
REMARK    1  A    between atoms: C6_6  and  C7_7 
ROOT
HETATM    1  C1  UNL     1     -32.910  14.826  -4.593  1.00 20.00     0.005 C 
HETATM    2  C2  UNL     1     -33.626  15.648  -3.516  1.00 20.00     0.011 C 
HETATM    3  C3  UNL     1     -35.243  14.093  -4.504  1.00 20.00     0.015 C 
HETATM    4  C4  UNL     1     -34.893  15.840  -5.606  1.00 20.00     0.015 C 
HETATM    5  C5  UNL     1     -34.102  14.500  -5.490  1.00 20.00    -0.013 C 
HETATM    6  C6  UNL     1     -35.055  15.585  -4.069  1.00 20.00    -0.031 C 
ENDROOT
BRANCH   6   7
HETATM    7  C7  UNL     1     -36.117  16.294  -3.280  1.00 20.00     0.094 C 
HETATM    8 BR8  UNL     1     -35.377  16.960  -1.606  1.00 20.00    -0.096 Br
ENDBRANCH   6   7
TORSDOF 1
ENDMDL
MODEL 8
REMARK VINA RESULT:      -3.3      1.614      2.834
REMARK  1 active torsions:
REMARK  status: ('A' for Active; 'I' for Inactive)
REMARK    1  A    between atoms: C6_6  and  C7_7 
ROOT
HETATM    1  C1  UNL     1     -32.860   6.993   2.253  1.00 20.00     0.005 C 
HETATM    2  C2  UNL     1     -32.974   7.235   3.761  1.00 20.00     0.011 C 
HETATM    3  C3  UNL     1     -33.456   4.873   3.318  1.00 20.00     0.015 C 
HETATM    4  C4  UNL     1     -35.051   6.190   2.986  1.00 20.00     0.015 C 
HETATM    5  C5  UNL     1     -33.811   5.807   2.118  1.00 20.00    -0.013 C 
HETATM    6  C6  UNL     1     -33.967   6.121   4.114  1.00 20.00    -0.031 C 
ENDROOT
BRANCH   6   7
HETATM    7  C7  UNL     1     -34.364   6.001   5.556  1.00 20.00     0.094 C 
HETATM    8 BR8  UNL     1     -33.797   7.582   6.542  1.00 20.00    -0.096 Br
ENDBRANCH   6   7
TORSDOF 1
ENDMDL
MODEL 9
REMARK VINA RESULT:      -3.3     11.943     12.755
REMARK  1 active torsions:
REMARK  status: ('A' for Active; 'I' for Inactive)
REMARK    1  A    between atoms: C6_6  and  C7_7 
ROOT
HETATM    1  C1  UNL     1     -33.426  14.463  -4.376  1.00 20.00     0.005 C 
HETATM    2  C2  UNL     1     -34.924  14.145  -4.389  1.00 20.00     0.011 C 
HETATM    3  C3  UNL     1     -34.629  16.501  -4.996  1.00 20.00     0.015 C 
HETATM    4  C4  UNL     1     -34.559  16.090  -2.943  1.00 20.00     0.015 C 
HETATM    5  C5  UNL     1     -33.491  15.958  -4.074  1.00 20.00    -0.013 C 
HETATM    6  C6  UNL     1     -35.475  15.545  -4.090  1.00 20.00    -0.031 C 
ENDROOT
BRANCH   6   7
HETATM    7  C7  UNL     1     -36.967  15.681  -4.013  1.00 20.00     0.094 C 
HETATM    8 BR8  UNL     1     -37.818  14.484  -5.292  1.00 20.00    -0.096 Br
ENDBRANCH   6   7
TORSDOF 1
ENDMDL
