MODEL 1
REMARK VINA RESULT:      -3.7      0.000      0.000
REMARK  3 active torsions:
REMARK  status: ('A' for Active; 'I' for Inactive)
REMARK    1  A    between atoms: C3_3  and  C5_5 
REMARK    2  A    between atoms: C5_5  and  C6_6 
REMARK    3  A    between atoms: C6_6  and  S9_9 
ROOT
HETATM    1  C1  UNL     1     -34.392   6.486   6.079  1.00 20.00     0.179 C 
HETATM    2  C2  UNL     1     -34.340   5.013   5.720  1.00 20.00     0.103 C 
HETATM    3  C3  UNL     1     -34.157   6.753   3.792  1.00 20.00     0.183 C 
HETATM    4  O7  UNL     1     -33.687   7.213   5.066  1.00 20.00    -0.375 OA
HETATM    5  S8  UNL     1     -34.673   5.023   3.950  1.00 20.00    -0.135 SA
ENDROOT
BRANCH   3   6
HETATM    6  C5  UNL     1     -33.040   6.905   2.775  1.00 20.00     0.057 C 
BRANCH   6   7
HETATM    7  C6  UNL     1     -32.452   8.321   2.703  1.00 20.00     0.043 C 
HETATM    8  C4  UNL     1     -31.114   8.391   3.436  1.00 20.00     0.021 C 
BRANCH   7   9
HETATM    9  S9  UNL     1     -32.203   8.871   0.977  1.00 20.00    -0.178 SA
HETATM   10  H21 UNL     1     -32.895  10.010   1.103  1.00 20.00     0.102 HD
ENDBRANCH   7   9
ENDBRANCH   6   7
ENDBRANCH   3   6
TORSDOF 3
ENDMDL
MODEL 2
REMARK VINA RESULT:      -3.7      1.506      1.692
REMARK  3 active torsions:
REMARK  status: ('A' for Active; 'I' for Inactive)
REMARK    1  A    between atoms: C3_3  and  C5_5 
REMARK    2  A    between atoms: C5_5  and  C6_6 
REMARK    3  A    between atoms: C6_6  and  S9_9 
ROOT
HETATM    1  C1  UNL     1     -34.065   4.221   4.213  1.00 20.00     0.179 C 
HETATM    2  C2  UNL     1     -34.990   5.184   4.933  1.00 20.00     0.103 C 
HETATM    3  C3  UNL     1     -33.122   6.179   3.417  1.00 20.00     0.183 C 
HETATM    4  O7  UNL     1     -33.577   4.874   3.035  1.00 20.00    -0.375 OA
HETATM    5  S8  UNL     1     -34.092   6.742   4.841  1.00 20.00    -0.135 SA
ENDROOT
BRANCH   3   6
HETATM    6  C5  UNL     1     -33.280   7.118   2.235  1.00 20.00     0.057 C 
BRANCH   6   7
HETATM    7  C6  UNL     1     -32.560   8.463   2.407  1.00 20.00     0.043 C 
HETATM    8  C4  UNL     1     -31.304   8.301   3.262  1.00 20.00     0.021 C 
BRANCH   7   9
HETATM    9  S9  UNL     1     -32.084   9.194   0.801  1.00 20.00    -0.178 SA
HETATM   10  H21 UNL     1     -31.535   8.077   0.308  1.00 20.00     0.102 HD
ENDBRANCH   7   9
ENDBRANCH   6   7
ENDBRANCH   3   6
TORSDOF 3
ENDMDL
MODEL 3
REMARK VINA RESULT:      -3.6      1.231      1.315
REMARK  3 active torsions:
REMARK  status: ('A' for Active; 'I' for Inactive)
REMARK    1  A    between atoms: C3_3  and  C5_5 
REMARK    2  A    between atoms: C5_5  and  C6_6 
REMARK    3  A    between atoms: C6_6  and  S9_9 
ROOT
HETATM    1  C1  UNL     1     -33.867   7.093   5.865  1.00 20.00     0.179 C 
HETATM    2  C2  UNL     1     -34.364   5.742   5.383  1.00 20.00     0.103 C 
HETATM    3  C3  UNL     1     -33.640   7.491   3.595  1.00 20.00     0.183 C 
HETATM    4  O7  UNL     1     -32.987   7.621   4.865  1.00 20.00    -0.375 OA
HETATM    5  S8  UNL     1     -34.740   6.051   3.649  1.00 20.00    -0.135 SA
ENDROOT
BRANCH   3   6
HETATM    6  C5  UNL     1     -32.585   7.340   2.515  1.00 20.00     0.057 C 
BRANCH   6   7
HETATM    7  C6  UNL     1     -32.015   8.674   2.011  1.00 20.00     0.043 C 
HETATM    8  C4  UNL     1     -31.223   8.471   0.720  1.00 20.00     0.021 C 
BRANCH   7   9
HETATM    9  S9  UNL     1     -33.329   9.907   1.704  1.00 20.00    -0.178 SA
HETATM   10  H21 UNL     1     -34.327   9.154   2.184  1.00 20.00     0.102 HD
ENDBRANCH   7   9
ENDBRANCH   6   7
ENDBRANCH   3   6
TORSDOF 3
ENDMDL
MODEL 4
REMARK VINA RESULT:      -3.5     11.574     12.477
REMARK  3 active torsions:
REMARK  status: ('A' for Active; 'I' for Inactive)
REMARK    1  A    between atoms: C3_3  and  C5_5 
REMARK    2  A    between atoms: C5_5  and  C6_6 
REMARK    3  A    between atoms: C6_6  and  S9_9 
ROOT
HETATM    1  C1  UNL     1     -35.477  13.243  -7.504  1.00 20.00     0.179 C 
HETATM    2  C2  UNL     1     -36.375  14.464  -7.442  1.00 20.00     0.103 C 
HETATM    3  C3  UNL     1     -35.504  13.468  -5.200  1.00 20.00     0.183 C 
HETATM    4  O7  UNL     1     -34.654  13.241  -6.332  1.00 20.00    -0.375 OA
HETATM    5  S8  UNL     1     -36.919  14.473  -5.726  1.00 20.00    -0.135 SA
ENDROOT
BRANCH   3   6
HETATM    6  C5  UNL     1     -34.702  14.166  -4.117  1.00 20.00     0.057 C 
BRANCH   6   7
HETATM    7  C6  UNL     1     -34.821  15.697  -4.144  1.00 20.00     0.043 C 
HETATM    8  C4  UNL     1     -34.749  16.271  -2.730  1.00 20.00     0.021 C 
BRANCH   7   9
HETATM    9  S9  UNL     1     -33.506  16.466  -5.155  1.00 20.00    -0.178 SA
HETATM   10  H21 UNL     1     -33.757  17.721  -4.760  1.00 20.00     0.102 HD
ENDBRANCH   7   9
ENDBRANCH   6   7
ENDBRANCH   3   6
TORSDOF 3
ENDMDL
MODEL 5
REMARK VINA RESULT:      -3.5      2.180      4.706
REMARK  3 active torsions:
REMARK  status: ('A' for Active; 'I' for Inactive)
REMARK    1  A    between atoms: C3_3  and  C5_5 
REMARK    2  A    between atoms: C5_5  and  C6_6 
REMARK    3  A    between atoms: C6_6  and  S9_9 
ROOT
HETATM    1  C1  UNL     1     -33.139  10.323   1.104  1.00 20.00     0.179 C 
HETATM    2  C2  UNL     1     -32.770   9.458  -0.087  1.00 20.00     0.103 C 
HETATM    3  C3  UNL     1     -31.910   8.740   2.263  1.00 20.00     0.183 C 
HETATM    4  O7  UNL     1     -33.130   9.493   2.271  1.00 20.00    -0.375 OA
HETATM    5  S8  UNL     1     -31.400   8.474   0.543  1.00 20.00    -0.135 SA
ENDROOT
BRANCH   3   6
HETATM    6  C5  UNL     1     -32.142   7.423   2.979  1.00 20.00     0.057 C 
BRANCH   6   7
HETATM    7  C6  UNL     1     -33.560   7.263   3.545  1.00 20.00     0.043 C 
HETATM    8  C4  UNL     1     -34.188   5.952   3.074  1.00 20.00     0.021 C 
BRANCH   7   9
HETATM    9  S9  UNL     1     -33.575   7.294   5.373  1.00 20.00    -0.178 SA
HETATM   10  H21 UNL     1     -34.084   8.528   5.477  1.00 20.00     0.102 HD
ENDBRANCH   7   9
ENDBRANCH   6   7
ENDBRANCH   3   6
TORSDOF 3
ENDMDL
MODEL 6
REMARK VINA RESULT:      -3.4      2.060      4.508
REMARK  3 active torsions:
REMARK  status: ('A' for Active; 'I' for Inactive)
REMARK    1  A    between atoms: C3_3  and  C5_5 
REMARK    2  A    between atoms: C5_5  and  C6_6 
REMARK    3  A    between atoms: C6_6  and  S9_9 
ROOT
HETATM    1  C1  UNL     1     -32.670   9.105   1.167  1.00 20.00     0.179 C 
HETATM    2  C2  UNL     1     -31.256   8.819   1.637  1.00 20.00     0.103 C 
HETATM    3  C3  UNL     1     -33.223   7.658   2.887  1.00 20.00     0.183 C 
HETATM    4  O7  UNL     1     -33.487   7.981   1.515  1.00 20.00    -0.375 OA
HETATM    5  S8  UNL     1     -31.515   8.124   3.278  1.00 20.00    -0.135 SA
ENDROOT
BRANCH   3   6
HETATM    6  C5  UNL     1     -33.451   6.172   3.092  1.00 20.00     0.057 C 
BRANCH   6   7
HETATM    7  C6  UNL     1     -34.440   5.843   4.219  1.00 20.00     0.043 C 
HETATM    8  C4  UNL     1     -34.432   4.347   4.529  1.00 20.00     0.021 C 
BRANCH   7   9
HETATM    9  S9  UNL     1     -34.056   6.759   5.754  1.00 20.00    -0.178 SA
HETATM   10  H21 UNL     1     -34.253   7.975   5.231  1.00 20.00     0.102 HD
ENDBRANCH   7   9
ENDBRANCH   6   7
ENDBRANCH   3   6
TORSDOF 3
ENDMDL
MODEL 7
REMARK VINA RESULT:      -3.4     11.704     12.666
REMARK  3 active torsions:
REMARK  status: ('A' for Active; 'I' for Inactive)
REMARK    1  A    between atoms: C3_3  and  C5_5 
REMARK    2  A    between atoms: C5_5  and  C6_6 
REMARK    3  A    between atoms: C6_6  and  S9_9 
ROOT
HETATM    1  C1  UNL     1     -35.203  13.189  -7.368  1.00 20.00     0.179 C 
HETATM    2  C2  UNL     1     -34.070  14.051  -7.894  1.00 20.00     0.103 C 
HETATM    3  C3  UNL     1     -34.987  14.554  -5.510  1.00 20.00     0.183 C 
HETATM    4  O7  UNL     1     -35.132  13.193  -5.937  1.00 20.00    -0.375 OA
HETATM    5  S8  UNL     1     -34.117  15.481  -6.802  1.00 20.00    -0.135 SA
ENDROOT
BRANCH   3   6
HETATM    6  C5  UNL     1     -34.221  14.578  -4.201  1.00 20.00     0.057 C 
BRANCH   6   7
HETATM    7  C6  UNL     1     -34.699  15.655  -3.218  1.00 20.00     0.043 C 
HETATM    8  C4  UNL     1     -33.699  16.808  -3.147  1.00 20.00     0.021 C 
BRANCH   7   9
HETATM    9  S9  UNL     1     -36.334  16.328  -3.684  1.00 20.00    -0.178 SA
HETATM   10  H21 UNL     1     -36.303  17.352  -2.822  1.00 20.00     0.102 HD
ENDBRANCH   7   9
ENDBRANCH   6   7
ENDBRANCH   3   6
TORSDOF 3
ENDMDL
MODEL 8
REMARK VINA RESULT:      -3.3     11.533     12.134
REMARK  3 active torsions:
REMARK  status: ('A' for Active; 'I' for Inactive)
REMARK    1  A    between atoms: C3_3  and  C5_5 
REMARK    2  A    between atoms: C5_5  and  C6_6 
REMARK    3  A    between atoms: C6_6  and  S9_9 
ROOT
HETATM    1  C1  UNL     1     -35.903  13.333  -5.351  1.00 20.00     0.179 C 
HETATM    2  C2  UNL     1     -36.734  14.569  -5.642  1.00 20.00     0.103 C 
HETATM    3  C3  UNL     1     -34.856  14.748  -3.848  1.00 20.00     0.183 C 
HETATM    4  O7  UNL     1     -34.627  13.763  -4.865  1.00 20.00    -0.375 OA
HETATM    5  S8  UNL     1     -36.405  15.616  -4.215  1.00 20.00    -0.135 SA
ENDROOT
BRANCH   3   6
HETATM    6  C5  UNL     1     -33.679  15.707  -3.821  1.00 20.00     0.057 C 
BRANCH   6   7
HETATM    7  C6  UNL     1     -34.024  17.101  -3.280  1.00 20.00     0.043 C 
HETATM    8  C4  UNL     1     -33.390  17.321  -1.907  1.00 20.00     0.021 C 
BRANCH   7   9
HETATM    9  S9  UNL     1     -33.461  18.429  -4.403  1.00 20.00    -0.178 SA
HETATM   10  H21 UNL     1     -32.159  18.289  -4.126  1.00 20.00     0.102 HD
ENDBRANCH   7   9
ENDBRANCH   6   7
ENDBRANCH   3   6
TORSDOF 3
ENDMDL
MODEL 9
REMARK VINA RESULT:      -3.3     11.683     12.580
REMARK  3 active torsions:
REMARK  status: ('A' for Active; 'I' for Inactive)
REMARK    1  A    between atoms: C3_3  and  C5_5 
REMARK    2  A    between atoms: C5_5  and  C6_6 
REMARK    3  A    between atoms: C6_6  and  S9_9 
ROOT
HETATM    1  C1  UNL     1     -33.623  15.439  -6.456  1.00 20.00     0.179 C 
HETATM    2  C2  UNL     1     -34.945  14.793  -6.086  1.00 20.00     0.103 C 
HETATM    3  C3  UNL     1     -33.368  15.547  -4.157  1.00 20.00     0.183 C 
HETATM    4  O7  UNL     1     -33.232  16.293  -5.374  1.00 20.00    -0.375 OA
HETATM    5  S8  UNL     1     -34.696  14.330  -4.364  1.00 20.00    -0.135 SA
ENDROOT
BRANCH   3   6
HETATM    6  C5  UNL     1     -33.673  16.510  -3.024  1.00 20.00     0.057 C 
BRANCH   6   7
HETATM    7  C6  UNL     1     -35.167  16.627  -2.692  1.00 20.00     0.043 C 
HETATM    8  C4  UNL     1     -35.371  16.929  -1.208  1.00 20.00     0.021 C 
BRANCH   7   9
HETATM    9  S9  UNL     1     -35.984  17.937  -3.672  1.00 20.00    -0.178 SA
HETATM   10  H21 UNL     1     -36.160  18.776  -2.644  1.00 20.00     0.102 HD
ENDBRANCH   7   9
ENDBRANCH   6   7
ENDBRANCH   3   6
TORSDOF 3
ENDMDL
