MODEL 1
REMARK VINA RESULT:      -5.0      0.000      0.000
REMARK  1 active torsions:
REMARK  status: ('A' for Active; 'I' for Inactive)
REMARK    1  A    between atoms: C2_2  and  C5_5 
ROOT
HETATM    1  C1  UNL     1     -32.444   7.496   3.430  1.00 20.00     0.077 C 
HETATM    2  C3  UNL     1     -34.441   6.210   2.583  1.00 20.00     0.034 A 
HETATM    3  C4  UNL     1     -33.394   5.209   2.962  1.00 20.00     0.034 A 
HETATM    4  C5  UNL     1     -33.472   6.527   3.702  1.00 20.00     0.109 A 
HETATM    5  N7  UNL     1     -31.615   8.278   3.211  1.00 20.00    -0.196 NA
ENDROOT
BRANCH   4   6
HETATM    6  C2  UNL     1     -33.990   6.508   5.083  1.00 20.00     0.145 C 
HETATM    7  C6  UNL     1     -34.605   5.218   5.556  1.00 20.00     0.093 C 
HETATM    8  O8  UNL     1     -33.923   7.496   5.811  1.00 20.00    -0.296 OA
ENDBRANCH   4   6
TORSDOF 1
ENDMDL
MODEL 2
REMARK VINA RESULT:      -4.8      2.178      2.993
REMARK  1 active torsions:
REMARK  status: ('A' for Active; 'I' for Inactive)
REMARK    1  A    between atoms: C2_2  and  C5_5 
ROOT
HETATM    1  C1  UNL     1     -33.777   6.944   5.268  1.00 20.00     0.077 C 
HETATM    2  C3  UNL     1     -34.708   4.720   4.527  1.00 20.00     0.034 A 
HETATM    3  C4  UNL     1     -35.523   5.787   3.864  1.00 20.00     0.034 A 
HETATM    4  C5  UNL     1     -34.066   6.046   4.181  1.00 20.00     0.109 A 
HETATM    5  N7  UNL     1     -33.544   7.667   6.145  1.00 20.00    -0.196 NA
ENDROOT
BRANCH   4   6
HETATM    6  C2  UNL     1     -33.114   6.072   3.055  1.00 20.00     0.145 C 
HETATM    7  C6  UNL     1     -32.571   7.419   2.660  1.00 20.00     0.093 C 
HETATM    8  O8  UNL     1     -32.781   5.044   2.468  1.00 20.00    -0.296 OA
ENDBRANCH   4   6
TORSDOF 1
ENDMDL
MODEL 3
REMARK VINA RESULT:      -4.8      2.042      3.077
REMARK  1 active torsions:
REMARK  status: ('A' for Active; 'I' for Inactive)
REMARK    1  A    between atoms: C2_2  and  C5_5 
ROOT
HETATM    1  C1  UNL     1     -33.587   7.064   4.816  1.00 20.00     0.077 C 
HETATM    2  C3  UNL     1     -33.011   5.485   2.936  1.00 20.00     0.034 A 
HETATM    3  C4  UNL     1     -34.158   6.330   2.472  1.00 20.00     0.034 A 
HETATM    4  C5  UNL     1     -33.156   6.900   3.453  1.00 20.00     0.109 A 
HETATM    5  N7  UNL     1     -33.935   7.196   5.915  1.00 20.00    -0.196 NA
ENDROOT
BRANCH   4   6
HETATM    6  C2  UNL     1     -32.206   7.912   2.952  1.00 20.00     0.145 C 
HETATM    7  C6  UNL     1     -32.529   8.542   1.625  1.00 20.00     0.093 C 
HETATM    8  O8  UNL     1     -31.201   8.225   3.588  1.00 20.00    -0.296 OA
ENDBRANCH   4   6
TORSDOF 1
ENDMDL
MODEL 4
REMARK VINA RESULT:      -4.6      1.746      2.627
REMARK  1 active torsions:
REMARK  status: ('A' for Active; 'I' for Inactive)
REMARK    1  A    between atoms: C2_2  and  C5_5 
ROOT
HETATM    1  C1  UNL     1     -33.278   5.008   2.938  1.00 20.00     0.077 C 
HETATM    2  C3  UNL     1     -35.422   5.946   3.876  1.00 20.00     0.034 A 
HETATM    3  C4  UNL     1     -34.700   5.273   5.002  1.00 20.00     0.034 A 
HETATM    4  C5  UNL     1     -33.909   5.899   3.874  1.00 20.00     0.109 A 
HETATM    5  N7  UNL     1     -32.768   4.289   2.183  1.00 20.00    -0.196 NA
ENDROOT
BRANCH   4   6
HETATM    6  C2  UNL     1     -33.185   7.153   4.159  1.00 20.00     0.145 C 
HETATM    7  C6  UNL     1     -32.524   7.831   2.989  1.00 20.00     0.093 C 
HETATM    8  O8  UNL     1     -33.126   7.620   5.294  1.00 20.00    -0.296 OA
ENDBRANCH   4   6
TORSDOF 1
ENDMDL
MODEL 5
REMARK VINA RESULT:      -4.5      2.217      2.590
REMARK  1 active torsions:
REMARK  status: ('A' for Active; 'I' for Inactive)
REMARK    1  A    between atoms: C2_2  and  C5_5 
ROOT
HETATM    1  C1  UNL     1     -33.635   7.131   5.064  1.00 20.00     0.077 C 
HETATM    2  C3  UNL     1     -33.593   7.688   2.604  1.00 20.00     0.034 A 
HETATM    3  C4  UNL     1     -32.185   7.386   3.017  1.00 20.00     0.034 A 
HETATM    4  C5  UNL     1     -33.335   6.701   3.723  1.00 20.00     0.109 A 
HETATM    5  N7  UNL     1     -33.877   7.477   6.144  1.00 20.00    -0.196 NA
ENDROOT
BRANCH   4   6
HETATM    6  C2  UNL     1     -33.560   5.271   3.440  1.00 20.00     0.145 C 
HETATM    7  C6  UNL     1     -34.541   4.553   4.327  1.00 20.00     0.093 C 
HETATM    8  O8  UNL     1     -32.975   4.695   2.525  1.00 20.00    -0.296 OA
ENDBRANCH   4   6
TORSDOF 1
ENDMDL
MODEL 6
REMARK VINA RESULT:      -4.2      1.590      2.205
REMARK  1 active torsions:
REMARK  status: ('A' for Active; 'I' for Inactive)
REMARK    1  A    between atoms: C2_2  and  C5_5 
ROOT
HETATM    1  C1  UNL     1     -33.058   5.542   2.923  1.00 20.00     0.077 C 
HETATM    2  C3  UNL     1     -32.013   7.774   3.456  1.00 20.00     0.034 A 
HETATM    3  C4  UNL     1     -33.313   8.045   2.765  1.00 20.00     0.034 A 
HETATM    4  C5  UNL     1     -33.161   6.801   3.613  1.00 20.00     0.109 A 
HETATM    5  N7  UNL     1     -32.974   4.527   2.367  1.00 20.00    -0.196 NA
ENDROOT
BRANCH   4   6
HETATM    6  C2  UNL     1     -33.858   6.767   4.912  1.00 20.00     0.145 C 
HETATM    7  C6  UNL     1     -34.707   5.557   5.192  1.00 20.00     0.093 C 
HETATM    8  O8  UNL     1     -33.750   7.682   5.727  1.00 20.00    -0.296 OA
ENDBRANCH   4   6
TORSDOF 1
ENDMDL
MODEL 7
REMARK VINA RESULT:      -4.1      2.328      2.801
REMARK  1 active torsions:
REMARK  status: ('A' for Active; 'I' for Inactive)
REMARK    1  A    between atoms: C2_2  and  C5_5 
ROOT
HETATM    1  C1  UNL     1     -34.470   5.036   4.626  1.00 20.00     0.077 C 
HETATM    2  C3  UNL     1     -33.019   5.320   2.583  1.00 20.00     0.034 A 
HETATM    3  C4  UNL     1     -34.292   6.068   2.333  1.00 20.00     0.034 A 
HETATM    4  C5  UNL     1     -33.769   5.933   3.746  1.00 20.00     0.109 A 
HETATM    5  N7  UNL     1     -35.036   4.313   5.336  1.00 20.00    -0.196 NA
ENDROOT
BRANCH   4   6
HETATM    6  C2  UNL     1     -33.187   7.132   4.379  1.00 20.00     0.145 C 
HETATM    7  C6  UNL     1     -33.628   7.434   5.786  1.00 20.00     0.093 C 
HETATM    8  O8  UNL     1     -32.382   7.848   3.787  1.00 20.00    -0.296 OA
ENDBRANCH   4   6
TORSDOF 1
ENDMDL
MODEL 8
REMARK VINA RESULT:      -4.1      1.834      2.365
REMARK  1 active torsions:
REMARK  status: ('A' for Active; 'I' for Inactive)
REMARK    1  A    between atoms: C2_2  and  C5_5 
ROOT
HETATM    1  C1  UNL     1     -32.665   7.465   2.811  1.00 20.00     0.077 C 
HETATM    2  C3  UNL     1     -33.403   7.132   5.199  1.00 20.00     0.034 A 
HETATM    3  C4  UNL     1     -34.634   7.376   4.382  1.00 20.00     0.034 A 
HETATM    4  C5  UNL     1     -33.439   6.697   3.749  1.00 20.00     0.109 A 
HETATM    5  N7  UNL     1     -32.041   8.085   2.053  1.00 20.00    -0.196 NA
ENDROOT
BRANCH   4   6
HETATM    6  C2  UNL     1     -33.540   5.252   3.471  1.00 20.00     0.145 C 
HETATM    7  C6  UNL     1     -34.459   4.456   4.357  1.00 20.00     0.093 C 
HETATM    8  O8  UNL     1     -32.905   4.725   2.559  1.00 20.00    -0.296 OA
ENDBRANCH   4   6
TORSDOF 1
ENDMDL
MODEL 9
REMARK VINA RESULT:      -4.0      2.134      3.223
REMARK  1 active torsions:
REMARK  status: ('A' for Active; 'I' for Inactive)
REMARK    1  A    between atoms: C2_2  and  C5_5 
ROOT
HETATM    1  C1  UNL     1     -33.053   5.657   2.988  1.00 20.00     0.077 C 
HETATM    2  C3  UNL     1     -34.482   7.438   4.060  1.00 20.00     0.034 A 
HETATM    3  C4  UNL     1     -33.473   7.004   5.078  1.00 20.00     0.034 A 
HETATM    4  C5  UNL     1     -33.121   6.955   3.607  1.00 20.00     0.109 A 
HETATM    5  N7  UNL     1     -32.998   4.611   2.490  1.00 20.00    -0.196 NA
ENDROOT
BRANCH   4   6
HETATM    6  C2  UNL     1     -32.173   7.962   3.095  1.00 20.00     0.145 C 
HETATM    7  C6  UNL     1     -32.363   8.406   1.670  1.00 20.00     0.093 C 
HETATM    8  O8  UNL     1     -31.273   8.418   3.798  1.00 20.00    -0.296 OA
ENDBRANCH   4   6
TORSDOF 1
ENDMDL
