MODEL 1
REMARK VINA RESULT:      -4.9      0.000      0.000
REMARK  1 active torsions:
REMARK  status: ('A' for Active; 'I' for Inactive)
REMARK    1  A    between atoms: C5_5  and  C6_6 
ROOT
HETATM    1  C1  UNL     1     -33.680   6.177   2.867  1.00 20.00     0.015 C 
HETATM    2  C2  UNL     1     -32.756   7.617   4.753  1.00 20.00     0.015 C 
HETATM    3  C3  UNL     1     -34.890   5.718   3.672  1.00 20.00     0.074 C 
HETATM    4  C4  UNL     1     -33.891   7.274   5.709  1.00 20.00     0.074 C 
HETATM    5  C5  UNL     1     -33.172   7.567   3.275  1.00 20.00    -0.003 C 
HETATM    6  S7  UNL     1     -34.516   5.592   5.442  1.00 20.00    -0.169 SA
ENDROOT
BRANCH   5   7
HETATM    7  C6  UNL     1     -31.999   7.980   2.385  1.00 20.00     0.089 C 
HETATM    8 BR8  UNL     1     -32.530   9.479   1.277  1.00 20.00    -0.096 Br
ENDBRANCH   5   7
TORSDOF 1
ENDMDL
MODEL 2
REMARK VINA RESULT:      -4.4      0.981      2.002
REMARK  1 active torsions:
REMARK  status: ('A' for Active; 'I' for Inactive)
REMARK    1  A    between atoms: C5_5  and  C6_6 
ROOT
HETATM    1  C1  UNL     1     -33.362   7.708   4.926  1.00 20.00     0.015 C 
HETATM    2  C2  UNL     1     -33.079   6.607   2.647  1.00 20.00     0.015 C 
HETATM    3  C3  UNL     1     -34.029   6.487   5.547  1.00 20.00     0.074 C 
HETATM    4  C4  UNL     1     -33.724   5.297   3.085  1.00 20.00     0.074 C 
HETATM    5  C5  UNL     1     -32.385   7.355   3.795  1.00 20.00    -0.003 C 
HETATM    6  S7  UNL     1     -35.012   5.563   4.335  1.00 20.00    -0.169 SA
ENDROOT
BRANCH   5   7
HETATM    7  C6  UNL     1     -31.713   8.623   3.265  1.00 20.00     0.089 C 
HETATM    8 BR8  UNL     1     -32.205   8.883   1.409  1.00 20.00    -0.096 Br
ENDBRANCH   5   7
TORSDOF 1
ENDMDL
MODEL 3
REMARK VINA RESULT:      -3.6      2.954      3.974
REMARK  1 active torsions:
REMARK  status: ('A' for Active; 'I' for Inactive)
REMARK    1  A    between atoms: C5_5  and  C6_6 
ROOT
HETATM    1  C1  UNL     1     -33.455   7.138   5.062  1.00 20.00     0.015 C 
HETATM    2  C2  UNL     1     -33.396   6.655   2.562  1.00 20.00     0.015 C 
HETATM    3  C3  UNL     1     -32.565   8.370   4.949  1.00 20.00     0.074 C 
HETATM    4  C4  UNL     1     -32.503   7.848   2.248  1.00 20.00     0.074 C 
HETATM    5  C5  UNL     1     -34.284   6.870   3.798  1.00 20.00    -0.003 C 
HETATM    6  S7  UNL     1     -31.356   8.210   3.607  1.00 20.00    -0.169 SA
ENDROOT
BRANCH   5   7
HETATM    7  C6  UNL     1     -35.191   5.657   4.011  1.00 20.00     0.089 C 
HETATM    8 BR8  UNL     1     -34.571   4.653   5.548  1.00 20.00    -0.096 Br
ENDBRANCH   5   7
TORSDOF 1
ENDMDL
MODEL 4
REMARK VINA RESULT:      -3.4     11.421     12.133
REMARK  1 active torsions:
REMARK  status: ('A' for Active; 'I' for Inactive)
REMARK    1  A    between atoms: C5_5  and  C6_6 
ROOT
HETATM    1  C1  UNL     1     -34.940  15.327  -3.521  1.00 20.00     0.015 C 
HETATM    2  C2  UNL     1     -33.359  16.757  -4.915  1.00 20.00     0.015 C 
HETATM    3  C3  UNL     1     -35.005  14.209  -4.555  1.00 20.00     0.074 C 
HETATM    4  C4  UNL     1     -33.296  15.754  -6.060  1.00 20.00     0.074 C 
HETATM    5  C5  UNL     1     -33.615  16.103  -3.549  1.00 20.00    -0.003 C 
HETATM    6  S7  UNL     1     -34.854  14.843  -6.247  1.00 20.00    -0.169 SA
ENDROOT
BRANCH   5   7
HETATM    7  C6  UNL     1     -33.604  17.164  -2.448  1.00 20.00     0.089 C 
HETATM    8 BR8  UNL     1     -35.229  17.022  -1.402  1.00 20.00    -0.096 Br
ENDBRANCH   5   7
TORSDOF 1
ENDMDL
MODEL 5
REMARK VINA RESULT:      -3.3     11.315     12.225
REMARK  1 active torsions:
REMARK  status: ('A' for Active; 'I' for Inactive)
REMARK    1  A    between atoms: C5_5  and  C6_6 
ROOT
HETATM    1  C1  UNL     1     -33.479  15.629  -5.887  1.00 20.00     0.015 C 
HETATM    2  C2  UNL     1     -34.942  14.167  -4.402  1.00 20.00     0.015 C 
HETATM    3  C3  UNL     1     -34.162  15.183  -7.174  1.00 20.00     0.074 C 
HETATM    4  C4  UNL     1     -35.744  13.604  -5.569  1.00 20.00     0.074 C 
HETATM    5  C5  UNL     1     -34.403  15.581  -4.662  1.00 20.00    -0.003 C 
HETATM    6  S7  UNL     1     -34.740  13.467  -7.075  1.00 20.00    -0.169 SA
ENDROOT
BRANCH   5   7
HETATM    7  C6  UNL     1     -33.665  16.098  -3.426  1.00 20.00     0.089 C 
HETATM    8 BR8  UNL     1     -34.954  16.716  -2.119  1.00 20.00    -0.096 Br
ENDBRANCH   5   7
TORSDOF 1
ENDMDL
MODEL 6
REMARK VINA RESULT:      -3.3     11.363     11.659
REMARK  1 active torsions:
REMARK  status: ('A' for Active; 'I' for Inactive)
REMARK    1  A    between atoms: C5_5  and  C6_6 
ROOT
HETATM    1  C1  UNL     1     -33.537  15.023  -4.212  1.00 20.00     0.015 C 
HETATM    2  C2  UNL     1     -35.794  15.827  -3.346  1.00 20.00     0.015 C 
HETATM    3  C3  UNL     1     -34.129  14.385  -5.463  1.00 20.00     0.074 C 
HETATM    4  C4  UNL     1     -36.567  15.254  -4.528  1.00 20.00     0.074 C 
HETATM    5  C5  UNL     1     -34.351  16.220  -3.699  1.00 20.00    -0.003 C 
HETATM    6  S7  UNL     1     -35.798  13.739  -5.168  1.00 20.00    -0.169 SA
ENDROOT
BRANCH   5   7
HETATM    7  C6  UNL     1     -33.663  16.840  -2.481  1.00 20.00     0.089 C 
HETATM    8 BR8  UNL     1     -34.988  17.221  -1.120  1.00 20.00    -0.096 Br
ENDBRANCH   5   7
TORSDOF 1
ENDMDL
MODEL 7
REMARK VINA RESULT:      -3.3     11.412     11.719
REMARK  1 active torsions:
REMARK  status: ('A' for Active; 'I' for Inactive)
REMARK    1  A    between atoms: C5_5  and  C6_6 
ROOT
HETATM    1  C1  UNL     1     -36.075  15.707  -3.985  1.00 20.00     0.015 C 
HETATM    2  C2  UNL     1     -33.546  15.862  -3.731  1.00 20.00     0.015 C 
HETATM    3  C3  UNL     1     -36.017  14.431  -4.816  1.00 20.00     0.074 C 
HETATM    4  C4  UNL     1     -33.284  14.599  -4.541  1.00 20.00     0.074 C 
HETATM    5  C5  UNL     1     -34.901  15.848  -3.006  1.00 20.00    -0.003 C 
HETATM    6  S7  UNL     1     -34.524  14.362  -5.844  1.00 20.00    -0.169 SA
ENDROOT
BRANCH   5   7
HETATM    7  C6  UNL     1     -35.062  17.119  -2.170  1.00 20.00     0.089 C 
HETATM    8 BR8  UNL     1     -33.317  17.746  -1.610  1.00 20.00    -0.096 Br
ENDBRANCH   5   7
TORSDOF 1
ENDMDL
MODEL 8
REMARK VINA RESULT:      -3.3     11.428     11.814
REMARK  1 active torsions:
REMARK  status: ('A' for Active; 'I' for Inactive)
REMARK    1  A    between atoms: C5_5  and  C6_6 
ROOT
HETATM    1  C1  UNL     1     -33.332  17.695  -2.345  1.00 20.00     0.015 C 
HETATM    2  C2  UNL     1     -35.517  17.227  -1.122  1.00 20.00     0.015 C 
HETATM    3  C3  UNL     1     -32.652  18.285  -1.116  1.00 20.00     0.074 C 
HETATM    4  C4  UNL     1     -35.012  17.779   0.205  1.00 20.00     0.074 C 
HETATM    5  C5  UNL     1     -34.400  16.645  -2.001  1.00 20.00    -0.003 C 
HETATM    6  S7  UNL     1     -33.832  19.137  -0.033  1.00 20.00    -0.169 SA
ENDROOT
BRANCH   5   7
HETATM    7  C6  UNL     1     -34.992  16.059  -3.284  1.00 20.00     0.089 C 
HETATM    8 BR8  UNL     1     -33.628  15.047  -4.218  1.00 20.00    -0.096 Br
ENDBRANCH   5   7
TORSDOF 1
ENDMDL
MODEL 9
REMARK VINA RESULT:      -3.2     11.471     12.015
REMARK  1 active torsions:
REMARK  status: ('A' for Active; 'I' for Inactive)
REMARK    1  A    between atoms: C5_5  and  C6_6 
ROOT
HETATM    1  C1  UNL     1     -32.852  18.022  -1.235  1.00 20.00     0.015 C 
HETATM    2  C2  UNL     1     -35.124  17.428  -0.249  1.00 20.00     0.015 C 
HETATM    3  C3  UNL     1     -33.302  17.794  -2.673  1.00 20.00     0.074 C 
HETATM    4  C4  UNL     1     -35.756  17.152  -1.608  1.00 20.00     0.074 C 
HETATM    5  C5  UNL     1     -33.992  18.465  -0.306  1.00 20.00    -0.003 C 
HETATM    6  S7  UNL     1     -34.553  16.486  -2.791  1.00 20.00    -0.169 SA
ENDROOT
BRANCH   5   7
HETATM    7  C6  UNL     1     -33.452  18.731   1.100  1.00 20.00     0.089 C 
HETATM    8 BR8  UNL     1     -31.519  18.850   1.034  1.00 20.00    -0.096 Br
ENDBRANCH   5   7
TORSDOF 1
ENDMDL
