MODEL 1
REMARK VINA RESULT:      -4.6      0.000      0.000
REMARK  2 active torsions:
REMARK  status: ('A' for Active; 'I' for Inactive)
REMARK    1  A    between atoms: C1_1  and  C4_4 
REMARK    2  A    between atoms: C4_4  and  C5_5 
ROOT
HETATM    1  C2  UNL     1     -34.519   4.914   4.462  1.00 20.00     0.020 A 
HETATM    2  C3  UNL     1     -35.417   5.908   3.792  1.00 20.00     0.020 A 
HETATM    3  C4  UNL     1     -33.988   6.290   4.118  1.00 20.00     0.039 A 
ENDROOT
BRANCH   3   4
HETATM    4  C1  UNL     1     -33.041   6.379   2.981  1.00 20.00     0.243 C 
HETATM    5  O6  UNL     1     -32.354   7.369   2.748  1.00 20.00    -0.306 OA
ENDBRANCH   3   4
BRANCH   3   6
HETATM    6  C5  UNL     1     -33.778   7.250   5.262  1.00 20.00     0.238 C 
HETATM    7  F7  UNL     1     -34.282   6.697   6.399  1.00 20.00    -0.254 F 
ENDBRANCH   3   6
TORSDOF 2
ENDMDL
MODEL 2
REMARK VINA RESULT:      -4.4      1.940      2.490
REMARK  2 active torsions:
REMARK  status: ('A' for Active; 'I' for Inactive)
REMARK    1  A    between atoms: C1_1  and  C4_4 
REMARK    2  A    between atoms: C4_4  and  C5_5 
ROOT
HETATM    1  C2  UNL     1     -35.435   5.815   3.817  1.00 20.00     0.020 A 
HETATM    2  C3  UNL     1     -34.475   4.779   4.316  1.00 20.00     0.020 A 
HETATM    3  C4  UNL     1     -34.068   6.239   4.316  1.00 20.00     0.039 A 
ENDROOT
BRANCH   3   4
HETATM    4  C1  UNL     1     -34.015   6.920   5.631  1.00 20.00     0.243 C 
HETATM    5  O6  UNL     1     -33.091   7.650   5.979  1.00 20.00    -0.306 OA
ENDBRANCH   3   4
BRANCH   3   6
HETATM    6  C5  UNL     1     -33.063   6.670   3.278  1.00 20.00     0.238 C 
HETATM    7  F7  UNL     1     -33.348   7.943   2.891  1.00 20.00    -0.254 F 
ENDBRANCH   3   6
TORSDOF 2
ENDMDL
MODEL 3
REMARK VINA RESULT:      -4.4      2.025      2.520
REMARK  2 active torsions:
REMARK  status: ('A' for Active; 'I' for Inactive)
REMARK    1  A    between atoms: C1_1  and  C4_4 
REMARK    2  A    between atoms: C4_4  and  C5_5 
ROOT
HETATM    1  C2  UNL     1     -33.100   5.511   2.918  1.00 20.00     0.020 A 
HETATM    2  C3  UNL     1     -34.430   6.100   2.557  1.00 20.00     0.020 A 
HETATM    3  C4  UNL     1     -34.073   5.891   4.015  1.00 20.00     0.039 A 
ENDROOT
BRANCH   3   4
HETATM    4  C1  UNL     1     -33.752   7.102   4.807  1.00 20.00     0.243 C 
HETATM    5  O6  UNL     1     -33.795   7.139   6.033  1.00 20.00    -0.306 OA
ENDBRANCH   3   4
BRANCH   3   6
HETATM    6  C5  UNL     1     -34.768   4.763   4.736  1.00 20.00     0.238 C 
HETATM    7  F7  UNL     1     -33.977   3.657   4.689  1.00 20.00    -0.254 F 
ENDBRANCH   3   6
TORSDOF 2
ENDMDL
MODEL 4
REMARK VINA RESULT:      -4.4      1.039      1.039
REMARK  2 active torsions:
REMARK  status: ('A' for Active; 'I' for Inactive)
REMARK    1  A    between atoms: C1_1  and  C4_4 
REMARK    2  A    between atoms: C4_4  and  C5_5 
ROOT
HETATM    1  C2  UNL     1     -34.627   4.926   4.728  1.00 20.00     0.020 A 
HETATM    2  C3  UNL     1     -35.469   5.846   3.898  1.00 20.00     0.020 A 
HETATM    3  C4  UNL     1     -33.994   6.141   4.080  1.00 20.00     0.039 A 
ENDROOT
BRANCH   3   4
HETATM    4  C1  UNL     1     -33.112   5.897   2.914  1.00 20.00     0.243 C 
HETATM    5  O6  UNL     1     -32.753   4.778   2.559  1.00 20.00    -0.306 OA
ENDBRANCH   3   4
BRANCH   3   6
HETATM    6  C5  UNL     1     -33.631   7.290   4.986  1.00 20.00     0.238 C 
HETATM    7  F7  UNL     1     -33.983   6.973   6.262  1.00 20.00    -0.254 F 
ENDBRANCH   3   6
TORSDOF 2
ENDMDL
MODEL 5
REMARK VINA RESULT:      -4.2      1.722      2.423
REMARK  2 active torsions:
REMARK  status: ('A' for Active; 'I' for Inactive)
REMARK    1  A    between atoms: C1_1  and  C4_4 
REMARK    2  A    between atoms: C4_4  and  C5_5 
ROOT
HETATM    1  C2  UNL     1     -33.801   7.469   2.966  1.00 20.00     0.020 A 
HETATM    2  C3  UNL     1     -32.774   6.399   3.174  1.00 20.00     0.020 A 
HETATM    3  C4  UNL     1     -33.896   6.566   4.179  1.00 20.00     0.039 A 
ENDROOT
BRANCH   3   4
HETATM    4  C1  UNL     1     -34.965   5.539   4.169  1.00 20.00     0.243 C 
HETATM    5  O6  UNL     1     -34.799   4.386   4.556  1.00 20.00    -0.306 OA
ENDBRANCH   3   4
BRANCH   3   6
HETATM    6  C5  UNL     1     -33.537   7.171   5.513  1.00 20.00     0.238 C 
HETATM    7  F7  UNL     1     -34.461   6.785   6.434  1.00 20.00    -0.254 F 
ENDBRANCH   3   6
TORSDOF 2
ENDMDL
MODEL 6
REMARK VINA RESULT:      -4.0      2.114      2.460
REMARK  2 active torsions:
REMARK  status: ('A' for Active; 'I' for Inactive)
REMARK    1  A    between atoms: C1_1  and  C4_4 
REMARK    2  A    between atoms: C4_4  and  C5_5 
ROOT
HETATM    1  C2  UNL     1     -35.391   5.886   3.879  1.00 20.00     0.020 A 
HETATM    2  C3  UNL     1     -34.515   5.961   5.092  1.00 20.00     0.020 A 
HETATM    3  C4  UNL     1     -33.885   5.916   3.714  1.00 20.00     0.039 A 
ENDROOT
BRANCH   3   4
HETATM    4  C1  UNL     1     -33.290   7.175   3.207  1.00 20.00     0.243 C 
HETATM    5  O6  UNL     1     -32.085   7.408   3.220  1.00 20.00    -0.306 OA
ENDBRANCH   3   4
BRANCH   3   6
HETATM    6  C5  UNL     1     -33.214   4.627   3.310  1.00 20.00     0.238 C 
HETATM    7  F7  UNL     1     -32.953   4.667   1.975  1.00 20.00    -0.254 F 
ENDBRANCH   3   6
TORSDOF 2
ENDMDL
MODEL 7
REMARK VINA RESULT:      -4.0      2.186      3.095
REMARK  2 active torsions:
REMARK  status: ('A' for Active; 'I' for Inactive)
REMARK    1  A    between atoms: C1_1  and  C4_4 
REMARK    2  A    between atoms: C4_4  and  C5_5 
ROOT
HETATM    1  C2  UNL     1     -31.825   7.739   3.247  1.00 20.00     0.020 A 
HETATM    2  C3  UNL     1     -32.953   8.030   2.305  1.00 20.00     0.020 A 
HETATM    3  C4  UNL     1     -33.090   6.907   3.313  1.00 20.00     0.039 A 
ENDROOT
BRANCH   3   4
HETATM    4  C1  UNL     1     -33.992   7.146   4.465  1.00 20.00     0.243 C 
HETATM    5  O6  UNL     1     -33.604   7.199   5.628  1.00 20.00    -0.306 OA
ENDBRANCH   3   4
BRANCH   3   6
HETATM    6  C5  UNL     1     -33.012   5.497   2.785  1.00 20.00     0.238 C 
HETATM    7  F7  UNL     1     -33.800   4.695   3.550  1.00 20.00    -0.254 F 
ENDBRANCH   3   6
TORSDOF 2
ENDMDL
MODEL 8
REMARK VINA RESULT:      -3.8      2.485      3.066
REMARK  2 active torsions:
REMARK  status: ('A' for Active; 'I' for Inactive)
REMARK    1  A    between atoms: C1_1  and  C4_4 
REMARK    2  A    between atoms: C4_4  and  C5_5 
ROOT
HETATM    1  C2  UNL     1     -33.462   7.015   5.243  1.00 20.00     0.020 A 
HETATM    2  C3  UNL     1     -34.398   7.661   4.268  1.00 20.00     0.020 A 
HETATM    3  C4  UNL     1     -33.911   6.249   4.015  1.00 20.00     0.039 A 
ENDROOT
BRANCH   3   4
HETATM    4  C1  UNL     1     -34.887   5.154   4.227  1.00 20.00     0.243 C 
HETATM    5  O6  UNL     1     -34.640   4.143   4.876  1.00 20.00    -0.306 OA
ENDBRANCH   3   4
BRANCH   3   6
HETATM    6  C5  UNL     1     -32.895   6.060   2.917  1.00 20.00     0.238 C 
HETATM    7  F7  UNL     1     -32.990   4.789   2.442  1.00 20.00    -0.254 F 
ENDBRANCH   3   6
TORSDOF 2
ENDMDL
MODEL 9
REMARK VINA RESULT:      -3.6      2.570      3.664
REMARK  2 active torsions:
REMARK  status: ('A' for Active; 'I' for Inactive)
REMARK    1  A    between atoms: C1_1  and  C4_4 
REMARK    2  A    between atoms: C4_4  and  C5_5 
ROOT
HETATM    1  C2  UNL     1     -32.623   9.400   1.597  1.00 20.00     0.020 A 
HETATM    2  C3  UNL     1     -31.570   8.503   1.022  1.00 20.00     0.020 A 
HETATM    3  C4  UNL     1     -32.192   8.164   2.361  1.00 20.00     0.039 A 
ENDROOT
BRANCH   3   4
HETATM    4  C1  UNL     1     -33.144   7.028   2.389  1.00 20.00     0.243 C 
HETATM    5  O6  UNL     1     -32.845   5.905   2.785  1.00 20.00    -0.306 OA
ENDBRANCH   3   4
BRANCH   3   6
HETATM    6  C5  UNL     1     -31.341   8.378   3.587  1.00 20.00     0.238 C 
HETATM    7  F7  UNL     1     -32.101   8.161   4.694  1.00 20.00    -0.254 F 
ENDBRANCH   3   6
TORSDOF 2
ENDMDL
