MODEL 1
REMARK VINA RESULT:      -4.0      0.000      0.000
REMARK  1 active torsions:
REMARK  status: ('A' for Active; 'I' for Inactive)
REMARK    1  A    between atoms: C3_3  and  C4_4 
ROOT
HETATM    1  C1  UNL     1     -33.743   5.457   3.187  1.00 20.00     0.149 A 
HETATM    2  C2  UNL     1     -34.004   5.875   4.475  1.00 20.00     0.093 A 
HETATM    3  C3  UNL     1     -32.685   7.377   3.129  1.00 20.00     0.089 A 
HETATM    4  N5  UNL     1     -32.988   6.316   2.415  1.00 20.00    -0.255 NA
HETATM    5  S6  UNL     1     -33.276   7.405   4.740  1.00 20.00    -0.060 SA
HETATM    6 CL7  UNL     1     -34.892   5.090   5.704  1.00 20.00    -0.075 Cl
ENDROOT
BRANCH   3   7
HETATM    7  C4  UNL     1     -31.882   8.517   2.638  1.00 20.00     0.181 C 
HETATM    8 CL8  UNL     1     -32.410   9.018   1.010  1.00 20.00    -0.123 Cl
ENDBRANCH   3   7
TORSDOF 1
ENDMDL
MODEL 2
REMARK VINA RESULT:      -4.0      1.436      1.626
REMARK  1 active torsions:
REMARK  status: ('A' for Active; 'I' for Inactive)
REMARK    1  A    between atoms: C3_3  and  C4_4 
ROOT
HETATM    1  C1  UNL     1     -33.323   7.261   5.227  1.00 20.00     0.149 A 
HETATM    2  C2  UNL     1     -33.934   6.193   4.603  1.00 20.00     0.093 A 
HETATM    3  C3  UNL     1     -32.567   7.590   3.194  1.00 20.00     0.089 A 
HETATM    4  N5  UNL     1     -32.539   8.062   4.421  1.00 20.00    -0.255 NA
HETATM    5  S6  UNL     1     -33.518   6.184   2.939  1.00 20.00    -0.060 SA
HETATM    6 CL7  UNL     1     -34.962   5.002   5.267  1.00 20.00    -0.075 Cl
ENDROOT
BRANCH   3   7
HETATM    7  C4  UNL     1     -31.845   8.188   2.050  1.00 20.00     0.181 C 
HETATM    8 CL8  UNL     1     -32.695   9.631   1.439  1.00 20.00    -0.123 Cl
ENDBRANCH   3   7
TORSDOF 1
ENDMDL
MODEL 3
REMARK VINA RESULT:      -3.9      1.661      4.181
REMARK  1 active torsions:
REMARK  status: ('A' for Active; 'I' for Inactive)
REMARK    1  A    between atoms: C3_3  and  C4_4 
ROOT
HETATM    1  C1  UNL     1     -32.227   8.234   4.136  1.00 20.00     0.149 A 
HETATM    2  C2  UNL     1     -32.357   7.824   2.826  1.00 20.00     0.093 A 
HETATM    3  C3  UNL     1     -33.692   6.629   4.438  1.00 20.00     0.089 A 
HETATM    4  N5  UNL     1     -32.991   7.551   5.061  1.00 20.00    -0.255 NA
HETATM    5  S6  UNL     1     -33.478   6.529   2.738  1.00 20.00    -0.060 SA
HETATM    6 CL7  UNL     1     -31.583   8.424   1.427  1.00 20.00    -0.075 Cl
ENDROOT
BRANCH   3   7
HETATM    7  C4  UNL     1     -34.628   5.697   5.101  1.00 20.00     0.181 C 
HETATM    8 CL8  UNL     1     -34.389   4.028   4.522  1.00 20.00    -0.123 Cl
ENDBRANCH   3   7
TORSDOF 1
ENDMDL
MODEL 4
REMARK VINA RESULT:      -3.6      1.341      3.971
REMARK  1 active torsions:
REMARK  status: ('A' for Active; 'I' for Inactive)
REMARK    1  A    between atoms: C3_3  and  C4_4 
ROOT
HETATM    1  C1  UNL     1     -33.300   7.007   2.134  1.00 20.00     0.149 A 
HETATM    2  C2  UNL     1     -32.278   7.925   2.254  1.00 20.00     0.093 A 
HETATM    3  C3  UNL     1     -33.310   7.227   4.317  1.00 20.00     0.089 A 
HETATM    4  N5  UNL     1     -33.892   6.606   3.316  1.00 20.00    -0.255 NA
HETATM    5  S6  UNL     1     -32.042   8.310   3.909  1.00 20.00    -0.060 SA
HETATM    6 CL7  UNL     1     -31.325   8.641   1.032  1.00 20.00    -0.075 Cl
ENDROOT
BRANCH   3   7
HETATM    7  C4  UNL     1     -33.677   7.053   5.739  1.00 20.00     0.181 C 
HETATM    8 CL8  UNL     1     -34.565   5.528   5.989  1.00 20.00    -0.123 Cl
ENDBRANCH   3   7
TORSDOF 1
ENDMDL
MODEL 5
REMARK VINA RESULT:      -3.3     11.456     11.648
REMARK  1 active torsions:
REMARK  status: ('A' for Active; 'I' for Inactive)
REMARK    1  A    between atoms: C3_3  and  C4_4 
ROOT
HETATM    1  C1  UNL     1     -36.080  13.465  -5.239  1.00 20.00     0.149 A 
HETATM    2  C2  UNL     1     -37.006  14.440  -4.933  1.00 20.00     0.093 A 
HETATM    3  C3  UNL     1     -34.725  14.929  -4.326  1.00 20.00     0.089 A 
HETATM    4  N5  UNL     1     -34.773  13.743  -4.892  1.00 20.00    -0.255 NA
HETATM    5  S6  UNL     1     -36.218  15.764  -4.178  1.00 20.00    -0.060 SA
HETATM    6 CL7  UNL     1     -38.691  14.450  -5.206  1.00 20.00    -0.075 Cl
ENDROOT
BRANCH   3   7
HETATM    7  C4  UNL     1     -33.491  15.567  -3.821  1.00 20.00     0.181 C 
HETATM    8 CL8  UNL     1     -33.844  16.647  -2.447  1.00 20.00    -0.123 Cl
ENDBRANCH   3   7
TORSDOF 1
ENDMDL
MODEL 6
REMARK VINA RESULT:      -3.3     11.412     11.746
REMARK  1 active torsions:
REMARK  status: ('A' for Active; 'I' for Inactive)
REMARK    1  A    between atoms: C3_3  and  C4_4 
ROOT
HETATM    1  C1  UNL     1     -33.126  14.836  -4.177  1.00 20.00     0.149 A 
HETATM    2  C2  UNL     1     -33.945  15.736  -3.530  1.00 20.00     0.093 A 
HETATM    3  C3  UNL     1     -35.041  14.225  -5.053  1.00 20.00     0.089 A 
HETATM    4  N5  UNL     1     -33.752  13.969  -5.050  1.00 20.00    -0.255 NA
HETATM    5  S6  UNL     1     -35.569  15.497  -4.029  1.00 20.00    -0.060 SA
HETATM    6 CL7  UNL     1     -33.535  16.944  -2.395  1.00 20.00    -0.075 Cl
ENDROOT
BRANCH   3   7
HETATM    7  C4  UNL     1     -36.038  13.499  -5.870  1.00 20.00     0.181 C 
HETATM    8 CL8  UNL     1     -35.337  12.980  -7.424  1.00 20.00    -0.123 Cl
ENDBRANCH   3   7
TORSDOF 1
ENDMDL
MODEL 7
REMARK VINA RESULT:      -3.2     11.579     12.119
REMARK  1 active torsions:
REMARK  status: ('A' for Active; 'I' for Inactive)
REMARK    1  A    between atoms: C3_3  and  C4_4 
ROOT
HETATM    1  C1  UNL     1     -35.018  14.073  -5.039  1.00 20.00     0.149 A 
HETATM    2  C2  UNL     1     -34.234  14.537  -6.074  1.00 20.00     0.093 A 
HETATM    3  C3  UNL     1     -34.032  15.727  -3.989  1.00 20.00     0.089 A 
HETATM    4  N5  UNL     1     -34.904  14.754  -3.844  1.00 20.00    -0.255 NA
HETATM    5  S6  UNL     1     -33.312  15.881  -5.539  1.00 20.00    -0.060 SA
HETATM    6 CL7  UNL     1     -34.109  13.956  -7.675  1.00 20.00    -0.075 Cl
ENDROOT
BRANCH   3   7
HETATM    7  C4  UNL     1     -33.647  16.674  -2.920  1.00 20.00     0.181 C 
HETATM    8 CL8  UNL     1     -34.885  16.732  -1.639  1.00 20.00    -0.123 Cl
ENDBRANCH   3   7
TORSDOF 1
ENDMDL
MODEL 8
REMARK VINA RESULT:      -3.2     11.568     11.813
REMARK  1 active torsions:
REMARK  status: ('A' for Active; 'I' for Inactive)
REMARK    1  A    between atoms: C3_3  and  C4_4 
ROOT
HETATM    1  C1  UNL     1     -36.037  16.172  -3.319  1.00 20.00     0.149 A 
HETATM    2  C2  UNL     1     -34.676  16.025  -3.156  1.00 20.00     0.093 A 
HETATM    3  C3  UNL     1     -35.726  14.474  -4.672  1.00 20.00     0.089 A 
HETATM    4  N5  UNL     1     -36.640  15.284  -4.187  1.00 20.00    -0.255 NA
HETATM    5  S6  UNL     1     -34.119  14.723  -4.124  1.00 20.00    -0.060 SA
HETATM    6 CL7  UNL     1     -33.605  16.927  -2.179  1.00 20.00    -0.075 Cl
ENDROOT
BRANCH   3   7
HETATM    7  C4  UNL     1     -35.996  13.385  -5.635  1.00 20.00     0.181 C 
HETATM    8 CL8  UNL     1     -34.815  13.403  -6.970  1.00 20.00    -0.123 Cl
ENDBRANCH   3   7
TORSDOF 1
ENDMDL
MODEL 9
REMARK VINA RESULT:      -3.1     11.934     12.486
REMARK  1 active torsions:
REMARK  status: ('A' for Active; 'I' for Inactive)
REMARK    1  A    between atoms: C3_3  and  C4_4 
ROOT
HETATM    1  C1  UNL     1     -33.387  16.540  -5.176  1.00 20.00     0.149 A 
HETATM    2  C2  UNL     1     -33.895  15.970  -4.028  1.00 20.00     0.093 A 
HETATM    3  C3  UNL     1     -34.144  14.673  -6.043  1.00 20.00     0.089 A 
HETATM    4  N5  UNL     1     -33.529  15.798  -6.332  1.00 20.00    -0.255 NA
HETATM    5  S6  UNL     1     -34.582  14.443  -4.400  1.00 20.00    -0.060 SA
HETATM    6 CL7  UNL     1     -33.902  16.582  -2.434  1.00 20.00    -0.075 Cl
ENDROOT
BRANCH   3   7
HETATM    7  C4  UNL     1     -34.475  13.621  -7.029  1.00 20.00     0.181 C 
HETATM    8 CL8  UNL     1     -36.095  13.882  -7.726  1.00 20.00    -0.123 Cl
ENDBRANCH   3   7
TORSDOF 1
ENDMDL
