MODEL 1
REMARK VINA RESULT:      -4.5      0.000      0.000
REMARK  1 active torsions:
REMARK  status: ('A' for Active; 'I' for Inactive)
REMARK    1  A    between atoms: C2_2  and  C3_3 
ROOT
HETATM    1  C1  UNL     1     -32.963   7.078   3.342  1.00 20.00     0.018 C 
HETATM    2  C2  UNL     1     -33.592   6.880   4.507  1.00 20.00     0.188 C 
HETATM    3  C4  UNL     1     -31.882   8.088   3.137  1.00 20.00     0.039 C 
HETATM    4  F7  UNL     1     -33.245   7.631   5.578  1.00 20.00    -0.199 F 
ENDROOT
BRANCH   2   5
HETATM    5  C3  UNL     1     -34.700   5.829   4.681  1.00 20.00     0.238 C 
HETATM    6  O5  UNL     1     -35.568   5.835   3.759  1.00 20.00    -0.642 OA
HETATM    7  O6  UNL     1     -34.631   5.090   5.703  1.00 20.00    -0.642 OA
ENDBRANCH   2   5
TORSDOF 1
ENDMDL
MODEL 2
REMARK VINA RESULT:      -4.5      0.057      1.221
REMARK  1 active torsions:
REMARK  status: ('A' for Active; 'I' for Inactive)
REMARK    1  A    between atoms: C2_2  and  C3_3 
ROOT
HETATM    1  C1  UNL     1     -32.945   7.117   3.339  1.00 20.00     0.018 C 
HETATM    2  C2  UNL     1     -33.566   6.912   4.507  1.00 20.00     0.188 C 
HETATM    3  C4  UNL     1     -31.851   8.113   3.136  1.00 20.00     0.039 C 
HETATM    4  F7  UNL     1     -33.197   7.643   5.585  1.00 20.00    -0.199 F 
ENDROOT
BRANCH   2   5
HETATM    5  C3  UNL     1     -34.689   5.876   4.677  1.00 20.00     0.238 C 
HETATM    6  O5  UNL     1     -34.605   5.192   5.739  1.00 20.00    -0.642 OA
HETATM    7  O6  UNL     1     -35.555   5.818   3.760  1.00 20.00    -0.642 OA
ENDBRANCH   2   5
TORSDOF 1
ENDMDL
MODEL 3
REMARK VINA RESULT:      -4.4      2.936      3.862
REMARK  1 active torsions:
REMARK  status: ('A' for Active; 'I' for Inactive)
REMARK    1  A    between atoms: C2_2  and  C3_3 
ROOT
HETATM    1  C1  UNL     1     -34.053   6.711   4.064  1.00 20.00     0.018 C 
HETATM    2  C2  UNL     1     -33.068   6.669   3.157  1.00 20.00     0.188 C 
HETATM    3  C4  UNL     1     -34.836   5.519   4.505  1.00 20.00     0.039 C 
HETATM    4  F7  UNL     1     -32.747   5.483   2.591  1.00 20.00    -0.199 F 
ENDROOT
BRANCH   2   5
HETATM    5  C3  UNL     1     -32.284   7.919   2.728  1.00 20.00     0.238 C 
HETATM    6  O5  UNL     1     -31.401   8.286   3.558  1.00 20.00    -0.642 OA
HETATM    7  O6  UNL     1     -32.597   8.437   1.620  1.00 20.00    -0.642 OA
ENDBRANCH   2   5
TORSDOF 1
ENDMDL
MODEL 4
REMARK VINA RESULT:      -4.4      1.817      1.928
REMARK  1 active torsions:
REMARK  status: ('A' for Active; 'I' for Inactive)
REMARK    1  A    between atoms: C2_2  and  C3_3 
ROOT
HETATM    1  C1  UNL     1     -33.048   7.188   3.647  1.00 20.00     0.018 C 
HETATM    2  C2  UNL     1     -33.821   6.110   3.468  1.00 20.00     0.188 C 
HETATM    3  C4  UNL     1     -32.442   7.978   2.534  1.00 20.00     0.039 C 
HETATM    4  F7  UNL     1     -34.081   5.689   2.209  1.00 20.00    -0.199 F 
ENDROOT
BRANCH   2   5
HETATM    5  C3  UNL     1     -34.427   5.322   4.641  1.00 20.00     0.238 C 
HETATM    6  O5  UNL     1     -34.581   6.003   5.697  1.00 20.00    -0.642 OA
HETATM    7  O6  UNL     1     -34.701   4.107   4.431  1.00 20.00    -0.642 OA
ENDBRANCH   2   5
TORSDOF 1
ENDMDL
MODEL 5
REMARK VINA RESULT:      -4.4      1.812      1.834
REMARK  1 active torsions:
REMARK  status: ('A' for Active; 'I' for Inactive)
REMARK    1  A    between atoms: C2_2  and  C3_3 
ROOT
HETATM    1  C1  UNL     1     -33.072   7.198   3.645  1.00 20.00     0.018 C 
HETATM    2  C2  UNL     1     -33.841   6.114   3.484  1.00 20.00     0.188 C 
HETATM    3  C4  UNL     1     -32.480   7.979   2.518  1.00 20.00     0.039 C 
HETATM    4  F7  UNL     1     -34.110   5.679   2.231  1.00 20.00    -0.199 F 
ENDROOT
BRANCH   2   5
HETATM    5  C3  UNL     1     -34.433   5.336   4.669  1.00 20.00     0.238 C 
HETATM    6  O5  UNL     1     -34.691   4.123   4.415  1.00 20.00    -0.642 OA
HETATM    7  O6  UNL     1     -34.598   5.975   5.746  1.00 20.00    -0.642 OA
ENDBRANCH   2   5
TORSDOF 1
ENDMDL
MODEL 6
REMARK VINA RESULT:      -4.3      2.350      3.227
REMARK  1 active torsions:
REMARK  status: ('A' for Active; 'I' for Inactive)
REMARK    1  A    between atoms: C2_2  and  C3_3 
ROOT
HETATM    1  C1  UNL     1     -34.035   6.012   4.141  1.00 20.00     0.018 C 
HETATM    2  C2  UNL     1     -33.289   7.100   4.369  1.00 20.00     0.188 C 
HETATM    3  C4  UNL     1     -34.857   5.328   5.183  1.00 20.00     0.039 C 
HETATM    4  F7  UNL     1     -33.262   7.629   5.614  1.00 20.00    -0.199 F 
ENDROOT
BRANCH   2   5
HETATM    5  C3  UNL     1     -32.456   7.777   3.270  1.00 20.00     0.238 C 
HETATM    6  O5  UNL     1     -32.967   7.704   2.114  1.00 20.00    -0.642 OA
HETATM    7  O6  UNL     1     -31.374   8.321   3.628  1.00 20.00    -0.642 OA
ENDBRANCH   2   5
TORSDOF 1
ENDMDL
MODEL 7
REMARK VINA RESULT:      -4.0      1.736      1.984
REMARK  1 active torsions:
REMARK  status: ('A' for Active; 'I' for Inactive)
REMARK    1  A    between atoms: C2_2  and  C3_3 
ROOT
HETATM    1  C1  UNL     1     -32.671   7.995   2.189  1.00 20.00     0.018 C 
HETATM    2  C2  UNL     1     -32.466   7.815   3.500  1.00 20.00     0.188 C 
HETATM    3  C4  UNL     1     -31.709   8.684   1.278  1.00 20.00     0.039 C 
HETATM    4  F7  UNL     1     -31.323   8.279   4.056  1.00 20.00    -0.199 F 
ENDROOT
BRANCH   2   5
HETATM    5  C3  UNL     1     -33.481   7.100   4.406  1.00 20.00     0.238 C 
HETATM    6  O5  UNL     1     -34.234   6.284   3.797  1.00 20.00    -0.642 OA
HETATM    7  O6  UNL     1     -33.457   7.395   5.634  1.00 20.00    -0.642 OA
ENDBRANCH   2   5
TORSDOF 1
ENDMDL
MODEL 8
REMARK VINA RESULT:      -3.8     11.719     11.911
REMARK  1 active torsions:
REMARK  status: ('A' for Active; 'I' for Inactive)
REMARK    1  A    between atoms: C2_2  and  C3_3 
ROOT
HETATM    1  C1  UNL     1     -35.256  15.493  -3.891  1.00 20.00     0.018 C 
HETATM    2  C2  UNL     1     -35.011  14.240  -4.293  1.00 20.00     0.188 C 
HETATM    3  C4  UNL     1     -34.331  16.293  -3.034  1.00 20.00     0.039 C 
HETATM    4  F7  UNL     1     -33.861  13.639  -3.909  1.00 20.00    -0.199 F 
ENDROOT
BRANCH   2   5
HETATM    5  C3  UNL     1     -35.988  13.447  -5.176  1.00 20.00     0.238 C 
HETATM    6  O5  UNL     1     -35.425  12.691  -6.021  1.00 20.00    -0.642 OA
HETATM    7  O6  UNL     1     -37.221  13.632  -4.971  1.00 20.00    -0.642 OA
ENDBRANCH   2   5
TORSDOF 1
ENDMDL
MODEL 9
REMARK VINA RESULT:      -3.8     11.719     11.910
REMARK  1 active torsions:
REMARK  status: ('A' for Active; 'I' for Inactive)
REMARK    1  A    between atoms: C2_2  and  C3_3 
ROOT
HETATM    1  C1  UNL     1     -35.330  15.476  -3.862  1.00 20.00     0.018 C 
HETATM    2  C2  UNL     1     -35.031  14.243  -4.289  1.00 20.00     0.188 C 
HETATM    3  C4  UNL     1     -34.444  16.294  -2.980  1.00 20.00     0.039 C 
HETATM    4  F7  UNL     1     -33.861  13.681  -3.909  1.00 20.00    -0.199 F 
ENDROOT
BRANCH   2   5
HETATM    5  C3  UNL     1     -35.969  13.432  -5.198  1.00 20.00     0.238 C 
HETATM    6  O5  UNL     1     -37.200  13.617  -4.968  1.00 20.00    -0.642 OA
HETATM    7  O6  UNL     1     -35.424  12.683  -6.056  1.00 20.00    -0.642 OA
ENDBRANCH   2   5
TORSDOF 1
ENDMDL
