MODEL 1
REMARK VINA RESULT:      -6.4      0.000      0.000
REMARK  0 active torsions:
REMARK  status: ('A' for Active; 'I' for Inactive)
ROOT
HETATM    1  C1  UNL     1     -32.840   7.104   2.090  1.00 20.00     0.052 A 
HETATM    2  C2  UNL     1     -32.193   8.438   4.376  1.00 20.00     0.126 A 
HETATM    3  C3  UNL     1     -33.429   6.704   3.293  1.00 20.00    -0.047 A 
HETATM    4  C4  UNL     1     -33.086   7.374   4.475  1.00 20.00    -0.034 A 
HETATM    5  C5  UNL     1     -31.956   8.171   2.110  1.00 20.00     0.126 A 
HETATM    6  C6  UNL     1     -34.368   5.525   3.302  1.00 20.00     0.039 C 
HETATM    7  C7  UNL     1     -33.695   7.016   5.803  1.00 20.00     0.040 C 
HETATM    8  C8  UNL     1     -35.212   5.440   4.573  1.00 20.00     0.005 C 
HETATM    9  C9  UNL     1     -34.339   5.629   5.808  1.00 20.00     0.005 C 
HETATM   10  N10 UNL     1     -31.618   8.851   3.226  1.00 20.00    -0.248 NA
HETATM   11 CL11 UNL     1     -31.198   8.720   0.672  1.00 20.00    -0.062 Cl
ENDROOT
TORSDOF 0
ENDMDL
MODEL 2
REMARK VINA RESULT:      -4.9      1.238      2.209
REMARK  0 active torsions:
REMARK  status: ('A' for Active; 'I' for Inactive)
ROOT
HETATM    1  C1  UNL     1     -33.097   8.189   3.652  1.00 20.00     0.052 A 
HETATM    2  C2  UNL     1     -33.205   5.950   2.102  1.00 20.00     0.126 A 
HETATM    3  C3  UNL     1     -33.586   7.006   4.212  1.00 20.00    -0.047 A 
HETATM    4  C4  UNL     1     -33.662   5.855   3.414  1.00 20.00    -0.034 A 
HETATM    5  C5  UNL     1     -32.679   8.172   2.331  1.00 20.00     0.126 A 
HETATM    6  C6  UNL     1     -34.078   7.008   5.636  1.00 20.00     0.039 C 
HETATM    7  C7  UNL     1     -34.155   4.540   3.953  1.00 20.00     0.040 C 
HETATM    8  C8  UNL     1     -34.221   5.604   6.224  1.00 20.00     0.005 C 
HETATM    9  C9  UNL     1     -34.951   4.688   5.249  1.00 20.00     0.005 C 
HETATM   10  N10 UNL     1     -32.719   7.079   1.540  1.00 20.00    -0.248 NA
HETATM   11 CL11 UNL     1     -32.064   9.585   1.577  1.00 20.00    -0.062 Cl
ENDROOT
TORSDOF 0
ENDMDL
MODEL 3
REMARK VINA RESULT:      -4.6     11.568     12.107
REMARK  0 active torsions:
REMARK  status: ('A' for Active; 'I' for Inactive)
ROOT
HETATM    1  C1  UNL     1     -35.759  17.930   0.962  1.00 20.00     0.052 A 
HETATM    2  C2  UNL     1     -33.245  18.980   0.965  1.00 20.00     0.126 A 
HETATM    3  C3  UNL     1     -34.942  17.724  -0.153  1.00 20.00    -0.047 A 
HETATM    4  C4  UNL     1     -33.654  18.277  -0.165  1.00 20.00    -0.034 A 
HETATM    5  C5  UNL     1     -35.252  18.655   2.028  1.00 20.00     0.126 A 
HETATM    6  C6  UNL     1     -35.483  16.967  -1.338  1.00 20.00     0.039 C 
HETATM    7  C7  UNL     1     -32.709  18.078  -1.318  1.00 20.00     0.040 C 
HETATM    8  C8  UNL     1     -34.392  16.496  -2.299  1.00 20.00     0.005 C 
HETATM    9  C9  UNL     1     -33.416  17.628  -2.597  1.00 20.00     0.005 C 
HETATM   10  N10 UNL     1     -34.011  19.185   2.059  1.00 20.00    -0.248 NA
HETATM   11 CL11 UNL     1     -36.195  18.946   3.431  1.00 20.00    -0.062 Cl
ENDROOT
TORSDOF 0
ENDMDL
MODEL 4
REMARK VINA RESULT:      -4.6     11.343     11.833
REMARK  0 active torsions:
REMARK  status: ('A' for Active; 'I' for Inactive)
ROOT
HETATM    1  C1  UNL     1     -35.438  16.996  -1.070  1.00 20.00     0.052 A 
HETATM    2  C2  UNL     1     -32.973  17.781  -1.927  1.00 20.00     0.126 A 
HETATM    3  C3  UNL     1     -34.615  17.710  -0.193  1.00 20.00    -0.047 A 
HETATM    4  C4  UNL     1     -33.339  18.101  -0.622  1.00 20.00    -0.034 A 
HETATM    5  C5  UNL     1     -34.966  16.723  -2.343  1.00 20.00     0.126 A 
HETATM    6  C6  UNL     1     -35.093  17.990   1.208  1.00 20.00     0.039 C 
HETATM    7  C7  UNL     1     -32.408  18.891   0.255  1.00 20.00     0.040 C 
HETATM    8  C8  UNL     1     -34.282  19.078   1.913  1.00 20.00     0.005 C 
HETATM    9  C9  UNL     1     -32.789  18.832   1.735  1.00 20.00     0.005 C 
HETATM   10  N10 UNL     1     -33.752  17.101  -2.797  1.00 20.00    -0.248 NA
HETATM   11 CL11 UNL     1     -35.920  15.855  -3.474  1.00 20.00    -0.062 Cl
ENDROOT
TORSDOF 0
ENDMDL
MODEL 5
REMARK VINA RESULT:      -4.6     11.332     11.828
REMARK  0 active torsions:
REMARK  status: ('A' for Active; 'I' for Inactive)
ROOT
HETATM    1  C1  UNL     1     -33.009  17.658  -1.917  1.00 20.00     0.052 A 
HETATM    2  C2  UNL     1     -35.507  16.956  -1.086  1.00 20.00     0.126 A 
HETATM    3  C3  UNL     1     -33.422  18.032  -0.635  1.00 20.00    -0.047 A 
HETATM    4  C4  UNL     1     -34.712  17.690  -0.209  1.00 20.00    -0.034 A 
HETATM    5  C5  UNL     1     -33.887  16.937  -2.710  1.00 20.00     0.126 A 
HETATM    6  C6  UNL     1     -32.497  18.846   0.233  1.00 20.00     0.039 C 
HETATM    7  C7  UNL     1     -35.219  18.037   1.164  1.00 20.00     0.040 C 
HETATM    8  C8  UNL     1     -32.909  18.855   1.705  1.00 20.00     0.005 C 
HETATM    9  C9  UNL     1     -34.401  19.137   1.841  1.00 20.00     0.005 C 
HETATM   10  N10 UNL     1     -35.128  16.573  -2.325  1.00 20.00    -0.248 NA
HETATM   11 CL11 UNL     1     -33.448  16.440  -4.293  1.00 20.00    -0.062 Cl
ENDROOT
TORSDOF 0
ENDMDL
MODEL 6
REMARK VINA RESULT:      -4.6     11.356     11.763
REMARK  0 active torsions:
REMARK  status: ('A' for Active; 'I' for Inactive)
ROOT
HETATM    1  C1  UNL     1     -35.968  14.733  -5.163  1.00 20.00     0.052 A 
HETATM    2  C2  UNL     1     -33.390  14.878  -4.292  1.00 20.00     0.126 A 
HETATM    3  C3  UNL     1     -35.669  15.564  -4.079  1.00 20.00    -0.047 A 
HETATM    4  C4  UNL     1     -34.348  15.628  -3.615  1.00 20.00    -0.034 A 
HETATM    5  C5  UNL     1     -34.937  14.023  -5.755  1.00 20.00     0.126 A 
HETATM    6  C6  UNL     1     -36.779  16.321  -3.397  1.00 20.00     0.039 C 
HETATM    7  C7  UNL     1     -33.945  16.516  -2.470  1.00 20.00     0.040 C 
HETATM    8  C8  UNL     1     -36.273  17.452  -2.503  1.00 20.00     0.005 C 
HETATM    9  C9  UNL     1     -35.132  16.964  -1.617  1.00 20.00     0.005 C 
HETATM   10  N10 UNL     1     -33.651  14.075  -5.348  1.00 20.00    -0.248 NA
HETATM   11 CL11 UNL     1     -35.228  12.986  -7.092  1.00 20.00    -0.062 Cl
ENDROOT
TORSDOF 0
ENDMDL
MODEL 7
REMARK VINA RESULT:      -4.6     11.518     11.986
REMARK  0 active torsions:
REMARK  status: ('A' for Active; 'I' for Inactive)
ROOT
HETATM    1  C1  UNL     1     -32.852  18.698   2.488  1.00 20.00     0.052 A 
HETATM    2  C2  UNL     1     -31.619  18.557   0.062  1.00 20.00     0.126 A 
HETATM    3  C3  UNL     1     -33.621  18.402   1.358  1.00 20.00    -0.047 A 
HETATM    4  C4  UNL     1     -32.995  18.347   0.104  1.00 20.00    -0.034 A 
HETATM    5  C5  UNL     1     -31.491  18.900   2.326  1.00 20.00     0.126 A 
HETATM    6  C6  UNL     1     -35.108  18.212   1.502  1.00 20.00     0.039 C 
HETATM    7  C7  UNL     1     -33.751  18.011  -1.152  1.00 20.00     0.040 C 
HETATM    8  C8  UNL     1     -35.748  17.535   0.290  1.00 20.00     0.005 C 
HETATM    9  C9  UNL     1     -35.263  18.181  -1.002  1.00 20.00     0.005 C 
HETATM   10  N10 UNL     1     -30.853  18.834   1.139  1.00 20.00    -0.248 NA
HETATM   11 CL11 UNL     1     -30.485  19.263   3.668  1.00 20.00    -0.062 Cl
ENDROOT
TORSDOF 0
ENDMDL
MODEL 8
REMARK VINA RESULT:      -4.5     11.376     12.492
REMARK  0 active torsions:
REMARK  status: ('A' for Active; 'I' for Inactive)
ROOT
HETATM    1  C1  UNL     1     -35.027  15.137  -3.769  1.00 20.00     0.052 A 
HETATM    2  C2  UNL     1     -33.363  16.527  -5.421  1.00 20.00     0.126 A 
HETATM    3  C3  UNL     1     -34.899  14.725  -5.099  1.00 20.00    -0.047 A 
HETATM    4  C4  UNL     1     -34.059  15.447  -5.958  1.00 20.00    -0.034 A 
HETATM    5  C5  UNL     1     -34.294  16.234  -3.345  1.00 20.00     0.126 A 
HETATM    6  C6  UNL     1     -35.710  13.556  -5.593  1.00 20.00     0.039 C 
HETATM    7  C7  UNL     1     -33.852  15.050  -7.394  1.00 20.00     0.040 C 
HETATM    8  C8  UNL     1     -35.201  12.989  -6.918  1.00 20.00     0.005 C 
HETATM    9  C9  UNL     1     -34.940  14.111  -7.916  1.00 20.00     0.005 C 
HETATM   10  N10 UNL     1     -33.462  16.940  -4.138  1.00 20.00    -0.248 NA
HETATM   11 CL11 UNL     1     -34.398  16.795  -1.727  1.00 20.00    -0.062 Cl
ENDROOT
TORSDOF 0
ENDMDL
MODEL 9
REMARK VINA RESULT:      -4.4     11.389     11.998
REMARK  0 active torsions:
REMARK  status: ('A' for Active; 'I' for Inactive)
ROOT
HETATM    1  C1  UNL     1     -35.753  15.751  -3.081  1.00 20.00     0.052 A 
HETATM    2  C2  UNL     1     -33.455  16.753  -4.149  1.00 20.00     0.126 A 
HETATM    3  C3  UNL     1     -34.995  16.650  -2.325  1.00 20.00    -0.047 A 
HETATM    4  C4  UNL     1     -33.803  17.155  -2.862  1.00 20.00    -0.034 A 
HETATM    5  C5  UNL     1     -35.305  15.412  -4.348  1.00 20.00     0.126 A 
HETATM    6  C6  UNL     1     -35.444  17.008  -0.932  1.00 20.00     0.039 C 
HETATM    7  C7  UNL     1     -32.947  18.144  -2.118  1.00 20.00     0.040 C 
HETATM    8  C8  UNL     1     -34.755  18.257  -0.382  1.00 20.00     0.005 C 
HETATM    9  C9  UNL     1     -33.251  18.188  -0.621  1.00 20.00     0.005 C 
HETATM   10  N10 UNL     1     -34.174  15.893  -4.903  1.00 20.00    -0.248 NA
HETATM   11 CL11 UNL     1     -36.184  14.317  -5.334  1.00 20.00    -0.062 Cl
ENDROOT
TORSDOF 0
ENDMDL
