MODEL 1
REMARK VINA RESULT:      -4.8      0.000      0.000
REMARK  2 active torsions:
REMARK  status: ('A' for Active; 'I' for Inactive)
REMARK    1  A    between atoms: C5_5  and  C6_6 
REMARK    2  A    between atoms: C6_6  and  C7_7 
ROOT
HETATM    1  C1  UNL     1     -33.747   7.401   5.887  1.00 20.00     0.012 C 
HETATM    2  C6  UNL     1     -33.299   6.738   4.570  1.00 20.00     0.002 C 
ENDROOT
BRANCH   2   3
HETATM    3  C5  UNL     1     -33.184   7.803   3.458  1.00 20.00     0.119 C 
HETATM    4 CL8  UNL     1     -31.492   8.296   3.164  1.00 20.00    -0.130 Cl
ENDBRANCH   2   3
BRANCH   2   5
HETATM    5  C7  UNL     1     -34.211   5.522   4.150  1.00 20.00    -0.047 C 
HETATM    6  C2  UNL     1     -35.567   6.029   3.607  1.00 20.00     0.015 C 
HETATM    7  C3  UNL     1     -34.523   4.627   5.370  1.00 20.00     0.015 C 
HETATM    8  C4  UNL     1     -33.557   4.645   3.065  1.00 20.00     0.015 C 
ENDBRANCH   2   5
TORSDOF 2
ENDMDL
MODEL 2
REMARK VINA RESULT:      -4.8      0.089      1.553
REMARK  2 active torsions:
REMARK  status: ('A' for Active; 'I' for Inactive)
REMARK    1  A    between atoms: C5_5  and  C6_6 
REMARK    2  A    between atoms: C6_6  and  C7_7 
ROOT
HETATM    1  C1  UNL     1     -33.794   7.367   5.914  1.00 20.00     0.012 C 
HETATM    2  C6  UNL     1     -33.313   6.743   4.590  1.00 20.00     0.002 C 
ENDROOT
BRANCH   2   3
HETATM    3  C5  UNL     1     -33.164   7.840   3.513  1.00 20.00     0.119 C 
HETATM    4 CL8  UNL     1     -31.454   8.262   3.208  1.00 20.00    -0.130 Cl
ENDBRANCH   2   3
BRANCH   2   5
HETATM    5  C7  UNL     1     -34.218   5.544   4.108  1.00 20.00    -0.047 C 
HETATM    6  C2  UNL     1     -34.447   4.545   5.266  1.00 20.00     0.015 C 
HETATM    7  C3  UNL     1     -33.524   4.760   2.972  1.00 20.00     0.015 C 
HETATM    8  C4  UNL     1     -35.593   6.014   3.599  1.00 20.00     0.015 C 
ENDBRANCH   2   5
TORSDOF 2
ENDMDL
MODEL 3
REMARK VINA RESULT:      -4.8      0.175      1.518
REMARK  2 active torsions:
REMARK  status: ('A' for Active; 'I' for Inactive)
REMARK    1  A    between atoms: C5_5  and  C6_6 
REMARK    2  A    between atoms: C6_6  and  C7_7 
ROOT
HETATM    1  C1  UNL     1     -33.783   7.364   5.922  1.00 20.00     0.012 C 
HETATM    2  C6  UNL     1     -33.326   6.787   4.568  1.00 20.00     0.002 C 
ENDROOT
BRANCH   2   3
HETATM    3  C5  UNL     1     -33.272   7.910   3.509  1.00 20.00     0.119 C 
HETATM    4 CL8  UNL     1     -31.626   8.145   2.853  1.00 20.00    -0.130 Cl
ENDBRANCH   2   3
BRANCH   2   5
HETATM    5  C7  UNL     1     -34.190   5.554   4.098  1.00 20.00    -0.047 C 
HETATM    6  C2  UNL     1     -33.472   4.798   2.957  1.00 20.00     0.015 C 
HETATM    7  C3  UNL     1     -35.550   6.025   3.537  1.00 20.00     0.015 C 
HETATM    8  C4  UNL     1     -34.460   4.557   5.241  1.00 20.00     0.015 C 
ENDBRANCH   2   5
TORSDOF 2
ENDMDL
MODEL 4
REMARK VINA RESULT:      -4.7      1.028      2.477
REMARK  2 active torsions:
REMARK  status: ('A' for Active; 'I' for Inactive)
REMARK    1  A    between atoms: C5_5  and  C6_6 
REMARK    2  A    between atoms: C6_6  and  C7_7 
ROOT
HETATM    1  C1  UNL     1     -32.781   4.692   2.487  1.00 20.00     0.012 C 
HETATM    2  C6  UNL     1     -33.463   6.013   2.890  1.00 20.00     0.002 C 
ENDROOT
BRANCH   2   3
HETATM    3  C5  UNL     1     -32.399   7.111   3.107  1.00 20.00     0.119 C 
HETATM    4 CL8  UNL     1     -32.531   8.429   1.907  1.00 20.00    -0.130 Cl
ENDBRANCH   2   3
BRANCH   2   5
HETATM    5  C7  UNL     1     -34.430   5.856   4.127  1.00 20.00    -0.047 C 
HETATM    6  C2  UNL     1     -34.405   4.400   4.647  1.00 20.00     0.015 C 
HETATM    7  C3  UNL     1     -35.888   6.163   3.722  1.00 20.00     0.015 C 
HETATM    8  C4  UNL     1     -34.048   6.789   5.292  1.00 20.00     0.015 C 
ENDBRANCH   2   5
TORSDOF 2
ENDMDL
MODEL 5
REMARK VINA RESULT:      -4.7      1.022      2.119
REMARK  2 active torsions:
REMARK  status: ('A' for Active; 'I' for Inactive)
REMARK    1  A    between atoms: C5_5  and  C6_6 
REMARK    2  A    between atoms: C6_6  and  C7_7 
ROOT
HETATM    1  C1  UNL     1     -32.772   4.693   2.482  1.00 20.00     0.012 C 
HETATM    2  C6  UNL     1     -33.463   6.008   2.891  1.00 20.00     0.002 C 
ENDROOT
BRANCH   2   3
HETATM    3  C5  UNL     1     -32.405   7.111   3.112  1.00 20.00     0.119 C 
HETATM    4 CL8  UNL     1     -32.527   8.419   1.901  1.00 20.00    -0.130 Cl
ENDBRANCH   2   3
BRANCH   2   5
HETATM    5  C7  UNL     1     -34.427   5.839   4.129  1.00 20.00    -0.047 C 
HETATM    6  C2  UNL     1     -35.882   6.173   3.725  1.00 20.00     0.015 C 
HETATM    7  C3  UNL     1     -34.039   6.819   5.258  1.00 20.00     0.015 C 
HETATM    8  C4  UNL     1     -34.402   4.410   4.702  1.00 20.00     0.015 C 
ENDBRANCH   2   5
TORSDOF 2
ENDMDL
MODEL 6
REMARK VINA RESULT:      -4.5      2.149      3.175
REMARK  2 active torsions:
REMARK  status: ('A' for Active; 'I' for Inactive)
REMARK    1  A    between atoms: C5_5  and  C6_6 
REMARK    2  A    between atoms: C6_6  and  C7_7 
ROOT
HETATM    1  C1  UNL     1     -33.588   7.378   5.749  1.00 20.00     0.012 C 
HETATM    2  C6  UNL     1     -34.100   7.208   4.306  1.00 20.00     0.002 C 
ENDROOT
BRANCH   2   3
HETATM    3  C5  UNL     1     -34.912   5.900   4.186  1.00 20.00     0.119 C 
HETATM    4 CL8  UNL     1     -34.597   4.780   5.543  1.00 20.00    -0.130 Cl
ENDBRANCH   2   3
BRANCH   2   5
HETATM    5  C7  UNL     1     -32.951   7.306   3.229  1.00 20.00    -0.047 C 
HETATM    6  C2  UNL     1     -33.409   8.174   2.033  1.00 20.00     0.015 C 
HETATM    7  C3  UNL     1     -32.613   5.909   2.664  1.00 20.00     0.015 C 
HETATM    8  C4  UNL     1     -31.660   7.920   3.802  1.00 20.00     0.015 C 
ENDBRANCH   2   5
TORSDOF 2
ENDMDL
MODEL 7
REMARK VINA RESULT:      -4.5      2.150      3.280
REMARK  2 active torsions:
REMARK  status: ('A' for Active; 'I' for Inactive)
REMARK    1  A    between atoms: C5_5  and  C6_6 
REMARK    2  A    between atoms: C6_6  and  C7_7 
ROOT
HETATM    1  C1  UNL     1     -33.587   7.377   5.720  1.00 20.00     0.012 C 
HETATM    2  C6  UNL     1     -34.111   7.207   4.281  1.00 20.00     0.002 C 
ENDROOT
BRANCH   2   3
HETATM    3  C5  UNL     1     -34.917   5.895   4.166  1.00 20.00     0.119 C 
HETATM    4 CL8  UNL     1     -34.600   4.783   5.529  1.00 20.00    -0.130 Cl
ENDBRANCH   2   3
BRANCH   2   5
HETATM    5  C7  UNL     1     -32.973   7.314   3.193  1.00 20.00    -0.047 C 
HETATM    6  C2  UNL     1     -32.615   5.911   2.650  1.00 20.00     0.015 C 
HETATM    7  C3  UNL     1     -31.683   7.898   3.809  1.00 20.00     0.015 C 
HETATM    8  C4  UNL     1     -33.382   8.200   2.001  1.00 20.00     0.015 C 
ENDBRANCH   2   5
TORSDOF 2
ENDMDL
MODEL 8
REMARK VINA RESULT:      -3.7      1.663      2.670
REMARK  2 active torsions:
REMARK  status: ('A' for Active; 'I' for Inactive)
REMARK    1  A    between atoms: C5_5  and  C6_6 
REMARK    2  A    between atoms: C6_6  and  C7_7 
ROOT
HETATM    1  C1  UNL     1     -31.622   8.124   3.821  1.00 20.00     0.012 C 
HETATM    2  C6  UNL     1     -32.342   7.448   2.638  1.00 20.00     0.002 C 
ENDROOT
BRANCH   2   3
HETATM    3  C5  UNL     1     -32.898   8.522   1.677  1.00 20.00     0.119 C 
HETATM    4 CL8  UNL     1     -31.665   9.098   0.519  1.00 20.00    -0.130 Cl
ENDBRANCH   2   3
BRANCH   2   5
HETATM    5  C7  UNL     1     -33.445   6.417   3.095  1.00 20.00    -0.047 C 
HETATM    6  C2  UNL     1     -32.911   4.971   2.973  1.00 20.00     0.015 C 
HETATM    7  C3  UNL     1     -34.690   6.513   2.185  1.00 20.00     0.015 C 
HETATM    8  C4  UNL     1     -33.893   6.643   4.551  1.00 20.00     0.015 C 
ENDBRANCH   2   5
TORSDOF 2
ENDMDL
MODEL 9
REMARK VINA RESULT:      -3.7      1.831      2.789
REMARK  2 active torsions:
REMARK  status: ('A' for Active; 'I' for Inactive)
REMARK    1  A    between atoms: C5_5  and  C6_6 
REMARK    2  A    between atoms: C6_6  and  C7_7 
ROOT
HETATM    1  C1  UNL     1     -32.557   7.593   3.521  1.00 20.00     0.012 C 
HETATM    2  C6  UNL     1     -33.034   6.130   3.586  1.00 20.00     0.002 C 
ENDROOT
BRANCH   2   3
HETATM    3  C5  UNL     1     -33.326   5.609   2.161  1.00 20.00     0.119 C 
HETATM    4 CL8  UNL     1     -32.737   3.940   1.916  1.00 20.00    -0.130 Cl
ENDBRANCH   2   3
BRANCH   2   5
HETATM    5  C7  UNL     1     -34.251   5.920   4.567  1.00 20.00    -0.047 C 
HETATM    6  C2  UNL     1     -34.290   4.458   5.069  1.00 20.00     0.015 C 
HETATM    7  C3  UNL     1     -35.589   6.179   3.839  1.00 20.00     0.015 C 
HETATM    8  C4  UNL     1     -34.183   6.848   5.794  1.00 20.00     0.015 C 
ENDBRANCH   2   5
TORSDOF 2
ENDMDL
