MODEL 1
REMARK VINA RESULT:      -5.0      0.000      0.000
REMARK  1 active torsions:
REMARK  status: ('A' for Active; 'I' for Inactive)
REMARK    1  A    between atoms: C4_4  and  C10_10 
ROOT
HETATM    1  C1  UNL     1     -32.115   7.604   2.152  1.00 20.00    -0.004 C 
HETATM    2  C2  UNL     1     -33.137   6.700   2.613  1.00 20.00     0.003 C 
HETATM    3  C3  UNL     1     -31.585   8.529   2.963  1.00 20.00    -0.026 C 
HETATM    4  C4  UNL     1     -33.491   6.628   3.908  1.00 20.00    -0.072 C 
HETATM    5  C5  UNL     1     -32.005   8.678   4.395  1.00 20.00     0.031 C 
HETATM    6  C6  UNL     1     -32.839   7.508   4.950  1.00 20.00     0.038 C 
ENDROOT
BRANCH   4   7
HETATM    7  C10 UNL     1     -34.528   5.665   4.400  1.00 20.00    -0.028 C 
HETATM    8  C7  UNL     1     -35.860   5.941   3.685  1.00 20.00     0.019 C 
HETATM    9  C8  UNL     1     -34.717   5.834   5.917  1.00 20.00     0.019 C 
HETATM   10  C9  UNL     1     -34.081   4.223   4.107  1.00 20.00     0.019 C 
ENDBRANCH   4   7
TORSDOF 1
ENDMDL
MODEL 2
REMARK VINA RESULT:      -5.0      0.146      2.102
REMARK  1 active torsions:
REMARK  status: ('A' for Active; 'I' for Inactive)
REMARK    1  A    between atoms: C4_4  and  C10_10 
ROOT
HETATM    1  C1  UNL     1     -31.958   8.506   4.456  1.00 20.00    -0.004 C 
HETATM    2  C2  UNL     1     -32.887   7.484   4.864  1.00 20.00     0.003 C 
HETATM    3  C3  UNL     1     -31.536   8.600   3.188  1.00 20.00    -0.026 C 
HETATM    4  C4  UNL     1     -33.499   6.684   3.975  1.00 20.00    -0.072 C 
HETATM    5  C5  UNL     1     -32.007   7.664   2.114  1.00 20.00     0.031 C 
HETATM    6  C6  UNL     1     -33.230   6.808   2.492  1.00 20.00     0.038 C 
ENDROOT
BRANCH   4   7
HETATM    7  C10 UNL     1     -34.493   5.642   4.389  1.00 20.00    -0.028 C 
HETATM    8  C7  UNL     1     -34.680   5.693   5.913  1.00 20.00     0.019 C 
HETATM    9  C8  UNL     1     -33.986   4.248   3.983  1.00 20.00     0.019 C 
HETATM   10  C9  UNL     1     -35.842   5.906   3.699  1.00 20.00     0.019 C 
ENDBRANCH   4   7
TORSDOF 1
ENDMDL
MODEL 3
REMARK VINA RESULT:      -5.0      0.150      1.579
REMARK  1 active torsions:
REMARK  status: ('A' for Active; 'I' for Inactive)
REMARK    1  A    between atoms: C4_4  and  C10_10 
ROOT
HETATM    1  C1  UNL     1     -31.983   8.518   4.453  1.00 20.00    -0.004 C 
HETATM    2  C2  UNL     1     -32.904   7.489   4.861  1.00 20.00     0.003 C 
HETATM    3  C3  UNL     1     -31.554   8.610   3.188  1.00 20.00    -0.026 C 
HETATM    4  C4  UNL     1     -33.502   6.678   3.971  1.00 20.00    -0.072 C 
HETATM    5  C5  UNL     1     -32.009   7.665   2.116  1.00 20.00     0.031 C 
HETATM    6  C6  UNL     1     -33.226   6.798   2.490  1.00 20.00     0.038 C 
ENDROOT
BRANCH   4   7
HETATM    7  C10 UNL     1     -34.489   5.628   4.384  1.00 20.00    -0.028 C 
HETATM    8  C7  UNL     1     -35.838   5.902   3.703  1.00 20.00     0.019 C 
HETATM    9  C8  UNL     1     -34.671   5.657   5.910  1.00 20.00     0.019 C 
HETATM   10  C9  UNL     1     -33.977   4.240   3.965  1.00 20.00     0.019 C 
ENDBRANCH   4   7
TORSDOF 1
ENDMDL
MODEL 4
REMARK VINA RESULT:      -4.8      0.958      4.049
REMARK  1 active torsions:
REMARK  status: ('A' for Active; 'I' for Inactive)
REMARK    1  A    between atoms: C4_4  and  C10_10 
ROOT
HETATM    1  C1  UNL     1     -34.073   6.690   6.014  1.00 20.00    -0.004 C 
HETATM    2  C2  UNL     1     -33.397   7.515   5.045  1.00 20.00     0.003 C 
HETATM    3  C3  UNL     1     -34.728   5.580   5.650  1.00 20.00    -0.026 C 
HETATM    4  C4  UNL     1     -33.251   7.132   3.765  1.00 20.00    -0.072 C 
HETATM    5  C5  UNL     1     -34.793   5.117   4.225  1.00 20.00     0.031 C 
HETATM    6  C6  UNL     1     -33.804   5.814   3.272  1.00 20.00     0.038 C 
ENDROOT
BRANCH   4   7
HETATM    7  C10 UNL     1     -32.519   7.968   2.760  1.00 20.00    -0.028 C 
HETATM    8  C7  UNL     1     -31.207   8.475   3.377  1.00 20.00     0.019 C 
HETATM    9  C8  UNL     1     -33.388   9.168   2.349  1.00 20.00     0.019 C 
HETATM   10  C9  UNL     1     -32.204   7.125   1.512  1.00 20.00     0.019 C 
ENDBRANCH   4   7
TORSDOF 1
ENDMDL
MODEL 5
REMARK VINA RESULT:      -4.8      0.957      3.780
REMARK  1 active torsions:
REMARK  status: ('A' for Active; 'I' for Inactive)
REMARK    1  A    between atoms: C4_4  and  C10_10 
ROOT
HETATM    1  C1  UNL     1     -34.713   5.213   4.005  1.00 20.00    -0.004 C 
HETATM    2  C2  UNL     1     -33.878   6.028   3.159  1.00 20.00     0.003 C 
HETATM    3  C3  UNL     1     -34.816   5.449   5.319  1.00 20.00    -0.026 C 
HETATM    4  C4  UNL     1     -33.295   7.153   3.609  1.00 20.00    -0.072 C 
HETATM    5  C5  UNL     1     -34.087   6.574   5.993  1.00 20.00     0.031 C 
HETATM    6  C6  UNL     1     -33.477   7.615   5.036  1.00 20.00     0.038 C 
ENDROOT
BRANCH   4   7
HETATM    7  C10 UNL     1     -32.454   8.024   2.726  1.00 20.00    -0.028 C 
HETATM    8  C7  UNL     1     -31.182   8.437   3.481  1.00 20.00     0.019 C 
HETATM    9  C8  UNL     1     -33.244   9.282   2.330  1.00 20.00     0.019 C 
HETATM   10  C9  UNL     1     -32.066   7.254   1.453  1.00 20.00     0.019 C 
ENDBRANCH   4   7
TORSDOF 1
ENDMDL
MODEL 6
REMARK VINA RESULT:      -4.5     11.247     12.349
REMARK  1 active torsions:
REMARK  status: ('A' for Active; 'I' for Inactive)
REMARK    1  A    between atoms: C4_4  and  C10_10 
ROOT
HETATM    1  C1  UNL     1     -35.516  17.133  -0.938  1.00 20.00    -0.004 C 
HETATM    2  C2  UNL     1     -35.516  16.407  -2.183  1.00 20.00     0.003 C 
HETATM    3  C3  UNL     1     -34.426  17.780  -0.507  1.00 20.00    -0.026 C 
HETATM    4  C4  UNL     1     -34.487  16.477  -3.045  1.00 20.00    -0.072 C 
HETATM    5  C5  UNL     1     -33.146  17.805  -1.289  1.00 20.00     0.031 C 
HETATM    6  C6  UNL     1     -33.266  17.316  -2.744  1.00 20.00     0.038 C 
ENDROOT
BRANCH   4   7
HETATM    7  C10 UNL     1     -34.494  15.753  -4.357  1.00 20.00    -0.028 C 
HETATM    8  C7  UNL     1     -33.210  16.088  -5.131  1.00 20.00     0.019 C 
HETATM    9  C8  UNL     1     -35.717  16.185  -5.184  1.00 20.00     0.019 C 
HETATM   10  C9  UNL     1     -34.563  14.236  -4.114  1.00 20.00     0.019 C 
ENDBRANCH   4   7
TORSDOF 1
ENDMDL
MODEL 7
REMARK VINA RESULT:      -4.4     11.268     12.360
REMARK  1 active torsions:
REMARK  status: ('A' for Active; 'I' for Inactive)
REMARK    1  A    between atoms: C4_4  and  C10_10 
ROOT
HETATM    1  C1  UNL     1     -35.478  17.172  -0.867  1.00 20.00    -0.004 C 
HETATM    2  C2  UNL     1     -35.483  16.452  -2.115  1.00 20.00     0.003 C 
HETATM    3  C3  UNL     1     -34.396  17.845  -0.455  1.00 20.00    -0.026 C 
HETATM    4  C4  UNL     1     -34.474  16.552  -2.997  1.00 20.00    -0.072 C 
HETATM    5  C5  UNL     1     -33.133  17.906  -1.261  1.00 20.00     0.031 C 
HETATM    6  C6  UNL     1     -33.269  17.420  -2.716  1.00 20.00     0.038 C 
ENDROOT
BRANCH   4   7
HETATM    7  C10 UNL     1     -34.489  15.834  -4.312  1.00 20.00    -0.028 C 
HETATM    8  C7  UNL     1     -35.739  16.246  -5.104  1.00 20.00     0.019 C 
HETATM    9  C8  UNL     1     -34.511  14.315  -4.076  1.00 20.00     0.019 C 
HETATM   10  C9  UNL     1     -33.231  16.198  -5.118  1.00 20.00     0.019 C 
ENDBRANCH   4   7
TORSDOF 1
ENDMDL
MODEL 8
REMARK VINA RESULT:      -4.4     11.333     12.291
REMARK  1 active torsions:
REMARK  status: ('A' for Active; 'I' for Inactive)
REMARK    1  A    between atoms: C4_4  and  C10_10 
ROOT
HETATM    1  C1  UNL     1     -32.780  17.941  -1.349  1.00 20.00    -0.004 C 
HETATM    2  C2  UNL     1     -33.258  17.285  -2.540  1.00 20.00     0.003 C 
HETATM    3  C3  UNL     1     -33.586  18.162  -0.303  1.00 20.00    -0.026 C 
HETATM    4  C4  UNL     1     -34.476  16.721  -2.599  1.00 20.00    -0.072 C 
HETATM    5  C5  UNL     1     -35.024  17.735  -0.293  1.00 20.00     0.031 C 
HETATM    6  C6  UNL     1     -35.417  16.758  -1.416  1.00 20.00     0.038 C 
ENDROOT
BRANCH   4   7
HETATM    7  C10 UNL     1     -34.967  16.006  -3.821  1.00 20.00    -0.028 C 
HETATM    8  C7  UNL     1     -34.314  14.618  -3.896  1.00 20.00     0.019 C 
HETATM    9  C8  UNL     1     -34.600  16.812  -5.078  1.00 20.00     0.019 C 
HETATM   10  C9  UNL     1     -36.495  15.849  -3.754  1.00 20.00     0.019 C 
ENDBRANCH   4   7
TORSDOF 1
ENDMDL
MODEL 9
REMARK VINA RESULT:      -4.4     11.299     12.347
REMARK  1 active torsions:
REMARK  status: ('A' for Active; 'I' for Inactive)
REMARK    1  A    between atoms: C4_4  and  C10_10 
ROOT
HETATM    1  C1  UNL     1     -35.076  17.555  -0.372  1.00 20.00    -0.004 C 
HETATM    2  C2  UNL     1     -35.411  16.771  -1.534  1.00 20.00     0.003 C 
HETATM    3  C3  UNL     1     -33.889  18.164  -0.259  1.00 20.00    -0.026 C 
HETATM    4  C4  UNL     1     -34.625  16.746  -2.623  1.00 20.00    -0.072 C 
HETATM    5  C5  UNL     1     -32.841  18.084  -1.330  1.00 20.00     0.031 C 
HETATM    6  C6  UNL     1     -33.336  17.533  -2.680  1.00 20.00     0.038 C 
ENDROOT
BRANCH   4   7
HETATM    7  C10 UNL     1     -34.984  15.962  -3.849  1.00 20.00    -0.028 C 
HETATM    8  C7  UNL     1     -34.218  14.631  -3.845  1.00 20.00     0.019 C 
HETATM    9  C8  UNL     1     -34.611  16.763  -5.108  1.00 20.00     0.019 C 
HETATM   10  C9  UNL     1     -36.496  15.681  -3.863  1.00 20.00     0.019 C 
ENDBRANCH   4   7
TORSDOF 1
ENDMDL
