MODEL 1
REMARK VINA RESULT:      -6.5      0.000      0.000
REMARK  2 active torsions:
REMARK  status: ('A' for Active; 'I' for Inactive)
REMARK    1  A    between atoms: C2_2  and  C3_3 
REMARK    2  A    between atoms: C3_3  and  C7_7 
ROOT
HETATM    1  C3  UNL     1     -32.115   8.085   2.657  1.00 20.00     0.255 C 
HETATM    2  O8  UNL     1     -31.421   8.419   3.613  1.00 20.00    -0.283 OA
ENDROOT
BRANCH   1   3
HETATM    3  C2  UNL     1     -32.944   6.850   2.671  1.00 20.00     0.062 C 
HETATM    4  C1  UNL     1     -33.530   6.430   3.792  1.00 20.00    -0.076 C 
HETATM    5  C4  UNL     1     -34.411   5.244   4.119  1.00 20.00     0.034 C 
HETATM    6  C5  UNL     1     -33.551   6.957   5.211  1.00 20.00     0.034 C 
HETATM    7  C6  UNL     1     -34.811   6.077   5.355  1.00 20.00     0.009 C 
ENDBRANCH   1   3
BRANCH   1   8
HETATM    8  C7  UNL     1     -32.173   8.907   1.403  1.00 20.00     0.455 C 
HETATM    9  F9  UNL     1     -32.247  10.236   1.669  1.00 20.00    -0.163 F 
HETATM   10  F10 UNL     1     -31.077   8.722   0.623  1.00 20.00    -0.163 F 
HETATM   11  F11 UNL     1     -33.253   8.601   0.640  1.00 20.00    -0.163 F 
ENDBRANCH   1   8
TORSDOF 2
ENDMDL
MODEL 2
REMARK VINA RESULT:      -6.5      0.876      1.236
REMARK  2 active torsions:
REMARK  status: ('A' for Active; 'I' for Inactive)
REMARK    1  A    between atoms: C2_2  and  C3_3 
REMARK    2  A    between atoms: C3_3  and  C7_7 
ROOT
HETATM    1  C3  UNL     1     -32.100   8.185   2.839  1.00 20.00     0.255 C 
HETATM    2  O8  UNL     1     -31.037   8.042   3.435  1.00 20.00    -0.283 OA
ENDROOT
BRANCH   1   3
HETATM    3  C2  UNL     1     -33.401   7.757   3.419  1.00 20.00     0.062 C 
HETATM    4  C1  UNL     1     -33.764   6.473   3.415  1.00 20.00    -0.076 C 
HETATM    5  C4  UNL     1     -34.990   5.742   3.915  1.00 20.00     0.034 C 
HETATM    6  C5  UNL     1     -33.106   5.212   2.897  1.00 20.00     0.034 C 
HETATM    7  C6  UNL     1     -34.084   4.495   3.854  1.00 20.00     0.009 C 
ENDBRANCH   1   3
BRANCH   1   8
HETATM    8  C7  UNL     1     -32.159   8.807   1.473  1.00 20.00     0.455 C 
HETATM    9  F9  UNL     1     -32.210  10.162   1.534  1.00 20.00    -0.163 F 
HETATM   10  F10 UNL     1     -31.074   8.488   0.723  1.00 20.00    -0.163 F 
HETATM   11  F11 UNL     1     -33.251   8.406   0.774  1.00 20.00    -0.163 F 
ENDBRANCH   1   8
TORSDOF 2
ENDMDL
MODEL 3
REMARK VINA RESULT:      -6.2      3.368      4.636
REMARK  2 active torsions:
REMARK  status: ('A' for Active; 'I' for Inactive)
REMARK    1  A    between atoms: C2_2  and  C3_3 
REMARK    2  A    between atoms: C3_3  and  C7_7 
ROOT
HETATM    1  C3  UNL     1     -33.779   5.327   3.285  1.00 20.00     0.255 C 
HETATM    2  O8  UNL     1     -33.071   4.328   3.199  1.00 20.00    -0.283 OA
ENDROOT
BRANCH   1   3
HETATM    3  C2  UNL     1     -33.700   6.442   2.304  1.00 20.00     0.062 C 
HETATM    4  C1  UNL     1     -32.891   7.481   2.510  1.00 20.00    -0.076 C 
HETATM    5  C4  UNL     1     -32.595   8.737   1.721  1.00 20.00     0.034 C 
HETATM    6  C5  UNL     1     -31.936   7.845   3.627  1.00 20.00     0.034 C 
HETATM    7  C6  UNL     1     -31.314   8.791   2.577  1.00 20.00     0.009 C 
ENDBRANCH   1   3
BRANCH   1   8
HETATM    8  C7  UNL     1     -34.777   5.491   4.394  1.00 20.00     0.455 C 
HETATM    9  F9  UNL     1     -35.997   5.859   3.928  1.00 20.00    -0.163 F 
HETATM   10  F10 UNL     1     -34.954   4.340   5.093  1.00 20.00    -0.163 F 
HETATM   11  F11 UNL     1     -34.398   6.438   5.288  1.00 20.00    -0.163 F 
ENDBRANCH   1   8
TORSDOF 2
ENDMDL
MODEL 4
REMARK VINA RESULT:      -6.1      2.521      4.333
REMARK  2 active torsions:
REMARK  status: ('A' for Active; 'I' for Inactive)
REMARK    1  A    between atoms: C2_2  and  C3_3 
REMARK    2  A    between atoms: C3_3  and  C7_7 
ROOT
HETATM    1  C3  UNL     1     -33.198   7.005   3.664  1.00 20.00     0.255 C 
HETATM    2  O8  UNL     1     -33.264   7.540   4.766  1.00 20.00    -0.283 OA
ENDROOT
BRANCH   1   3
HETATM    3  C2  UNL     1     -32.165   7.379   2.661  1.00 20.00     0.062 C 
HETATM    4  C1  UNL     1     -32.355   8.403   1.828  1.00 20.00    -0.076 C 
HETATM    5  C4  UNL     1     -31.517   9.013   0.727  1.00 20.00     0.034 C 
HETATM    6  C5  UNL     1     -33.496   9.377   1.630  1.00 20.00     0.034 C 
HETATM    7  C6  UNL     1     -32.430  10.241   0.922  1.00 20.00     0.009 C 
ENDBRANCH   1   3
BRANCH   1   8
HETATM    8  C7  UNL     1     -34.163   5.932   3.251  1.00 20.00     0.455 C 
HETATM    9  F9  UNL     1     -34.424   5.969   1.920  1.00 20.00    -0.163 F 
HETATM   10  F10 UNL     1     -33.688   4.690   3.524  1.00 20.00    -0.163 F 
HETATM   11  F11 UNL     1     -35.356   6.043   3.887  1.00 20.00    -0.163 F 
ENDBRANCH   1   8
TORSDOF 2
ENDMDL
MODEL 5
REMARK VINA RESULT:      -6.1      1.175      1.805
REMARK  2 active torsions:
REMARK  status: ('A' for Active; 'I' for Inactive)
REMARK    1  A    between atoms: C2_2  and  C3_3 
REMARK    2  A    between atoms: C3_3  and  C7_7 
ROOT
HETATM    1  C3  UNL     1     -32.556   7.510   2.450  1.00 20.00     0.255 C 
HETATM    2  O8  UNL     1     -32.768   6.420   1.928  1.00 20.00    -0.283 OA
ENDROOT
BRANCH   1   3
HETATM    3  C2  UNL     1     -32.700   7.732   3.914  1.00 20.00     0.062 C 
HETATM    4  C1  UNL     1     -33.598   7.049   4.625  1.00 20.00    -0.076 C 
HETATM    5  C4  UNL     1     -33.976   7.049   6.090  1.00 20.00     0.034 C 
HETATM    6  C5  UNL     1     -34.624   5.997   4.263  1.00 20.00     0.034 C 
HETATM    7  C6  UNL     1     -34.597   5.673   5.772  1.00 20.00     0.009 C 
ENDBRANCH   1   3
BRANCH   1   8
HETATM    8  C7  UNL     1     -32.135   8.702   1.639  1.00 20.00     0.455 C 
HETATM    9  F9  UNL     1     -33.127   9.134   0.820  1.00 20.00    -0.163 F 
HETATM   10  F10 UNL     1     -31.787   9.753   2.424  1.00 20.00    -0.163 F 
HETATM   11  F11 UNL     1     -31.065   8.431   0.849  1.00 20.00    -0.163 F 
ENDBRANCH   1   8
TORSDOF 2
ENDMDL
MODEL 6
REMARK VINA RESULT:      -6.1      1.328      1.672
REMARK  2 active torsions:
REMARK  status: ('A' for Active; 'I' for Inactive)
REMARK    1  A    between atoms: C2_2  and  C3_3 
REMARK    2  A    between atoms: C3_3  and  C7_7 
ROOT
HETATM    1  C3  UNL     1     -32.860   7.504   2.580  1.00 20.00     0.255 C 
HETATM    2  O8  UNL     1     -33.258   6.587   1.867  1.00 20.00    -0.283 OA
ENDROOT
BRANCH   1   3
HETATM    3  C2  UNL     1     -33.073   7.514   4.052  1.00 20.00     0.062 C 
HETATM    4  C1  UNL     1     -33.894   6.637   4.633  1.00 20.00    -0.076 C 
HETATM    5  C4  UNL     1     -34.308   6.399   6.068  1.00 20.00     0.034 C 
HETATM    6  C5  UNL     1     -34.763   5.520   4.097  1.00 20.00     0.034 C 
HETATM    7  C6  UNL     1     -34.735   5.009   5.554  1.00 20.00     0.009 C 
ENDBRANCH   1   3
BRANCH   1   8
HETATM    8  C7  UNL     1     -32.129   8.684   2.010  1.00 20.00     0.455 C 
HETATM    9  F9  UNL     1     -31.401   9.334   2.953  1.00 20.00    -0.163 F 
HETATM   10  F10 UNL     1     -31.265   8.320   1.027  1.00 20.00    -0.163 F 
HETATM   11  F11 UNL     1     -32.975   9.598   1.469  1.00 20.00    -0.163 F 
ENDBRANCH   1   8
TORSDOF 2
ENDMDL
MODEL 7
REMARK VINA RESULT:      -6.1      1.512      2.089
REMARK  2 active torsions:
REMARK  status: ('A' for Active; 'I' for Inactive)
REMARK    1  A    between atoms: C2_2  and  C3_3 
REMARK    2  A    between atoms: C3_3  and  C7_7 
ROOT
HETATM    1  C3  UNL     1     -31.989   8.853   1.367  1.00 20.00     0.255 C 
HETATM    2  O8  UNL     1     -31.128   8.256   0.729  1.00 20.00    -0.283 OA
ENDROOT
BRANCH   1   3
HETATM    3  C2  UNL     1     -32.284   8.540   2.791  1.00 20.00     0.062 C 
HETATM    4  C1  UNL     1     -33.079   7.521   3.118  1.00 20.00    -0.076 C 
HETATM    5  C4  UNL     1     -33.557   6.963   4.441  1.00 20.00     0.034 C 
HETATM    6  C5  UNL     1     -33.844   6.501   2.303  1.00 20.00     0.034 C 
HETATM    7  C6  UNL     1     -33.866   5.695   3.620  1.00 20.00     0.009 C 
ENDBRANCH   1   3
BRANCH   1   8
HETATM    8  C7  UNL     1     -32.809   9.948   0.747  1.00 20.00     0.455 C 
HETATM    9  F9  UNL     1     -32.058  11.036   0.446  1.00 20.00    -0.163 F 
HETATM   10  F10 UNL     1     -33.402   9.547  -0.407  1.00 20.00    -0.163 F 
HETATM   11  F11 UNL     1     -33.801  10.372   1.570  1.00 20.00    -0.163 F 
ENDBRANCH   1   8
TORSDOF 2
ENDMDL
MODEL 8
REMARK VINA RESULT:      -5.8      3.248      4.642
REMARK  2 active torsions:
REMARK  status: ('A' for Active; 'I' for Inactive)
REMARK    1  A    between atoms: C2_2  and  C3_3 
REMARK    2  A    between atoms: C3_3  and  C7_7 
ROOT
HETATM    1  C3  UNL     1     -33.918   6.815   4.643  1.00 20.00     0.255 C 
HETATM    2  O8  UNL     1     -33.371   7.286   5.636  1.00 20.00    -0.283 OA
ENDROOT
BRANCH   1   3
HETATM    3  C2  UNL     1     -34.051   7.577   3.373  1.00 20.00     0.062 C 
HETATM    4  C1  UNL     1     -32.984   8.111   2.779  1.00 20.00    -0.076 C 
HETATM    5  C4  UNL     1     -32.798   8.920   1.514  1.00 20.00     0.034 C 
HETATM    6  C5  UNL     1     -31.511   8.142   3.127  1.00 20.00     0.034 C 
HETATM    7  C6  UNL     1     -31.323   8.484   1.633  1.00 20.00     0.009 C 
ENDBRANCH   1   3
BRANCH   1   8
HETATM    8  C7  UNL     1     -34.495   5.429   4.647  1.00 20.00     0.455 C 
HETATM    9  F9  UNL     1     -35.760   5.405   4.155  1.00 20.00    -0.163 F 
HETATM   10  F10 UNL     1     -33.763   4.572   3.890  1.00 20.00    -0.163 F 
HETATM   11  F11 UNL     1     -34.550   4.900   5.895  1.00 20.00    -0.163 F 
ENDBRANCH   1   8
TORSDOF 2
ENDMDL
MODEL 9
REMARK VINA RESULT:      -5.8      3.262      4.711
REMARK  2 active torsions:
REMARK  status: ('A' for Active; 'I' for Inactive)
REMARK    1  A    between atoms: C2_2  and  C3_3 
REMARK    2  A    between atoms: C3_3  and  C7_7 
ROOT
HETATM    1  C3  UNL     1     -33.506   5.846   3.369  1.00 20.00     0.255 C 
HETATM    2  O8  UNL     1     -33.124   5.034   2.532  1.00 20.00    -0.283 OA
ENDROOT
BRANCH   1   3
HETATM    3  C2  UNL     1     -32.765   7.105   3.651  1.00 20.00     0.062 C 
HETATM    4  C1  UNL     1     -32.473   7.962   2.672  1.00 20.00    -0.076 C 
HETATM    5  C4  UNL     1     -31.750   9.290   2.639  1.00 20.00     0.034 C 
HETATM    6  C5  UNL     1     -32.732   7.959   1.180  1.00 20.00     0.034 C 
HETATM    7  C6  UNL     1     -32.472   9.477   1.289  1.00 20.00     0.009 C 
ENDBRANCH   1   3
BRANCH   1   8
HETATM    8  C7  UNL     1     -34.755   5.620   4.171  1.00 20.00     0.455 C 
HETATM    9  F9  UNL     1     -35.866   6.024   3.504  1.00 20.00    -0.163 F 
HETATM   10  F10 UNL     1     -34.934   4.309   4.475  1.00 20.00    -0.163 F 
HETATM   11  F11 UNL     1     -34.737   6.297   5.347  1.00 20.00    -0.163 F 
ENDBRANCH   1   8
TORSDOF 2
ENDMDL
