MODEL 1
REMARK VINA RESULT:      -5.8      0.000      0.000
REMARK  2 active torsions:
REMARK  status: ('A' for Active; 'I' for Inactive)
REMARK    1  A    between atoms: C3_3  and  C4_4 
REMARK    2  A    between atoms: C3_3  and  C5_5 
ROOT
HETATM    1  C3  UNL     1     -33.706   6.608   4.317  1.00 20.00     0.157 C 
ENDROOT
BRANCH   1   2
HETATM    2  C4  UNL     1     -34.736   5.547   4.691  1.00 20.00     0.245 C 
HETATM    3  C1  UNL     1     -34.254   4.139   4.412  1.00 20.00     0.090 C 
HETATM    4  F6  UNL     1     -35.885   5.759   4.001  1.00 20.00    -0.207 F 
HETATM    5  F7  UNL     1     -35.044   5.649   6.009  1.00 20.00    -0.207 F 
ENDBRANCH   1   2
BRANCH   1   6
HETATM    6  C5  UNL     1     -33.263   6.500   2.861  1.00 20.00     0.245 C 
HETATM    7  C2  UNL     1     -32.601   7.765   2.356  1.00 20.00     0.090 C 
HETATM    8  F8  UNL     1     -32.394   5.468   2.719  1.00 20.00    -0.207 F 
HETATM    9  F9  UNL     1     -34.333   6.224   2.073  1.00 20.00    -0.207 F 
ENDBRANCH   1   6
TORSDOF 2
ENDMDL
MODEL 2
REMARK VINA RESULT:      -5.8      0.893      3.434
REMARK  2 active torsions:
REMARK  status: ('A' for Active; 'I' for Inactive)
REMARK    1  A    between atoms: C3_3  and  C4_4 
REMARK    2  A    between atoms: C3_3  and  C5_5 
ROOT
HETATM    1  C3  UNL     1     -33.765   6.725   4.151  1.00 20.00     0.157 C 
ENDROOT
BRANCH   1   2
HETATM    2  C4  UNL     1     -33.168   6.684   2.748  1.00 20.00     0.245 C 
HETATM    3  C1  UNL     1     -32.521   7.994   2.350  1.00 20.00     0.090 C 
HETATM    4  F6  UNL     1     -34.135   6.383   1.845  1.00 20.00    -0.207 F 
HETATM    5  F7  UNL     1     -32.238   5.698   2.672  1.00 20.00    -0.207 F 
ENDBRANCH   1   2
BRANCH   1   6
HETATM    6  C5  UNL     1     -34.630   5.505   4.450  1.00 20.00     0.245 C 
HETATM    7  C2  UNL     1     -34.683   5.173   5.926  1.00 20.00     0.090 C 
HETATM    8  F8  UNL     1     -35.895   5.716   4.006  1.00 20.00    -0.207 F 
HETATM    9  F9  UNL     1     -34.153   4.426   3.778  1.00 20.00    -0.207 F 
ENDBRANCH   1   6
TORSDOF 2
ENDMDL
MODEL 3
REMARK VINA RESULT:      -5.8      0.899      1.228
REMARK  2 active torsions:
REMARK  status: ('A' for Active; 'I' for Inactive)
REMARK    1  A    between atoms: C3_3  and  C4_4 
REMARK    2  A    between atoms: C3_3  and  C5_5 
ROOT
HETATM    1  C3  UNL     1     -33.767   6.737   4.137  1.00 20.00     0.157 C 
ENDROOT
BRANCH   1   2
HETATM    2  C4  UNL     1     -34.625   5.513   4.436  1.00 20.00     0.245 C 
HETATM    3  C1  UNL     1     -34.671   5.177   5.912  1.00 20.00     0.090 C 
HETATM    4  F6  UNL     1     -34.145   4.438   3.760  1.00 20.00    -0.207 F 
HETATM    5  F7  UNL     1     -35.892   5.720   3.997  1.00 20.00    -0.207 F 
ENDBRANCH   1   2
BRANCH   1   6
HETATM    6  C5  UNL     1     -33.157   6.693   2.740  1.00 20.00     0.245 C 
HETATM    7  C2  UNL     1     -32.485   7.993   2.353  1.00 20.00     0.090 C 
HETATM    8  F8  UNL     1     -32.243   5.692   2.667  1.00 20.00    -0.207 F 
HETATM    9  F9  UNL     1     -34.121   6.412   1.826  1.00 20.00    -0.207 F 
ENDBRANCH   1   6
TORSDOF 2
ENDMDL
MODEL 4
REMARK VINA RESULT:      -5.7      1.432      1.810
REMARK  2 active torsions:
REMARK  status: ('A' for Active; 'I' for Inactive)
REMARK    1  A    between atoms: C3_3  and  C4_4 
REMARK    2  A    between atoms: C3_3  and  C5_5 
ROOT
HETATM    1  C3  UNL     1     -33.336   6.080   3.188  1.00 20.00     0.157 C 
ENDROOT
BRANCH   1   2
HETATM    2  C4  UNL     1     -34.468   5.695   4.134  1.00 20.00     0.245 C 
HETATM    3  C1  UNL     1     -34.431   4.233   4.527  1.00 20.00     0.090 C 
HETATM    4  F6  UNL     1     -35.665   5.959   3.551  1.00 20.00    -0.207 F 
HETATM    5  F7  UNL     1     -34.405   6.450   5.260  1.00 20.00    -0.207 F 
ENDBRANCH   1   2
BRANCH   1   6
HETATM    6  C5  UNL     1     -32.961   7.554   3.300  1.00 20.00     0.245 C 
HETATM    7  C2  UNL     1     -32.155   8.045   2.115  1.00 20.00     0.090 C 
HETATM    8  F8  UNL     1     -34.085   8.309   3.403  1.00 20.00    -0.207 F 
HETATM    9  F9  UNL     1     -32.243   7.763   4.432  1.00 20.00    -0.207 F 
ENDBRANCH   1   6
TORSDOF 2
ENDMDL
MODEL 5
REMARK VINA RESULT:      -5.7      1.439      3.460
REMARK  2 active torsions:
REMARK  status: ('A' for Active; 'I' for Inactive)
REMARK    1  A    between atoms: C3_3  and  C4_4 
REMARK    2  A    between atoms: C3_3  and  C5_5 
ROOT
HETATM    1  C3  UNL     1     -33.387   6.084   3.232  1.00 20.00     0.157 C 
ENDROOT
BRANCH   1   2
HETATM    2  C4  UNL     1     -33.001   7.555   3.347  1.00 20.00     0.245 C 
HETATM    3  C1  UNL     1     -32.185   8.039   2.166  1.00 20.00     0.090 C 
HETATM    4  F6  UNL     1     -32.286   7.756   4.482  1.00 20.00    -0.207 F 
HETATM    5  F7  UNL     1     -34.119   8.318   3.445  1.00 20.00    -0.207 F 
ENDBRANCH   1   2
BRANCH   1   6
HETATM    6  C5  UNL     1     -34.516   5.704   4.185  1.00 20.00     0.245 C 
HETATM    7  C2  UNL     1     -34.468   4.248   4.598  1.00 20.00     0.090 C 
HETATM    8  F8  UNL     1     -34.457   6.475   5.300  1.00 20.00    -0.207 F 
HETATM    9  F9  UNL     1     -35.716   5.951   3.600  1.00 20.00    -0.207 F 
ENDBRANCH   1   6
TORSDOF 2
ENDMDL
MODEL 6
REMARK VINA RESULT:      -5.7      1.599      2.117
REMARK  2 active torsions:
REMARK  status: ('A' for Active; 'I' for Inactive)
REMARK    1  A    between atoms: C3_3  and  C4_4 
REMARK    2  A    between atoms: C3_3  and  C5_5 
ROOT
HETATM    1  C3  UNL     1     -33.432   5.792   3.424  1.00 20.00     0.157 C 
ENDROOT
BRANCH   1   2
HETATM    2  C4  UNL     1     -34.598   5.326   4.291  1.00 20.00     0.245 C 
HETATM    3  C1  UNL     1     -34.466   5.767   5.734  1.00 20.00     0.090 C 
HETATM    4  F6  UNL     1     -34.685   3.972   4.255  1.00 20.00    -0.207 F 
HETATM    5  F7  UNL     1     -35.764   5.809   3.792  1.00 20.00    -0.207 F 
ENDBRANCH   1   2
BRANCH   1   6
HETATM    6  C5  UNL     1     -33.182   7.292   3.545  1.00 20.00     0.245 C 
HETATM    7  C2  UNL     1     -32.381   7.846   2.386  1.00 20.00     0.090 C 
HETATM    8  F8  UNL     1     -34.365   7.952   3.611  1.00 20.00    -0.207 F 
HETATM    9  F9  UNL     1     -32.518   7.557   4.699  1.00 20.00    -0.207 F 
ENDBRANCH   1   6
TORSDOF 2
ENDMDL
MODEL 7
REMARK VINA RESULT:      -5.3      1.260      3.409
REMARK  2 active torsions:
REMARK  status: ('A' for Active; 'I' for Inactive)
REMARK    1  A    between atoms: C3_3  and  C4_4 
REMARK    2  A    between atoms: C3_3  and  C5_5 
ROOT
HETATM    1  C3  UNL     1     -33.958   7.152   4.139  1.00 20.00     0.157 C 
ENDROOT
BRANCH   1   2
HETATM    2  C4  UNL     1     -32.655   7.399   3.385  1.00 20.00     0.245 C 
HETATM    3  C1  UNL     1     -32.847   8.257   2.152  1.00 20.00     0.090 C 
HETATM    4  F6  UNL     1     -32.107   6.215   3.011  1.00 20.00    -0.207 F 
HETATM    5  F7  UNL     1     -31.758   8.006   4.203  1.00 20.00    -0.207 F 
ENDBRANCH   1   2
BRANCH   1   6
HETATM    6  C5  UNL     1     -34.667   5.884   3.672  1.00 20.00     0.245 C 
HETATM    7  C2  UNL     1     -34.474   4.722   4.623  1.00 20.00     0.090 C 
HETATM    8  F8  UNL     1     -35.997   6.123   3.541  1.00 20.00    -0.207 F 
HETATM    9  F9  UNL     1     -34.209   5.525   2.446  1.00 20.00    -0.207 F 
ENDBRANCH   1   6
TORSDOF 2
ENDMDL
MODEL 8
REMARK VINA RESULT:      -5.3      1.371      1.881
REMARK  2 active torsions:
REMARK  status: ('A' for Active; 'I' for Inactive)
REMARK    1  A    between atoms: C3_3  and  C4_4 
REMARK    2  A    between atoms: C3_3  and  C5_5 
ROOT
HETATM    1  C3  UNL     1     -34.176   7.310   3.478  1.00 20.00     0.157 C 
ENDROOT
BRANCH   1   2
HETATM    2  C4  UNL     1     -34.593   5.973   4.080  1.00 20.00     0.245 C 
HETATM    3  C1  UNL     1     -34.352   5.903   5.573  1.00 20.00     0.090 C 
HETATM    4  F6  UNL     1     -33.910   4.965   3.481  1.00 20.00    -0.207 F 
HETATM    5  F7  UNL     1     -35.911   5.751   3.841  1.00 20.00    -0.207 F 
ENDBRANCH   1   2
BRANCH   1   6
HETATM    6  C5  UNL     1     -32.675   7.387   3.217  1.00 20.00     0.245 C 
HETATM    7  C2  UNL     1     -32.324   8.345   2.098  1.00 20.00     0.090 C 
HETATM    8  F8  UNL     1     -32.031   7.781   4.345  1.00 20.00    -0.207 F 
HETATM    9  F9  UNL     1     -32.199   6.156   2.902  1.00 20.00    -0.207 F 
ENDBRANCH   1   6
TORSDOF 2
ENDMDL
MODEL 9
REMARK VINA RESULT:      -5.2      2.530      3.822
REMARK  2 active torsions:
REMARK  status: ('A' for Active; 'I' for Inactive)
REMARK    1  A    between atoms: C3_3  and  C4_4 
REMARK    2  A    between atoms: C3_3  and  C5_5 
ROOT
HETATM    1  C3  UNL     1     -33.283   8.173   2.015  1.00 20.00     0.157 C 
ENDROOT
BRANCH   1   2
HETATM    2  C4  UNL     1     -32.572   7.407   3.126  1.00 20.00     0.245 C 
HETATM    3  C1  UNL     1     -33.418   7.267   4.374  1.00 20.00     0.090 C 
HETATM    4  F6  UNL     1     -31.415   8.037   3.452  1.00 20.00    -0.207 F 
HETATM    5  F7  UNL     1     -32.234   6.168   2.687  1.00 20.00    -0.207 F 
ENDBRANCH   1   2
BRANCH   1   6
HETATM    6  C5  UNL     1     -32.325   9.036   1.199  1.00 20.00     0.245 C 
HETATM    7  C2  UNL     1     -32.904   9.451  -0.137  1.00 20.00     0.090 C 
HETATM    8  F8  UNL     1     -32.001  10.153   1.899  1.00 20.00    -0.207 F 
HETATM    9  F9  UNL     1     -31.168   8.360   0.981  1.00 20.00    -0.207 F 
ENDBRANCH   1   6
TORSDOF 2
ENDMDL
