MODEL 1
REMARK VINA RESULT:      -4.5      0.000      0.000
REMARK  2 active torsions:
REMARK  status: ('A' for Active; 'I' for Inactive)
REMARK    1  A    between atoms: C3_3  and  O10_10 
REMARK    2  A    between atoms: C8_8  and  O10_10 
ROOT
HETATM    1  C1  UNL     1     -33.239   4.754   2.734  1.00 20.00     0.069 C 
HETATM    2  C2  UNL     1     -34.165   4.349   3.904  1.00 20.00     0.173 C 
HETATM    3  C3  UNL     1     -33.121   6.173   3.335  1.00 20.00     0.134 C 
HETATM    4  C4  UNL     1     -34.397   5.874   4.194  1.00 20.00     0.008 C 
HETATM    5  C5  UNL     1     -34.289   6.404   5.626  1.00 20.00     0.020 C 
HETATM    6  C6  UNL     1     -35.712   6.357   3.559  1.00 20.00     0.020 C 
HETATM    7  O9  UNL     1     -33.477   3.646   4.912  1.00 20.00    -0.234 OA
ENDROOT
BRANCH   3   8
HETATM    8  O10 UNL     1     -33.211   7.268   2.404  1.00 20.00    -0.385 OA
BRANCH   8   9
HETATM    9  C8  UNL     1     -32.073   8.102   2.497  1.00 20.00     0.163 C 
HETATM   10  C7  UNL     1     -32.081   9.077   1.339  1.00 20.00     0.033 C 
ENDBRANCH   8   9
ENDBRANCH   3   8
TORSDOF 2
ENDMDL
MODEL 2
REMARK VINA RESULT:      -4.2      1.588      2.458
REMARK  2 active torsions:
REMARK  status: ('A' for Active; 'I' for Inactive)
REMARK    1  A    between atoms: C3_3  and  O10_10 
REMARK    2  A    between atoms: C8_8  and  O10_10 
ROOT
HETATM    1  C1  UNL     1     -32.375   7.874   4.290  1.00 20.00     0.069 C 
HETATM    2  C2  UNL     1     -33.191   6.732   4.938  1.00 20.00     0.173 C 
HETATM    3  C3  UNL     1     -33.315   7.834   3.063  1.00 20.00     0.134 C 
HETATM    4  C4  UNL     1     -33.790   6.412   3.522  1.00 20.00     0.008 C 
HETATM    5  C5  UNL     1     -35.298   6.207   3.359  1.00 20.00     0.020 C 
HETATM    6  C6  UNL     1     -33.032   5.250   2.859  1.00 20.00     0.020 C 
HETATM    7  O9  UNL     1     -34.118   7.209   5.886  1.00 20.00    -0.234 OA
ENDROOT
BRANCH   3   8
HETATM    8  O10 UNL     1     -32.682   7.918   1.773  1.00 20.00    -0.385 OA
BRANCH   8   9
HETATM    9  C8  UNL     1     -32.517   9.266   1.380  1.00 20.00     0.163 C 
HETATM   10  C7  UNL     1     -32.902   9.405  -0.078  1.00 20.00     0.033 C 
ENDBRANCH   8   9
ENDBRANCH   3   8
TORSDOF 2
ENDMDL
MODEL 3
REMARK VINA RESULT:      -4.0     11.608     12.300
REMARK  2 active torsions:
REMARK  status: ('A' for Active; 'I' for Inactive)
REMARK    1  A    between atoms: C3_3  and  O10_10 
REMARK    2  A    between atoms: C8_8  and  O10_10 
ROOT
HETATM    1  C1  UNL     1     -33.712  14.481  -4.618  1.00 20.00     0.069 C 
HETATM    2  C2  UNL     1     -34.983  14.119  -5.421  1.00 20.00     0.173 C 
HETATM    3  C3  UNL     1     -34.555  15.425  -3.731  1.00 20.00     0.134 C 
HETATM    4  C4  UNL     1     -35.669  15.403  -4.834  1.00 20.00     0.008 C 
HETATM    5  C5  UNL     1     -37.082  15.315  -4.251  1.00 20.00     0.020 C 
HETATM    6  C6  UNL     1     -35.590  16.570  -5.833  1.00 20.00     0.020 C 
HETATM    7  O9  UNL     1     -35.546  12.897  -5.006  1.00 20.00    -0.234 OA
ENDROOT
BRANCH   3   8
HETATM    8  O10 UNL     1     -33.971  16.706  -3.429  1.00 20.00    -0.385 OA
BRANCH   8   9
HETATM    9  C8  UNL     1     -33.891  16.905  -2.031  1.00 20.00     0.163 C 
HETATM   10  C7  UNL     1     -35.289  16.877  -1.450  1.00 20.00     0.033 C 
ENDBRANCH   8   9
ENDBRANCH   3   8
TORSDOF 2
ENDMDL
MODEL 4
REMARK VINA RESULT:      -3.8     12.042     13.099
REMARK  2 active torsions:
REMARK  status: ('A' for Active; 'I' for Inactive)
REMARK    1  A    between atoms: C3_3  and  O10_10 
REMARK    2  A    between atoms: C8_8  and  O10_10 
ROOT
HETATM    1  C1  UNL     1     -34.074  14.172  -7.534  1.00 20.00     0.069 C 
HETATM    2  C2  UNL     1     -35.362  13.321  -7.460  1.00 20.00     0.173 C 
HETATM    3  C3  UNL     1     -34.482  14.884  -6.225  1.00 20.00     0.134 C 
HETATM    4  C4  UNL     1     -35.945  14.368  -6.446  1.00 20.00     0.008 C 
HETATM    5  C5  UNL     1     -36.611  13.890  -5.153  1.00 20.00     0.020 C 
HETATM    6  C6  UNL     1     -36.865  15.370  -7.164  1.00 20.00     0.020 C 
HETATM    7  O9  UNL     1     -35.126  12.039  -6.927  1.00 20.00    -0.234 OA
ENDROOT
BRANCH   3   8
HETATM    8  O10 UNL     1     -34.299  16.312  -6.191  1.00 20.00    -0.385 OA
BRANCH   8   9
HETATM    9  C8  UNL     1     -33.438  16.684  -5.133  1.00 20.00     0.163 C 
HETATM   10  C7  UNL     1     -33.531  15.645  -4.035  1.00 20.00     0.033 C 
ENDBRANCH   8   9
ENDBRANCH   3   8
TORSDOF 2
ENDMDL
MODEL 5
REMARK VINA RESULT:      -3.8     11.662     13.228
REMARK  2 active torsions:
REMARK  status: ('A' for Active; 'I' for Inactive)
REMARK    1  A    between atoms: C3_3  and  O10_10 
REMARK    2  A    between atoms: C8_8  and  O10_10 
ROOT
HETATM    1  C1  UNL     1     -35.112  14.197  -4.432  1.00 20.00     0.069 C 
HETATM    2  C2  UNL     1     -36.080  13.404  -5.339  1.00 20.00     0.173 C 
HETATM    3  C3  UNL     1     -35.021  15.299  -5.512  1.00 20.00     0.134 C 
HETATM    4  C4  UNL     1     -35.591  14.273  -6.551  1.00 20.00     0.008 C 
HETATM    5  C5  UNL     1     -36.613  14.897  -7.505  1.00 20.00     0.020 C 
HETATM    6  C6  UNL     1     -34.513  13.530  -7.358  1.00 20.00     0.020 C 
HETATM    7  O9  UNL     1     -37.428  13.589  -4.975  1.00 20.00    -0.234 OA
ENDROOT
BRANCH   3   8
HETATM    8  O10 UNL     1     -33.708  15.825  -5.777  1.00 20.00    -0.385 OA
BRANCH   8   9
HETATM    9  C8  UNL     1     -33.737  17.237  -5.855  1.00 20.00     0.163 C 
HETATM   10  C7  UNL     1     -34.050  17.645  -7.279  1.00 20.00     0.033 C 
ENDBRANCH   8   9
ENDBRANCH   3   8
TORSDOF 2
ENDMDL
MODEL 6
REMARK VINA RESULT:      -3.7     11.547     12.994
REMARK  2 active torsions:
REMARK  status: ('A' for Active; 'I' for Inactive)
REMARK    1  A    between atoms: C3_3  and  O10_10 
REMARK    2  A    between atoms: C8_8  and  O10_10 
ROOT
HETATM    1  C1  UNL     1     -36.451  15.068  -5.705  1.00 20.00     0.069 C 
HETATM    2  C2  UNL     1     -35.880  14.029  -4.713  1.00 20.00     0.173 C 
HETATM    3  C3  UNL     1     -35.062  15.740  -5.785  1.00 20.00     0.134 C 
HETATM    4  C4  UNL     1     -34.670  14.998  -4.461  1.00 20.00     0.008 C 
HETATM    5  C5  UNL     1     -33.239  14.454  -4.485  1.00 20.00     0.020 C 
HETATM    6  C6  UNL     1     -34.891  15.827  -3.184  1.00 20.00     0.020 C 
HETATM    7  O9  UNL     1     -35.552  12.813  -5.343  1.00 20.00    -0.234 OA
ENDROOT
BRANCH   3   8
HETATM    8  O10 UNL     1     -35.047  17.180  -5.747  1.00 20.00    -0.385 OA
BRANCH   8   9
HETATM    9  C8  UNL     1     -34.083  17.697  -6.643  1.00 20.00     0.163 C 
HETATM   10  C7  UNL     1     -34.001  16.791  -7.854  1.00 20.00     0.033 C 
ENDBRANCH   8   9
ENDBRANCH   3   8
TORSDOF 2
ENDMDL
MODEL 7
REMARK VINA RESULT:      -3.7      1.547      2.482
REMARK  2 active torsions:
REMARK  status: ('A' for Active; 'I' for Inactive)
REMARK    1  A    between atoms: C3_3  and  O10_10 
REMARK    2  A    between atoms: C8_8  and  O10_10 
ROOT
HETATM    1  C1  UNL     1     -33.936   6.737   4.772  1.00 20.00     0.069 C 
HETATM    2  C2  UNL     1     -34.772   5.667   4.034  1.00 20.00     0.173 C 
HETATM    3  C3  UNL     1     -33.379   7.222   3.414  1.00 20.00     0.134 C 
HETATM    4  C4  UNL     1     -33.845   5.866   2.782  1.00 20.00     0.008 C 
HETATM    5  C5  UNL     1     -34.465   6.039   1.393  1.00 20.00     0.020 C 
HETATM    6  C6  UNL     1     -32.753   4.784   2.733  1.00 20.00     0.020 C 
HETATM    7  O9  UNL     1     -36.112   6.065   3.856  1.00 20.00    -0.234 OA
ENDROOT
BRANCH   3   8
HETATM    8  O10 UNL     1     -31.968   7.505   3.368  1.00 20.00    -0.385 OA
BRANCH   8   9
HETATM    9  C8  UNL     1     -31.726   8.766   2.776  1.00 20.00     0.163 C 
HETATM   10  C7  UNL     1     -31.734   8.612   1.269  1.00 20.00     0.033 C 
ENDBRANCH   8   9
ENDBRANCH   3   8
TORSDOF 2
ENDMDL
MODEL 8
REMARK VINA RESULT:      -3.7     11.464     13.365
REMARK  2 active torsions:
REMARK  status: ('A' for Active; 'I' for Inactive)
REMARK    1  A    between atoms: C3_3  and  O10_10 
REMARK    2  A    between atoms: C8_8  and  O10_10 
ROOT
HETATM    1  C1  UNL     1     -36.075  15.087  -4.389  1.00 20.00     0.069 C 
HETATM    2  C2  UNL     1     -35.202  13.845  -4.680  1.00 20.00     0.173 C 
HETATM    3  C3  UNL     1     -35.605  15.716  -5.720  1.00 20.00     0.134 C 
HETATM    4  C4  UNL     1     -34.412  14.700  -5.734  1.00 20.00     0.008 C 
HETATM    5  C5  UNL     1     -34.133  14.128  -7.127  1.00 20.00     0.020 C 
HETATM    6  C6  UNL     1     -33.110  15.248  -5.127  1.00 20.00     0.020 C 
HETATM    7  O9  UNL     1     -35.951  12.778  -5.215  1.00 20.00    -0.234 OA
ENDROOT
BRANCH   3   8
HETATM    8  O10 UNL     1     -35.263  17.114  -5.678  1.00 20.00    -0.385 OA
BRANCH   8   9
HETATM    9  C8  UNL     1     -35.566  17.743  -6.908  1.00 20.00     0.163 C 
HETATM   10  C7  UNL     1     -34.290  17.897  -7.709  1.00 20.00     0.033 C 
ENDBRANCH   8   9
ENDBRANCH   3   8
TORSDOF 2
ENDMDL
MODEL 9
REMARK VINA RESULT:      -3.6     11.622     12.823
REMARK  2 active torsions:
REMARK  status: ('A' for Active; 'I' for Inactive)
REMARK    1  A    between atoms: C3_3  and  O10_10 
REMARK    2  A    between atoms: C8_8  and  O10_10 
ROOT
HETATM    1  C1  UNL     1     -35.258  16.976  -5.160  1.00 20.00     0.069 C 
HETATM    2  C2  UNL     1     -34.507  15.918  -6.001  1.00 20.00     0.173 C 
HETATM    3  C3  UNL     1     -34.712  16.323  -3.871  1.00 20.00     0.134 C 
HETATM    4  C4  UNL     1     -34.385  15.038  -4.707  1.00 20.00     0.008 C 
HETATM    5  C5  UNL     1     -33.038  14.412  -4.334  1.00 20.00     0.020 C 
HETATM    6  C6  UNL     1     -35.485  13.964  -4.669  1.00 20.00     0.020 C 
HETATM    7  O9  UNL     1     -33.289  16.406  -6.511  1.00 20.00    -0.234 OA
ENDROOT
BRANCH   3   8
HETATM    8  O10 UNL     1     -35.649  16.168  -2.789  1.00 20.00    -0.385 OA
BRANCH   8   9
HETATM    9  C8  UNL     1     -35.154  16.762  -1.605  1.00 20.00     0.163 C 
HETATM   10  C7  UNL     1     -33.719  17.189  -1.832  1.00 20.00     0.033 C 
ENDBRANCH   8   9
ENDBRANCH   3   8
TORSDOF 2
ENDMDL
