MODEL 1
REMARK VINA RESULT:      -6.0      0.000      0.000
REMARK  1 active torsions:
REMARK  status: ('A' for Active; 'I' for Inactive)
REMARK    1  A    between atoms: C3_3  and  C5_5 
ROOT
HETATM    1  C1  UNL     1     -33.870   6.884   3.458  1.00 20.00     0.055 A 
HETATM    2  C2  UNL     1     -32.950   6.307   2.691  1.00 20.00     0.085 A 
HETATM    3  C3  UNL     1     -34.675   5.842   4.148  1.00 20.00     0.273 A 
HETATM    4  C4  UNL     1     -33.062   4.840   2.810  1.00 20.00     0.378 A 
HETATM    5  O6  UNL     1     -34.110   4.578   3.754  1.00 20.00    -0.273 OA
HETATM    6  F7  UNL     1     -35.965   5.859   3.719  1.00 20.00    -0.202 F 
HETATM    7  F8  UNL     1     -33.384   4.240   1.639  1.00 20.00    -0.171 F 
HETATM    8  F9  UNL     1     -31.926   4.263   3.270  1.00 20.00    -0.171 F 
ENDROOT
BRANCH   3   9
HETATM    9  C5  UNL     1     -34.659   5.954   5.661  1.00 20.00     0.337 C 
HETATM   10  F10 UNL     1     -34.137   4.812   6.176  1.00 20.00    -0.226 F 
HETATM   11 CL11 UNL     1     -33.669   7.332   6.176  1.00 20.00    -0.083 Cl
ENDBRANCH   3   9
TORSDOF 1
ENDMDL
MODEL 2
REMARK VINA RESULT:      -5.9      2.355      3.647
REMARK  1 active torsions:
REMARK  status: ('A' for Active; 'I' for Inactive)
REMARK    1  A    between atoms: C3_3  and  C5_5 
ROOT
HETATM    1  C1  UNL     1     -34.607   4.715   4.604  1.00 20.00     0.055 A 
HETATM    2  C2  UNL     1     -34.196   5.074   5.817  1.00 20.00     0.085 A 
HETATM    3  C3  UNL     1     -34.816   5.924   3.766  1.00 20.00     0.273 A 
HETATM    4  C4  UNL     1     -34.094   6.545   5.885  1.00 20.00     0.378 A 
HETATM    5  O6  UNL     1     -34.441   7.046   4.586  1.00 20.00    -0.273 OA
HETATM    6  F7  UNL     1     -36.130   6.076   3.451  1.00 20.00    -0.202 F 
HETATM    7  F8  UNL     1     -34.940   7.089   6.792  1.00 20.00    -0.171 F 
HETATM    8  F9  UNL     1     -32.842   6.970   6.181  1.00 20.00    -0.171 F 
ENDROOT
BRANCH   3   9
HETATM    9  C5  UNL     1     -33.999   5.935   2.489  1.00 20.00     0.337 C 
HETATM   10  F10 UNL     1     -33.306   7.101   2.426  1.00 20.00    -0.226 F 
HETATM   11 CL11 UNL     1     -32.860   4.577   2.461  1.00 20.00    -0.083 Cl
ENDBRANCH   3   9
TORSDOF 1
ENDMDL
MODEL 3
REMARK VINA RESULT:      -5.8      3.989      4.872
REMARK  1 active torsions:
REMARK  status: ('A' for Active; 'I' for Inactive)
REMARK    1  A    between atoms: C3_3  and  C5_5 
ROOT
HETATM    1  C1  UNL     1     -31.655   8.764   3.027  1.00 20.00     0.055 A 
HETATM    2  C2  UNL     1     -32.129   7.771   3.773  1.00 20.00     0.085 A 
HETATM    3  C3  UNL     1     -32.150   8.625   1.633  1.00 20.00     0.273 A 
HETATM    4  C4  UNL     1     -32.980   6.897   2.943  1.00 20.00     0.378 A 
HETATM    5  O6  UNL     1     -33.013   7.473   1.630  1.00 20.00    -0.273 OA
HETATM    6  F7  UNL     1     -31.127   8.365   0.776  1.00 20.00    -0.202 F 
HETATM    7  F8  UNL     1     -32.497   5.635   2.843  1.00 20.00    -0.171 F 
HETATM    8  F9  UNL     1     -34.253   6.816   3.401  1.00 20.00    -0.171 F 
ENDROOT
BRANCH   3   9
HETATM    9  C5  UNL     1     -32.918   9.833   1.130  1.00 20.00     0.337 C 
HETATM   10  F10 UNL     1     -32.156  10.941   1.314  1.00 20.00    -0.226 F 
HETATM   11 CL11 UNL     1     -33.295   9.664  -0.594  1.00 20.00    -0.083 Cl
ENDBRANCH   3   9
TORSDOF 1
ENDMDL
MODEL 4
REMARK VINA RESULT:      -5.8      1.916      2.178
REMARK  1 active torsions:
REMARK  status: ('A' for Active; 'I' for Inactive)
REMARK    1  A    between atoms: C3_3  and  C5_5 
ROOT
HETATM    1  C1  UNL     1     -34.204   7.023   4.710  1.00 20.00     0.055 A 
HETATM    2  C2  UNL     1     -33.179   7.660   4.152  1.00 20.00     0.085 A 
HETATM    3  C3  UNL     1     -34.701   5.967   3.790  1.00 20.00     0.273 A 
HETATM    4  C4  UNL     1     -32.906   7.079   2.823  1.00 20.00     0.378 A 
HETATM    5  O6  UNL     1     -33.835   6.002   2.641  1.00 20.00    -0.273 OA
HETATM    6  F7  UNL     1     -35.958   6.250   3.357  1.00 20.00    -0.202 F 
HETATM    7  F8  UNL     1     -33.081   7.967   1.815  1.00 20.00    -0.171 F 
HETATM    8  F9  UNL     1     -31.652   6.578   2.717  1.00 20.00    -0.171 F 
ENDROOT
BRANCH   3   9
HETATM    9  C5  UNL     1     -34.690   4.574   4.391  1.00 20.00     0.337 C 
HETATM   10  F10 UNL     1     -33.663   3.874   3.845  1.00 20.00    -0.226 F 
HETATM   11 CL11 UNL     1     -34.475   4.651   6.149  1.00 20.00    -0.083 Cl
ENDBRANCH   3   9
TORSDOF 1
ENDMDL
MODEL 5
REMARK VINA RESULT:      -5.6      3.131      3.621
REMARK  1 active torsions:
REMARK  status: ('A' for Active; 'I' for Inactive)
REMARK    1  A    between atoms: C3_3  and  C5_5 
ROOT
HETATM    1  C1  UNL     1     -32.165   7.555   3.908  1.00 20.00     0.055 A 
HETATM    2  C2  UNL     1     -31.365   8.358   3.211  1.00 20.00     0.085 A 
HETATM    3  C3  UNL     1     -33.406   7.287   3.136  1.00 20.00     0.273 A 
HETATM    4  C4  UNL     1     -32.003   8.684   1.920  1.00 20.00     0.378 A 
HETATM    5  O6  UNL     1     -33.248   7.972   1.879  1.00 20.00    -0.273 OA
HETATM    6  F7  UNL     1     -34.490   7.825   3.755  1.00 20.00    -0.202 F 
HETATM    7  F8  UNL     1     -32.264  10.006   1.782  1.00 20.00    -0.171 F 
HETATM    8  F9  UNL     1     -31.260   8.297   0.856  1.00 20.00    -0.171 F 
ENDROOT
BRANCH   3   9
HETATM    9  C5  UNL     1     -33.664   5.815   2.880  1.00 20.00     0.337 C 
HETATM   10  F10 UNL     1     -32.476   5.197   2.658  1.00 20.00    -0.226 F 
HETATM   11 CL11 UNL     1     -34.460   5.066   4.276  1.00 20.00    -0.083 Cl
ENDBRANCH   3   9
TORSDOF 1
ENDMDL
MODEL 6
REMARK VINA RESULT:      -5.5      2.140      3.504
REMARK  1 active torsions:
REMARK  status: ('A' for Active; 'I' for Inactive)
REMARK    1  A    between atoms: C3_3  and  C5_5 
ROOT
HETATM    1  C1  UNL     1     -34.810   6.057   3.399  1.00 20.00     0.055 A 
HETATM    2  C2  UNL     1     -35.197   5.317   4.435  1.00 20.00     0.085 A 
HETATM    3  C3  UNL     1     -33.758   7.014   3.830  1.00 20.00     0.273 A 
HETATM    4  C4  UNL     1     -34.433   5.715   5.633  1.00 20.00     0.378 A 
HETATM    5  O6  UNL     1     -33.516   6.738   5.222  1.00 20.00    -0.273 OA
HETATM    6  F7  UNL     1     -34.200   8.296   3.743  1.00 20.00    -0.202 F 
HETATM    7  F8  UNL     1     -35.220   6.218   6.615  1.00 20.00    -0.171 F 
HETATM    8  F9  UNL     1     -33.717   4.693   6.161  1.00 20.00    -0.171 F 
ENDROOT
BRANCH   3   9
HETATM    9  C5  UNL     1     -32.459   6.888   3.056  1.00 20.00     0.337 C 
HETATM   10  F10 UNL     1     -32.463   5.706   2.389  1.00 20.00    -0.226 F 
HETATM   11 CL11 UNL     1     -32.292   8.214   1.892  1.00 20.00    -0.083 Cl
ENDBRANCH   3   9
TORSDOF 1
ENDMDL
MODEL 7
REMARK VINA RESULT:      -5.5      2.103      3.348
REMARK  1 active torsions:
REMARK  status: ('A' for Active; 'I' for Inactive)
REMARK    1  A    between atoms: C3_3  and  C5_5 
ROOT
HETATM    1  C1  UNL     1     -32.972   5.430   2.811  1.00 20.00     0.055 A 
HETATM    2  C2  UNL     1     -33.879   4.850   3.591  1.00 20.00     0.085 A 
HETATM    3  C3  UNL     1     -33.138   6.906   2.859  1.00 20.00     0.273 A 
HETATM    4  C4  UNL     1     -34.716   5.887   4.226  1.00 20.00     0.378 A 
HETATM    5  O6  UNL     1     -34.208   7.156   3.790  1.00 20.00    -0.273 OA
HETATM    6  F7  UNL     1     -33.531   7.392   1.653  1.00 20.00    -0.202 F 
HETATM    7  F8  UNL     1     -36.019   5.805   3.865  1.00 20.00    -0.171 F 
HETATM    8  F9  UNL     1     -34.660   5.852   5.579  1.00 20.00    -0.171 F 
ENDROOT
BRANCH   3   9
HETATM    9  C5  UNL     1     -31.894   7.650   3.308  1.00 20.00     0.337 C 
HETATM   10  F10 UNL     1     -31.611   8.614   2.395  1.00 20.00    -0.226 F 
HETATM   11 CL11 UNL     1     -32.150   8.403   4.892  1.00 20.00    -0.083 Cl
ENDBRANCH   3   9
TORSDOF 1
ENDMDL
MODEL 8
REMARK VINA RESULT:      -5.4      2.394      3.666
REMARK  1 active torsions:
REMARK  status: ('A' for Active; 'I' for Inactive)
REMARK    1  A    between atoms: C3_3  and  C5_5 
ROOT
HETATM    1  C1  UNL     1     -33.206   7.279   4.451  1.00 20.00     0.055 A 
HETATM    2  C2  UNL     1     -34.220   6.603   4.983  1.00 20.00     0.085 A 
HETATM    3  C3  UNL     1     -33.022   6.875   3.033  1.00 20.00     0.273 A 
HETATM    4  C4  UNL     1     -34.796   5.702   3.966  1.00 20.00     0.378 A 
HETATM    5  O6  UNL     1     -34.064   5.921   2.753  1.00 20.00    -0.273 OA
HETATM    6  F7  UNL     1     -31.834   6.238   2.858  1.00 20.00    -0.202 F 
HETATM    7  F8  UNL     1     -34.684   4.393   4.300  1.00 20.00    -0.171 F 
HETATM    8  F9  UNL     1     -36.104   5.955   3.722  1.00 20.00    -0.171 F 
ENDROOT
BRANCH   3   9
HETATM    9  C5  UNL     1     -33.112   8.026   2.050  1.00 20.00     0.337 C 
HETATM   10  F10 UNL     1     -33.634   9.104   2.689  1.00 20.00    -0.226 F 
HETATM   11 CL11 UNL     1     -31.507   8.441   1.420  1.00 20.00    -0.083 Cl
ENDBRANCH   3   9
TORSDOF 1
ENDMDL
MODEL 9
REMARK VINA RESULT:      -5.3      4.022      4.753
REMARK  1 active torsions:
REMARK  status: ('A' for Active; 'I' for Inactive)
REMARK    1  A    between atoms: C3_3  and  C5_5 
ROOT
HETATM    1  C1  UNL     1     -31.399   8.093   1.402  1.00 20.00     0.055 A 
HETATM    2  C2  UNL     1     -31.618   9.032   0.487  1.00 20.00     0.085 A 
HETATM    3  C3  UNL     1     -32.324   8.283   2.550  1.00 20.00     0.273 A 
HETATM    4  C4  UNL     1     -32.707   9.918   0.944  1.00 20.00     0.378 A 
HETATM    5  O6  UNL     1     -33.158   9.406   2.206  1.00 20.00    -0.273 OA
HETATM    6  F7  UNL     1     -31.641   8.618   3.676  1.00 20.00    -0.202 F 
HETATM    7  F8  UNL     1     -32.302  11.198   1.124  1.00 20.00    -0.171 F 
HETATM    8  F9  UNL     1     -33.761   9.934   0.094  1.00 20.00    -0.171 F 
ENDROOT
BRANCH   3   9
HETATM    9  C5  UNL     1     -33.196   7.077   2.843  1.00 20.00     0.337 C 
HETATM   10  F10 UNL     1     -32.471   5.952   2.618  1.00 20.00    -0.226 F 
HETATM   11 CL11 UNL     1     -33.742   7.093   4.529  1.00 20.00    -0.083 Cl
ENDBRANCH   3   9
TORSDOF 1
ENDMDL
