MODEL 1
REMARK VINA RESULT:      -5.6      0.000      0.000
REMARK  1 active torsions:
REMARK  status: ('A' for Active; 'I' for Inactive)
REMARK    1  A    between atoms: C4_4  and  C9_9 
ROOT
HETATM    1  C1  UNL     1     -31.489   8.539   1.323  1.00 20.00     0.017 C 
HETATM    2  C2  UNL     1     -32.237   8.074   2.137  1.00 20.00    -0.089 C 
HETATM    3  C3  UNL     1     -33.129   7.541   3.113  1.00 20.00     0.066 C 
HETATM    4  C4  UNL     1     -33.434   6.232   3.240  1.00 20.00    -0.068 C 
HETATM    5  C5  UNL     1     -32.840   5.188   2.313  1.00 20.00     0.044 C 
ENDROOT
BRANCH   4   6
HETATM    6  C9  UNL     1     -34.404   5.699   4.330  1.00 20.00    -0.028 C 
HETATM    7  C6  UNL     1     -34.186   4.187   4.552  1.00 20.00     0.019 C 
HETATM    8  C7  UNL     1     -34.233   6.381   5.711  1.00 20.00     0.019 C 
HETATM    9  C8  UNL     1     -35.863   5.935   3.888  1.00 20.00     0.019 C 
ENDBRANCH   4   6
TORSDOF 1
ENDMDL
MODEL 2
REMARK VINA RESULT:      -5.6      0.089      1.430
REMARK  1 active torsions:
REMARK  status: ('A' for Active; 'I' for Inactive)
REMARK    1  A    between atoms: C4_4  and  C9_9 
ROOT
HETATM    1  C1  UNL     1     -31.461   8.556   1.294  1.00 20.00     0.017 C 
HETATM    2  C2  UNL     1     -32.213   8.103   2.113  1.00 20.00    -0.089 C 
HETATM    3  C3  UNL     1     -33.108   7.586   3.093  1.00 20.00     0.066 C 
HETATM    4  C4  UNL     1     -33.414   6.279   3.240  1.00 20.00    -0.068 C 
HETATM    5  C5  UNL     1     -32.816   5.220   2.331  1.00 20.00     0.044 C 
ENDROOT
BRANCH   4   6
HETATM    6  C9  UNL     1     -34.388   5.764   4.334  1.00 20.00    -0.028 C 
HETATM    7  C6  UNL     1     -35.853   5.967   3.890  1.00 20.00     0.019 C 
HETATM    8  C7  UNL     1     -34.227   4.258   4.660  1.00 20.00     0.019 C 
HETATM    9  C8  UNL     1     -34.151   6.538   5.647  1.00 20.00     0.019 C 
ENDBRANCH   4   6
TORSDOF 1
ENDMDL
MODEL 3
REMARK VINA RESULT:      -5.4      0.087      1.439
REMARK  1 active torsions:
REMARK  status: ('A' for Active; 'I' for Inactive)
REMARK    1  A    between atoms: C4_4  and  C9_9 
ROOT
HETATM    1  C1  UNL     1     -31.442   8.583   1.287  1.00 20.00     0.017 C 
HETATM    2  C2  UNL     1     -32.203   8.119   2.091  1.00 20.00    -0.089 C 
HETATM    3  C3  UNL     1     -33.110   7.589   3.054  1.00 20.00     0.066 C 
HETATM    4  C4  UNL     1     -33.405   6.278   3.191  1.00 20.00    -0.068 C 
HETATM    5  C5  UNL     1     -32.779   5.229   2.290  1.00 20.00     0.044 C 
ENDROOT
BRANCH   4   6
HETATM    6  C9  UNL     1     -34.393   5.749   4.266  1.00 20.00    -0.028 C 
HETATM    7  C6  UNL     1     -34.164   6.473   5.610  1.00 20.00     0.019 C 
HETATM    8  C7  UNL     1     -35.885   5.948   3.901  1.00 20.00     0.019 C 
HETATM    9  C8  UNL     1     -34.176   4.235   4.470  1.00 20.00     0.019 C 
ENDBRANCH   4   6
TORSDOF 1
ENDMDL
MODEL 4
REMARK VINA RESULT:      -4.7      1.360      4.744
REMARK  1 active torsions:
REMARK  status: ('A' for Active; 'I' for Inactive)
REMARK    1  A    between atoms: C4_4  and  C9_9 
ROOT
HETATM    1  C1  UNL     1     -34.302   5.510   4.156  1.00 20.00     0.017 C 
HETATM    2  C2  UNL     1     -34.034   6.285   3.280  1.00 20.00    -0.089 C 
HETATM    3  C3  UNL     1     -33.732   7.196   2.227  1.00 20.00     0.066 C 
HETATM    4  C4  UNL     1     -32.697   8.064   2.236  1.00 20.00    -0.068 C 
HETATM    5  C5  UNL     1     -31.746   8.148   3.416  1.00 20.00     0.044 C 
ENDROOT
BRANCH   4   6
HETATM    6  C9  UNL     1     -32.402   9.030   1.057  1.00 20.00    -0.028 C 
HETATM    7  C6  UNL     1     -30.982   8.786   0.504  1.00 20.00     0.019 C 
HETATM    8  C7  UNL     1     -33.377   8.879  -0.138  1.00 20.00     0.019 C 
HETATM    9  C8  UNL     1     -32.507  10.490   1.542  1.00 20.00     0.019 C 
ENDBRANCH   4   6
TORSDOF 1
ENDMDL
MODEL 5
REMARK VINA RESULT:      -4.6      1.363      4.716
REMARK  1 active torsions:
REMARK  status: ('A' for Active; 'I' for Inactive)
REMARK    1  A    between atoms: C4_4  and  C9_9 
ROOT
HETATM    1  C1  UNL     1     -34.333   5.446   4.096  1.00 20.00     0.017 C 
HETATM    2  C2  UNL     1     -34.062   6.242   3.239  1.00 20.00    -0.089 C 
HETATM    3  C3  UNL     1     -33.757   7.178   2.210  1.00 20.00     0.066 C 
HETATM    4  C4  UNL     1     -32.708   8.029   2.232  1.00 20.00    -0.068 C 
HETATM    5  C5  UNL     1     -31.743   8.064   3.403  1.00 20.00     0.044 C 
ENDROOT
BRANCH   4   6
HETATM    6  C9  UNL     1     -32.411   9.024   1.077  1.00 20.00    -0.028 C 
HETATM    7  C6  UNL     1     -33.413   8.821  -0.080  1.00 20.00     0.019 C 
HETATM    8  C7  UNL     1     -32.504  10.513   1.491  1.00 20.00     0.019 C 
HETATM    9  C8  UNL     1     -30.981   8.792   0.546  1.00 20.00     0.019 C 
ENDBRANCH   4   6
TORSDOF 1
ENDMDL
MODEL 6
REMARK VINA RESULT:      -4.5      1.343      4.717
REMARK  1 active torsions:
REMARK  status: ('A' for Active; 'I' for Inactive)
REMARK    1  A    between atoms: C4_4  and  C9_9 
ROOT
HETATM    1  C1  UNL     1     -34.326   5.503   4.216  1.00 20.00     0.017 C 
HETATM    2  C2  UNL     1     -34.047   6.267   3.334  1.00 20.00    -0.089 C 
HETATM    3  C3  UNL     1     -33.732   7.165   2.274  1.00 20.00     0.066 C 
HETATM    4  C4  UNL     1     -32.694   8.030   2.283  1.00 20.00    -0.068 C 
HETATM    5  C5  UNL     1     -31.754   8.124   3.471  1.00 20.00     0.044 C 
ENDROOT
BRANCH   4   6
HETATM    6  C9  UNL     1     -32.385   8.981   1.095  1.00 20.00    -0.028 C 
HETATM    7  C6  UNL     1     -32.495  10.455   1.544  1.00 20.00     0.019 C 
HETATM    8  C7  UNL     1     -30.967   8.802   0.499  1.00 20.00     0.019 C 
HETATM    9  C8  UNL     1     -33.391   8.730  -0.048  1.00 20.00     0.019 C 
ENDBRANCH   4   6
TORSDOF 1
ENDMDL
MODEL 7
REMARK VINA RESULT:      -4.0     11.541     12.461
REMARK  1 active torsions:
REMARK  status: ('A' for Active; 'I' for Inactive)
REMARK    1  A    between atoms: C4_4  and  C9_9 
ROOT
HETATM    1  C1  UNL     1     -35.517  17.762   0.981  1.00 20.00     0.017 C 
HETATM    2  C2  UNL     1     -35.487  17.333  -0.140  1.00 20.00    -0.089 C 
HETATM    3  C3  UNL     1     -35.472  16.814  -1.467  1.00 20.00     0.066 C 
HETATM    4  C4  UNL     1     -34.412  16.872  -2.302  1.00 20.00    -0.068 C 
HETATM    5  C5  UNL     1     -33.109  17.528  -1.881  1.00 20.00     0.044 C 
ENDROOT
BRANCH   4   6
HETATM    6  C9  UNL     1     -34.442  16.281  -3.737  1.00 20.00    -0.028 C 
HETATM    7  C6  UNL     1     -34.206  17.392  -4.783  1.00 20.00     0.019 C 
HETATM    8  C7  UNL     1     -33.367  15.195  -3.992  1.00 20.00     0.019 C 
HETATM    9  C8  UNL     1     -35.814  15.627  -4.002  1.00 20.00     0.019 C 
ENDBRANCH   4   6
TORSDOF 1
ENDMDL
MODEL 8
REMARK VINA RESULT:      -4.0     11.543     12.562
REMARK  1 active torsions:
REMARK  status: ('A' for Active; 'I' for Inactive)
REMARK    1  A    between atoms: C4_4  and  C9_9 
ROOT
HETATM    1  C1  UNL     1     -32.238  18.875   0.318  1.00 20.00     0.017 C 
HETATM    2  C2  UNL     1     -32.612  18.353  -0.696  1.00 20.00    -0.089 C 
HETATM    3  C3  UNL     1     -33.037  17.740  -1.910  1.00 20.00     0.066 C 
HETATM    4  C4  UNL     1     -34.235  17.143  -2.090  1.00 20.00    -0.068 C 
HETATM    5  C5  UNL     1     -35.256  17.065  -0.969  1.00 20.00     0.044 C 
ENDROOT
BRANCH   4   6
HETATM    6  C9  UNL     1     -34.657  16.499  -3.438  1.00 20.00    -0.028 C 
HETATM    7  C6  UNL     1     -34.452  17.497  -4.599  1.00 20.00     0.019 C 
HETATM    8  C7  UNL     1     -33.859  15.223  -3.802  1.00 20.00     0.019 C 
HETATM    9  C8  UNL     1     -36.146  16.099  -3.380  1.00 20.00     0.019 C 
ENDBRANCH   4   6
TORSDOF 1
ENDMDL
MODEL 9
REMARK VINA RESULT:      -4.0     11.381     12.252
REMARK  1 active torsions:
REMARK  status: ('A' for Active; 'I' for Inactive)
REMARK    1  A    between atoms: C4_4  and  C9_9 
ROOT
HETATM    1  C1  UNL     1     -34.040  18.141  -0.412  1.00 20.00     0.017 C 
HETATM    2  C2  UNL     1     -33.885  17.433  -1.368  1.00 20.00    -0.089 C 
HETATM    3  C3  UNL     1     -33.678  16.594  -2.501  1.00 20.00     0.066 C 
HETATM    4  C4  UNL     1     -34.663  16.114  -3.291  1.00 20.00    -0.068 C 
HETATM    5  C5  UNL     1     -36.122  16.432  -3.017  1.00 20.00     0.044 C 
ENDROOT
BRANCH   4   6
HETATM    6  C9  UNL     1     -34.385  15.212  -4.523  1.00 20.00    -0.028 C 
HETATM    7  C6  UNL     1     -32.964  14.614  -4.443  1.00 20.00     0.019 C 
HETATM    8  C7  UNL     1     -35.362  14.018  -4.662  1.00 20.00     0.019 C 
HETATM    9  C8  UNL     1     -34.505  16.046  -5.816  1.00 20.00     0.019 C 
ENDBRANCH   4   6
TORSDOF 1
ENDMDL
