MODEL 1
REMARK VINA RESULT:      -4.9      0.000      0.000
REMARK  0 active torsions:
REMARK  status: ('A' for Active; 'I' for Inactive)
ROOT
HETATM    1  C1  UNL     1     -34.456   4.278   5.026  1.00 20.00     0.001 C 
HETATM    2  C2  UNL     1     -34.002   4.008   3.780  1.00 20.00     0.001 C 
HETATM    3  C3  UNL     1     -32.300   8.349   4.998  1.00 20.00     0.001 C 
HETATM    4  C4  UNL     1     -31.804   8.055   3.641  1.00 20.00     0.001 C 
HETATM    5  C5  UNL     1     -33.319   7.792   5.694  1.00 20.00     0.009 C 
HETATM    6  C6  UNL     1     -32.237   7.151   2.731  1.00 20.00     0.009 C 
HETATM    7  C7  UNL     1     -34.196   5.518   5.757  1.00 20.00     0.009 C 
HETATM    8  C8  UNL     1     -33.183   4.917   2.978  1.00 20.00     0.009 C 
HETATM    9  C9  UNL     1     -34.166   6.731   5.161  1.00 20.00    -0.039 C 
HETATM   10  C10 UNL     1     -33.367   6.256   2.965  1.00 20.00    -0.039 C 
HETATM   11  C11 UNL     1     -34.483   6.932   3.708  1.00 20.00     0.123 C 
HETATM   12 BR12 UNL     1     -36.269   6.386   3.175  1.00 20.00    -0.081 Br
ENDROOT
TORSDOF 0
ENDMDL
MODEL 2
REMARK VINA RESULT:      -4.6     12.120     13.702
REMARK  0 active torsions:
REMARK  status: ('A' for Active; 'I' for Inactive)
ROOT
HETATM    1  C1  UNL     1     -33.435  16.586  -4.221  1.00 20.00     0.001 C 
HETATM    2  C2  UNL     1     -34.136  15.742  -3.428  1.00 20.00     0.001 C 
HETATM    3  C3  UNL     1     -34.402  14.014  -7.918  1.00 20.00     0.001 C 
HETATM    4  C4  UNL     1     -35.165  13.094  -7.054  1.00 20.00     0.001 C 
HETATM    5  C5  UNL     1     -34.003  15.287  -7.697  1.00 20.00     0.009 C 
HETATM    6  C6  UNL     1     -35.668  13.280  -5.811  1.00 20.00     0.009 C 
HETATM    7  C7  UNL     1     -33.294  16.442  -5.670  1.00 20.00     0.009 C 
HETATM    8  C8  UNL     1     -34.857  14.560  -3.902  1.00 20.00     0.009 C 
HETATM    9  C9  UNL     1     -34.298  16.018  -6.469  1.00 20.00    -0.039 C 
HETATM   10  C10 UNL     1     -35.534  14.531  -5.071  1.00 20.00    -0.039 C 
HETATM   11  C11 UNL     1     -35.681  15.734  -5.958  1.00 20.00     0.123 C 
HETATM   12 BR12 UNL     1     -36.578  17.250  -5.138  1.00 20.00    -0.081 Br
ENDROOT
TORSDOF 0
ENDMDL
MODEL 3
REMARK VINA RESULT:      -4.6     12.031     12.830
REMARK  0 active torsions:
REMARK  status: ('A' for Active; 'I' for Inactive)
ROOT
HETATM    1  C1  UNL     1     -36.860  14.111  -5.071  1.00 20.00     0.001 C 
HETATM    2  C2  UNL     1     -35.584  13.663  -5.029  1.00 20.00     0.001 C 
HETATM    3  C3  UNL     1     -35.852  17.456  -2.069  1.00 20.00     0.001 C 
HETATM    4  C4  UNL     1     -34.462  16.968  -2.022  1.00 20.00     0.001 C 
HETATM    5  C5  UNL     1     -36.826  17.229  -2.981  1.00 20.00     0.009 C 
HETATM    6  C6  UNL     1     -33.791  16.163  -2.879  1.00 20.00     0.009 C 
HETATM    7  C7  UNL     1     -37.359  15.275  -4.339  1.00 20.00     0.009 C 
HETATM    8  C8  UNL     1     -34.512  14.277  -4.245  1.00 20.00     0.009 C 
HETATM    9  C9  UNL     1     -36.633  16.403  -4.168  1.00 20.00    -0.039 C 
HETATM   10  C10 UNL     1     -34.383  15.614  -4.094  1.00 20.00    -0.039 C 
HETATM   11  C11 UNL     1     -35.280  16.601  -4.785  1.00 20.00     0.123 C 
HETATM   12 BR12 UNL     1     -35.244  16.520  -6.726  1.00 20.00    -0.081 Br
ENDROOT
TORSDOF 0
ENDMDL
MODEL 4
REMARK VINA RESULT:      -4.5     12.173     13.410
REMARK  0 active torsions:
REMARK  status: ('A' for Active; 'I' for Inactive)
ROOT
HETATM    1  C1  UNL     1     -34.632  18.453  -4.669  1.00 20.00     0.001 C 
HETATM    2  C2  UNL     1     -35.874  18.018  -4.352  1.00 20.00     0.001 C 
HETATM    3  C3  UNL     1     -33.375  18.290  -0.240  1.00 20.00     0.001 C 
HETATM    4  C4  UNL     1     -34.729  17.817   0.106  1.00 20.00     0.001 C 
HETATM    5  C5  UNL     1     -32.736  18.305  -1.433  1.00 20.00     0.009 C 
HETATM    6  C6  UNL     1     -35.689  17.274  -0.678  1.00 20.00     0.009 C 
HETATM    7  C7  UNL     1     -33.544  18.639  -3.709  1.00 20.00     0.009 C 
HETATM    8  C8  UNL     1     -36.314  17.670  -3.001  1.00 20.00     0.009 C 
HETATM    9  C9  UNL     1     -33.331  17.804  -2.667  1.00 20.00    -0.039 C 
HETATM   10  C10 UNL     1     -35.520  17.038  -2.108  1.00 20.00    -0.039 C 
HETATM   11  C11 UNL     1     -34.137  16.558  -2.444  1.00 20.00     0.123 C 
HETATM   12 BR12 UNL     1     -34.051  15.258  -3.886  1.00 20.00    -0.081 Br
ENDROOT
TORSDOF 0
ENDMDL
MODEL 5
REMARK VINA RESULT:      -4.4     12.126     13.379
REMARK  0 active torsions:
REMARK  status: ('A' for Active; 'I' for Inactive)
ROOT
HETATM    1  C1  UNL     1     -33.031  15.480  -5.216  1.00 20.00     0.001 C 
HETATM    2  C2  UNL     1     -33.706  15.976  -6.280  1.00 20.00     0.001 C 
HETATM    3  C3  UNL     1     -36.000  17.484  -2.320  1.00 20.00     0.001 C 
HETATM    4  C4  UNL     1     -36.734  18.025  -3.478  1.00 20.00     0.001 C 
HETATM    5  C5  UNL     1     -35.108  16.469  -2.250  1.00 20.00     0.009 C 
HETATM    6  C6  UNL     1     -36.711  17.650  -4.778  1.00 20.00     0.009 C 
HETATM    7  C7  UNL     1     -33.419  15.675  -3.819  1.00 20.00     0.009 C 
HETATM    8  C8  UNL     1     -34.924  16.782  -6.191  1.00 20.00     0.009 C 
HETATM    9  C9  UNL     1     -34.706  15.675  -3.406  1.00 20.00    -0.039 C 
HETATM   10  C10 UNL     1     -35.895  16.549  -5.280  1.00 20.00    -0.039 C 
HETATM   11  C11 UNL     1     -35.857  15.389  -4.327  1.00 20.00     0.123 C 
HETATM   12 BR12 UNL     1     -35.817  13.639  -5.169  1.00 20.00    -0.081 Br
ENDROOT
TORSDOF 0
ENDMDL
MODEL 6
REMARK VINA RESULT:      -4.4     12.139     13.559
REMARK  0 active torsions:
REMARK  status: ('A' for Active; 'I' for Inactive)
ROOT
HETATM    1  C1  UNL     1     -32.980  15.555  -4.985  1.00 20.00     0.001 C 
HETATM    2  C2  UNL     1     -33.397  14.390  -4.437  1.00 20.00     0.001 C 
HETATM    3  C3  UNL     1     -37.193  16.342  -6.675  1.00 20.00     0.001 C 
HETATM    4  C4  UNL     1     -37.647  15.071  -6.080  1.00 20.00     0.001 C 
HETATM    5  C5  UNL     1     -36.099  17.090  -6.402  1.00 20.00     0.009 C 
HETATM    6  C6  UNL     1     -37.091  14.318  -5.102  1.00 20.00     0.009 C 
HETATM    7  C7  UNL     1     -33.837  16.481  -5.727  1.00 20.00     0.009 C 
HETATM    8  C8  UNL     1     -34.767  13.881  -4.507  1.00 20.00     0.009 C 
HETATM    9  C9  UNL     1     -35.119  16.734  -5.382  1.00 20.00    -0.039 C 
HETATM   10  C10 UNL     1     -35.854  14.680  -4.417  1.00 20.00    -0.039 C 
HETATM   11  C11 UNL     1     -35.761  16.156  -4.154  1.00 20.00     0.123 C 
HETATM   12 BR12 UNL     1     -34.904  16.636  -2.478  1.00 20.00    -0.081 Br
ENDROOT
TORSDOF 0
ENDMDL
MODEL 7
REMARK VINA RESULT:      -4.4     11.900     13.388
REMARK  0 active torsions:
REMARK  status: ('A' for Active; 'I' for Inactive)
ROOT
HETATM    1  C1  UNL     1     -34.814  18.417  -4.586  1.00 20.00     0.001 C 
HETATM    2  C2  UNL     1     -33.621  17.785  -4.497  1.00 20.00     0.001 C 
HETATM    3  C3  UNL     1     -37.001  14.379  -4.944  1.00 20.00     0.001 C 
HETATM    4  C4  UNL     1     -35.701  13.689  -4.849  1.00 20.00     0.001 C 
HETATM    5  C5  UNL     1     -37.343  15.644  -4.606  1.00 20.00     0.009 C 
HETATM    6  C6  UNL     1     -34.507  14.138  -4.398  1.00 20.00     0.009 C 
HETATM    7  C7  UNL     1     -36.108  17.744  -4.698  1.00 20.00     0.009 C 
HETATM    8  C8  UNL     1     -33.448  16.332  -4.501  1.00 20.00     0.009 C 
HETATM    9  C9  UNL     1     -36.403  16.603  -4.036  1.00 20.00    -0.039 C 
HETATM   10  C10 UNL     1     -34.301  15.487  -3.880  1.00 20.00    -0.039 C 
HETATM   11  C11 UNL     1     -35.463  15.963  -3.056  1.00 20.00     0.123 C 
HETATM   12 BR12 UNL     1     -34.987  17.071  -1.534  1.00 20.00    -0.081 Br
ENDROOT
TORSDOF 0
ENDMDL
MODEL 8
REMARK VINA RESULT:      -4.4     12.087     13.371
REMARK  0 active torsions:
REMARK  status: ('A' for Active; 'I' for Inactive)
ROOT
HETATM    1  C1  UNL     1     -34.505  14.161  -5.549  1.00 20.00     0.001 C 
HETATM    2  C2  UNL     1     -33.947  14.983  -6.468  1.00 20.00     0.001 C 
HETATM    3  C3  UNL     1     -33.985  17.362  -2.277  1.00 20.00     0.001 C 
HETATM    4  C4  UNL     1     -33.375  18.257  -3.277  1.00 20.00     0.001 C 
HETATM    5  C5  UNL     1     -34.751  16.259  -2.446  1.00 20.00     0.009 C 
HETATM    6  C6  UNL     1     -33.420  18.213  -4.629  1.00 20.00     0.009 C 
HETATM    7  C7  UNL     1     -34.739  14.514  -4.148  1.00 20.00     0.009 C 
HETATM    8  C8  UNL     1     -33.492  16.347  -6.197  1.00 20.00     0.009 C 
HETATM    9  C9  UNL     1     -35.136  15.745  -3.756  1.00 20.00    -0.039 C 
HETATM   10  C10 UNL     1     -34.151  17.194  -5.375  1.00 20.00    -0.039 C 
HETATM   11  C11 UNL     1     -35.459  16.844  -4.726  1.00 20.00     0.123 C 
HETATM   12 BR12 UNL     1     -36.906  16.447  -5.961  1.00 20.00    -0.081 Br
ENDROOT
TORSDOF 0
ENDMDL
MODEL 9
REMARK VINA RESULT:      -4.4     12.537     13.300
REMARK  0 active torsions:
REMARK  status: ('A' for Active; 'I' for Inactive)
ROOT
HETATM    1  C1  UNL     1     -33.650  16.464  -2.845  1.00 20.00     0.001 C 
HETATM    2  C2  UNL     1     -34.806  16.945  -2.332  1.00 20.00     0.001 C 
HETATM    3  C3  UNL     1     -35.990  13.640  -5.632  1.00 20.00     0.001 C 
HETATM    4  C4  UNL     1     -37.250  14.163  -5.072  1.00 20.00     0.001 C 
HETATM    5  C5  UNL     1     -34.740  14.156  -5.598  1.00 20.00     0.009 C 
HETATM    6  C6  UNL     1     -37.489  15.299  -4.376  1.00 20.00     0.009 C 
HETATM    7  C7  UNL     1     -33.564  15.461  -3.907  1.00 20.00     0.009 C 
HETATM    8  C8  UNL     1     -36.143  16.534  -2.762  1.00 20.00     0.009 C 
HETATM    9  C9  UNL     1     -34.416  15.426  -4.956  1.00 20.00    -0.039 C 
HETATM   10  C10 UNL     1     -36.454  16.274  -4.052  1.00 20.00    -0.039 C 
HETATM   11  C11 UNL     1     -35.478  16.463  -5.178  1.00 20.00     0.123 C 
HETATM   12 BR12 UNL     1     -34.820  18.277  -5.394  1.00 20.00    -0.081 Br
ENDROOT
TORSDOF 0
ENDMDL
