MODEL 1
REMARK VINA RESULT:      -6.1      0.000      0.000
REMARK  3 active torsions:
REMARK  status: ('A' for Active; 'I' for Inactive)
REMARK    1  A    between atoms: C5_5  and  C6_6 
REMARK    2  A    between atoms: C6_6  and  C7_7 
REMARK    3  A    between atoms: C7_7  and  C8_8 
ROOT
HETATM    1  C1  UNL     1     -34.076   7.029   5.904  1.00 20.00     0.004 C 
HETATM    2  C2  UNL     1     -34.541   5.611   5.591  1.00 20.00     0.026 C 
HETATM    3  C3  UNL     1     -32.986   7.463   4.927  1.00 20.00     0.032 C 
HETATM    4  C4  UNL     1     -34.899   5.475   4.117  1.00 20.00     0.168 C 
HETATM    5  C5  UNL     1     -33.434   7.234   3.482  1.00 20.00     0.121 C 
HETATM    6  O9  UNL     1     -33.800   5.863   3.290  1.00 20.00    -0.386 OA
ENDROOT
BRANCH   5   7
HETATM    7  C6  UNL     1     -32.313   7.557   2.504  1.00 20.00     0.033 C 
BRANCH   7   8
HETATM    8  C7  UNL     1     -32.411   8.995   1.998  1.00 20.00     0.017 C 
BRANCH   8   9
HETATM    9  C8  UNL     1     -31.858   9.116   0.584  1.00 20.00     0.115 C 
HETATM   10 CL10 UNL     1     -33.171   9.449  -0.569  1.00 20.00    -0.130 Cl
ENDBRANCH   8   9
ENDBRANCH   7   8
ENDBRANCH   5   7
TORSDOF 3
ENDMDL
MODEL 2
REMARK VINA RESULT:      -5.8      1.180      1.776
REMARK  3 active torsions:
REMARK  status: ('A' for Active; 'I' for Inactive)
REMARK    1  A    between atoms: C5_5  and  C6_6 
REMARK    2  A    between atoms: C6_6  and  C7_7 
REMARK    3  A    between atoms: C7_7  and  C8_8 
ROOT
HETATM    1  C1  UNL     1     -34.139   4.487   4.281  1.00 20.00     0.004 C 
HETATM    2  C2  UNL     1     -34.772   5.191   5.476  1.00 20.00     0.026 C 
HETATM    3  C3  UNL     1     -33.974   5.457   3.113  1.00 20.00     0.032 C 
HETATM    4  C4  UNL     1     -34.026   6.478   5.801  1.00 20.00     0.168 C 
HETATM    5  C5  UNL     1     -33.260   6.732   3.567  1.00 20.00     0.121 C 
HETATM    6  O9  UNL     1     -33.967   7.332   4.657  1.00 20.00    -0.386 OA
ENDROOT
BRANCH   5   7
HETATM    7  C6  UNL     1     -33.192   7.751   2.439  1.00 20.00     0.033 C 
BRANCH   7   8
HETATM    8  C7  UNL     1     -31.775   8.295   2.262  1.00 20.00     0.017 C 
BRANCH   8   9
HETATM    9  C8  UNL     1     -31.597   8.917   0.883  1.00 20.00     0.115 C 
HETATM   10 CL10 UNL     1     -32.563  10.404   0.743  1.00 20.00    -0.130 Cl
ENDBRANCH   8   9
ENDBRANCH   7   8
ENDBRANCH   5   7
TORSDOF 3
ENDMDL
MODEL 3
REMARK VINA RESULT:      -4.6      1.782      1.808
REMARK  3 active torsions:
REMARK  status: ('A' for Active; 'I' for Inactive)
REMARK    1  A    between atoms: C5_5  and  C6_6 
REMARK    2  A    between atoms: C6_6  and  C7_7 
REMARK    3  A    between atoms: C7_7  and  C8_8 
ROOT
HETATM    1  C1  UNL     1     -34.532   6.445   5.849  1.00 20.00     0.004 C 
HETATM    2  C2  UNL     1     -34.431   4.926   5.911  1.00 20.00     0.026 C 
HETATM    3  C3  UNL     1     -33.645   6.997   4.735  1.00 20.00     0.032 C 
HETATM    4  C4  UNL     1     -34.660   4.314   4.536  1.00 20.00     0.168 C 
HETATM    5  C5  UNL     1     -33.925   6.275   3.415  1.00 20.00     0.121 C 
HETATM    6  O9  UNL     1     -33.754   4.863   3.578  1.00 20.00    -0.386 OA
ENDROOT
BRANCH   5   7
HETATM    7  C6  UNL     1     -32.968   6.737   2.326  1.00 20.00     0.033 C 
BRANCH   7   8
HETATM    8  C7  UNL     1     -33.187   8.208   1.978  1.00 20.00     0.017 C 
BRANCH   8   9
HETATM    9  C8  UNL     1     -31.885   8.992   2.078  1.00 20.00     0.115 C 
HETATM   10 CL10 UNL     1     -30.955   8.471   3.502  1.00 20.00    -0.130 Cl
ENDBRANCH   8   9
ENDBRANCH   7   8
ENDBRANCH   5   7
TORSDOF 3
ENDMDL
MODEL 4
REMARK VINA RESULT:      -4.3      2.658      4.882
REMARK  3 active torsions:
REMARK  status: ('A' for Active; 'I' for Inactive)
REMARK    1  A    between atoms: C5_5  and  C6_6 
REMARK    2  A    between atoms: C6_6  and  C7_7 
REMARK    3  A    between atoms: C7_7  and  C8_8 
ROOT
HETATM    1  C1  UNL     1     -32.862  10.465   1.160  1.00 20.00     0.004 C 
HETATM    2  C2  UNL     1     -32.439   9.646  -0.055  1.00 20.00     0.026 C 
HETATM    3  C3  UNL     1     -33.163   9.550   2.345  1.00 20.00     0.032 C 
HETATM    4  C4  UNL     1     -31.326   8.674   0.312  1.00 20.00     0.168 C 
HETATM    5  C5  UNL     1     -32.000   8.584   2.588  1.00 20.00     0.121 C 
HETATM    6  O9  UNL     1     -31.723   7.836   1.399  1.00 20.00    -0.386 OA
ENDROOT
BRANCH   5   7
HETATM    7  C6  UNL     1     -32.336   7.593   3.693  1.00 20.00     0.033 C 
BRANCH   7   8
HETATM    8  C7  UNL     1     -33.280   6.499   3.194  1.00 20.00     0.017 C 
BRANCH   8   9
HETATM    9  C8  UNL     1     -34.367   6.207   4.219  1.00 20.00     0.115 C 
HETATM   10 CL10 UNL     1     -33.968   6.960   5.780  1.00 20.00    -0.130 Cl
ENDBRANCH   8   9
ENDBRANCH   7   8
ENDBRANCH   5   7
TORSDOF 3
ENDMDL
MODEL 5
REMARK VINA RESULT:      -4.2      2.707      4.617
REMARK  3 active torsions:
REMARK  status: ('A' for Active; 'I' for Inactive)
REMARK    1  A    between atoms: C5_5  and  C6_6 
REMARK    2  A    between atoms: C6_6  and  C7_7 
REMARK    3  A    between atoms: C7_7  and  C8_8 
ROOT
HETATM    1  C1  UNL     1     -31.367   8.387   3.534  1.00 20.00     0.004 C 
HETATM    2  C2  UNL     1     -31.706   9.175   2.274  1.00 20.00     0.026 C 
HETATM    3  C3  UNL     1     -32.585   7.608   4.024  1.00 20.00     0.032 C 
HETATM    4  C4  UNL     1     -32.360   8.274   1.235  1.00 20.00     0.168 C 
HETATM    5  C5  UNL     1     -33.189   6.781   2.886  1.00 20.00     0.121 C 
HETATM    6  O9  UNL     1     -33.512   7.628   1.778  1.00 20.00    -0.386 OA
ENDROOT
BRANCH   5   7
HETATM    7  C6  UNL     1     -34.469   6.090   3.333  1.00 20.00     0.033 C 
BRANCH   7   8
HETATM    8  C7  UNL     1     -34.671   6.211   4.843  1.00 20.00     0.017 C 
BRANCH   8   9
HETATM    9  C8  UNL     1     -34.519   4.856   5.523  1.00 20.00     0.115 C 
HETATM   10 CL10 UNL     1     -34.033   3.619   4.342  1.00 20.00    -0.130 Cl
ENDBRANCH   8   9
ENDBRANCH   7   8
ENDBRANCH   5   7
TORSDOF 3
ENDMDL
MODEL 6
REMARK VINA RESULT:      -4.2      2.957      4.695
REMARK  3 active torsions:
REMARK  status: ('A' for Active; 'I' for Inactive)
REMARK    1  A    between atoms: C5_5  and  C6_6 
REMARK    2  A    between atoms: C6_6  and  C7_7 
REMARK    3  A    between atoms: C7_7  and  C8_8 
ROOT
HETATM    1  C1  UNL     1     -31.948   8.412   2.044  1.00 20.00     0.004 C 
HETATM    2  C2  UNL     1     -31.136   8.480   3.333  1.00 20.00     0.026 C 
HETATM    3  C3  UNL     1     -32.957   7.268   2.106  1.00 20.00     0.032 C 
HETATM    4  C4  UNL     1     -32.054   8.490   4.548  1.00 20.00     0.168 C 
HETATM    5  C5  UNL     1     -33.786   7.349   3.390  1.00 20.00     0.121 C 
HETATM    6  O9  UNL     1     -32.925   7.358   4.534  1.00 20.00    -0.386 OA
ENDROOT
BRANCH   5   7
HETATM    7  C6  UNL     1     -34.716   6.151   3.517  1.00 20.00     0.033 C 
BRANCH   7   8
HETATM    8  C7  UNL     1     -33.951   4.835   3.381  1.00 20.00     0.017 C 
BRANCH   8   9
HETATM    9  C8  UNL     1     -34.149   3.959   4.612  1.00 20.00     0.115 C 
HETATM   10 CL10 UNL     1     -34.662   4.946   6.000  1.00 20.00    -0.130 Cl
ENDBRANCH   8   9
ENDBRANCH   7   8
ENDBRANCH   5   7
TORSDOF 3
ENDMDL
MODEL 7
REMARK VINA RESULT:      -3.9     10.925     11.634
REMARK  3 active torsions:
REMARK  status: ('A' for Active; 'I' for Inactive)
REMARK    1  A    between atoms: C5_5  and  C6_6 
REMARK    2  A    between atoms: C6_6  and  C7_7 
REMARK    3  A    between atoms: C7_7  and  C8_8 
ROOT
HETATM    1  C1  UNL     1     -34.221  14.115  -6.922  1.00 20.00     0.004 C 
HETATM    2  C2  UNL     1     -35.685  13.748  -6.705  1.00 20.00     0.026 C 
HETATM    3  C3  UNL     1     -33.783  15.184  -5.925  1.00 20.00     0.032 C 
HETATM    4  C4  UNL     1     -35.945  13.416  -5.242  1.00 20.00     0.168 C 
HETATM    5  C5  UNL     1     -34.140  14.768  -4.496  1.00 20.00     0.121 C 
HETATM    6  O9  UNL     1     -35.543  14.495  -4.397  1.00 20.00    -0.386 OA
ENDROOT
BRANCH   5   7
HETATM    7  C6  UNL     1     -33.812  15.875  -3.505  1.00 20.00     0.033 C 
BRANCH   7   8
HETATM    8  C7  UNL     1     -35.040  16.277  -2.690  1.00 20.00     0.017 C 
BRANCH   8   9
HETATM    9  C8  UNL     1     -34.638  17.054  -1.443  1.00 20.00     0.115 C 
HETATM   10 CL10 UNL     1     -32.971  17.657  -1.598  1.00 20.00    -0.130 Cl
ENDBRANCH   8   9
ENDBRANCH   7   8
ENDBRANCH   5   7
TORSDOF 3
ENDMDL
MODEL 8
REMARK VINA RESULT:      -3.9     11.089     11.882
REMARK  3 active torsions:
REMARK  status: ('A' for Active; 'I' for Inactive)
REMARK    1  A    between atoms: C5_5  and  C6_6 
REMARK    2  A    between atoms: C6_6  and  C7_7 
REMARK    3  A    between atoms: C7_7  and  C8_8 
ROOT
HETATM    1  C1  UNL     1     -35.671  13.329  -6.378  1.00 20.00     0.004 C 
HETATM    2  C2  UNL     1     -34.386  13.674  -7.121  1.00 20.00     0.026 C 
HETATM    3  C3  UNL     1     -35.584  13.774  -4.920  1.00 20.00     0.032 C 
HETATM    4  C4  UNL     1     -34.017  15.136  -6.910  1.00 20.00     0.168 C 
HETATM    5  C5  UNL     1     -35.157  15.241  -4.829  1.00 20.00     0.121 C 
HETATM    6  O9  UNL     1     -33.917  15.438  -5.518  1.00 20.00    -0.386 OA
ENDROOT
BRANCH   5   7
HETATM    7  C6  UNL     1     -34.955  15.662  -3.380  1.00 20.00     0.033 C 
BRANCH   7   8
HETATM    8  C7  UNL     1     -33.662  16.457  -3.205  1.00 20.00     0.017 C 
BRANCH   8   9
HETATM    9  C8  UNL     1     -33.645  17.183  -1.866  1.00 20.00     0.115 C 
HETATM   10 CL10 UNL     1     -35.210  17.002  -1.041  1.00 20.00    -0.130 Cl
ENDBRANCH   8   9
ENDBRANCH   7   8
ENDBRANCH   5   7
TORSDOF 3
ENDMDL
MODEL 9
REMARK VINA RESULT:      -3.9     10.827     11.098
REMARK  3 active torsions:
REMARK  status: ('A' for Active; 'I' for Inactive)
REMARK    1  A    between atoms: C5_5  and  C6_6 
REMARK    2  A    between atoms: C6_6  and  C7_7 
REMARK    3  A    between atoms: C7_7  and  C8_8 
ROOT
HETATM    1  C1  UNL     1     -33.343  18.492  -0.793  1.00 20.00     0.004 C 
HETATM    2  C2  UNL     1     -34.210  18.141   0.411  1.00 20.00     0.026 C 
HETATM    3  C3  UNL     1     -33.416  17.389  -1.847  1.00 20.00     0.032 C 
HETATM    4  C4  UNL     1     -35.616  17.758  -0.031  1.00 20.00     0.168 C 
HETATM    5  C5  UNL     1     -34.873  17.053  -2.174  1.00 20.00     0.121 C 
HETATM    6  O9  UNL     1     -35.577  16.692  -0.981  1.00 20.00    -0.386 OA
ENDROOT
BRANCH   5   7
HETATM    7  C6  UNL     1     -34.959  15.878  -3.138  1.00 20.00     0.033 C 
BRANCH   7   8
HETATM    8  C7  UNL     1     -33.623  15.630  -3.837  1.00 20.00     0.017 C 
BRANCH   8   9
HETATM    9  C8  UNL     1     -33.729  14.476  -4.825  1.00 20.00     0.115 C 
HETATM   10 CL10 UNL     1     -35.319  13.689  -4.692  1.00 20.00    -0.130 Cl
ENDBRANCH   8   9
ENDBRANCH   7   8
ENDBRANCH   5   7
TORSDOF 3
ENDMDL
