MODEL 1
REMARK VINA RESULT:      -5.4      0.000      0.000
REMARK  4 active torsions:
REMARK  status: ('A' for Active; 'I' for Inactive)
REMARK    1  A    between atoms: C5_5  and  C8_8 
REMARK    2  A    between atoms: C7_7  and  N10_10 
REMARK    3  A    between atoms: C8_8  and  N10_10 
REMARK    4  A    between atoms: C9_9  and  N10_10 
ROOT
HETATM    1  C1  UNL     1     -34.673   5.587   5.933  1.00 20.00     0.013 C 
HETATM    2  C2  UNL     1     -34.096   6.489   5.389  1.00 20.00    -0.087 C 
HETATM    3  C7  UNL     1     -33.394   7.593   4.729  1.00 20.00     0.364 C 
ENDROOT
BRANCH   3   4
HETATM    4  N10 UNL     1     -32.583   7.098   3.618  1.00 20.00     0.099 N 
BRANCH   4   5
HETATM    5  C8  UNL     1     -31.875   8.201   2.970  1.00 20.00     0.278 C 
BRANCH   5   6
HETATM    6  C5  UNL     1     -32.533   8.585   1.689  1.00 20.00     0.014 A 
HETATM    7  C3  UNL     1     -32.574  10.025   1.260  1.00 20.00     0.007 A 
HETATM    8  C4  UNL     1     -31.706   9.045   0.521  1.00 20.00     0.007 A 
ENDBRANCH   5   6
ENDBRANCH   4   5
BRANCH   4   9
HETATM    9  C9  UNL     1     -33.422   6.391   2.650  1.00 20.00     0.269 C 
HETATM   10  C6  UNL     1     -33.035   4.955   2.551  1.00 20.00     0.037 C 
ENDBRANCH   4   9
ENDBRANCH   3   4
TORSDOF 4
ENDMDL
MODEL 2
REMARK VINA RESULT:      -4.8      1.014      2.431
REMARK  4 active torsions:
REMARK  status: ('A' for Active; 'I' for Inactive)
REMARK    1  A    between atoms: C5_5  and  C8_8 
REMARK    2  A    between atoms: C7_7  and  N10_10 
REMARK    3  A    between atoms: C8_8  and  N10_10 
REMARK    4  A    between atoms: C9_9  and  N10_10 
ROOT
HETATM    1  C1  UNL     1     -32.953   4.268   2.536  1.00 20.00     0.013 C 
HETATM    2  C2  UNL     1     -33.576   5.201   2.965  1.00 20.00    -0.087 C 
HETATM    3  C7  UNL     1     -34.340   6.335   3.490  1.00 20.00     0.364 C 
ENDROOT
BRANCH   3   4
HETATM    4  N10 UNL     1     -33.530   7.553   3.480  1.00 20.00     0.099 N 
BRANCH   4   5
HETATM    5  C8  UNL     1     -32.554   7.508   2.393  1.00 20.00     0.278 C 
BRANCH   5   6
HETATM    6  C5  UNL     1     -32.078   8.877   2.041  1.00 20.00     0.014 A 
HETATM    7  C3  UNL     1     -31.689   9.202   0.626  1.00 20.00     0.007 A 
HETATM    8  C4  UNL     1     -32.940   9.790   1.216  1.00 20.00     0.007 A 
ENDBRANCH   5   6
ENDBRANCH   4   5
BRANCH   4   9
HETATM    9  C9  UNL     1     -32.855   7.726   4.767  1.00 20.00     0.269 C 
HETATM   10  C6  UNL     1     -33.735   7.311   5.896  1.00 20.00     0.037 C 
ENDBRANCH   4   9
ENDBRANCH   3   4
TORSDOF 4
ENDMDL
MODEL 3
REMARK VINA RESULT:      -4.7      0.822      4.404
REMARK  4 active torsions:
REMARK  status: ('A' for Active; 'I' for Inactive)
REMARK    1  A    between atoms: C5_5  and  C8_8 
REMARK    2  A    between atoms: C7_7  and  N10_10 
REMARK    3  A    between atoms: C8_8  and  N10_10 
REMARK    4  A    between atoms: C9_9  and  N10_10 
ROOT
HETATM    1  C1  UNL     1     -32.583  10.214   0.732  1.00 20.00     0.013 C 
HETATM    2  C2  UNL     1     -32.355   9.169   1.279  1.00 20.00    -0.087 C 
HETATM    3  C7  UNL     1     -32.072   7.895   1.943  1.00 20.00     0.364 C 
ENDROOT
BRANCH   3   4
HETATM    4  N10 UNL     1     -33.236   7.437   2.700  1.00 20.00     0.099 N 
BRANCH   4   5
HETATM    5  C8  UNL     1     -32.889   7.246   4.107  1.00 20.00     0.278 C 
BRANCH   5   6
HETATM    6  C5  UNL     1     -34.112   7.162   4.956  1.00 20.00     0.014 A 
HETATM    7  C3  UNL     1     -34.376   5.934   5.782  1.00 20.00     0.007 A 
HETATM    8  C4  UNL     1     -34.000   7.226   6.453  1.00 20.00     0.007 A 
ENDBRANCH   5   6
ENDBRANCH   4   5
BRANCH   4   9
HETATM    9  C9  UNL     1     -33.759   6.196   2.129  1.00 20.00     0.269 C 
HETATM   10  C6  UNL     1     -32.947   5.022   2.559  1.00 20.00     0.037 C 
ENDBRANCH   4   9
ENDBRANCH   3   4
TORSDOF 4
ENDMDL
MODEL 4
REMARK VINA RESULT:      -4.4      1.265      3.631
REMARK  4 active torsions:
REMARK  status: ('A' for Active; 'I' for Inactive)
REMARK    1  A    between atoms: C5_5  and  C8_8 
REMARK    2  A    between atoms: C7_7  and  N10_10 
REMARK    3  A    between atoms: C8_8  and  N10_10 
REMARK    4  A    between atoms: C9_9  and  N10_10 
ROOT
HETATM    1  C1  UNL     1     -33.656   7.615   6.284  1.00 20.00     0.013 C 
HETATM    2  C2  UNL     1     -33.019   7.799   5.282  1.00 20.00    -0.087 C 
HETATM    3  C7  UNL     1     -32.237   8.026   4.064  1.00 20.00     0.364 C 
ENDROOT
BRANCH   3   4
HETATM    4  N10 UNL     1     -32.890   7.409   2.910  1.00 20.00     0.099 N 
BRANCH   4   5
HETATM    5  C8  UNL     1     -32.696   5.961   2.925  1.00 20.00     0.278 C 
BRANCH   5   6
HETATM    6  C5  UNL     1     -34.002   5.243   2.958  1.00 20.00     0.014 A 
HETATM    7  C3  UNL     1     -34.482   4.602   4.231  1.00 20.00     0.007 A 
HETATM    8  C4  UNL     1     -35.170   5.829   3.701  1.00 20.00     0.007 A 
ENDBRANCH   5   6
ENDBRANCH   4   5
BRANCH   4   9
HETATM    9  C9  UNL     1     -32.374   7.981   1.666  1.00 20.00     0.269 C 
HETATM   10  C6  UNL     1     -32.471   9.469   1.677  1.00 20.00     0.037 C 
ENDBRANCH   4   9
ENDBRANCH   3   4
TORSDOF 4
ENDMDL
MODEL 5
REMARK VINA RESULT:      -4.1      1.194      4.535
REMARK  4 active torsions:
REMARK  status: ('A' for Active; 'I' for Inactive)
REMARK    1  A    between atoms: C5_5  and  C8_8 
REMARK    2  A    between atoms: C7_7  and  N10_10 
REMARK    3  A    between atoms: C8_8  and  N10_10 
REMARK    4  A    between atoms: C9_9  and  N10_10 
ROOT
HETATM    1  C1  UNL     1     -32.812  10.545   1.297  1.00 20.00     0.013 C 
HETATM    2  C2  UNL     1     -32.465   9.396   1.352  1.00 20.00    -0.087 C 
HETATM    3  C7  UNL     1     -32.040   7.996   1.413  1.00 20.00     0.364 C 
ENDROOT
BRANCH   3   4
HETATM    4  N10 UNL     1     -32.159   7.479   2.776  1.00 20.00     0.099 N 
BRANCH   4   5
HETATM    5  C8  UNL     1     -33.559   7.457   3.194  1.00 20.00     0.278 C 
BRANCH   5   6
HETATM    6  C5  UNL     1     -34.008   6.068   3.497  1.00 20.00     0.014 A 
HETATM    7  C3  UNL     1     -34.403   5.688   4.897  1.00 20.00     0.007 A 
HETATM    8  C4  UNL     1     -35.449   5.792   3.823  1.00 20.00     0.007 A 
ENDBRANCH   5   6
ENDBRANCH   4   5
BRANCH   4   9
HETATM    9  C9  UNL     1     -31.362   8.288   3.699  1.00 20.00     0.269 C 
HETATM   10  C6  UNL     1     -32.117   8.573   4.953  1.00 20.00     0.037 C 
ENDBRANCH   4   9
ENDBRANCH   3   4
TORSDOF 4
ENDMDL
MODEL 6
REMARK VINA RESULT:      -4.1      0.882      4.180
REMARK  4 active torsions:
REMARK  status: ('A' for Active; 'I' for Inactive)
REMARK    1  A    between atoms: C5_5  and  C8_8 
REMARK    2  A    between atoms: C7_7  and  N10_10 
REMARK    3  A    between atoms: C8_8  and  N10_10 
REMARK    4  A    between atoms: C9_9  and  N10_10 
ROOT
HETATM    1  C1  UNL     1     -32.490   9.443   1.205  1.00 20.00     0.013 C 
HETATM    2  C2  UNL     1     -32.081   8.787   2.124  1.00 20.00    -0.087 C 
HETATM    3  C7  UNL     1     -31.575   7.988   3.244  1.00 20.00     0.364 C 
ENDROOT
BRANCH   3   4
HETATM    4  N10 UNL     1     -32.672   7.300   3.924  1.00 20.00     0.099 N 
BRANCH   4   5
HETATM    5  C8  UNL     1     -33.830   7.186   3.039  1.00 20.00     0.278 C 
BRANCH   5   6
HETATM    6  C5  UNL     1     -34.105   5.762   2.695  1.00 20.00     0.014 A 
HETATM    7  C3  UNL     1     -32.976   4.774   2.597  1.00 20.00     0.007 A 
HETATM    8  C4  UNL     1     -33.954   4.688   3.735  1.00 20.00     0.007 A 
ENDBRANCH   5   6
ENDBRANCH   4   5
BRANCH   4   9
HETATM    9  C9  UNL     1     -33.034   8.008   5.152  1.00 20.00     0.269 C 
HETATM   10  C6  UNL     1     -33.868   7.150   6.041  1.00 20.00     0.037 C 
ENDBRANCH   4   9
ENDBRANCH   3   4
TORSDOF 4
ENDMDL
MODEL 7
REMARK VINA RESULT:      -3.8     10.708     11.782
REMARK  4 active torsions:
REMARK  status: ('A' for Active; 'I' for Inactive)
REMARK    1  A    between atoms: C5_5  and  C8_8 
REMARK    2  A    between atoms: C7_7  and  N10_10 
REMARK    3  A    between atoms: C8_8  and  N10_10 
REMARK    4  A    between atoms: C9_9  and  N10_10 
ROOT
HETATM    1  C1  UNL     1     -35.988  13.726  -5.122  1.00 20.00     0.013 C 
HETATM    2  C2  UNL     1     -34.864  14.015  -4.812  1.00 20.00    -0.087 C 
HETATM    3  C7  UNL     1     -33.492  14.362  -4.431  1.00 20.00     0.364 C 
ENDROOT
BRANCH   3   4
HETATM    4  N10 UNL     1     -33.185  15.741  -4.809  1.00 20.00     0.099 N 
BRANCH   4   5
HETATM    5  C8  UNL     1     -34.027  16.675  -4.065  1.00 20.00     0.278 C 
BRANCH   5   6
HETATM    6  C5  UNL     1     -33.811  16.541  -2.596  1.00 20.00     0.014 A 
HETATM    7  C3  UNL     1     -33.659  17.767  -1.739  1.00 20.00     0.007 A 
HETATM    8  C4  UNL     1     -34.899  16.924  -1.632  1.00 20.00     0.007 A 
ENDBRANCH   5   6
ENDBRANCH   4   5
BRANCH   4   9
HETATM    9  C9  UNL     1     -33.364  15.927  -6.249  1.00 20.00     0.269 C 
HETATM   10  C6  UNL     1     -34.016  17.234  -6.545  1.00 20.00     0.037 C 
ENDBRANCH   4   9
ENDBRANCH   3   4
TORSDOF 4
ENDMDL
MODEL 8
REMARK VINA RESULT:      -3.7      0.798      3.904
REMARK  4 active torsions:
REMARK  status: ('A' for Active; 'I' for Inactive)
REMARK    1  A    between atoms: C5_5  and  C8_8 
REMARK    2  A    between atoms: C7_7  and  N10_10 
REMARK    3  A    between atoms: C8_8  and  N10_10 
REMARK    4  A    between atoms: C9_9  and  N10_10 
ROOT
HETATM    1  C1  UNL     1     -32.918   4.091   2.570  1.00 20.00     0.013 C 
HETATM    2  C2  UNL     1     -33.185   5.255   2.439  1.00 20.00    -0.087 C 
HETATM    3  C7  UNL     1     -33.517   6.672   2.276  1.00 20.00     0.364 C 
ENDROOT
BRANCH   3   4
HETATM    4  N10 UNL     1     -32.404   7.516   2.708  1.00 20.00     0.099 N 
BRANCH   4   5
HETATM    5  C8  UNL     1     -32.349   7.581   4.167  1.00 20.00     0.278 C 
BRANCH   5   6
HETATM    6  C5  UNL     1     -33.708   7.441   4.764  1.00 20.00     0.014 A 
HETATM    7  C3  UNL     1     -34.046   6.241   5.604  1.00 20.00     0.007 A 
HETATM    8  C4  UNL     1     -33.903   7.593   6.247  1.00 20.00     0.007 A 
ENDBRANCH   5   6
ENDBRANCH   4   5
BRANCH   4   9
HETATM    9  C9  UNL     1     -32.531   8.859   2.141  1.00 20.00     0.269 C 
HETATM   10  C6  UNL     1     -31.847   8.951   0.820  1.00 20.00     0.037 C 
ENDBRANCH   4   9
ENDBRANCH   3   4
TORSDOF 4
ENDMDL
MODEL 9
REMARK VINA RESULT:      -3.7     10.899     11.910
REMARK  4 active torsions:
REMARK  status: ('A' for Active; 'I' for Inactive)
REMARK    1  A    between atoms: C5_5  and  C8_8 
REMARK    2  A    between atoms: C7_7  and  N10_10 
REMARK    3  A    between atoms: C8_8  and  N10_10 
REMARK    4  A    between atoms: C9_9  and  N10_10 
ROOT
HETATM    1  C1  UNL     1     -34.619  16.212  -2.856  1.00 20.00     0.013 C 
HETATM    2  C2  UNL     1     -34.315  15.405  -3.692  1.00 20.00    -0.087 C 
HETATM    3  C7  UNL     1     -33.937  14.419  -4.708  1.00 20.00     0.364 C 
ENDROOT
BRANCH   3   4
HETATM    4  N10 UNL     1     -34.965  14.328  -5.744  1.00 20.00     0.099 N 
BRANCH   4   5
HETATM    5  C8  UNL     1     -36.129  13.598  -5.247  1.00 20.00     0.278 C 
BRANCH   5   6
HETATM    6  C5  UNL     1     -37.399  14.257  -5.669  1.00 20.00     0.014 A 
HETATM    7  C3  UNL     1     -38.254  14.970  -4.659  1.00 20.00     0.007 A 
HETATM    8  C4  UNL     1     -37.501  15.756  -5.696  1.00 20.00     0.007 A 
ENDBRANCH   5   6
ENDBRANCH   4   5
BRANCH   4   9
HETATM    9  C9  UNL     1     -34.428  13.679  -6.940  1.00 20.00     0.269 C 
HETATM   10  C6  UNL     1     -33.914  14.685  -7.913  1.00 20.00     0.037 C 
ENDBRANCH   4   9
ENDBRANCH   3   4
TORSDOF 4
ENDMDL
