MODEL 1
REMARK VINA RESULT:      -5.3      0.000      0.000
REMARK  2 active torsions:
REMARK  status: ('A' for Active; 'I' for Inactive)
REMARK    1  A    between atoms: C5_5  and  C6_6 
REMARK    2  A    between atoms: C6_6  and  C7_7 
ROOT
HETATM    1  C1  UNL     1     -33.110   7.432   5.176  1.00 20.00     0.031 C 
HETATM    2  C2  UNL     1     -33.689   6.056   3.159  1.00 20.00     0.031 C 
HETATM    3  C3  UNL     1     -34.272   6.749   5.887  1.00 20.00     0.168 C 
HETATM    4  C4  UNL     1     -34.818   5.450   3.984  1.00 20.00     0.168 C 
HETATM    5  C5  UNL     1     -33.346   7.462   3.661  1.00 20.00    -0.010 C 
HETATM    6  O8  UNL     1     -34.481   5.435   5.370  1.00 20.00    -0.391 OA
ENDROOT
BRANCH   5   7
HETATM    7  C6  UNL     1     -32.135   8.029   2.926  1.00 20.00     0.020 C 
BRANCH   7   8
HETATM    8  C7  UNL     1     -32.439   8.447   1.495  1.00 20.00     0.115 C 
HETATM    9 CL9  UNL     1     -32.543  10.213   1.320  1.00 20.00    -0.130 Cl
ENDBRANCH   7   8
ENDBRANCH   5   7
TORSDOF 2
ENDMDL
MODEL 2
REMARK VINA RESULT:      -5.2      0.590      1.720
REMARK  2 active torsions:
REMARK  status: ('A' for Active; 'I' for Inactive)
REMARK    1  A    between atoms: C5_5  and  C6_6 
REMARK    2  A    between atoms: C6_6  and  C7_7 
ROOT
HETATM    1  C1  UNL     1     -33.506   6.453   2.768  1.00 20.00     0.031 C 
HETATM    2  C2  UNL     1     -33.284   7.703   4.932  1.00 20.00     0.031 C 
HETATM    3  C3  UNL     1     -34.249   5.376   3.548  1.00 20.00     0.168 C 
HETATM    4  C4  UNL     1     -34.041   6.555   5.590  1.00 20.00     0.168 C 
HETATM    5  C5  UNL     1     -32.541   7.216   3.684  1.00 20.00    -0.010 C 
HETATM    6  O8  UNL     1     -34.935   5.941   4.665  1.00 20.00    -0.391 OA
ENDROOT
BRANCH   5   7
HETATM    7  C6  UNL     1     -31.884   8.378   2.945  1.00 20.00     0.020 C 
BRANCH   7   8
HETATM    8  C7  UNL     1     -32.425   8.581   1.537  1.00 20.00     0.115 C 
HETATM    9 CL9  UNL     1     -32.672  10.300   1.156  1.00 20.00    -0.130 Cl
ENDBRANCH   7   8
ENDBRANCH   5   7
TORSDOF 2
ENDMDL
MODEL 3
REMARK VINA RESULT:      -4.4      2.978      4.294
REMARK  2 active torsions:
REMARK  status: ('A' for Active; 'I' for Inactive)
REMARK    1  A    between atoms: C5_5  and  C6_6 
REMARK    2  A    between atoms: C6_6  and  C7_7 
ROOT
HETATM    1  C1  UNL     1     -33.307   6.721   2.649  1.00 20.00     0.031 C 
HETATM    2  C2  UNL     1     -33.358   7.303   5.089  1.00 20.00     0.031 C 
HETATM    3  C3  UNL     1     -32.265   7.819   2.481  1.00 20.00     0.168 C 
HETATM    4  C4  UNL     1     -32.312   8.369   4.783  1.00 20.00     0.168 C 
HETATM    5  C5  UNL     1     -34.213   7.013   3.851  1.00 20.00    -0.010 C 
HETATM    6  O8  UNL     1     -31.502   7.981   3.676  1.00 20.00    -0.391 OA
ENDROOT
BRANCH   5   7
HETATM    7  C6  UNL     1     -35.179   5.860   4.106  1.00 20.00     0.020 C 
BRANCH   7   8
HETATM    8  C7  UNL     1     -34.673   4.869   5.145  1.00 20.00     0.115 C 
HETATM    9 CL9  UNL     1     -33.766   3.530   4.407  1.00 20.00    -0.130 Cl
ENDBRANCH   7   8
ENDBRANCH   5   7
TORSDOF 2
ENDMDL
MODEL 4
REMARK VINA RESULT:      -4.1      3.194      4.200
REMARK  2 active torsions:
REMARK  status: ('A' for Active; 'I' for Inactive)
REMARK    1  A    between atoms: C5_5  and  C6_6 
REMARK    2  A    between atoms: C6_6  and  C7_7 
ROOT
HETATM    1  C1  UNL     1     -32.695   7.533   4.199  1.00 20.00     0.031 C 
HETATM    2  C2  UNL     1     -33.229   7.562   1.748  1.00 20.00     0.031 C 
HETATM    3  C3  UNL     1     -31.447   8.341   3.865  1.00 20.00     0.168 C 
HETATM    4  C4  UNL     1     -31.951   8.368   1.551  1.00 20.00     0.168 C 
HETATM    5  C5  UNL     1     -33.128   6.683   2.999  1.00 20.00    -0.010 C 
HETATM    6  O8  UNL     1     -31.662   9.150   2.709  1.00 20.00    -0.391 OA
ENDROOT
BRANCH   5   7
HETATM    7  C6  UNL     1     -34.446   5.967   3.278  1.00 20.00     0.020 C 
BRANCH   7   8
HETATM    8  C7  UNL     1     -34.282   4.706   4.114  1.00 20.00     0.115 C 
HETATM    9 CL9  UNL     1     -34.633   4.991   5.834  1.00 20.00    -0.130 Cl
ENDBRANCH   7   8
ENDBRANCH   5   7
TORSDOF 2
ENDMDL
MODEL 5
REMARK VINA RESULT:      -3.9     10.995     11.556
REMARK  2 active torsions:
REMARK  status: ('A' for Active; 'I' for Inactive)
REMARK    1  A    between atoms: C5_5  and  C6_6 
REMARK    2  A    between atoms: C6_6  and  C7_7 
ROOT
HETATM    1  C1  UNL     1     -36.766  15.734  -3.857  1.00 20.00     0.031 C 
HETATM    2  C2  UNL     1     -35.015  14.020  -4.398  1.00 20.00     0.031 C 
HETATM    3  C3  UNL     1     -37.662  15.035  -4.871  1.00 20.00     0.168 C 
HETATM    4  C4  UNL     1     -36.011  13.417  -5.381  1.00 20.00     0.168 C 
HETATM    5  C5  UNL     1     -35.287  15.515  -4.200  1.00 20.00    -0.010 C 
HETATM    6  O8  UNL     1     -37.351  13.645  -4.949  1.00 20.00    -0.391 OA
ENDROOT
BRANCH   5   7
HETATM    7  C6  UNL     1     -34.379  16.102  -3.124  1.00 20.00     0.020 C 
BRANCH   7   8
HETATM    8  C7  UNL     1     -35.143  16.679  -1.940  1.00 20.00     0.115 C 
HETATM    9 CL9  UNL     1     -34.077  17.560  -0.821  1.00 20.00    -0.130 Cl
ENDBRANCH   7   8
ENDBRANCH   5   7
TORSDOF 2
ENDMDL
MODEL 6
REMARK VINA RESULT:      -3.8     11.192     12.063
REMARK  2 active torsions:
REMARK  status: ('A' for Active; 'I' for Inactive)
REMARK    1  A    between atoms: C5_5  and  C6_6 
REMARK    2  A    between atoms: C6_6  and  C7_7 
ROOT
HETATM    1  C1  UNL     1     -34.910  14.264  -4.552  1.00 20.00     0.031 C 
HETATM    2  C2  UNL     1     -33.896  14.428  -6.841  1.00 20.00     0.031 C 
HETATM    3  C3  UNL     1     -35.960  13.342  -5.160  1.00 20.00     0.168 C 
HETATM    4  C4  UNL     1     -35.002  13.496  -7.320  1.00 20.00     0.168 C 
HETATM    5  C5  UNL     1     -34.351  15.221  -5.611  1.00 20.00    -0.010 C 
HETATM    6  O8  UNL     1     -35.422  12.626  -6.271  1.00 20.00    -0.391 OA
ENDROOT
BRANCH   5   7
HETATM    7  C6  UNL     1     -33.211  16.063  -5.046  1.00 20.00     0.020 C 
BRANCH   7   8
HETATM    8  C7  UNL     1     -33.687  17.212  -4.170  1.00 20.00     0.115 C 
HETATM    9 CL9  UNL     1     -33.538  16.841  -2.437  1.00 20.00    -0.130 Cl
ENDBRANCH   7   8
ENDBRANCH   5   7
TORSDOF 2
ENDMDL
MODEL 7
REMARK VINA RESULT:      -3.7     11.093     11.491
REMARK  2 active torsions:
REMARK  status: ('A' for Active; 'I' for Inactive)
REMARK    1  A    between atoms: C5_5  and  C6_6 
REMARK    2  A    between atoms: C6_6  and  C7_7 
ROOT
HETATM    1  C1  UNL     1     -33.620  15.698  -3.816  1.00 20.00     0.031 C 
HETATM    2  C2  UNL     1     -35.989  15.032  -4.309  1.00 20.00     0.031 C 
HETATM    3  C3  UNL     1     -33.191  14.389  -4.469  1.00 20.00     0.168 C 
HETATM    4  C4  UNL     1     -35.426  13.761  -4.934  1.00 20.00     0.168 C 
HETATM    5  C5  UNL     1     -35.036  15.577  -3.240  1.00 20.00    -0.010 C 
HETATM    6  O8  UNL     1     -34.126  13.993  -5.472  1.00 20.00    -0.391 OA
ENDROOT
BRANCH   5   7
HETATM    7  C6  UNL     1     -35.526  16.916  -2.696  1.00 20.00     0.020 C 
BRANCH   7   8
HETATM    8  C7  UNL     1     -35.364  17.050  -1.189  1.00 20.00     0.115 C 
HETATM    9 CL9  UNL     1     -33.787  17.742  -0.744  1.00 20.00    -0.130 Cl
ENDBRANCH   7   8
ENDBRANCH   5   7
TORSDOF 2
ENDMDL
MODEL 8
REMARK VINA RESULT:      -3.6     11.209     11.627
REMARK  2 active torsions:
REMARK  status: ('A' for Active; 'I' for Inactive)
REMARK    1  A    between atoms: C5_5  and  C6_6 
REMARK    2  A    between atoms: C6_6  and  C7_7 
ROOT
HETATM    1  C1  UNL     1     -33.085  17.604  -1.563  1.00 20.00     0.031 C 
HETATM    2  C2  UNL     1     -35.294  17.259  -0.424  1.00 20.00     0.031 C 
HETATM    3  C3  UNL     1     -32.800  18.685  -0.528  1.00 20.00     0.168 C 
HETATM    4  C4  UNL     1     -34.884  18.359   0.548  1.00 20.00     0.168 C 
HETATM    5  C5  UNL     1     -34.595  17.442  -1.775  1.00 20.00    -0.010 C 
HETATM    6  O8  UNL     1     -33.467  18.398   0.701  1.00 20.00    -0.391 OA
ENDROOT
BRANCH   5   7
HETATM    7  C6  UNL     1     -34.898  16.278  -2.714  1.00 20.00     0.020 C 
BRANCH   7   8
HETATM    8  C7  UNL     1     -33.742  15.937  -3.644  1.00 20.00     0.115 C 
HETATM    9 CL9  UNL     1     -33.845  14.271  -4.257  1.00 20.00    -0.130 Cl
ENDBRANCH   7   8
ENDBRANCH   5   7
TORSDOF 2
ENDMDL
MODEL 9
REMARK VINA RESULT:      -3.6     11.282     11.667
REMARK  2 active torsions:
REMARK  status: ('A' for Active; 'I' for Inactive)
REMARK    1  A    between atoms: C5_5  and  C6_6 
REMARK    2  A    between atoms: C6_6  and  C7_7 
ROOT
HETATM    1  C1  UNL     1     -35.343  17.022  -1.505  1.00 20.00     0.031 C 
HETATM    2  C2  UNL     1     -33.106  18.158  -1.508  1.00 20.00     0.031 C 
HETATM    3  C3  UNL     1     -35.482  17.455  -0.051  1.00 20.00     0.168 C 
HETATM    4  C4  UNL     1     -33.372  18.528  -0.053  1.00 20.00     0.168 C 
HETATM    5  C5  UNL     1     -33.865  16.883  -1.889  1.00 20.00    -0.010 C 
HETATM    6  O8  UNL     1     -34.771  18.669   0.186  1.00 20.00    -0.391 OA
ENDROOT
BRANCH   5   7
HETATM    7  C6  UNL     1     -33.709  16.573  -3.375  1.00 20.00     0.020 C 
BRANCH   7   8
HETATM    8  C7  UNL     1     -34.875  15.783  -3.952  1.00 20.00     0.115 C 
HETATM    9 CL9  UNL     1     -34.512  14.046  -4.074  1.00 20.00    -0.130 Cl
ENDBRANCH   7   8
ENDBRANCH   5   7
TORSDOF 2
ENDMDL
