MODEL 1
REMARK VINA RESULT:      -5.9      0.000      0.000
REMARK  1 active torsions:
REMARK  status: ('A' for Active; 'I' for Inactive)
REMARK    1  A    between atoms: C4_4  and  C8_8 
ROOT
HETATM    1  C5  UNL     1     -34.415   5.904   5.710  1.00 20.00     0.002 C 
HETATM    2  C6  UNL     1     -33.475   6.997   5.195  1.00 20.00     0.011 C 
HETATM    3  C7  UNL     1     -35.167   5.373   4.490  1.00 20.00     0.021 C 
HETATM    4  C8  UNL     1     -33.889   7.246   3.732  1.00 20.00     0.039 C 
HETATM    5  C9  UNL     1     -34.368   5.851   3.281  1.00 20.00     0.090 C 
HETATM    6 CL11 UNL     1     -33.009   4.727   2.963  1.00 20.00    -0.124 Cl
ENDROOT
BRANCH   4   7
HETATM    7  C4  UNL     1     -32.887   7.940   2.832  1.00 20.00    -0.028 A 
HETATM    8  C1  UNL     1     -33.125   8.471   1.542  1.00 20.00     0.034 A 
HETATM    9  C2  UNL     1     -31.928   8.999   1.120  1.00 20.00     0.142 A 
HETATM   10  O10 UNL     1     -30.970   8.828   2.067  1.00 20.00    -0.334 OA
HETATM   11  C3  UNL     1     -31.561   8.183   3.106  1.00 20.00     0.148 A 
ENDBRANCH   4   7
TORSDOF 1
ENDMDL
MODEL 2
REMARK VINA RESULT:      -4.8      1.474      1.858
REMARK  1 active torsions:
REMARK  status: ('A' for Active; 'I' for Inactive)
REMARK    1  A    between atoms: C4_4  and  C8_8 
ROOT
HETATM    1  C5  UNL     1     -35.450   5.081   4.431  1.00 20.00     0.002 C 
HETATM    2  C6  UNL     1     -34.915   6.025   3.350  1.00 20.00     0.011 C 
HETATM    3  C7  UNL     1     -34.340   4.950   5.473  1.00 20.00     0.021 C 
HETATM    4  C8  UNL     1     -33.420   6.215   3.666  1.00 20.00     0.039 C 
HETATM    5  C9  UNL     1     -33.390   6.113   5.204  1.00 20.00     0.090 C 
HETATM    6 CL11 UNL     1     -33.999   7.597   6.003  1.00 20.00    -0.124 Cl
ENDROOT
BRANCH   4   7
HETATM    7  C4  UNL     1     -32.723   7.413   3.054  1.00 20.00    -0.028 A 
HETATM    8  C1  UNL     1     -33.057   8.068   1.845  1.00 20.00     0.034 A 
HETATM    9  C2  UNL     1     -32.152   9.093   1.703  1.00 20.00     0.142 A 
HETATM   10  O10 UNL     1     -31.283   9.111   2.747  1.00 20.00    -0.334 OA
HETATM   11  C3  UNL     1     -31.637   8.086   3.565  1.00 20.00     0.148 A 
ENDBRANCH   4   7
TORSDOF 1
ENDMDL
MODEL 3
REMARK VINA RESULT:      -4.4     11.372     12.011
REMARK  1 active torsions:
REMARK  status: ('A' for Active; 'I' for Inactive)
REMARK    1  A    between atoms: C4_4  and  C8_8 
ROOT
HETATM    1  C5  UNL     1     -34.273  18.321  -1.000  1.00 20.00     0.002 C 
HETATM    2  C6  UNL     1     -34.642  16.928  -1.518  1.00 20.00     0.011 C 
HETATM    3  C7  UNL     1     -33.276  18.902  -2.002  1.00 20.00     0.021 C 
HETATM    4  C8  UNL     1     -33.661  16.639  -2.669  1.00 20.00     0.039 C 
HETATM    5  C9  UNL     1     -33.414  18.043  -3.256  1.00 20.00     0.090 C 
HETATM    6 CL11 UNL     1     -34.789  18.625  -4.248  1.00 20.00    -0.124 Cl
ENDROOT
BRANCH   4   7
HETATM    7  C4  UNL     1     -34.041  15.552  -3.653  1.00 20.00    -0.028 A 
HETATM    8  C1  UNL     1     -35.344  15.089  -3.952  1.00 20.00     0.034 A 
HETATM    9  C2  UNL     1     -35.192  14.103  -4.898  1.00 20.00     0.142 A 
HETATM   10  O10 UNL     1     -33.880  13.930  -5.202  1.00 20.00    -0.334 OA
HETATM   11  C3  UNL     1     -33.185  14.815  -4.440  1.00 20.00     0.148 A 
ENDBRANCH   4   7
TORSDOF 1
ENDMDL
MODEL 4
REMARK VINA RESULT:      -4.3     11.384     12.008
REMARK  1 active torsions:
REMARK  status: ('A' for Active; 'I' for Inactive)
REMARK    1  A    between atoms: C4_4  and  C8_8 
ROOT
HETATM    1  C5  UNL     1     -34.254  17.812  -1.159  1.00 20.00     0.002 C 
HETATM    2  C6  UNL     1     -35.213  16.720  -1.643  1.00 20.00     0.011 C 
HETATM    3  C7  UNL     1     -33.158  17.919  -2.218  1.00 20.00     0.021 C 
HETATM    4  C8  UNL     1     -34.513  16.050  -2.839  1.00 20.00     0.039 C 
HETATM    5  C9  UNL     1     -33.716  17.219  -3.454  1.00 20.00     0.090 C 
HETATM    6 CL11 UNL     1     -34.755  18.347  -4.380  1.00 20.00    -0.124 Cl
ENDROOT
BRANCH   4   7
HETATM    7  C4  UNL     1     -35.373  15.245  -3.790  1.00 20.00    -0.028 A 
HETATM    8  C1  UNL     1     -34.982  14.112  -4.542  1.00 20.00     0.034 A 
HETATM    9  C2  UNL     1     -36.093  13.723  -5.254  1.00 20.00     0.142 A 
HETATM   10  O10 UNL     1     -37.141  14.544  -4.988  1.00 20.00    -0.334 OA
HETATM   11  C3  UNL     1     -36.696  15.467  -4.097  1.00 20.00     0.148 A 
ENDBRANCH   4   7
TORSDOF 1
ENDMDL
MODEL 5
REMARK VINA RESULT:      -4.3     11.239     12.396
REMARK  1 active torsions:
REMARK  status: ('A' for Active; 'I' for Inactive)
REMARK    1  A    between atoms: C4_4  and  C8_8 
ROOT
HETATM    1  C5  UNL     1     -33.693  17.511  -2.750  1.00 20.00     0.002 C 
HETATM    2  C6  UNL     1     -34.124  16.073  -3.048  1.00 20.00     0.011 C 
HETATM    3  C7  UNL     1     -33.312  18.133  -4.093  1.00 20.00     0.021 C 
HETATM    4  C8  UNL     1     -33.742  15.820  -4.518  1.00 20.00     0.039 C 
HETATM    5  C9  UNL     1     -33.917  17.215  -5.151  1.00 20.00     0.090 C 
HETATM    6 CL11 UNL     1     -35.639  17.638  -5.416  1.00 20.00    -0.124 Cl
ENDROOT
BRANCH   4   7
HETATM    7  C4  UNL     1     -34.419  14.666  -5.228  1.00 20.00    -0.028 A 
HETATM    8  C1  UNL     1     -34.312  14.326  -6.597  1.00 20.00     0.034 A 
HETATM    9  C2  UNL     1     -35.098  13.212  -6.777  1.00 20.00     0.142 A 
HETATM   10  O10 UNL     1     -35.682  12.845  -5.607  1.00 20.00    -0.334 OA
HETATM   11  C3  UNL     1     -35.264  13.735  -4.669  1.00 20.00     0.148 A 
ENDBRANCH   4   7
TORSDOF 1
ENDMDL
MODEL 6
REMARK VINA RESULT:      -4.2     11.685     12.156
REMARK  1 active torsions:
REMARK  status: ('A' for Active; 'I' for Inactive)
REMARK    1  A    between atoms: C4_4  and  C8_8 
ROOT
HETATM    1  C5  UNL     1     -35.138  17.470  -0.761  1.00 20.00     0.002 C 
HETATM    2  C6  UNL     1     -35.494  16.677  -2.021  1.00 20.00     0.011 C 
HETATM    3  C7  UNL     1     -33.652  17.809  -0.873  1.00 20.00     0.021 C 
HETATM    4  C8  UNL     1     -34.153  16.360  -2.707  1.00 20.00     0.039 C 
HETATM    5  C9  UNL     1     -33.294  17.587  -2.340  1.00 20.00     0.090 C 
HETATM    6 CL11 UNL     1     -33.723  19.038  -3.301  1.00 20.00    -0.124 Cl
ENDROOT
BRANCH   4   7
HETATM    7  C4  UNL     1     -34.191  15.976  -4.172  1.00 20.00    -0.028 A 
HETATM    8  C1  UNL     1     -33.096  15.913  -5.066  1.00 20.00     0.034 A 
HETATM    9  C2  UNL     1     -33.614  15.520  -6.278  1.00 20.00     0.142 A 
HETATM   10  O10 UNL     1     -34.956  15.337  -6.187  1.00 20.00    -0.334 OA
HETATM   11  C3  UNL     1     -35.301  15.616  -4.902  1.00 20.00     0.148 A 
ENDBRANCH   4   7
TORSDOF 1
ENDMDL
MODEL 7
REMARK VINA RESULT:      -4.1     11.410     11.911
REMARK  1 active torsions:
REMARK  status: ('A' for Active; 'I' for Inactive)
REMARK    1  A    between atoms: C4_4  and  C8_8 
ROOT
HETATM    1  C5  UNL     1     -33.928  14.724  -5.490  1.00 20.00     0.002 C 
HETATM    2  C6  UNL     1     -33.375  15.336  -4.200  1.00 20.00     0.011 C 
HETATM    3  C7  UNL     1     -35.444  14.905  -5.435  1.00 20.00     0.021 C 
HETATM    4  C8  UNL     1     -34.603  15.628  -3.317  1.00 20.00     0.039 C 
HETATM    5  C9  UNL     1     -35.689  15.960  -4.360  1.00 20.00     0.090 C 
HETATM    6 CL11 UNL     1     -35.494  17.600  -5.057  1.00 20.00    -0.124 Cl
ENDROOT
BRANCH   4   7
HETATM    7  C4  UNL     1     -34.429  16.617  -2.184  1.00 20.00    -0.028 A 
HETATM    8  C1  UNL     1     -35.386  16.966  -1.202  1.00 20.00     0.034 A 
HETATM    9  C2  UNL     1     -34.780  17.895  -0.390  1.00 20.00     0.142 A 
HETATM   10  O10 UNL     1     -33.511  18.139  -0.808  1.00 20.00    -0.334 OA
HETATM   11  C3  UNL     1     -33.304  17.358  -1.900  1.00 20.00     0.148 A 
ENDBRANCH   4   7
TORSDOF 1
ENDMDL
MODEL 8
REMARK VINA RESULT:      -4.1     11.205     11.677
REMARK  1 active torsions:
REMARK  status: ('A' for Active; 'I' for Inactive)
REMARK    1  A    between atoms: C4_4  and  C8_8 
ROOT
HETATM    1  C5  UNL     1     -35.728  13.644  -5.299  1.00 20.00     0.002 C 
HETATM    2  C6  UNL     1     -34.699  14.263  -4.349  1.00 20.00     0.011 C 
HETATM    3  C7  UNL     1     -37.038  14.396  -5.062  1.00 20.00     0.021 C 
HETATM    4  C8  UNL     1     -35.500  15.183  -3.409  1.00 20.00     0.039 C 
HETATM    5  C9  UNL     1     -36.646  15.670  -4.319  1.00 20.00     0.090 C 
HETATM    6 CL11 UNL     1     -36.112  16.919  -5.487  1.00 20.00    -0.124 Cl
ENDROOT
BRANCH   4   7
HETATM    7  C4  UNL     1     -34.734  16.251  -2.657  1.00 20.00    -0.028 A 
HETATM    8  C1  UNL     1     -35.130  16.907  -1.467  1.00 20.00     0.034 A 
HETATM    9  C2  UNL     1     -34.119  17.789  -1.163  1.00 20.00     0.142 A 
HETATM   10  O10 UNL     1     -33.128  17.717  -2.088  1.00 20.00    -0.334 OA
HETATM   11  C3  UNL     1     -33.509  16.780  -2.994  1.00 20.00     0.148 A 
ENDBRANCH   4   7
TORSDOF 1
ENDMDL
MODEL 9
REMARK VINA RESULT:      -4.1     11.049     12.141
REMARK  1 active torsions:
REMARK  status: ('A' for Active; 'I' for Inactive)
REMARK    1  A    between atoms: C4_4  and  C8_8 
ROOT
HETATM    1  C5  UNL     1     -34.462  16.280  -6.481  1.00 20.00     0.002 C 
HETATM    2  C6  UNL     1     -34.954  16.993  -5.219  1.00 20.00     0.011 C 
HETATM    3  C7  UNL     1     -33.207  15.508  -6.076  1.00 20.00     0.021 C 
HETATM    4  C8  UNL     1     -33.833  16.821  -4.179  1.00 20.00     0.039 C 
HETATM    5  C9  UNL     1     -33.243  15.445  -4.551  1.00 20.00     0.090 C 
HETATM    6 CL11 UNL     1     -34.282  14.085  -4.019  1.00 20.00    -0.124 Cl
ENDROOT
BRANCH   4   7
HETATM    7  C4  UNL     1     -34.193  17.029  -2.722  1.00 20.00    -0.028 A 
HETATM    8  C1  UNL     1     -35.446  16.786  -2.111  1.00 20.00     0.034 A 
HETATM    9  C2  UNL     1     -35.295  17.119  -0.785  1.00 20.00     0.142 A 
HETATM   10  O10 UNL     1     -34.031  17.550  -0.542  1.00 20.00    -0.334 OA
HETATM   11  C3  UNL     1     -33.366  17.492  -1.725  1.00 20.00     0.148 A 
ENDBRANCH   4   7
TORSDOF 1
ENDMDL
