MODEL 1
REMARK VINA RESULT:      -5.9      0.000      0.000
REMARK  1 active torsions:
REMARK  status: ('A' for Active; 'I' for Inactive)
REMARK    1  A    between atoms: C4_4  and  C9_9 
ROOT
HETATM    1  C5  UNL     1     -33.584   4.699   3.143  1.00 20.00     0.135 C 
HETATM    2  C6  UNL     1     -34.127   4.057   4.394  1.00 20.00     0.079 C 
HETATM    3  C7  UNL     1     -34.687   5.255   5.148  1.00 20.00     0.008 C 
HETATM    4  C8  UNL     1     -35.157   6.213   4.061  1.00 20.00     0.017 C 
HETATM    5  C9  UNL     1     -34.121   6.099   2.934  1.00 20.00     0.090 C 
HETATM    6  O10 UNL     1     -32.808   4.139   2.378  1.00 20.00    -0.297 OA
ENDROOT
BRANCH   5   7
HETATM    7  C4  UNL     1     -33.062   7.177   2.976  1.00 20.00    -0.023 A 
HETATM    8  C1  UNL     1     -32.582   7.943   1.887  1.00 20.00     0.034 A 
HETATM    9  C2  UNL     1     -31.632   8.791   2.405  1.00 20.00     0.142 A 
HETATM   10  O11 UNL     1     -31.497   8.596   3.743  1.00 20.00    -0.334 OA
HETATM   11  C3  UNL     1     -32.371   7.612   4.082  1.00 20.00     0.149 A 
ENDBRANCH   5   7
TORSDOF 1
ENDMDL
MODEL 2
REMARK VINA RESULT:      -5.1      1.923      2.739
REMARK  1 active torsions:
REMARK  status: ('A' for Active; 'I' for Inactive)
REMARK    1  A    between atoms: C4_4  and  C9_9 
ROOT
HETATM    1  C5  UNL     1     -33.100   7.317   4.444  1.00 20.00     0.135 C 
HETATM    2  C6  UNL     1     -34.380   6.566   4.706  1.00 20.00     0.079 C 
HETATM    3  C7  UNL     1     -34.763   6.095   3.311  1.00 20.00     0.008 C 
HETATM    4  C8  UNL     1     -33.435   5.872   2.598  1.00 20.00     0.017 C 
HETATM    5  C9  UNL     1     -32.511   6.996   3.087  1.00 20.00     0.090 C 
HETATM    6  O10 UNL     1     -32.591   8.088   5.249  1.00 20.00    -0.297 OA
ENDROOT
BRANCH   5   7
HETATM    7  C4  UNL     1     -32.448   8.177   2.147  1.00 20.00    -0.023 A 
HETATM    8  C1  UNL     1     -33.345   9.271   2.091  1.00 20.00     0.034 A 
HETATM    9  C2  UNL     1     -32.887  10.090   1.087  1.00 20.00     0.142 A 
HETATM   10  O11 UNL     1     -31.766   9.572   0.522  1.00 20.00    -0.334 OA
HETATM   11  C3  UNL     1     -31.506   8.408   1.172  1.00 20.00     0.149 A 
ENDBRANCH   5   7
TORSDOF 1
ENDMDL
MODEL 3
REMARK VINA RESULT:      -4.6     11.527     12.374
REMARK  1 active torsions:
REMARK  status: ('A' for Active; 'I' for Inactive)
REMARK    1  A    between atoms: C4_4  and  C9_9 
ROOT
HETATM    1  C5  UNL     1     -35.048  13.691  -5.441  1.00 20.00     0.135 C 
HETATM    2  C6  UNL     1     -34.595  13.906  -6.863  1.00 20.00     0.079 C 
HETATM    3  C7  UNL     1     -33.826  15.215  -6.757  1.00 20.00     0.008 C 
HETATM    4  C8  UNL     1     -33.224  15.200  -5.357  1.00 20.00     0.017 C 
HETATM    5  C9  UNL     1     -34.288  14.555  -4.457  1.00 20.00     0.090 C 
HETATM    6  O10 UNL     1     -35.922  12.894  -5.123  1.00 20.00    -0.297 OA
ENDROOT
BRANCH   5   7
HETATM    7  C4  UNL     1     -35.148  15.559  -3.726  1.00 20.00    -0.023 A 
HETATM    8  C1  UNL     1     -34.801  16.298  -2.569  1.00 20.00     0.034 A 
HETATM    9  C2  UNL     1     -35.894  17.076  -2.270  1.00 20.00     0.142 A 
HETATM   10  O11 UNL     1     -36.891  16.864  -3.168  1.00 20.00    -0.334 OA
HETATM   11  C3  UNL     1     -36.430  15.939  -4.050  1.00 20.00     0.149 A 
ENDBRANCH   5   7
TORSDOF 1
ENDMDL
MODEL 4
REMARK VINA RESULT:      -4.5     11.457     12.295
REMARK  1 active torsions:
REMARK  status: ('A' for Active; 'I' for Inactive)
REMARK    1  A    between atoms: C4_4  and  C9_9 
ROOT
HETATM    1  C5  UNL     1     -34.287  14.480  -4.654  1.00 20.00     0.135 C 
HETATM    2  C6  UNL     1     -34.693  14.723  -6.085  1.00 20.00     0.079 C 
HETATM    3  C7  UNL     1     -34.500  16.227  -6.218  1.00 20.00     0.008 C 
HETATM    4  C8  UNL     1     -33.335  16.552  -5.291  1.00 20.00     0.017 C 
HETATM    5  C9  UNL     1     -33.515  15.642  -4.068  1.00 20.00     0.090 C 
HETATM    6  O10 UNL     1     -34.544  13.448  -4.045  1.00 20.00    -0.297 OA
ENDROOT
BRANCH   5   7
HETATM    7  C4  UNL     1     -34.206  16.319  -2.908  1.00 20.00    -0.023 A 
HETATM    8  C1  UNL     1     -33.602  17.094  -1.889  1.00 20.00     0.034 A 
HETATM    9  C2  UNL     1     -34.622  17.500  -1.061  1.00 20.00     0.142 A 
HETATM   10  O11 UNL     1     -35.815  17.025  -1.505  1.00 20.00    -0.334 OA
HETATM   11  C3  UNL     1     -35.553  16.307  -2.629  1.00 20.00     0.149 A 
ENDBRANCH   5   7
TORSDOF 1
ENDMDL
MODEL 5
REMARK VINA RESULT:      -4.5      1.283      4.336
REMARK  1 active torsions:
REMARK  status: ('A' for Active; 'I' for Inactive)
REMARK    1  A    between atoms: C4_4  and  C9_9 
ROOT
HETATM    1  C5  UNL     1     -32.507   8.079   4.402  1.00 20.00     0.135 C 
HETATM    2  C6  UNL     1     -31.408   8.367   3.412  1.00 20.00     0.079 C 
HETATM    3  C7  UNL     1     -31.851   7.558   2.202  1.00 20.00     0.008 C 
HETATM    4  C8  UNL     1     -33.374   7.582   2.256  1.00 20.00     0.017 C 
HETATM    5  C9  UNL     1     -33.735   7.488   3.745  1.00 20.00     0.090 C 
HETATM    6  O10 UNL     1     -32.415   8.315   5.602  1.00 20.00    -0.297 OA
ENDROOT
BRANCH   5   7
HETATM    7  C4  UNL     1     -34.063   6.085   4.200  1.00 20.00    -0.023 A 
HETATM    8  C1  UNL     1     -34.557   5.693   5.467  1.00 20.00     0.034 A 
HETATM    9  C2  UNL     1     -34.701   4.327   5.415  1.00 20.00     0.142 A 
HETATM   10  O11 UNL     1     -34.328   3.853   4.198  1.00 20.00    -0.334 OA
HETATM   11  C3  UNL     1     -33.941   4.929   3.464  1.00 20.00     0.149 A 
ENDBRANCH   5   7
TORSDOF 1
ENDMDL
MODEL 6
REMARK VINA RESULT:      -4.5     11.489     12.457
REMARK  1 active torsions:
REMARK  status: ('A' for Active; 'I' for Inactive)
REMARK    1  A    between atoms: C4_4  and  C9_9 
ROOT
HETATM    1  C5  UNL     1     -33.749  16.690  -4.883  1.00 20.00     0.135 C 
HETATM    2  C6  UNL     1     -32.891  15.569  -5.410  1.00 20.00     0.079 C 
HETATM    3  C7  UNL     1     -33.139  14.471  -4.387  1.00 20.00     0.008 C 
HETATM    4  C8  UNL     1     -34.575  14.689  -3.924  1.00 20.00     0.017 C 
HETATM    5  C9  UNL     1     -34.762  16.211  -3.865  1.00 20.00     0.090 C 
HETATM    6  O10 UNL     1     -33.643  17.854  -5.251  1.00 20.00    -0.297 OA
ENDROOT
BRANCH   5   7
HETATM    7  C4  UNL     1     -34.570  16.791  -2.484  1.00 20.00    -0.023 A 
HETATM    8  C1  UNL     1     -35.548  16.921  -1.469  1.00 20.00     0.034 A 
HETATM    9  C2  UNL     1     -34.913  17.499  -0.396  1.00 20.00     0.142 A 
HETATM   10  O11 UNL     1     -33.606  17.732  -0.685  1.00 20.00    -0.334 OA
HETATM   11  C3  UNL     1     -33.405  17.299  -1.957  1.00 20.00     0.149 A 
ENDBRANCH   5   7
TORSDOF 1
ENDMDL
MODEL 7
REMARK VINA RESULT:      -4.4     11.610     12.776
REMARK  1 active torsions:
REMARK  status: ('A' for Active; 'I' for Inactive)
REMARK    1  A    between atoms: C4_4  and  C9_9 
ROOT
HETATM    1  C5  UNL     1     -33.475  16.310  -4.770  1.00 20.00     0.135 C 
HETATM    2  C6  UNL     1     -33.363  17.747  -4.328  1.00 20.00     0.079 C 
HETATM    3  C7  UNL     1     -34.421  17.827  -3.238  1.00 20.00     0.008 C 
HETATM    4  C8  UNL     1     -34.439  16.438  -2.611  1.00 20.00     0.017 C 
HETATM    5  C9  UNL     1     -34.232  15.458  -3.774  1.00 20.00     0.090 C 
HETATM    6  O10 UNL     1     -32.992  15.883  -5.812  1.00 20.00    -0.297 OA
ENDROOT
BRANCH   5   7
HETATM    7  C4  UNL     1     -35.520  14.879  -4.311  1.00 20.00    -0.023 A 
HETATM    8  C1  UNL     1     -36.807  15.464  -4.255  1.00 20.00     0.034 A 
HETATM    9  C2  UNL     1     -37.658  14.576  -4.868  1.00 20.00     0.142 A 
HETATM   10  O11 UNL     1     -36.978  13.482  -5.299  1.00 20.00    -0.334 OA
HETATM   11  C3  UNL     1     -35.677  13.674  -4.956  1.00 20.00     0.149 A 
ENDBRANCH   5   7
TORSDOF 1
ENDMDL
MODEL 8
REMARK VINA RESULT:      -4.3     12.068     12.970
REMARK  1 active torsions:
REMARK  status: ('A' for Active; 'I' for Inactive)
REMARK    1  A    between atoms: C4_4  and  C9_9 
ROOT
HETATM    1  C5  UNL     1     -33.184  18.206  -1.079  1.00 20.00     0.135 C 
HETATM    2  C6  UNL     1     -34.200  19.115  -0.436  1.00 20.00     0.079 C 
HETATM    3  C7  UNL     1     -35.506  18.592  -1.017  1.00 20.00     0.008 C 
HETATM    4  C8  UNL     1     -35.272  17.099  -1.215  1.00 20.00     0.017 C 
HETATM    5  C9  UNL     1     -33.815  16.967  -1.677  1.00 20.00     0.090 C 
HETATM    6  O10 UNL     1     -31.982  18.443  -1.099  1.00 20.00    -0.297 OA
ENDROOT
BRANCH   5   7
HETATM    7  C4  UNL     1     -33.664  16.861  -3.177  1.00 20.00    -0.023 A 
HETATM    8  C1  UNL     1     -33.532  15.676  -3.939  1.00 20.00     0.034 A 
HETATM    9  C2  UNL     1     -33.425  16.075  -5.251  1.00 20.00     0.142 A 
HETATM   10  O11 UNL     1     -33.483  17.429  -5.344  1.00 20.00    -0.334 OA
HETATM   11  C3  UNL     1     -33.628  17.900  -4.078  1.00 20.00     0.149 A 
ENDBRANCH   5   7
TORSDOF 1
ENDMDL
MODEL 9
REMARK VINA RESULT:      -4.3     11.491     12.592
REMARK  1 active torsions:
REMARK  status: ('A' for Active; 'I' for Inactive)
REMARK    1  A    between atoms: C4_4  and  C9_9 
ROOT
HETATM    1  C5  UNL     1     -34.921  16.682  -4.883  1.00 20.00     0.135 C 
HETATM    2  C6  UNL     1     -33.866  16.181  -5.836  1.00 20.00     0.079 C 
HETATM    3  C7  UNL     1     -33.015  15.299  -4.934  1.00 20.00     0.008 C 
HETATM    4  C8  UNL     1     -33.994  14.731  -3.912  1.00 20.00     0.017 C 
HETATM    5  C9  UNL     1     -34.979  15.868  -3.608  1.00 20.00     0.090 C 
HETATM    6  O10 UNL     1     -35.655  17.632  -5.125  1.00 20.00    -0.297 OA
ENDROOT
BRANCH   5   7
HETATM    7  C4  UNL     1     -34.632  16.649  -2.362  1.00 20.00    -0.023 A 
HETATM    8  C1  UNL     1     -33.401  17.283  -2.067  1.00 20.00     0.034 A 
HETATM    9  C2  UNL     1     -33.557  17.864  -0.831  1.00 20.00     0.142 A 
HETATM   10  O11 UNL     1     -34.804  17.629  -0.346  1.00 20.00    -0.334 OA
HETATM   11  C3  UNL     1     -35.452  16.889  -1.283  1.00 20.00     0.149 A 
ENDBRANCH   5   7
TORSDOF 1
ENDMDL
