MODEL 1
REMARK VINA RESULT:      -6.3      0.000      0.000
REMARK  1 active torsions:
REMARK  status: ('A' for Active; 'I' for Inactive)
REMARK    1  A    between atoms: C4_4  and  C9_9 
ROOT
HETATM    1  C5  UNL     1     -34.128   6.543   5.247  1.00 20.00     0.135 C 
HETATM    2  C6  UNL     1     -34.280   5.139   5.778  1.00 20.00     0.079 C 
HETATM    3  C7  UNL     1     -34.647   4.363   4.521  1.00 20.00     0.008 C 
HETATM    4  C8  UNL     1     -33.920   5.090   3.397  1.00 20.00     0.017 C 
HETATM    5  C9  UNL     1     -34.104   6.576   3.732  1.00 20.00     0.090 C 
HETATM    6  O10 UNL     1     -34.034   7.530   5.966  1.00 20.00    -0.297 OA
ENDROOT
BRANCH   5   7
HETATM    7  C4  UNL     1     -33.045   7.472   3.146  1.00 20.00    -0.023 A 
HETATM    8  C1  UNL     1     -33.071   8.106   1.882  1.00 20.00     0.034 A 
HETATM    9  C2  UNL     1     -31.896   8.816   1.787  1.00 20.00     0.142 A 
HETATM   10  O11 UNL     1     -31.150   8.658   2.911  1.00 20.00    -0.334 OA
HETATM   11  C3  UNL     1     -31.857   7.838   3.734  1.00 20.00     0.149 A 
ENDBRANCH   5   7
TORSDOF 1
ENDMDL
MODEL 2
REMARK VINA RESULT:      -5.5      1.512      1.923
REMARK  1 active torsions:
REMARK  status: ('A' for Active; 'I' for Inactive)
REMARK    1  A    between atoms: C4_4  and  C9_9 
ROOT
HETATM    1  C5  UNL     1     -33.594   5.248   3.612  1.00 20.00     0.135 C 
HETATM    2  C6  UNL     1     -34.792   4.775   4.397  1.00 20.00     0.079 C 
HETATM    3  C7  UNL     1     -34.688   5.609   5.666  1.00 20.00     0.008 C 
HETATM    4  C8  UNL     1     -34.062   6.922   5.212  1.00 20.00     0.017 C 
HETATM    5  C9  UNL     1     -32.975   6.492   4.217  1.00 20.00     0.090 C 
HETATM    6  O10 UNL     1     -33.182   4.687   2.605  1.00 20.00    -0.297 OA
ENDROOT
BRANCH   5   7
HETATM    7  C4  UNL     1     -32.606   7.555   3.216  1.00 20.00    -0.023 A 
HETATM    8  C1  UNL     1     -33.333   7.925   2.060  1.00 20.00     0.034 A 
HETATM    9  C2  UNL     1     -32.613   8.933   1.462  1.00 20.00     0.142 A 
HETATM   10  O11 UNL     1     -31.490   9.206   2.176  1.00 20.00    -0.334 OA
HETATM   11  C3  UNL     1     -31.493   8.362   3.243  1.00 20.00     0.149 A 
ENDBRANCH   5   7
TORSDOF 1
ENDMDL
MODEL 3
REMARK VINA RESULT:      -4.8      1.482      4.299
REMARK  1 active torsions:
REMARK  status: ('A' for Active; 'I' for Inactive)
REMARK    1  A    between atoms: C4_4  and  C9_9 
ROOT
HETATM    1  C5  UNL     1     -31.877   8.466   2.830  1.00 20.00     0.135 C 
HETATM    2  C6  UNL     1     -32.042   9.764   2.079  1.00 20.00     0.079 C 
HETATM    3  C7  UNL     1     -32.516   9.282   0.715  1.00 20.00     0.008 C 
HETATM    4  C8  UNL     1     -33.316   8.020   1.012  1.00 20.00     0.017 C 
HETATM    5  C9  UNL     1     -32.491   7.298   2.085  1.00 20.00     0.090 C 
HETATM    6  O10 UNL     1     -31.313   8.381   3.914  1.00 20.00    -0.297 OA
ENDROOT
BRANCH   5   7
HETATM    7  C4  UNL     1     -33.295   6.362   2.949  1.00 20.00    -0.023 A 
HETATM    8  C1  UNL     1     -34.255   6.717   3.926  1.00 20.00     0.034 A 
HETATM    9  C2  UNL     1     -34.721   5.534   4.451  1.00 20.00     0.142 A 
HETATM   10  O11 UNL     1     -34.111   4.475   3.858  1.00 20.00    -0.334 OA
HETATM   11  C3  UNL     1     -33.243   4.988   2.946  1.00 20.00     0.149 A 
ENDBRANCH   5   7
TORSDOF 1
ENDMDL
MODEL 4
REMARK VINA RESULT:      -4.7     11.655     12.270
REMARK  1 active torsions:
REMARK  status: ('A' for Active; 'I' for Inactive)
REMARK    1  A    between atoms: C4_4  and  C9_9 
ROOT
HETATM    1  C5  UNL     1     -31.798  18.562   0.516  1.00 20.00     0.135 C 
HETATM    2  C6  UNL     1     -31.420  18.634   1.974  1.00 20.00     0.079 C 
HETATM    3  C7  UNL     1     -32.661  19.263   2.592  1.00 20.00     0.008 C 
HETATM    4  C8  UNL     1     -33.814  18.762   1.730  1.00 20.00     0.017 C 
HETATM    5  C9  UNL     1     -33.271  18.843   0.297  1.00 20.00     0.090 C 
HETATM    6  O10 UNL     1     -30.999  18.304  -0.376  1.00 20.00    -0.297 OA
ENDROOT
BRANCH   5   7
HETATM    7  C4  UNL     1     -33.947  17.905  -0.668  1.00 20.00    -0.023 A 
HETATM    8  C1  UNL     1     -33.418  17.403  -1.880  1.00 20.00     0.034 A 
HETATM    9  C2  UNL     1     -34.391  16.590  -2.414  1.00 20.00     0.142 A 
HETATM   10  O11 UNL     1     -35.484  16.560  -1.608  1.00 20.00    -0.334 OA
HETATM   11  C3  UNL     1     -35.205  17.364  -0.547  1.00 20.00     0.149 A 
ENDBRANCH   5   7
TORSDOF 1
ENDMDL
MODEL 5
REMARK VINA RESULT:      -4.7     11.868     12.550
REMARK  1 active torsions:
REMARK  status: ('A' for Active; 'I' for Inactive)
REMARK    1  A    between atoms: C4_4  and  C9_9 
ROOT
HETATM    1  C5  UNL     1     -33.420  18.308  -1.703  1.00 20.00     0.135 C 
HETATM    2  C6  UNL     1     -33.715  18.142  -0.234  1.00 20.00     0.079 C 
HETATM    3  C7  UNL     1     -35.142  17.611  -0.255  1.00 20.00     0.008 C 
HETATM    4  C8  UNL     1     -35.227  16.797  -1.541  1.00 20.00     0.017 C 
HETATM    5  C9  UNL     1     -34.470  17.645  -2.571  1.00 20.00     0.090 C 
HETATM    6  O10 UNL     1     -32.442  18.909  -2.131  1.00 20.00    -0.297 OA
ENDROOT
BRANCH   5   7
HETATM    7  C4  UNL     1     -33.915  16.854  -3.726  1.00 20.00    -0.023 A 
HETATM    8  C1  UNL     1     -33.551  15.488  -3.726  1.00 20.00     0.034 A 
HETATM    9  C2  UNL     1     -33.099  15.212  -4.996  1.00 20.00     0.142 A 
HETATM   10  O11 UNL     1     -33.163  16.322  -5.777  1.00 20.00    -0.334 OA
HETATM   11  C3  UNL     1     -33.660  17.318  -4.996  1.00 20.00     0.149 A 
ENDBRANCH   5   7
TORSDOF 1
ENDMDL
MODEL 6
REMARK VINA RESULT:      -4.7     11.137     12.322
REMARK  1 active torsions:
REMARK  status: ('A' for Active; 'I' for Inactive)
REMARK    1  A    between atoms: C4_4  and  C9_9 
ROOT
HETATM    1  C5  UNL     1     -33.801  17.267  -3.531  1.00 20.00     0.135 C 
HETATM    2  C6  UNL     1     -33.171  17.776  -2.259  1.00 20.00     0.079 C 
HETATM    3  C7  UNL     1     -34.335  17.710  -1.281  1.00 20.00     0.008 C 
HETATM    4  C8  UNL     1     -35.165  16.522  -1.753  1.00 20.00     0.017 C 
HETATM    5  C9  UNL     1     -35.162  16.649  -3.282  1.00 20.00     0.090 C 
HETATM    6  O10 UNL     1     -33.264  17.347  -4.630  1.00 20.00    -0.297 OA
ENDROOT
BRANCH   5   7
HETATM    7  C4  UNL     1     -35.398  15.349  -4.005  1.00 20.00    -0.023 A 
HETATM    8  C1  UNL     1     -36.543  14.984  -4.750  1.00 20.00     0.034 A 
HETATM    9  C2  UNL     1     -36.305  13.714  -5.221  1.00 20.00     0.142 A 
HETATM   10  O11 UNL     1     -35.086  13.275  -4.813  1.00 20.00    -0.334 OA
HETATM   11  C3  UNL     1     -34.540  14.276  -4.072  1.00 20.00     0.149 A 
ENDBRANCH   5   7
TORSDOF 1
ENDMDL
MODEL 7
REMARK VINA RESULT:      -4.6     11.398     12.525
REMARK  1 active torsions:
REMARK  status: ('A' for Active; 'I' for Inactive)
REMARK    1  A    between atoms: C4_4  and  C9_9 
ROOT
HETATM    1  C5  UNL     1     -33.637  16.783  -4.941  1.00 20.00     0.135 C 
HETATM    2  C6  UNL     1     -34.110  15.964  -6.115  1.00 20.00     0.079 C 
HETATM    3  C7  UNL     1     -34.018  14.546  -5.570  1.00 20.00     0.008 C 
HETATM    4  C8  UNL     1     -34.310  14.689  -4.081  1.00 20.00     0.017 C 
HETATM    5  C9  UNL     1     -33.551  15.959  -3.672  1.00 20.00     0.090 C 
HETATM    6  O10 UNL     1     -33.361  17.974  -5.016  1.00 20.00    -0.297 OA
ENDROOT
BRANCH   5   7
HETATM    7  C4  UNL     1     -34.109  16.638  -2.449  1.00 20.00    -0.023 A 
HETATM    8  C1  UNL     1     -35.444  16.593  -1.983  1.00 20.00     0.034 A 
HETATM    9  C2  UNL     1     -35.476  17.359  -0.841  1.00 20.00     0.142 A 
HETATM   10  O11 UNL     1     -34.246  17.871  -0.574  1.00 20.00    -0.334 OA
HETATM   11  C3  UNL     1     -33.419  17.428  -1.559  1.00 20.00     0.149 A 
ENDBRANCH   5   7
TORSDOF 1
ENDMDL
MODEL 8
REMARK VINA RESULT:      -4.5     11.289     12.122
REMARK  1 active torsions:
REMARK  status: ('A' for Active; 'I' for Inactive)
REMARK    1  A    between atoms: C4_4  and  C9_9 
ROOT
HETATM    1  C5  UNL     1     -34.289  14.331  -4.405  1.00 20.00     0.135 C 
HETATM    2  C6  UNL     1     -35.233  13.791  -5.450  1.00 20.00     0.079 C 
HETATM    3  C7  UNL     1     -36.586  14.244  -4.919  1.00 20.00     0.008 C 
HETATM    4  C8  UNL     1     -36.296  15.559  -4.206  1.00 20.00     0.017 C 
HETATM    5  C9  UNL     1     -34.978  15.300  -3.466  1.00 20.00     0.090 C 
HETATM    6  O10 UNL     1     -33.107  14.018  -4.336  1.00 20.00    -0.297 OA
ENDROOT
BRANCH   5   7
HETATM    7  C4  UNL     1     -34.188  16.548  -3.168  1.00 20.00    -0.023 A 
HETATM    8  C1  UNL     1     -33.786  17.018  -1.896  1.00 20.00     0.034 A 
HETATM    9  C2  UNL     1     -33.092  18.185  -2.122  1.00 20.00     0.142 A 
HETATM   10  O11 UNL     1     -33.041  18.460  -3.451  1.00 20.00    -0.334 OA
HETATM   11  C3  UNL     1     -33.712  17.459  -4.081  1.00 20.00     0.149 A 
ENDBRANCH   5   7
TORSDOF 1
ENDMDL
MODEL 9
REMARK VINA RESULT:      -4.4     11.575     12.325
REMARK  1 active torsions:
REMARK  status: ('A' for Active; 'I' for Inactive)
REMARK    1  A    between atoms: C4_4  and  C9_9 
ROOT
HETATM    1  C5  UNL     1     -35.979  16.288  -3.541  1.00 20.00     0.135 C 
HETATM    2  C6  UNL     1     -35.420  17.588  -3.017  1.00 20.00     0.079 C 
HETATM    3  C7  UNL     1     -34.059  17.157  -2.488  1.00 20.00     0.008 C 
HETATM    4  C8  UNL     1     -33.637  16.014  -3.404  1.00 20.00     0.017 C 
HETATM    5  C9  UNL     1     -34.923  15.203  -3.606  1.00 20.00     0.090 C 
HETATM    6  O10 UNL     1     -37.149  16.142  -3.874  1.00 20.00    -0.297 OA
ENDROOT
BRANCH   5   7
HETATM    7  C4  UNL     1     -34.942  14.391  -4.874  1.00 20.00    -0.023 A 
HETATM    8  C1  UNL     1     -34.186  14.624  -6.047  1.00 20.00     0.034 A 
HETATM    9  C2  UNL     1     -34.535  13.630  -6.931  1.00 20.00     0.142 A 
HETATM   10  O11 UNL     1     -35.457  12.801  -6.377  1.00 20.00    -0.334 OA
HETATM   11  C3  UNL     1     -35.700  13.271  -5.125  1.00 20.00     0.149 A 
ENDBRANCH   5   7
TORSDOF 1
ENDMDL
