MODEL 1
REMARK VINA RESULT:      -5.8      0.000      0.000
REMARK  1 active torsions:
REMARK  status: ('A' for Active; 'I' for Inactive)
REMARK    1  A    between atoms: C4_4  and  C8_8 
ROOT
HETATM    1  C5  UNL     1     -34.075   4.135   4.132  1.00 20.00     0.002 C 
HETATM    2  C6  UNL     1     -33.103   4.967   3.292  1.00 20.00     0.011 C 
HETATM    3  C7  UNL     1     -35.178   5.090   4.584  1.00 20.00     0.021 C 
HETATM    4  C8  UNL     1     -33.799   6.322   3.068  1.00 20.00     0.039 C 
HETATM    5  C9  UNL     1     -34.617   6.492   4.365  1.00 20.00     0.090 C 
HETATM    6 CL11 UNL     1     -33.598   6.967   5.761  1.00 20.00    -0.124 Cl
ENDROOT
BRANCH   4   7
HETATM    7  C4  UNL     1     -32.931   7.493   2.657  1.00 20.00    -0.028 A 
HETATM    8  C1  UNL     1     -33.129   8.354   1.553  1.00 20.00     0.034 A 
HETATM    9  C2  UNL     1     -32.094   9.260   1.582  1.00 20.00     0.142 A 
HETATM   10  O10 UNL     1     -31.271   9.009   2.635  1.00 20.00    -0.334 OA
HETATM   11  C3  UNL     1     -31.788   7.932   3.284  1.00 20.00     0.148 A 
ENDBRANCH   4   7
TORSDOF 1
ENDMDL
MODEL 2
REMARK VINA RESULT:      -5.2      1.444      1.763
REMARK  1 active torsions:
REMARK  status: ('A' for Active; 'I' for Inactive)
REMARK    1  A    between atoms: C4_4  and  C8_8 
ROOT
HETATM    1  C5  UNL     1     -34.642   5.675   6.048  1.00 20.00     0.002 C 
HETATM    2  C6  UNL     1     -33.810   6.863   5.560  1.00 20.00     0.011 C 
HETATM    3  C7  UNL     1     -34.639   4.652   4.912  1.00 20.00     0.021 C 
HETATM    4  C8  UNL     1     -33.137   6.394   4.257  1.00 20.00     0.039 C 
HETATM    5  C9  UNL     1     -34.183   5.421   3.675  1.00 20.00     0.090 C 
HETATM    6 CL11 UNL     1     -35.577   6.273   2.938  1.00 20.00    -0.124 Cl
ENDROOT
BRANCH   4   7
HETATM    7  C4  UNL     1     -32.612   7.461   3.319  1.00 20.00    -0.028 A 
HETATM    8  C1  UNL     1     -32.982   7.665   1.969  1.00 20.00     0.034 A 
HETATM    9  C2  UNL     1     -32.247   8.743   1.530  1.00 20.00     0.142 A 
HETATM   10  O10 UNL     1     -31.449   9.213   2.524  1.00 20.00    -0.334 OA
HETATM   11  C3  UNL     1     -31.677   8.427   3.609  1.00 20.00     0.148 A 
ENDBRANCH   4   7
TORSDOF 1
ENDMDL
MODEL 3
REMARK VINA RESULT:      -4.8     11.410     12.021
REMARK  1 active torsions:
REMARK  status: ('A' for Active; 'I' for Inactive)
REMARK    1  A    between atoms: C4_4  and  C8_8 
ROOT
HETATM    1  C5  UNL     1     -34.031  17.003  -2.327  1.00 20.00     0.002 C 
HETATM    2  C6  UNL     1     -33.621  16.000  -3.408  1.00 20.00     0.011 C 
HETATM    3  C7  UNL     1     -35.537  16.833  -2.133  1.00 20.00     0.021 C 
HETATM    4  C8  UNL     1     -34.851  15.101  -3.631  1.00 20.00     0.039 C 
HETATM    5  C9  UNL     1     -36.021  16.068  -3.361  1.00 20.00     0.090 C 
HETATM    6 CL11 UNL     1     -36.299  17.205  -4.719  1.00 20.00    -0.124 Cl
ENDROOT
BRANCH   4   7
HETATM    7  C4  UNL     1     -34.911  14.310  -4.921  1.00 20.00    -0.028 A 
HETATM    8  C1  UNL     1     -34.129  14.515  -6.083  1.00 20.00     0.034 A 
HETATM    9  C2  UNL     1     -34.534  13.562  -6.990  1.00 20.00     0.142 A 
HETATM   10  O10 UNL     1     -35.515  12.785  -6.459  1.00 20.00    -0.334 OA
HETATM   11  C3  UNL     1     -35.738  13.247  -5.201  1.00 20.00     0.148 A 
ENDBRANCH   4   7
TORSDOF 1
ENDMDL
MODEL 4
REMARK VINA RESULT:      -4.7     11.466     12.242
REMARK  1 active torsions:
REMARK  status: ('A' for Active; 'I' for Inactive)
REMARK    1  A    between atoms: C4_4  and  C8_8 
ROOT
HETATM    1  C5  UNL     1     -34.077  14.485  -5.570  1.00 20.00     0.002 C 
HETATM    2  C6  UNL     1     -34.390  14.718  -4.090  1.00 20.00     0.011 C 
HETATM    3  C7  UNL     1     -33.302  15.714  -6.044  1.00 20.00     0.021 C 
HETATM    4  C8  UNL     1     -33.573  15.958  -3.681  1.00 20.00     0.039 C 
HETATM    5  C9  UNL     1     -33.549  16.783  -4.984  1.00 20.00     0.090 C 
HETATM    6 CL11 UNL     1     -35.107  17.611  -5.302  1.00 20.00    -0.124 Cl
ENDROOT
BRANCH   4   7
HETATM    7  C4  UNL     1     -33.998  16.690  -2.425  1.00 20.00    -0.028 A 
HETATM    8  C1  UNL     1     -35.254  16.611  -1.778  1.00 20.00     0.034 A 
HETATM    9  C2  UNL     1     -35.175  17.445  -0.686  1.00 20.00     0.142 A 
HETATM   10  O10 UNL     1     -33.950  18.032  -0.622  1.00 20.00    -0.334 OA
HETATM   11  C3  UNL     1     -33.241  17.566  -1.684  1.00 20.00     0.148 A 
ENDBRANCH   4   7
TORSDOF 1
ENDMDL
MODEL 5
REMARK VINA RESULT:      -4.7     11.421     12.043
REMARK  1 active torsions:
REMARK  status: ('A' for Active; 'I' for Inactive)
REMARK    1  A    between atoms: C4_4  and  C8_8 
ROOT
HETATM    1  C5  UNL     1     -33.986  18.124  -0.884  1.00 20.00     0.002 C 
HETATM    2  C6  UNL     1     -33.295  17.516  -2.108  1.00 20.00     0.011 C 
HETATM    3  C7  UNL     1     -35.307  17.372  -0.720  1.00 20.00     0.021 C 
HETATM    4  C8  UNL     1     -34.112  16.262  -2.469  1.00 20.00     0.039 C 
HETATM    5  C9  UNL     1     -35.541  16.667  -2.053  1.00 20.00     0.090 C 
HETATM    6 CL11 UNL     1     -36.301  17.798  -3.217  1.00 20.00    -0.124 Cl
ENDROOT
BRANCH   4   7
HETATM    7  C4  UNL     1     -33.947  15.702  -3.867  1.00 20.00    -0.028 A 
HETATM    8  C1  UNL     1     -34.435  14.465  -4.351  1.00 20.00     0.034 A 
HETATM    9  C2  UNL     1     -34.043  14.388  -5.667  1.00 20.00     0.142 A 
HETATM   10  O10 UNL     1     -33.346  15.499  -6.023  1.00 20.00    -0.334 OA
HETATM   11  C3  UNL     1     -33.292  16.293  -4.921  1.00 20.00     0.148 A 
ENDBRANCH   4   7
TORSDOF 1
ENDMDL
MODEL 6
REMARK VINA RESULT:      -4.7      2.264      4.442
REMARK  1 active torsions:
REMARK  status: ('A' for Active; 'I' for Inactive)
REMARK    1  A    between atoms: C4_4  and  C8_8 
ROOT
HETATM    1  C5  UNL     1     -32.643   9.710   1.302  1.00 20.00     0.002 C 
HETATM    2  C6  UNL     1     -33.666   9.115   2.273  1.00 20.00     0.011 C 
HETATM    3  C7  UNL     1     -31.540   8.664   1.147  1.00 20.00     0.021 C 
HETATM    4  C8  UNL     1     -33.258   7.642   2.459  1.00 20.00     0.039 C 
HETATM    5  C9  UNL     1     -31.723   7.703   2.318  1.00 20.00     0.090 C 
HETATM    6 CL11 UNL     1     -30.925   8.365   3.781  1.00 20.00    -0.124 Cl
ENDROOT
BRANCH   4   7
HETATM    7  C4  UNL     1     -33.797   6.917   3.674  1.00 20.00    -0.028 A 
HETATM    8  C1  UNL     1     -33.671   7.312   5.027  1.00 20.00     0.034 A 
HETATM    9  C2  UNL     1     -34.314   6.348   5.769  1.00 20.00     0.142 A 
HETATM   10  O10 UNL     1     -34.826   5.385   4.958  1.00 20.00    -0.334 OA
HETATM   11  C3  UNL     1     -34.507   5.739   3.685  1.00 20.00     0.148 A 
ENDBRANCH   4   7
TORSDOF 1
ENDMDL
MODEL 7
REMARK VINA RESULT:      -4.6     10.742     12.192
REMARK  1 active torsions:
REMARK  status: ('A' for Active; 'I' for Inactive)
REMARK    1  A    between atoms: C4_4  and  C8_8 
ROOT
HETATM    1  C5  UNL     1     -33.306  18.945  -2.995  1.00 20.00     0.002 C 
HETATM    2  C6  UNL     1     -33.898  17.973  -4.019  1.00 20.00     0.011 C 
HETATM    3  C7  UNL     1     -33.008  18.122  -1.743  1.00 20.00     0.021 C 
HETATM    4  C8  UNL     1     -33.695  16.567  -3.425  1.00 20.00     0.039 C 
HETATM    5  C9  UNL     1     -33.801  16.829  -1.909  1.00 20.00     0.090 C 
HETATM    6 CL11 UNL     1     -35.493  17.079  -1.373  1.00 20.00    -0.124 Cl
ENDROOT
BRANCH   4   7
HETATM    7  C4  UNL     1     -34.549  15.446  -3.979  1.00 20.00    -0.028 A 
HETATM    8  C1  UNL     1     -35.872  15.547  -4.472  1.00 20.00     0.034 A 
HETATM    9  C2  UNL     1     -36.232  14.278  -4.863  1.00 20.00     0.142 A 
HETATM   10  O10 UNL     1     -35.215  13.404  -4.642  1.00 20.00    -0.334 OA
HETATM   11  C3  UNL     1     -34.195  14.123  -4.104  1.00 20.00     0.148 A 
ENDBRANCH   4   7
TORSDOF 1
ENDMDL
MODEL 8
REMARK VINA RESULT:      -4.4     11.321     12.167
REMARK  1 active torsions:
REMARK  status: ('A' for Active; 'I' for Inactive)
REMARK    1  A    between atoms: C4_4  and  C8_8 
ROOT
HETATM    1  C5  UNL     1     -36.165  14.994  -4.929  1.00 20.00     0.002 C 
HETATM    2  C6  UNL     1     -35.858  16.318  -4.225  1.00 20.00     0.011 C 
HETATM    3  C7  UNL     1     -35.054  14.025  -4.526  1.00 20.00     0.021 C 
HETATM    4  C8  UNL     1     -34.720  16.009  -3.234  1.00 20.00     0.039 C 
HETATM    5  C9  UNL     1     -33.936  14.900  -3.964  1.00 20.00     0.090 C 
HETATM    6 CL11 UNL     1     -32.929  15.537  -5.303  1.00 20.00    -0.124 Cl
ENDROOT
BRANCH   4   7
HETATM    7  C4  UNL     1     -33.911  17.180  -2.716  1.00 20.00    -0.028 A 
HETATM    8  C1  UNL     1     -33.481  17.394  -1.385  1.00 20.00     0.034 A 
HETATM    9  C2  UNL     1     -32.783  18.580  -1.395  1.00 20.00     0.142 A 
HETATM   10  O10 UNL     1     -32.758  19.108  -2.647  1.00 20.00    -0.334 OA
HETATM   11  C3  UNL     1     -33.446  18.249  -3.444  1.00 20.00     0.148 A 
ENDBRANCH   4   7
TORSDOF 1
ENDMDL
MODEL 9
REMARK VINA RESULT:      -4.3     11.796     12.317
REMARK  1 active torsions:
REMARK  status: ('A' for Active; 'I' for Inactive)
REMARK    1  A    between atoms: C4_4  and  C8_8 
ROOT
HETATM    1  C5  UNL     1     -35.389  13.193  -6.950  1.00 20.00     0.002 C 
HETATM    2  C6  UNL     1     -35.711  13.636  -5.521  1.00 20.00     0.011 C 
HETATM    3  C7  UNL     1     -34.184  14.021  -7.396  1.00 20.00     0.021 C 
HETATM    4  C8  UNL     1     -34.532  14.526  -5.084  1.00 20.00     0.039 C 
HETATM    5  C9  UNL     1     -34.105  15.185  -6.412  1.00 20.00     0.090 C 
HETATM    6 CL11 UNL     1     -35.223  16.490  -6.921  1.00 20.00    -0.124 Cl
ENDROOT
BRANCH   4   7
HETATM    7  C4  UNL     1     -34.758  15.455  -3.910  1.00 20.00    -0.028 A 
HETATM    8  C1  UNL     1     -33.767  16.074  -3.111  1.00 20.00     0.034 A 
HETATM    9  C2  UNL     1     -34.443  16.820  -2.174  1.00 20.00     0.142 A 
HETATM   10  O10 UNL     1     -35.786  16.700  -2.346  1.00 20.00    -0.334 OA
HETATM   11  C3  UNL     1     -35.969  15.867  -3.404  1.00 20.00     0.148 A 
ENDBRANCH   4   7
TORSDOF 1
ENDMDL
