MODEL 1
REMARK VINA RESULT:      -3.9      0.000      0.000
REMARK  4 active torsions:
REMARK  status: ('A' for Active; 'I' for Inactive)
REMARK    1  A    between atoms: C1_1  and  C2_2 
REMARK    2  A    between atoms: C1_1  and  N9_9 
REMARK    3  A    between atoms: C7_7  and  C8_8 
REMARK    4  A    between atoms: C8_8  and  N9_9 
ROOT
HETATM    1  C4  UNL     1     -34.825   6.517   2.423  1.00 20.00     0.038 C 
HETATM    2  C5  UNL     1     -32.873   5.062   2.987  1.00 20.00     0.038 C 
HETATM    3  C8  UNL     1     -33.563   6.399   3.291  1.00 20.00     0.024 C 
ENDROOT
BRANCH   3   4
HETATM    4  C7  UNL     1     -33.971   6.503   4.780  1.00 20.00     0.026 C 
HETATM    5  C3  UNL     1     -34.618   5.250   5.360  1.00 20.00     0.007 C 
ENDBRANCH   3   4
BRANCH   3   6
HETATM    6  N9  UNL     1     -32.668   7.490   2.943  1.00 20.00    -0.383 N 
HETATM    7  C6  UNL     1     -31.876   8.050   4.032  1.00 20.00     0.150 C 
BRANCH   6   8
HETATM    8  C1  UNL     1     -32.733   8.108   1.725  1.00 20.00     0.127 C 
BRANCH   8   9
HETATM    9  C2  UNL     1     -32.287   9.333   1.393  1.00 20.00     0.275 C 
HETATM   10  O10 UNL     1     -32.894  10.408   1.148  1.00 20.00    -0.301 OA
ENDBRANCH   8   9
ENDBRANCH   6   8
ENDBRANCH   3   6
TORSDOF 4
ENDMDL
MODEL 2
REMARK VINA RESULT:      -3.8      1.189      1.981
REMARK  4 active torsions:
REMARK  status: ('A' for Active; 'I' for Inactive)
REMARK    1  A    between atoms: C1_1  and  C2_2 
REMARK    2  A    between atoms: C1_1  and  N9_9 
REMARK    3  A    between atoms: C7_7  and  C8_8 
REMARK    4  A    between atoms: C8_8  and  N9_9 
ROOT
HETATM    1  C4  UNL     1     -35.687   6.144   3.338  1.00 20.00     0.038 C 
HETATM    2  C5  UNL     1     -34.310   4.827   4.955  1.00 20.00     0.038 C 
HETATM    3  C8  UNL     1     -34.354   6.101   4.100  1.00 20.00     0.024 C 
ENDROOT
BRANCH   3   4
HETATM    4  C7  UNL     1     -34.236   7.374   4.972  1.00 20.00     0.026 C 
HETATM    5  C3  UNL     1     -33.663   7.150   6.367  1.00 20.00     0.007 C 
ENDBRANCH   3   4
BRANCH   3   6
HETATM    6  N9  UNL     1     -33.274   6.062   3.128  1.00 20.00    -0.383 N 
HETATM    7  C6  UNL     1     -32.972   4.758   2.548  1.00 20.00     0.150 C 
BRANCH   6   8
HETATM    8  C1  UNL     1     -32.441   7.130   2.941  1.00 20.00     0.127 C 
BRANCH   8   9
HETATM    9  C2  UNL     1     -32.463   8.033   1.944  1.00 20.00     0.275 C 
HETATM   10  O10 UNL     1     -32.110   9.240   1.899  1.00 20.00    -0.301 OA
ENDBRANCH   8   9
ENDBRANCH   6   8
ENDBRANCH   3   6
TORSDOF 4
ENDMDL
MODEL 3
REMARK VINA RESULT:      -3.8      1.495      2.498
REMARK  4 active torsions:
REMARK  status: ('A' for Active; 'I' for Inactive)
REMARK    1  A    between atoms: C1_1  and  C2_2 
REMARK    2  A    between atoms: C1_1  and  N9_9 
REMARK    3  A    between atoms: C7_7  and  C8_8 
REMARK    4  A    between atoms: C8_8  and  N9_9 
ROOT
HETATM    1  C4  UNL     1     -34.758   5.331   5.836  1.00 20.00     0.038 C 
HETATM    2  C5  UNL     1     -35.567   5.953   3.556  1.00 20.00     0.038 C 
HETATM    3  C8  UNL     1     -34.318   5.710   4.414  1.00 20.00     0.024 C 
ENDROOT
BRANCH   3   4
HETATM    4  C7  UNL     1     -33.448   4.567   3.840  1.00 20.00     0.026 C 
HETATM    5  C3  UNL     1     -33.205   4.634   2.336  1.00 20.00     0.007 C 
ENDBRANCH   3   4
BRANCH   3   6
HETATM    6  N9  UNL     1     -33.543   6.937   4.489  1.00 20.00    -0.383 N 
HETATM    7  C6  UNL     1     -33.323   7.484   5.823  1.00 20.00     0.150 C 
BRANCH   6   8
HETATM    8  C1  UNL     1     -33.237   7.660   3.369  1.00 20.00     0.127 C 
BRANCH   8   9
HETATM    9  C2  UNL     1     -32.021   8.026   2.926  1.00 20.00     0.275 C 
HETATM   10  O10 UNL     1     -31.631   8.457   1.809  1.00 20.00    -0.301 OA
ENDBRANCH   8   9
ENDBRANCH   6   8
ENDBRANCH   3   6
TORSDOF 4
ENDMDL
MODEL 4
REMARK VINA RESULT:      -3.8      2.617      4.236
REMARK  4 active torsions:
REMARK  status: ('A' for Active; 'I' for Inactive)
REMARK    1  A    between atoms: C1_1  and  C2_2 
REMARK    2  A    between atoms: C1_1  and  N9_9 
REMARK    3  A    between atoms: C7_7  and  C8_8 
REMARK    4  A    between atoms: C8_8  and  N9_9 
ROOT
HETATM    1  C4  UNL     1     -31.567   8.012   3.817  1.00 20.00     0.038 C 
HETATM    2  C5  UNL     1     -32.422   6.114   2.435  1.00 20.00     0.038 C 
HETATM    3  C8  UNL     1     -32.822   7.395   3.181  1.00 20.00     0.024 C 
ENDROOT
BRANCH   3   4
HETATM    4  C7  UNL     1     -33.459   8.433   2.226  1.00 20.00     0.026 C 
HETATM    5  C3  UNL     1     -32.469   9.220   1.376  1.00 20.00     0.007 C 
ENDBRANCH   3   4
BRANCH   3   6
HETATM    6  N9  UNL     1     -33.753   7.058   4.244  1.00 20.00    -0.383 N 
HETATM    7  C6  UNL     1     -33.440   7.580   5.569  1.00 20.00     0.150 C 
BRANCH   6   8
HETATM    8  C1  UNL     1     -34.733   6.121   4.067  1.00 20.00     0.127 C 
BRANCH   8   9
HETATM    9  C2  UNL     1     -34.849   4.921   4.665  1.00 20.00     0.275 C 
HETATM   10  O10 UNL     1     -34.395   3.787   4.363  1.00 20.00    -0.301 OA
ENDBRANCH   8   9
ENDBRANCH   6   8
ENDBRANCH   3   6
TORSDOF 4
ENDMDL
MODEL 5
REMARK VINA RESULT:      -3.8     10.934     11.705
REMARK  4 active torsions:
REMARK  status: ('A' for Active; 'I' for Inactive)
REMARK    1  A    between atoms: C1_1  and  C2_2 
REMARK    2  A    between atoms: C1_1  and  N9_9 
REMARK    3  A    between atoms: C7_7  and  C8_8 
REMARK    4  A    between atoms: C8_8  and  N9_9 
ROOT
HETATM    1  C4  UNL     1     -33.162  15.037  -4.179  1.00 20.00     0.038 C 
HETATM    2  C5  UNL     1     -33.656  17.408  -4.794  1.00 20.00     0.038 C 
HETATM    3  C8  UNL     1     -34.173  16.184  -4.027  1.00 20.00     0.024 C 
ENDROOT
BRANCH   3   4
HETATM    4  C7  UNL     1     -34.354  16.492  -2.521  1.00 20.00     0.026 C 
HETATM    5  C3  UNL     1     -33.318  17.440  -1.928  1.00 20.00     0.007 C 
ENDBRANCH   3   4
BRANCH   3   6
HETATM    6  N9  UNL     1     -35.437  15.756  -4.603  1.00 20.00    -0.383 N 
HETATM    7  C6  UNL     1     -36.633  16.024  -3.812  1.00 20.00     0.150 C 
BRANCH   6   8
HETATM    8  C1  UNL     1     -35.484  14.947  -5.705  1.00 20.00     0.127 C 
BRANCH   8   9
HETATM    9  C2  UNL     1     -36.090  13.752  -5.830  1.00 20.00     0.275 C 
HETATM   10  O10 UNL     1     -35.906  12.654  -5.242  1.00 20.00    -0.301 OA
ENDBRANCH   8   9
ENDBRANCH   6   8
ENDBRANCH   3   6
TORSDOF 4
ENDMDL
MODEL 6
REMARK VINA RESULT:      -3.7     10.666     11.364
REMARK  4 active torsions:
REMARK  status: ('A' for Active; 'I' for Inactive)
REMARK    1  A    between atoms: C1_1  and  C2_2 
REMARK    2  A    between atoms: C1_1  and  N9_9 
REMARK    3  A    between atoms: C7_7  and  C8_8 
REMARK    4  A    between atoms: C8_8  and  N9_9 
ROOT
HETATM    1  C4  UNL     1     -34.603  17.096  -4.981  1.00 20.00     0.038 C 
HETATM    2  C5  UNL     1     -36.534  16.156  -3.704  1.00 20.00     0.038 C 
HETATM    3  C8  UNL     1     -35.011  16.099  -3.887  1.00 20.00     0.024 C 
ENDROOT
BRANCH   3   4
HETATM    4  C7  UNL     1     -34.268  16.463  -2.579  1.00 20.00     0.026 C 
HETATM    5  C3  UNL     1     -35.168  16.869  -1.418  1.00 20.00     0.007 C 
ENDBRANCH   3   4
BRANCH   3   6
HETATM    6  N9  UNL     1     -34.630  14.765  -4.321  1.00 20.00    -0.383 N 
HETATM    7  C6  UNL     1     -33.200  14.506  -4.438  1.00 20.00     0.150 C 
BRANCH   6   8
HETATM    8  C1  UNL     1     -35.552  13.883  -4.814  1.00 20.00     0.127 C 
BRANCH   8   9
HETATM    9  C2  UNL     1     -35.640  13.388  -6.062  1.00 20.00     0.275 C 
HETATM   10  O10 UNL     1     -35.107  12.386  -6.606  1.00 20.00    -0.301 OA
ENDBRANCH   8   9
ENDBRANCH   6   8
ENDBRANCH   3   6
TORSDOF 4
ENDMDL
MODEL 7
REMARK VINA RESULT:      -3.7     10.614     11.583
REMARK  4 active torsions:
REMARK  status: ('A' for Active; 'I' for Inactive)
REMARK    1  A    between atoms: C1_1  and  C2_2 
REMARK    2  A    between atoms: C1_1  and  N9_9 
REMARK    3  A    between atoms: C7_7  and  C8_8 
REMARK    4  A    between atoms: C8_8  and  N9_9 
ROOT
HETATM    1  C4  UNL     1     -32.691  14.277  -4.246  1.00 20.00     0.038 C 
HETATM    2  C5  UNL     1     -33.354  16.372  -5.436  1.00 20.00     0.038 C 
HETATM    3  C8  UNL     1     -33.882  15.146  -4.677  1.00 20.00     0.024 C 
ENDROOT
BRANCH   3   4
HETATM    4  C7  UNL     1     -34.679  15.560  -3.416  1.00 20.00     0.026 C 
HETATM    5  C3  UNL     1     -34.005  16.612  -2.543  1.00 20.00     0.007 C 
ENDBRANCH   3   4
BRANCH   3   6
HETATM    6  N9  UNL     1     -34.723  14.360  -5.563  1.00 20.00    -0.383 N 
HETATM    7  C6  UNL     1     -34.430  14.456  -6.988  1.00 20.00     0.150 C 
BRANCH   6   8
HETATM    8  C1  UNL     1     -35.864  13.753  -5.115  1.00 20.00     0.127 C 
BRANCH   8   9
HETATM    9  C2  UNL     1     -37.131  13.979  -5.506  1.00 20.00     0.275 C 
HETATM   10  O10 UNL     1     -38.206  14.063  -4.857  1.00 20.00    -0.301 OA
ENDBRANCH   8   9
ENDBRANCH   6   8
ENDBRANCH   3   6
TORSDOF 4
ENDMDL
MODEL 8
REMARK VINA RESULT:      -3.5     10.689     11.828
REMARK  4 active torsions:
REMARK  status: ('A' for Active; 'I' for Inactive)
REMARK    1  A    between atoms: C1_1  and  C2_2 
REMARK    2  A    between atoms: C1_1  and  N9_9 
REMARK    3  A    between atoms: C7_7  and  C8_8 
REMARK    4  A    between atoms: C8_8  and  N9_9 
ROOT
HETATM    1  C4  UNL     1     -34.101  16.425  -2.807  1.00 20.00     0.038 C 
HETATM    2  C5  UNL     1     -32.988  14.757  -4.298  1.00 20.00     0.038 C 
HETATM    3  C8  UNL     1     -34.114  15.796  -4.208  1.00 20.00     0.024 C 
ENDROOT
BRANCH   3   4
HETATM    4  C7  UNL     1     -33.935  16.918  -5.260  1.00 20.00     0.026 C 
HETATM    5  C3  UNL     1     -33.733  16.435  -6.691  1.00 20.00     0.007 C 
ENDBRANCH   3   4
BRANCH   3   6
HETATM    6  N9  UNL     1     -35.393  15.134  -4.399  1.00 20.00    -0.383 N 
HETATM    7  C6  UNL     1     -36.574  15.869  -3.962  1.00 20.00     0.150 C 
BRANCH   6   8
HETATM    8  C1  UNL     1     -35.470  13.814  -4.749  1.00 20.00     0.127 C 
BRANCH   8   9
HETATM    9  C2  UNL     1     -35.754  13.292  -5.956  1.00 20.00     0.275 C 
HETATM   10  O10 UNL     1     -35.163  12.427  -6.654  1.00 20.00    -0.301 OA
ENDBRANCH   8   9
ENDBRANCH   6   8
ENDBRANCH   3   6
TORSDOF 4
ENDMDL
MODEL 9
REMARK VINA RESULT:      -3.5     10.765     12.074
REMARK  4 active torsions:
REMARK  status: ('A' for Active; 'I' for Inactive)
REMARK    1  A    between atoms: C1_1  and  C2_2 
REMARK    2  A    between atoms: C1_1  and  N9_9 
REMARK    3  A    between atoms: C7_7  and  C8_8 
REMARK    4  A    between atoms: C8_8  and  N9_9 
ROOT
HETATM    1  C4  UNL     1     -34.356  17.889  -4.662  1.00 20.00     0.038 C 
HETATM    2  C5  UNL     1     -34.690  16.053  -2.999  1.00 20.00     0.038 C 
HETATM    3  C8  UNL     1     -34.578  16.378  -4.495  1.00 20.00     0.024 C 
ENDROOT
BRANCH   3   4
HETATM    4  C7  UNL     1     -33.395  15.625  -5.151  1.00 20.00     0.026 C 
HETATM    5  C3  UNL     1     -32.879  14.425  -4.366  1.00 20.00     0.007 C 
ENDBRANCH   3   4
BRANCH   3   6
HETATM    6  N9  UNL     1     -35.822  16.024  -5.157  1.00 20.00    -0.383 N 
HETATM    7  C6  UNL     1     -36.358  17.003  -6.095  1.00 20.00     0.150 C 
BRANCH   6   8
HETATM    8  C1  UNL     1     -36.566  14.949  -4.755  1.00 20.00     0.127 C 
BRANCH   8   9
HETATM    9  C2  UNL     1     -36.637  13.732  -5.323  1.00 20.00     0.275 C 
HETATM   10  O10 UNL     1     -35.905  12.713  -5.216  1.00 20.00    -0.301 OA
ENDBRANCH   8   9
ENDBRANCH   6   8
ENDBRANCH   3   6
TORSDOF 4
ENDMDL
