MODEL 1
REMARK VINA RESULT:      -3.6      0.000      0.000
REMARK  3 active torsions:
REMARK  status: ('A' for Active; 'I' for Inactive)
REMARK    1  A    between atoms: C3_3  and  C4_4 
REMARK    2  A    between atoms: C3_3  and  N5_5 
REMARK    3  A    between atoms: C4_4  and  S7_7 
ROOT
HETATM    1  C1  UNL     1     -32.181   8.878   1.911  1.00 20.00     0.157 C 
HETATM    2  N5  UNL     1     -31.872   8.173   2.798  1.00 20.00    -0.275 NA
HETATM    3  S6  UNL     1     -32.579   9.855   0.718  1.00 20.00    -0.055 SA
ENDROOT
BRANCH   2   4
HETATM    4  C3  UNL     1     -32.657   6.940   2.906  1.00 20.00     0.160 C 
BRANCH   4   5
HETATM    5  C4  UNL     1     -33.673   7.105   4.026  1.00 20.00     0.095 C 
BRANCH   5   6
HETATM    6  S7  UNL     1     -34.907   5.776   3.973  1.00 20.00    -0.172 SA
HETATM    7  C2  UNL     1     -34.588   5.055   5.598  1.00 20.00     0.089 C 
ENDBRANCH   5   6
ENDBRANCH   4   5
ENDBRANCH   2   4
TORSDOF 3
ENDMDL
MODEL 2
REMARK VINA RESULT:      -3.4      1.045      1.057
REMARK  3 active torsions:
REMARK  status: ('A' for Active; 'I' for Inactive)
REMARK    1  A    between atoms: C3_3  and  C4_4 
REMARK    2  A    between atoms: C3_3  and  N5_5 
REMARK    3  A    between atoms: C4_4  and  S7_7 
ROOT
HETATM    1  C1  UNL     1     -32.282   8.339   2.194  1.00 20.00     0.157 C 
HETATM    2  N5  UNL     1     -32.174   7.583   3.086  1.00 20.00    -0.275 NA
HETATM    3  S6  UNL     1     -32.400   9.373   0.988  1.00 20.00    -0.055 SA
ENDROOT
BRANCH   2   4
HETATM    4  C3  UNL     1     -33.391   6.833   3.408  1.00 20.00     0.160 C 
BRANCH   4   5
HETATM    5  C4  UNL     1     -33.757   7.097   4.860  1.00 20.00     0.095 C 
BRANCH   5   6
HETATM    6  S7  UNL     1     -34.550   5.640   5.597  1.00 20.00    -0.172 SA
HETATM    7  C2  UNL     1     -34.319   4.491   4.222  1.00 20.00     0.089 C 
ENDBRANCH   5   6
ENDBRANCH   4   5
ENDBRANCH   2   4
TORSDOF 3
ENDMDL
MODEL 3
REMARK VINA RESULT:      -3.3      1.411      4.696
REMARK  3 active torsions:
REMARK  status: ('A' for Active; 'I' for Inactive)
REMARK    1  A    between atoms: C3_3  and  C4_4 
REMARK    2  A    between atoms: C3_3  and  N5_5 
REMARK    3  A    between atoms: C4_4  and  S7_7 
ROOT
HETATM    1  C1  UNL     1     -33.751   6.096   3.414  1.00 20.00     0.157 C 
HETATM    2  N5  UNL     1     -32.956   6.537   2.670  1.00 20.00    -0.275 NA
HETATM    3  S6  UNL     1     -34.829   5.472   4.407  1.00 20.00    -0.055 SA
ENDROOT
BRANCH   2   4
HETATM    4  C3  UNL     1     -32.559   7.921   2.944  1.00 20.00     0.160 C 
BRANCH   4   5
HETATM    5  C4  UNL     1     -31.816   8.464   1.733  1.00 20.00     0.095 C 
BRANCH   5   6
HETATM    6  S7  UNL     1     -32.598   9.986   1.130  1.00 20.00    -0.172 SA
HETATM    7  C2  UNL     1     -33.171   9.372  -0.469  1.00 20.00     0.089 C 
ENDBRANCH   5   6
ENDBRANCH   4   5
ENDBRANCH   2   4
TORSDOF 3
ENDMDL
MODEL 4
REMARK VINA RESULT:      -3.3      1.345      1.345
REMARK  3 active torsions:
REMARK  status: ('A' for Active; 'I' for Inactive)
REMARK    1  A    between atoms: C3_3  and  C4_4 
REMARK    2  A    between atoms: C3_3  and  N5_5 
REMARK    3  A    between atoms: C4_4  and  S7_7 
ROOT
HETATM    1  C1  UNL     1     -32.383   7.976   2.319  1.00 20.00     0.157 C 
HETATM    2  N5  UNL     1     -32.336   7.097   3.096  1.00 20.00    -0.275 NA
HETATM    3  S6  UNL     1     -32.425   9.186   1.283  1.00 20.00    -0.055 SA
ENDROOT
BRANCH   2   4
HETATM    4  C3  UNL     1     -33.226   5.969   2.802  1.00 20.00     0.160 C 
BRANCH   4   5
HETATM    5  C4  UNL     1     -34.562   6.211   3.487  1.00 20.00     0.095 C 
BRANCH   5   6
HETATM    6  S7  UNL     1     -34.538   5.568   5.184  1.00 20.00    -0.172 SA
HETATM    7  C2  UNL     1     -33.957   7.058   6.023  1.00 20.00     0.089 C 
ENDBRANCH   5   6
ENDBRANCH   4   5
ENDBRANCH   2   4
TORSDOF 3
ENDMDL
MODEL 5
REMARK VINA RESULT:      -3.2      1.397      4.702
REMARK  3 active torsions:
REMARK  status: ('A' for Active; 'I' for Inactive)
REMARK    1  A    between atoms: C3_3  and  C4_4 
REMARK    2  A    between atoms: C3_3  and  N5_5 
REMARK    3  A    between atoms: C4_4  and  S7_7 
ROOT
HETATM    1  C1  UNL     1     -34.143   6.337   4.274  1.00 20.00     0.157 C 
HETATM    2  N5  UNL     1     -33.732   7.303   3.748  1.00 20.00    -0.275 NA
HETATM    3  S6  UNL     1     -34.719   5.043   5.003  1.00 20.00    -0.055 SA
ENDROOT
BRANCH   2   4
HETATM    4  C3  UNL     1     -32.668   7.065   2.768  1.00 20.00     0.160 C 
BRANCH   4   5
HETATM    5  C4  UNL     1     -31.842   8.335   2.627  1.00 20.00     0.095 C 
BRANCH   5   6
HETATM    6  S7  UNL     1     -31.836   8.909   0.906  1.00 20.00    -0.172 SA
HETATM    7  C2  UNL     1     -32.779  10.433   1.133  1.00 20.00     0.089 C 
ENDBRANCH   5   6
ENDBRANCH   4   5
ENDBRANCH   2   4
TORSDOF 3
ENDMDL
MODEL 6
REMARK VINA RESULT:      -3.0      2.224      4.670
REMARK  3 active torsions:
REMARK  status: ('A' for Active; 'I' for Inactive)
REMARK    1  A    between atoms: C3_3  and  C4_4 
REMARK    2  A    between atoms: C3_3  and  N5_5 
REMARK    3  A    between atoms: C4_4  and  S7_7 
ROOT
HETATM    1  C1  UNL     1     -34.320   5.553   5.309  1.00 20.00     0.157 C 
HETATM    2  N5  UNL     1     -34.300   6.554   5.922  1.00 20.00    -0.275 NA
HETATM    3  S6  UNL     1     -34.368   4.182   4.498  1.00 20.00    -0.055 SA
ENDROOT
BRANCH   2   4
HETATM    4  C3  UNL     1     -33.370   7.567   5.414  1.00 20.00     0.160 C 
BRANCH   4   5
HETATM    5  C4  UNL     1     -33.316   7.462   3.897  1.00 20.00     0.095 C 
BRANCH   5   6
HETATM    6  S7  UNL     1     -31.739   8.102   3.266  1.00 20.00    -0.172 SA
HETATM    7  C2  UNL     1     -32.339   8.784   1.704  1.00 20.00     0.089 C 
ENDBRANCH   5   6
ENDBRANCH   4   5
ENDBRANCH   2   4
TORSDOF 3
ENDMDL
MODEL 7
REMARK VINA RESULT:      -2.7     11.036     11.623
REMARK  3 active torsions:
REMARK  status: ('A' for Active; 'I' for Inactive)
REMARK    1  A    between atoms: C3_3  and  C4_4 
REMARK    2  A    between atoms: C3_3  and  N5_5 
REMARK    3  A    between atoms: C4_4  and  S7_7 
ROOT
HETATM    1  C1  UNL     1     -36.594  13.714  -5.382  1.00 20.00     0.157 C 
HETATM    2  N5  UNL     1     -35.631  13.062  -5.546  1.00 20.00    -0.275 NA
HETATM    3  S6  UNL     1     -37.911  14.577  -5.140  1.00 20.00    -0.055 SA
ENDROOT
BRANCH   2   4
HETATM    4  C3  UNL     1     -34.678  13.607  -6.517  1.00 20.00     0.160 C 
BRANCH   4   5
HETATM    5  C4  UNL     1     -34.222  14.976  -6.038  1.00 20.00     0.095 C 
BRANCH   5   6
HETATM    6  S7  UNL     1     -33.188  14.824  -4.554  1.00 20.00    -0.172 SA
HETATM    7  C2  UNL     1     -34.170  15.856  -3.442  1.00 20.00     0.089 C 
ENDBRANCH   5   6
ENDBRANCH   4   5
ENDBRANCH   2   4
TORSDOF 3
ENDMDL
MODEL 8
REMARK VINA RESULT:      -2.7     10.802     11.642
REMARK  3 active torsions:
REMARK  status: ('A' for Active; 'I' for Inactive)
REMARK    1  A    between atoms: C3_3  and  C4_4 
REMARK    2  A    between atoms: C3_3  and  N5_5 
REMARK    3  A    between atoms: C4_4  and  S7_7 
ROOT
HETATM    1  C1  UNL     1     -34.840  13.556  -6.856  1.00 20.00     0.157 C 
HETATM    2  N5  UNL     1     -35.458  12.921  -6.086  1.00 20.00    -0.275 NA
HETATM    3  S6  UNL     1     -33.996  14.392  -7.918  1.00 20.00    -0.055 SA
ENDROOT
BRANCH   2   4
HETATM    4  C3  UNL     1     -35.928  13.664  -4.913  1.00 20.00     0.160 C 
BRANCH   4   5
HETATM    5  C4  UNL     1     -34.724  14.262  -4.201  1.00 20.00     0.095 C 
BRANCH   5   6
HETATM    6  S7  UNL     1     -35.120  15.906  -3.543  1.00 20.00    -0.172 SA
HETATM    7  C2  UNL     1     -33.709  16.808  -4.219  1.00 20.00     0.089 C 
ENDBRANCH   5   6
ENDBRANCH   4   5
ENDBRANCH   2   4
TORSDOF 3
ENDMDL
MODEL 9
REMARK VINA RESULT:      -2.7     10.807     11.712
REMARK  3 active torsions:
REMARK  status: ('A' for Active; 'I' for Inactive)
REMARK    1  A    between atoms: C3_3  and  C4_4 
REMARK    2  A    between atoms: C3_3  and  N5_5 
REMARK    3  A    between atoms: C4_4  and  S7_7 
ROOT
HETATM    1  C1  UNL     1     -35.594  13.321  -6.394  1.00 20.00     0.157 C 
HETATM    2  N5  UNL     1     -35.627  12.959  -5.277  1.00 20.00    -0.275 NA
HETATM    3  S6  UNL     1     -35.568  13.788  -7.917  1.00 20.00    -0.055 SA
ENDROOT
BRANCH   2   4
HETATM    4  C3  UNL     1     -34.853  13.779  -4.342  1.00 20.00     0.160 C 
BRANCH   4   5
HETATM    5  C4  UNL     1     -35.486  15.160  -4.265  1.00 20.00     0.095 C 
BRANCH   5   6
HETATM    6  S7  UNL     1     -34.210  16.445  -4.150  1.00 20.00    -0.172 SA
HETATM    7  C2  UNL     1     -33.049  15.772  -5.360  1.00 20.00     0.089 C 
ENDBRANCH   5   6
ENDBRANCH   4   5
ENDBRANCH   2   4
TORSDOF 3
ENDMDL
