MODEL 1
REMARK VINA RESULT:      -5.9      0.000      0.000
REMARK  3 active torsions:
REMARK  status: ('A' for Active; 'I' for Inactive)
REMARK    1  A    between atoms: C4_4  and  C8_8 
REMARK    2  A    between atoms: C8_8  and  N10_10 
REMARK    3  A    between atoms: C9_9  and  N10_10 
ROOT
HETATM    1  C1  UNL     1     -33.744   7.305   6.121  1.00 20.00     0.015 C 
HETATM    2  C2  UNL     1     -33.986   6.626   5.161  1.00 20.00    -0.076 C 
HETATM    3  C6  UNL     1     -34.247   4.310   4.377  1.00 20.00     0.063 C 
HETATM    4  C7  UNL     1     -35.666   6.147   3.426  1.00 20.00     0.063 C 
HETATM    5  C9  UNL     1     -34.282   5.789   3.980  1.00 20.00     0.212 C 
ENDROOT
BRANCH   5   6
HETATM    6  N10 UNL     1     -33.282   6.040   2.961  1.00 20.00     0.115 N 
HETATM    7  H23 UNL     1     -33.743   6.220   2.067  1.00 20.00     0.319 HD
BRANCH   6   8
HETATM    8  C8  UNL     1     -32.453   7.190   3.306  1.00 20.00     0.365 C 
BRANCH   8   9
HETATM    9  C4  UNL     1     -32.503   8.207   2.252  1.00 20.00    -0.077 C 
HETATM   10  C3  UNL     1     -32.540   9.043   1.392  1.00 20.00    -0.109 C 
HETATM   11  C5  UNL     1     -32.586  10.062   0.343  1.00 20.00     0.112 C 
ENDBRANCH   8   9
ENDBRANCH   6   8
ENDBRANCH   5   6
TORSDOF 3
ENDMDL
MODEL 2
REMARK VINA RESULT:      -5.2      1.090      2.115
REMARK  3 active torsions:
REMARK  status: ('A' for Active; 'I' for Inactive)
REMARK    1  A    between atoms: C4_4  and  C8_8 
REMARK    2  A    between atoms: C8_8  and  N10_10 
REMARK    3  A    between atoms: C9_9  and  N10_10 
ROOT
HETATM    1  C1  UNL     1     -32.935   4.344   2.554  1.00 20.00     0.015 C 
HETATM    2  C2  UNL     1     -33.565   5.082   3.260  1.00 20.00    -0.076 C 
HETATM    3  C6  UNL     1     -35.742   6.193   3.538  1.00 20.00     0.063 C 
HETATM    4  C7  UNL     1     -34.450   5.397   5.536  1.00 20.00     0.063 C 
HETATM    5  C9  UNL     1     -34.342   5.992   4.127  1.00 20.00     0.212 C 
ENDROOT
BRANCH   5   6
HETATM    6  N10 UNL     1     -33.661   7.270   4.201  1.00 20.00     0.115 N 
HETATM    7  H23 UNL     1     -33.419   7.473   5.173  1.00 20.00     0.319 HD
BRANCH   6   8
HETATM    8  C8  UNL     1     -32.441   7.265   3.401  1.00 20.00     0.365 C 
BRANCH   8   9
HETATM    9  C4  UNL     1     -32.475   8.320   2.385  1.00 20.00    -0.077 C 
HETATM   10  C3  UNL     1     -32.499   9.184   1.550  1.00 20.00    -0.109 C 
HETATM   11  C5  UNL     1     -32.528  10.236   0.535  1.00 20.00     0.112 C 
ENDBRANCH   8   9
ENDBRANCH   6   8
ENDBRANCH   5   6
TORSDOF 3
ENDMDL
MODEL 3
REMARK VINA RESULT:      -4.7      1.458      5.056
REMARK  3 active torsions:
REMARK  status: ('A' for Active; 'I' for Inactive)
REMARK    1  A    between atoms: C4_4  and  C8_8 
REMARK    2  A    between atoms: C8_8  and  N10_10 
REMARK    3  A    between atoms: C9_9  and  N10_10 
ROOT
HETATM    1  C1  UNL     1     -32.521  11.477   2.075  1.00 20.00     0.015 C 
HETATM    2  C2  UNL     1     -32.510  10.427   1.494  1.00 20.00    -0.076 C 
HETATM    3  C6  UNL     1     -33.225   9.280  -0.560  1.00 20.00     0.063 C 
HETATM    4  C7  UNL     1     -31.049   8.689   0.540  1.00 20.00     0.063 C 
HETATM    5  C9  UNL     1     -32.496   9.133   0.780  1.00 20.00     0.212 C 
ENDROOT
BRANCH   5   6
HETATM    6  N10 UNL     1     -33.171   8.139   1.591  1.00 20.00     0.115 N 
HETATM    7  H23 UNL     1     -33.271   7.273   1.057  1.00 20.00     0.319 HD
BRANCH   6   8
HETATM    8  C8  UNL     1     -32.425   7.859   2.813  1.00 20.00     0.365 C 
BRANCH   8   9
HETATM    9  C4  UNL     1     -33.240   7.095   3.762  1.00 20.00    -0.077 C 
HETATM   10  C3  UNL     1     -33.905   6.466   4.539  1.00 20.00    -0.109 C 
HETATM   11  C5  UNL     1     -34.715   5.700   5.486  1.00 20.00     0.112 C 
ENDBRANCH   8   9
ENDBRANCH   6   8
ENDBRANCH   5   6
TORSDOF 3
ENDMDL
MODEL 4
REMARK VINA RESULT:      -4.3     11.271     12.045
REMARK  3 active torsions:
REMARK  status: ('A' for Active; 'I' for Inactive)
REMARK    1  A    between atoms: C4_4  and  C8_8 
REMARK    2  A    between atoms: C8_8  and  N10_10 
REMARK    3  A    between atoms: C9_9  and  N10_10 
ROOT
HETATM    1  C1  UNL     1     -37.108  14.416  -4.935  1.00 20.00     0.015 C 
HETATM    2  C2  UNL     1     -36.072  14.363  -5.539  1.00 20.00    -0.076 C 
HETATM    3  C6  UNL     1     -34.837  13.122  -7.265  1.00 20.00     0.063 C 
HETATM    4  C7  UNL     1     -34.574  15.607  -7.046  1.00 20.00     0.063 C 
HETATM    5  C9  UNL     1     -34.797  14.297  -6.283  1.00 20.00     0.212 C 
ENDROOT
BRANCH   5   6
HETATM    6  N10 UNL     1     -33.712  14.103  -5.341  1.00 20.00     0.115 N 
HETATM    7  H23 UNL     1     -33.009  13.485  -5.753  1.00 20.00     0.319 HD
BRANCH   6   8
HETATM    8  C8  UNL     1     -33.081  15.372  -4.995  1.00 20.00     0.365 C 
BRANCH   8   9
HETATM    9  C4  UNL     1     -33.655  15.924  -3.764  1.00 20.00    -0.077 C 
HETATM   10  C3  UNL     1     -34.129  16.376  -2.758  1.00 20.00    -0.109 C 
HETATM   11  C5  UNL     1     -34.706  16.928  -1.532  1.00 20.00     0.112 C 
ENDBRANCH   8   9
ENDBRANCH   6   8
ENDBRANCH   5   6
TORSDOF 3
ENDMDL
MODEL 5
REMARK VINA RESULT:      -4.3      0.451      1.904
REMARK  3 active torsions:
REMARK  status: ('A' for Active; 'I' for Inactive)
REMARK    1  A    between atoms: C4_4  and  C8_8 
REMARK    2  A    between atoms: C8_8  and  N10_10 
REMARK    3  A    between atoms: C9_9  and  N10_10 
ROOT
HETATM    1  C1  UNL     1     -36.477   6.414   3.122  1.00 20.00     0.015 C 
HETATM    2  C2  UNL     1     -35.437   6.107   3.635  1.00 20.00    -0.076 C 
HETATM    3  C6  UNL     1     -33.985   6.500   5.580  1.00 20.00     0.063 C 
HETATM    4  C7  UNL     1     -34.140   4.221   4.543  1.00 20.00     0.063 C 
HETATM    5  C9  UNL     1     -34.156   5.729   4.268  1.00 20.00     0.212 C 
ENDROOT
BRANCH   5   6
HETATM    6  N10 UNL     1     -33.069   6.060   3.367  1.00 20.00     0.115 N 
HETATM    7  H23 UNL     1     -33.399   6.010   2.401  1.00 20.00     0.319 HD
BRANCH   6   8
HETATM    8  C8  UNL     1     -32.561   7.403   3.625  1.00 20.00     0.365 C 
BRANCH   8   9
HETATM    9  C4  UNL     1     -32.566   8.209   2.401  1.00 20.00    -0.077 C 
HETATM   10  C3  UNL     1     -32.567   8.874   1.401  1.00 20.00    -0.109 C 
HETATM   11  C5  UNL     1     -32.570   9.683   0.182  1.00 20.00     0.112 C 
ENDBRANCH   8   9
ENDBRANCH   6   8
ENDBRANCH   5   6
TORSDOF 3
ENDMDL
MODEL 6
REMARK VINA RESULT:      -4.2     11.114     11.968
REMARK  3 active torsions:
REMARK  status: ('A' for Active; 'I' for Inactive)
REMARK    1  A    between atoms: C4_4  and  C8_8 
REMARK    2  A    between atoms: C8_8  and  N10_10 
REMARK    3  A    between atoms: C9_9  and  N10_10 
ROOT
HETATM    1  C1  UNL     1     -36.211  13.639  -5.334  1.00 20.00     0.015 C 
HETATM    2  C2  UNL     1     -35.224  14.317  -5.258  1.00 20.00    -0.076 C 
HETATM    3  C6  UNL     1     -32.912  14.380  -4.423  1.00 20.00     0.063 C 
HETATM    4  C7  UNL     1     -33.526  15.525  -6.569  1.00 20.00     0.063 C 
HETATM    5  C9  UNL     1     -34.009  15.152  -5.163  1.00 20.00     0.212 C 
ENDROOT
BRANCH   5   6
HETATM    6  N10 UNL     1     -34.325  16.363  -4.431  1.00 20.00     0.115 N 
HETATM    7  H23 UNL     1     -35.148  16.807  -4.843  1.00 20.00     0.319 HD
BRANCH   6   8
HETATM    8  C8  UNL     1     -34.595  16.077  -3.027  1.00 20.00     0.365 C 
BRANCH   8   9
HETATM    9  C4  UNL     1     -33.832  16.972  -2.153  1.00 20.00    -0.077 C 
HETATM   10  C3  UNL     1     -33.211  17.709  -1.436  1.00 20.00    -0.109 C 
HETATM   11  C5  UNL     1     -32.455  18.607  -0.564  1.00 20.00     0.112 C 
ENDBRANCH   8   9
ENDBRANCH   6   8
ENDBRANCH   5   6
TORSDOF 3
ENDMDL
MODEL 7
REMARK VINA RESULT:      -4.2     10.868     12.075
REMARK  3 active torsions:
REMARK  status: ('A' for Active; 'I' for Inactive)
REMARK    1  A    between atoms: C4_4  and  C8_8 
REMARK    2  A    between atoms: C8_8  and  N10_10 
REMARK    3  A    between atoms: C9_9  and  N10_10 
ROOT
HETATM    1  C1  UNL     1     -33.971  14.890  -7.699  1.00 20.00     0.015 C 
HETATM    2  C2  UNL     1     -34.103  14.845  -6.507  1.00 20.00    -0.076 C 
HETATM    3  C6  UNL     1     -35.393  13.814  -4.685  1.00 20.00     0.063 C 
HETATM    4  C7  UNL     1     -32.954  14.326  -4.391  1.00 20.00     0.063 C 
HETATM    5  C9  UNL     1     -34.264  14.788  -5.039  1.00 20.00     0.212 C 
ENDROOT
BRANCH   5   6
HETATM    6  N10 UNL     1     -34.597  16.112  -4.550  1.00 20.00     0.115 N 
HETATM    7  H23 UNL     1     -35.539  16.103  -4.154  1.00 20.00     0.319 HD
BRANCH   6   8
HETATM    8  C8  UNL     1     -33.656  16.546  -3.523  1.00 20.00     0.365 C 
BRANCH   8   9
HETATM    9  C4  UNL     1     -34.353  16.850  -2.269  1.00 20.00    -0.077 C 
HETATM   10  C3  UNL     1     -34.919  17.099  -1.240  1.00 20.00    -0.109 C 
HETATM   11  C5  UNL     1     -35.609  17.402   0.014  1.00 20.00     0.112 C 
ENDBRANCH   8   9
ENDBRANCH   6   8
ENDBRANCH   5   6
TORSDOF 3
ENDMDL
MODEL 8
REMARK VINA RESULT:      -4.2     10.969     12.114
REMARK  3 active torsions:
REMARK  status: ('A' for Active; 'I' for Inactive)
REMARK    1  A    between atoms: C4_4  and  C8_8 
REMARK    2  A    between atoms: C8_8  and  N10_10 
REMARK    3  A    between atoms: C9_9  and  N10_10 
ROOT
HETATM    1  C1  UNL     1     -34.465  14.648  -4.005  1.00 20.00     0.015 C 
HETATM    2  C2  UNL     1     -34.470  15.675  -3.383  1.00 20.00    -0.076 C 
HETATM    3  C6  UNL     1     -34.820  18.103  -3.554  1.00 20.00     0.063 C 
HETATM    4  C7  UNL     1     -35.507  16.857  -1.488  1.00 20.00     0.063 C 
HETATM    5  C9  UNL     1     -34.475  16.940  -2.619  1.00 20.00     0.212 C 
ENDROOT
BRANCH   5   6
HETATM    6  N10 UNL     1     -33.159  17.152  -2.048  1.00 20.00     0.115 N 
HETATM    7  H23 UNL     1     -32.445  16.906  -2.737  1.00 20.00     0.319 HD
BRANCH   6   8
HETATM    8  C8  UNL     1     -32.974  18.544  -1.651  1.00 20.00     0.365 C 
BRANCH   8   9
HETATM    9  C4  UNL     1     -32.208  18.635  -0.405  1.00 20.00    -0.077 C 
HETATM   10  C3  UNL     1     -31.575  18.711   0.613  1.00 20.00    -0.109 C 
HETATM   11  C5  UNL     1     -30.805  18.803   1.853  1.00 20.00     0.112 C 
ENDBRANCH   8   9
ENDBRANCH   6   8
ENDBRANCH   5   6
TORSDOF 3
ENDMDL
MODEL 9
REMARK VINA RESULT:      -4.2     10.982     11.908
REMARK  3 active torsions:
REMARK  status: ('A' for Active; 'I' for Inactive)
REMARK    1  A    between atoms: C4_4  and  C8_8 
REMARK    2  A    between atoms: C8_8  and  N10_10 
REMARK    3  A    between atoms: C9_9  and  N10_10 
ROOT
HETATM    1  C1  UNL     1     -36.271  13.591  -5.340  1.00 20.00     0.015 C 
HETATM    2  C2  UNL     1     -35.325  14.318  -5.210  1.00 20.00    -0.076 C 
HETATM    3  C6  UNL     1     -33.025  14.457  -4.351  1.00 20.00     0.063 C 
HETATM    4  C7  UNL     1     -33.691  15.703  -6.424  1.00 20.00     0.063 C 
HETATM    5  C9  UNL     1     -34.160  15.212  -5.050  1.00 20.00     0.212 C 
ENDROOT
BRANCH   5   6
HETATM    6  N10 UNL     1     -34.548  16.353  -4.244  1.00 20.00     0.115 N 
HETATM    7  H23 UNL     1     -35.501  16.219  -3.897  1.00 20.00     0.319 HD
BRANCH   6   8
HETATM    8  C8  UNL     1     -33.652  16.525  -3.106  1.00 20.00     0.365 C 
BRANCH   8   9
HETATM    9  C4  UNL     1     -34.400  16.883  -1.898  1.00 20.00    -0.077 C 
HETATM   10  C3  UNL     1     -35.016  17.171  -0.908  1.00 20.00    -0.109 C 
HETATM   11  C5  UNL     1     -35.766  17.523   0.298  1.00 20.00     0.112 C 
ENDBRANCH   8   9
ENDBRANCH   6   8
ENDBRANCH   5   6
TORSDOF 3
ENDMDL
