MODEL 1
REMARK VINA RESULT:      -4.7      0.000      0.000
REMARK  3 active torsions:
REMARK  status: ('A' for Active; 'I' for Inactive)
REMARK    1  A    between atoms: C4_4  and  C6_6 
REMARK    2  A    between atoms: C6_6  and  C7_7 
REMARK    3  A    between atoms: C7_7  and  N8_8 
ROOT
HETATM    1  C1  UNL     1     -33.948   6.453   4.966  1.00 20.00     0.158 C 
HETATM    2  N8  UNL     1     -33.431   7.379   4.463  1.00 20.00    -0.271 NA
HETATM    3  S9  UNL     1     -34.665   5.219   5.670  1.00 20.00    -0.055 SA
ENDROOT
BRANCH   2   4
HETATM    4  C7  UNL     1     -32.548   7.052   3.337  1.00 20.00     0.106 C 
HETATM    5  C5  UNL     1     -33.374   6.322   2.287  1.00 20.00     0.034 C 
BRANCH   4   6
HETATM    6  C6  UNL     1     -31.951   8.344   2.772  1.00 20.00     0.031 C 
BRANCH   6   7
HETATM    7  C4  UNL     1     -32.720   8.861   1.563  1.00 20.00    -0.013 A 
HETATM    8  C2  UNL     1     -32.648  10.314   1.184  1.00 20.00     0.005 A 
HETATM    9  C3  UNL     1     -31.983   9.279   0.321  1.00 20.00     0.005 A 
ENDBRANCH   6   7
ENDBRANCH   4   6
ENDBRANCH   2   4
TORSDOF 3
ENDMDL
MODEL 2
REMARK VINA RESULT:      -4.6      1.286      1.814
REMARK  3 active torsions:
REMARK  status: ('A' for Active; 'I' for Inactive)
REMARK    1  A    between atoms: C4_4  and  C6_6 
REMARK    2  A    between atoms: C6_6  and  C7_7 
REMARK    3  A    between atoms: C7_7  and  N8_8 
ROOT
HETATM    1  C1  UNL     1     -33.672   6.224   3.321  1.00 20.00     0.158 C 
HETATM    2  N8  UNL     1     -32.867   6.522   2.521  1.00 20.00    -0.271 NA
HETATM    3  S9  UNL     1     -34.764   5.787   4.395  1.00 20.00    -0.055 SA
ENDROOT
BRANCH   2   4
HETATM    4  C7  UNL     1     -32.470   7.935   2.548  1.00 20.00     0.106 C 
HETATM    5  C5  UNL     1     -31.723   8.190   3.850  1.00 20.00     0.034 C 
BRANCH   4   6
HETATM    6  C6  UNL     1     -31.586   8.233   1.334  1.00 20.00     0.031 C 
BRANCH   6   7
HETATM    7  C4  UNL     1     -31.943   9.553   0.663  1.00 20.00    -0.013 A 
HETATM    8  C2  UNL     1     -33.126   9.636  -0.262  1.00 20.00     0.005 A 
HETATM    9  C3  UNL     1     -33.175  10.306   1.082  1.00 20.00     0.005 A 
ENDBRANCH   6   7
ENDBRANCH   4   6
ENDBRANCH   2   4
TORSDOF 3
ENDMDL
MODEL 3
REMARK VINA RESULT:      -4.6      2.719      4.858
REMARK  3 active torsions:
REMARK  status: ('A' for Active; 'I' for Inactive)
REMARK    1  A    between atoms: C4_4  and  C6_6 
REMARK    2  A    between atoms: C6_6  and  C7_7 
REMARK    3  A    between atoms: C7_7  and  N8_8 
ROOT
HETATM    1  C1  UNL     1     -32.371   8.764   1.855  1.00 20.00     0.158 C 
HETATM    2  N8  UNL     1     -32.219   7.980   2.714  1.00 20.00    -0.271 NA
HETATM    3  S9  UNL     1     -32.548   9.841   0.696  1.00 20.00    -0.055 SA
ENDROOT
BRANCH   2   4
HETATM    4  C7  UNL     1     -33.339   7.051   2.903  1.00 20.00     0.106 C 
HETATM    5  C5  UNL     1     -32.969   5.726   2.249  1.00 20.00     0.034 C 
BRANCH   4   6
HETATM    6  C6  UNL     1     -33.600   6.874   4.402  1.00 20.00     0.031 C 
BRANCH   6   7
HETATM    7  C4  UNL     1     -34.706   5.866   4.686  1.00 20.00    -0.013 A 
HETATM    8  C2  UNL     1     -34.392   4.398   4.762  1.00 20.00     0.005 A 
HETATM    9  C3  UNL     1     -34.759   5.153   6.009  1.00 20.00     0.005 A 
ENDBRANCH   6   7
ENDBRANCH   4   6
ENDBRANCH   2   4
TORSDOF 3
ENDMDL
MODEL 4
REMARK VINA RESULT:      -4.5      1.272      1.874
REMARK  3 active torsions:
REMARK  status: ('A' for Active; 'I' for Inactive)
REMARK    1  A    between atoms: C4_4  and  C6_6 
REMARK    2  A    between atoms: C6_6  and  C7_7 
REMARK    3  A    between atoms: C7_7  and  N8_8 
ROOT
HETATM    1  C1  UNL     1     -34.494   5.396   3.993  1.00 20.00     0.158 C 
HETATM    2  N8  UNL     1     -34.805   6.480   3.667  1.00 20.00    -0.271 NA
HETATM    3  S9  UNL     1     -34.103   3.914   4.425  1.00 20.00    -0.055 SA
ENDROOT
BRANCH   2   4
HETATM    4  C7  UNL     1     -33.768   7.500   3.863  1.00 20.00     0.106 C 
HETATM    5  C5  UNL     1     -33.359   7.481   5.330  1.00 20.00     0.034 C 
BRANCH   4   6
HETATM    6  C6  UNL     1     -32.576   7.189   2.953  1.00 20.00     0.031 C 
BRANCH   6   7
HETATM    7  C4  UNL     1     -31.875   8.448   2.460  1.00 20.00    -0.013 A 
HETATM    8  C2  UNL     1     -31.506   8.592   1.009  1.00 20.00     0.005 A 
HETATM    9  C3  UNL     1     -32.609   9.431   1.590  1.00 20.00     0.005 A 
ENDBRANCH   6   7
ENDBRANCH   4   6
ENDBRANCH   2   4
TORSDOF 3
ENDMDL
MODEL 5
REMARK VINA RESULT:      -4.3      2.830      4.658
REMARK  3 active torsions:
REMARK  status: ('A' for Active; 'I' for Inactive)
REMARK    1  A    between atoms: C4_4  and  C6_6 
REMARK    2  A    between atoms: C6_6  and  C7_7 
REMARK    3  A    between atoms: C7_7  and  N8_8 
ROOT
HETATM    1  C1  UNL     1     -32.934   9.035   1.241  1.00 20.00     0.158 C 
HETATM    2  N8  UNL     1     -33.245   8.431   2.198  1.00 20.00    -0.271 NA
HETATM    3  S9  UNL     1     -32.543   9.870  -0.057  1.00 20.00    -0.055 SA
ENDROOT
BRANCH   2   4
HETATM    4  C7  UNL     1     -32.242   7.467   2.666  1.00 20.00     0.106 C 
HETATM    5  C5  UNL     1     -31.393   8.149   3.731  1.00 20.00     0.034 C 
BRANCH   4   6
HETATM    6  C6  UNL     1     -32.954   6.234   3.231  1.00 20.00     0.031 C 
BRANCH   6   7
HETATM    7  C4  UNL     1     -34.161   6.599   4.086  1.00 20.00    -0.013 A 
HETATM    8  C2  UNL     1     -34.730   5.603   5.058  1.00 20.00     0.005 A 
HETATM    9  C3  UNL     1     -34.002   6.816   5.566  1.00 20.00     0.005 A 
ENDBRANCH   6   7
ENDBRANCH   4   6
ENDBRANCH   2   4
TORSDOF 3
ENDMDL
MODEL 6
REMARK VINA RESULT:      -4.0      0.765      1.041
REMARK  3 active torsions:
REMARK  status: ('A' for Active; 'I' for Inactive)
REMARK    1  A    between atoms: C4_4  and  C6_6 
REMARK    2  A    between atoms: C6_6  and  C7_7 
REMARK    3  A    between atoms: C7_7  and  N8_8 
ROOT
HETATM    1  C1  UNL     1     -33.753   6.886   4.772  1.00 20.00     0.158 C 
HETATM    2  N8  UNL     1     -33.171   7.623   4.068  1.00 20.00    -0.271 NA
HETATM    3  S9  UNL     1     -34.550   5.913   5.747  1.00 20.00    -0.055 SA
ENDROOT
BRANCH   2   4
HETATM    4  C7  UNL     1     -32.550   6.991   2.897  1.00 20.00     0.106 C 
HETATM    5  C5  UNL     1     -33.076   5.565   2.798  1.00 20.00     0.034 C 
BRANCH   4   6
HETATM    6  C6  UNL     1     -32.900   7.798   1.644  1.00 20.00     0.031 C 
BRANCH   6   7
HETATM    7  C4  UNL     1     -32.213   9.157   1.616  1.00 20.00    -0.013 A 
HETATM    8  C2  UNL     1     -32.133   9.940   0.334  1.00 20.00     0.005 A 
HETATM    9  C3  UNL     1     -33.025  10.412   1.449  1.00 20.00     0.005 A 
ENDBRANCH   6   7
ENDBRANCH   4   6
ENDBRANCH   2   4
TORSDOF 3
ENDMDL
MODEL 7
REMARK VINA RESULT:      -3.8     10.426     10.916
REMARK  3 active torsions:
REMARK  status: ('A' for Active; 'I' for Inactive)
REMARK    1  A    between atoms: C4_4  and  C6_6 
REMARK    2  A    between atoms: C6_6  and  C7_7 
REMARK    3  A    between atoms: C7_7  and  N8_8 
ROOT
HETATM    1  C1  UNL     1     -35.233  13.944  -4.727  1.00 20.00     0.158 C 
HETATM    2  N8  UNL     1     -34.169  13.862  -4.237  1.00 20.00    -0.271 NA
HETATM    3  S9  UNL     1     -36.678  14.022  -5.389  1.00 20.00    -0.055 SA
ENDROOT
BRANCH   2   4
HETATM    4  C7  UNL     1     -33.478  15.144  -4.053  1.00 20.00     0.106 C 
HETATM    5  C5  UNL     1     -33.190  15.727  -5.431  1.00 20.00     0.034 C 
BRANCH   4   6
HETATM    6  C6  UNL     1     -34.365  16.081  -3.230  1.00 20.00     0.031 C 
BRANCH   6   7
HETATM    7  C4  UNL     1     -33.585  16.828  -2.155  1.00 20.00    -0.013 A 
HETATM    8  C2  UNL     1     -33.676  18.325  -2.056  1.00 20.00     0.005 A 
HETATM    9  C3  UNL     1     -34.308  17.463  -1.000  1.00 20.00     0.005 A 
ENDBRANCH   6   7
ENDBRANCH   4   6
ENDBRANCH   2   4
TORSDOF 3
ENDMDL
MODEL 8
REMARK VINA RESULT:      -3.6     10.567     11.248
REMARK  3 active torsions:
REMARK  status: ('A' for Active; 'I' for Inactive)
REMARK    1  A    between atoms: C4_4  and  C6_6 
REMARK    2  A    between atoms: C6_6  and  C7_7 
REMARK    3  A    between atoms: C7_7  and  N8_8 
ROOT
HETATM    1  C1  UNL     1     -35.197  14.047  -5.623  1.00 20.00     0.158 C 
HETATM    2  N8  UNL     1     -34.040  14.037  -5.820  1.00 20.00    -0.271 NA
HETATM    3  S9  UNL     1     -36.769  14.031  -5.373  1.00 20.00    -0.055 SA
ENDROOT
BRANCH   2   4
HETATM    4  C7  UNL     1     -33.312  15.180  -5.256  1.00 20.00     0.106 C 
HETATM    5  C5  UNL     1     -33.837  16.447  -5.918  1.00 20.00     0.034 C 
BRANCH   4   6
HETATM    6  C6  UNL     1     -33.529  15.217  -3.740  1.00 20.00     0.031 C 
BRANCH   6   7
HETATM    7  C4  UNL     1     -34.092  16.550  -3.265  1.00 20.00    -0.013 A 
HETATM    8  C2  UNL     1     -35.145  16.589  -2.192  1.00 20.00     0.005 A 
HETATM    9  C3  UNL     1     -33.752  17.070  -1.896  1.00 20.00     0.005 A 
ENDBRANCH   6   7
ENDBRANCH   4   6
ENDBRANCH   2   4
TORSDOF 3
ENDMDL
MODEL 9
REMARK VINA RESULT:      -3.5     10.635     11.306
REMARK  3 active torsions:
REMARK  status: ('A' for Active; 'I' for Inactive)
REMARK    1  A    between atoms: C4_4  and  C6_6 
REMARK    2  A    between atoms: C6_6  and  C7_7 
REMARK    3  A    between atoms: C7_7  and  N8_8 
ROOT
HETATM    1  C1  UNL     1     -34.571  14.235  -6.391  1.00 20.00     0.158 C 
HETATM    2  N8  UNL     1     -34.926  13.636  -5.445  1.00 20.00    -0.271 NA
HETATM    3  S9  UNL     1     -34.108  15.024  -7.694  1.00 20.00    -0.055 SA
ENDROOT
BRANCH   2   4
HETATM    4  C7  UNL     1     -34.432  14.162  -4.167  1.00 20.00     0.106 C 
HETATM    5  C5  UNL     1     -32.928  14.369  -4.292  1.00 20.00     0.034 C 
BRANCH   4   6
HETATM    6  C6  UNL     1     -35.148  15.479  -3.854  1.00 20.00     0.031 C 
BRANCH   6   7
HETATM    7  C4  UNL     1     -34.428  16.294  -2.787  1.00 20.00    -0.013 A 
HETATM    8  C2  UNL     1     -34.694  17.768  -2.652  1.00 20.00     0.005 A 
HETATM    9  C3  UNL     1     -35.184  16.816  -1.596  1.00 20.00     0.005 A 
ENDBRANCH   6   7
ENDBRANCH   4   6
ENDBRANCH   2   4
TORSDOF 3
ENDMDL
