MODEL 1
REMARK VINA RESULT:      -4.6      0.000      0.000
REMARK  3 active torsions:
REMARK  status: ('A' for Active; 'I' for Inactive)
REMARK    1  A    between atoms: C1_1  and  C7_7 
REMARK       I    between atoms: C1_1  and  N9_9 
REMARK    2  A    between atoms: C7_7  and  C8_8 
REMARK    3  A    between atoms: N9_9  and  O11_11 
ROOT
HETATM    1  C1  UNL     1     -33.473   6.967   2.535  1.00 20.00     0.247 C 
HETATM    2  C5  UNL     1     -31.525   8.261   3.396  1.00 20.00     0.189 C 
HETATM    3  N9  UNL     1     -32.621   8.044   2.468  1.00 20.00    -0.231 N 
HETATM    4  O10 UNL     1     -34.400   6.801   1.736  1.00 20.00    -0.271 OA
ENDROOT
BRANCH   1   5
HETATM    5  C7  UNL     1     -33.240   5.965   3.678  1.00 20.00     0.079 C 
HETATM    6  C2  UNL     1     -33.179   4.538   3.124  1.00 20.00     0.020 C 
BRANCH   5   7
HETATM    7  C8  UNL     1     -34.299   6.164   4.796  1.00 20.00    -0.010 C 
HETATM    8  C3  UNL     1     -33.820   7.174   5.843  1.00 20.00     0.010 C 
HETATM    9  C4  UNL     1     -34.713   4.861   5.487  1.00 20.00     0.010 C 
ENDBRANCH   5   7
ENDBRANCH   1   5
BRANCH   3  10
HETATM   10  O11 UNL     1     -32.718   9.054   1.494  1.00 20.00    -0.281 OA
HETATM   11  C6  UNL     1     -31.608   8.954   0.606  1.00 20.00     0.238 C 
ENDBRANCH   3  10
TORSDOF 3
ENDMDL
MODEL 2
REMARK VINA RESULT:      -4.3     10.867     12.006
REMARK  3 active torsions:
REMARK  status: ('A' for Active; 'I' for Inactive)
REMARK    1  A    between atoms: C1_1  and  C7_7 
REMARK       I    between atoms: C1_1  and  N9_9 
REMARK    2  A    between atoms: C7_7  and  C8_8 
REMARK    3  A    between atoms: N9_9  and  O11_11 
ROOT
HETATM    1  C1  UNL     1     -36.061  14.004  -5.208  1.00 20.00     0.247 C 
HETATM    2  C5  UNL     1     -37.356  16.127  -5.050  1.00 20.00     0.189 C 
HETATM    3  N9  UNL     1     -37.251  14.679  -5.066  1.00 20.00    -0.231 N 
HETATM    4  O10 UNL     1     -35.993  12.771  -5.220  1.00 20.00    -0.271 OA
ENDROOT
BRANCH   1   5
HETATM    5  C7  UNL     1     -34.788  14.857  -5.334  1.00 20.00     0.079 C 
HETATM    6  C2  UNL     1     -34.026  14.483  -6.610  1.00 20.00     0.020 C 
BRANCH   5   7
HETATM    7  C8  UNL     1     -33.938  14.755  -4.038  1.00 20.00    -0.010 C 
HETATM    8  C3  UNL     1     -33.870  16.101  -3.310  1.00 20.00     0.010 C 
HETATM    9  C4  UNL     1     -32.521  14.223  -4.275  1.00 20.00     0.010 C 
ENDBRANCH   5   7
ENDBRANCH   1   5
BRANCH   3  10
HETATM   10  O11 UNL     1     -38.495  14.040  -4.921  1.00 20.00    -0.281 OA
HETATM   11  C6  UNL     1     -39.529  14.935  -5.325  1.00 20.00     0.238 C 
ENDBRANCH   3  10
TORSDOF 3
ENDMDL
MODEL 3
REMARK VINA RESULT:      -4.3     11.034     11.738
REMARK  3 active torsions:
REMARK  status: ('A' for Active; 'I' for Inactive)
REMARK    1  A    between atoms: C1_1  and  C7_7 
REMARK       I    between atoms: C1_1  and  N9_9 
REMARK    2  A    between atoms: C7_7  and  C8_8 
REMARK    3  A    between atoms: N9_9  and  O11_11 
ROOT
HETATM    1  C1  UNL     1     -34.737  14.937  -4.203  1.00 20.00     0.247 C 
HETATM    2  C5  UNL     1     -37.140  14.633  -4.790  1.00 20.00     0.189 C 
HETATM    3  N9  UNL     1     -35.760  14.187  -4.734  1.00 20.00    -0.231 N 
HETATM    4  O10 UNL     1     -33.569  14.539  -4.166  1.00 20.00    -0.271 OA
ENDROOT
BRANCH   1   5
HETATM    5  C7  UNL     1     -35.112  16.312  -3.625  1.00 20.00     0.079 C 
HETATM    6  C2  UNL     1     -34.773  17.417  -4.632  1.00 20.00     0.020 C 
BRANCH   5   7
HETATM    7  C8  UNL     1     -34.460  16.509  -2.230  1.00 20.00    -0.010 C 
HETATM    8  C3  UNL     1     -35.495  16.944  -1.188  1.00 20.00     0.010 C 
HETATM    9  C4  UNL     1     -33.285  17.493  -2.234  1.00 20.00     0.010 C 
ENDBRANCH   5   7
ENDBRANCH   1   5
BRANCH   3  10
HETATM   10  O11 UNL     1     -35.580  12.904  -5.282  1.00 20.00    -0.281 OA
HETATM   11  C6  UNL     1     -35.430  13.016  -6.695  1.00 20.00     0.238 C 
ENDBRANCH   3  10
TORSDOF 3
ENDMDL
MODEL 4
REMARK VINA RESULT:      -4.3      1.813      4.531
REMARK  3 active torsions:
REMARK  status: ('A' for Active; 'I' for Inactive)
REMARK    1  A    between atoms: C1_1  and  C7_7 
REMARK       I    between atoms: C1_1  and  N9_9 
REMARK    2  A    between atoms: C7_7  and  C8_8 
REMARK    3  A    between atoms: N9_9  and  O11_11 
ROOT
HETATM    1  C1  UNL     1     -33.435   7.283   3.414  1.00 20.00     0.247 C 
HETATM    2  C5  UNL     1     -32.985   4.990   2.549  1.00 20.00     0.189 C 
HETATM    3  N9  UNL     1     -33.777   5.957   3.287  1.00 20.00    -0.231 N 
HETATM    4  O10 UNL     1     -34.123   8.090   4.047  1.00 20.00    -0.271 OA
ENDROOT
BRANCH   1   5
HETATM    5  C7  UNL     1     -32.148   7.740   2.707  1.00 20.00     0.079 C 
HETATM    6  C2  UNL     1     -31.216   8.436   3.706  1.00 20.00     0.020 C 
BRANCH   5   7
HETATM    7  C8  UNL     1     -32.492   8.600   1.461  1.00 20.00    -0.010 C 
HETATM    8  C3  UNL     1     -31.404   8.485   0.388  1.00 20.00     0.010 C 
HETATM    9  C4  UNL     1     -32.745  10.076   1.784  1.00 20.00     0.010 C 
ENDBRANCH   5   7
ENDBRANCH   1   5
BRANCH   3  10
HETATM   10  O11 UNL     1     -34.932   5.393   3.858  1.00 20.00    -0.281 OA
HETATM   11  C6  UNL     1     -34.546   4.431   4.837  1.00 20.00     0.238 C 
ENDBRANCH   3  10
TORSDOF 3
ENDMDL
MODEL 5
REMARK VINA RESULT:      -3.9     11.219     12.089
REMARK  3 active torsions:
REMARK  status: ('A' for Active; 'I' for Inactive)
REMARK    1  A    between atoms: C1_1  and  C7_7 
REMARK       I    between atoms: C1_1  and  N9_9 
REMARK    2  A    between atoms: C7_7  and  C8_8 
REMARK    3  A    between atoms: N9_9  and  O11_11 
ROOT
HETATM    1  C1  UNL     1     -35.304  15.427  -3.944  1.00 20.00     0.247 C 
HETATM    2  C5  UNL     1     -37.459  16.628  -4.295  1.00 20.00     0.189 C 
HETATM    3  N9  UNL     1     -36.640  15.430  -4.270  1.00 20.00    -0.231 N 
HETATM    4  O10 UNL     1     -34.625  14.396  -3.929  1.00 20.00    -0.271 OA
ENDROOT
BRANCH   1   5
HETATM    5  C7  UNL     1     -34.677  16.780  -3.569  1.00 20.00     0.079 C 
HETATM    6  C2  UNL     1     -33.577  17.147  -4.572  1.00 20.00     0.020 C 
BRANCH   5   7
HETATM    7  C8  UNL     1     -34.203  16.766  -2.091  1.00 20.00    -0.010 C 
HETATM    8  C3  UNL     1     -35.372  17.003  -1.129  1.00 20.00     0.010 C 
HETATM    9  C4  UNL     1     -33.080  17.766  -1.797  1.00 20.00     0.010 C 
ENDBRANCH   5   7
ENDBRANCH   1   5
BRANCH   3  10
HETATM   10  O11 UNL     1     -37.359  14.272  -4.616  1.00 20.00    -0.281 OA
HETATM   11  C6  UNL     1     -38.631  14.650  -5.136  1.00 20.00     0.238 C 
ENDBRANCH   3  10
TORSDOF 3
ENDMDL
MODEL 6
REMARK VINA RESULT:      -3.8     11.134     11.918
REMARK  3 active torsions:
REMARK  status: ('A' for Active; 'I' for Inactive)
REMARK    1  A    between atoms: C1_1  and  C7_7 
REMARK       I    between atoms: C1_1  and  N9_9 
REMARK    2  A    between atoms: C7_7  and  C8_8 
REMARK    3  A    between atoms: N9_9  and  O11_11 
ROOT
HETATM    1  C1  UNL     1     -34.491  14.567  -4.674  1.00 20.00     0.247 C 
HETATM    2  C5  UNL     1     -34.297  15.683  -6.893  1.00 20.00     0.189 C 
HETATM    3  N9  UNL     1     -34.349  14.510  -6.040  1.00 20.00    -0.231 N 
HETATM    4  O10 UNL     1     -34.533  13.556  -3.966  1.00 20.00    -0.271 OA
ENDROOT
BRANCH   1   5
HETATM    5  C7  UNL     1     -34.620  15.965  -4.046  1.00 20.00     0.079 C 
HETATM    6  C2  UNL     1     -33.325  16.336  -3.314  1.00 20.00     0.020 C 
BRANCH   5   7
HETATM    7  C8  UNL     1     -35.891  16.044  -3.158  1.00 20.00    -0.010 C 
HETATM    8  C3  UNL     1     -37.085  16.596  -3.943  1.00 20.00     0.010 C 
HETATM    9  C4  UNL     1     -35.694  16.859  -1.875  1.00 20.00     0.010 C 
ENDBRANCH   5   7
ENDBRANCH   1   5
BRANCH   3  10
HETATM   10  O11 UNL     1     -34.239  13.307  -6.761  1.00 20.00    -0.281 OA
HETATM   11  C6  UNL     1     -35.383  13.158  -7.598  1.00 20.00     0.238 C 
ENDBRANCH   3  10
TORSDOF 3
ENDMDL
MODEL 7
REMARK VINA RESULT:      -3.8      1.817      4.751
REMARK  3 active torsions:
REMARK  status: ('A' for Active; 'I' for Inactive)
REMARK    1  A    between atoms: C1_1  and  C7_7 
REMARK       I    between atoms: C1_1  and  N9_9 
REMARK    2  A    between atoms: C7_7  and  C8_8 
REMARK    3  A    between atoms: N9_9  and  O11_11 
ROOT
HETATM    1  C1  UNL     1     -32.212   8.103   2.973  1.00 20.00     0.247 C 
HETATM    2  C5  UNL     1     -34.037   6.433   2.670  1.00 20.00     0.189 C 
HETATM    3  N9  UNL     1     -33.120   7.207   3.487  1.00 20.00    -0.231 N 
HETATM    4  O10 UNL     1     -31.440   8.752   3.686  1.00 20.00    -0.271 OA
ENDROOT
BRANCH   1   5
HETATM    5  C7  UNL     1     -32.206   8.288   1.446  1.00 20.00     0.079 C 
HETATM    6  C2  UNL     1     -30.767   8.419   0.937  1.00 20.00     0.020 C 
BRANCH   5   7
HETATM    7  C8  UNL     1     -33.129   9.468   1.040  1.00 20.00    -0.010 C 
HETATM    8  C3  UNL     1     -33.356   9.502  -0.474  1.00 20.00     0.010 C 
HETATM    9  C4  UNL     1     -32.625  10.834   1.519  1.00 20.00     0.010 C 
ENDBRANCH   5   7
ENDBRANCH   1   5
BRANCH   3  10
HETATM   10  O11 UNL     1     -33.259   6.943   4.862  1.00 20.00    -0.281 OA
HETATM   11  C6  UNL     1     -34.394   6.105   5.063  1.00 20.00     0.238 C 
ENDBRANCH   3  10
TORSDOF 3
ENDMDL
MODEL 8
REMARK VINA RESULT:      -3.7     10.730     12.251
REMARK  3 active torsions:
REMARK  status: ('A' for Active; 'I' for Inactive)
REMARK    1  A    between atoms: C1_1  and  C7_7 
REMARK       I    between atoms: C1_1  and  N9_9 
REMARK    2  A    between atoms: C7_7  and  C8_8 
REMARK    3  A    between atoms: N9_9  and  O11_11 
ROOT
HETATM    1  C1  UNL     1     -34.874  15.678  -3.566  1.00 20.00     0.247 C 
HETATM    2  C5  UNL     1     -32.948  14.294  -4.330  1.00 20.00     0.189 C 
HETATM    3  N9  UNL     1     -34.365  14.524  -4.115  1.00 20.00    -0.231 N 
HETATM    4  O10 UNL     1     -36.084  15.855  -3.391  1.00 20.00    -0.271 OA
ENDROOT
BRANCH   1   5
HETATM    5  C7  UNL     1     -33.864  16.774  -3.190  1.00 20.00     0.079 C 
HETATM    6  C2  UNL     1     -33.948  17.077  -1.690  1.00 20.00     0.020 C 
BRANCH   5   7
HETATM    7  C8  UNL     1     -34.053  18.020  -4.096  1.00 20.00    -0.010 C 
HETATM    8  C3  UNL     1     -33.866  17.667  -5.575  1.00 20.00     0.010 C 
HETATM    9  C4  UNL     1     -33.142  19.194  -3.725  1.00 20.00     0.010 C 
ENDBRANCH   5   7
ENDBRANCH   1   5
BRANCH   3  10
HETATM   10  O11 UNL     1     -35.162  13.441  -4.527  1.00 20.00    -0.281 OA
HETATM   11  C6  UNL     1     -35.438  13.568  -5.920  1.00 20.00     0.238 C 
ENDBRANCH   3  10
TORSDOF 3
ENDMDL
MODEL 9
REMARK VINA RESULT:      -3.6     10.614     12.425
REMARK  3 active torsions:
REMARK  status: ('A' for Active; 'I' for Inactive)
REMARK    1  A    between atoms: C1_1  and  C7_7 
REMARK       I    between atoms: C1_1  and  N9_9 
REMARK    2  A    between atoms: C7_7  and  C8_8 
REMARK    3  A    between atoms: N9_9  and  O11_11 
ROOT
HETATM    1  C1  UNL     1     -35.828  13.872  -5.280  1.00 20.00     0.247 C 
HETATM    2  C5  UNL     1     -34.926  15.757  -3.922  1.00 20.00     0.189 C 
HETATM    3  N9  UNL     1     -34.903  14.387  -4.402  1.00 20.00    -0.231 N 
HETATM    4  O10 UNL     1     -35.790  12.703  -5.676  1.00 20.00    -0.271 OA
ENDROOT
BRANCH   1   5
HETATM    5  C7  UNL     1     -36.922  14.830  -5.778  1.00 20.00     0.079 C 
HETATM    6  C2  UNL     1     -38.293  14.382  -5.257  1.00 20.00     0.020 C 
BRANCH   5   7
HETATM    7  C8  UNL     1     -36.852  14.976  -7.322  1.00 20.00    -0.010 C 
HETATM    8  C3  UNL     1     -35.525  15.603  -7.762  1.00 20.00     0.010 C 
HETATM    9  C4  UNL     1     -38.021  15.768  -7.918  1.00 20.00     0.010 C 
ENDBRANCH   5   7
ENDBRANCH   1   5
BRANCH   3  10
HETATM   10  O11 UNL     1     -33.833  13.643  -3.873  1.00 20.00    -0.281 OA
HETATM   11  C6  UNL     1     -32.609  14.311  -4.169  1.00 20.00     0.238 C 
ENDBRANCH   3  10
TORSDOF 3
ENDMDL
