MODEL 1
REMARK VINA RESULT:      -5.0      0.000      0.000
REMARK  4 active torsions:
REMARK  status: ('A' for Active; 'I' for Inactive)
REMARK    1  A    between atoms: C4_4  and  C6_6 
REMARK    2  A    between atoms: C6_6  and  C8_8 
REMARK    3  A    between atoms: C7_7  and  C8_8 
REMARK    4  A    between atoms: C8_8  and  N9_9 
ROOT
HETATM    1  C1  UNL     1     -33.871   6.732   5.136  1.00 20.00     0.158 C 
HETATM    2  N9  UNL     1     -33.276   7.589   4.599  1.00 20.00    -0.270 NA
HETATM    3  S10 UNL     1     -34.693   5.594   5.888  1.00 20.00    -0.055 SA
ENDROOT
BRANCH   2   4
HETATM    4  C8  UNL     1     -32.452   7.145   3.467  1.00 20.00     0.109 C 
BRANCH   4   5
HETATM    5  C6  UNL     1     -31.857   8.380   2.780  1.00 20.00     0.032 C 
BRANCH   5   6
HETATM    6  C4  UNL     1     -32.683   8.840   1.587  1.00 20.00    -0.013 A 
HETATM    7  C2  UNL     1     -32.697  10.290   1.187  1.00 20.00     0.005 A 
HETATM    8  C3  UNL     1     -32.004   9.277   0.318  1.00 20.00     0.005 A 
ENDBRANCH   5   6
ENDBRANCH   4   5
BRANCH   4   9
HETATM    9  C7  UNL     1     -33.338   6.354   2.496  1.00 20.00     0.023 C 
HETATM   10  C5  UNL     1     -33.008   4.890   2.475  1.00 20.00     0.007 C 
ENDBRANCH   4   9
ENDBRANCH   2   4
TORSDOF 4
ENDMDL
MODEL 2
REMARK VINA RESULT:      -4.6      1.300      2.039
REMARK  4 active torsions:
REMARK  status: ('A' for Active; 'I' for Inactive)
REMARK    1  A    between atoms: C4_4  and  C6_6 
REMARK    2  A    between atoms: C6_6  and  C8_8 
REMARK    3  A    between atoms: C7_7  and  C8_8 
REMARK    4  A    between atoms: C8_8  and  N9_9 
ROOT
HETATM    1  C1  UNL     1     -33.628   5.238   3.470  1.00 20.00     0.158 C 
HETATM    2  N9  UNL     1     -33.012   5.946   2.766  1.00 20.00    -0.270 NA
HETATM    3  S10 UNL     1     -34.453   4.249   4.407  1.00 20.00    -0.055 SA
ENDROOT
BRANCH   2   4
HETATM    4  C8  UNL     1     -33.103   7.373   3.101  1.00 20.00     0.109 C 
BRANCH   4   5
HETATM    5  C6  UNL     1     -32.262   8.167   2.093  1.00 20.00     0.032 C 
BRANCH   5   6
HETATM    6  C4  UNL     1     -33.077   9.219   1.353  1.00 20.00    -0.013 A 
HETATM    7  C2  UNL     1     -32.434  10.506   0.915  1.00 20.00     0.005 A 
HETATM    8  C3  UNL     1     -32.830   9.477  -0.108  1.00 20.00     0.005 A 
ENDBRANCH   5   6
ENDBRANCH   4   5
BRANCH   4   9
HETATM    9  C7  UNL     1     -32.580   7.575   4.529  1.00 20.00     0.023 C 
HETATM   10  C5  UNL     1     -33.682   7.630   5.545  1.00 20.00     0.007 C 
ENDBRANCH   4   9
ENDBRANCH   2   4
TORSDOF 4
ENDMDL
MODEL 3
REMARK VINA RESULT:      -4.3      2.572      4.500
REMARK  4 active torsions:
REMARK  status: ('A' for Active; 'I' for Inactive)
REMARK    1  A    between atoms: C4_4  and  C6_6 
REMARK    2  A    between atoms: C6_6  and  C8_8 
REMARK    3  A    between atoms: C7_7  and  C8_8 
REMARK    4  A    between atoms: C8_8  and  N9_9 
ROOT
HETATM    1  C1  UNL     1     -32.317   8.822   1.819  1.00 20.00     0.158 C 
HETATM    2  N9  UNL     1     -32.136   8.022   2.657  1.00 20.00    -0.270 NA
HETATM    3  S10 UNL     1     -32.525   9.917   0.681  1.00 20.00    -0.055 SA
ENDROOT
BRANCH   2   4
HETATM    4  C8  UNL     1     -33.353   7.346   3.129  1.00 20.00     0.109 C 
BRANCH   4   5
HETATM    5  C6  UNL     1     -33.130   6.894   4.578  1.00 20.00     0.032 C 
BRANCH   5   6
HETATM    6  C4  UNL     1     -34.421   6.458   5.258  1.00 20.00    -0.013 A 
HETATM    7  C2  UNL     1     -35.243   5.339   4.680  1.00 20.00     0.005 A 
HETATM    8  C3  UNL     1     -34.493   5.134   5.968  1.00 20.00     0.005 A 
ENDBRANCH   5   6
ENDBRANCH   4   5
BRANCH   4   9
HETATM    9  C7  UNL     1     -33.630   6.143   2.218  1.00 20.00     0.023 C 
HETATM   10  C5  UNL     1     -32.786   4.952   2.562  1.00 20.00     0.007 C 
ENDBRANCH   4   9
ENDBRANCH   2   4
TORSDOF 4
ENDMDL
MODEL 4
REMARK VINA RESULT:      -4.3      2.480      4.287
REMARK  4 active torsions:
REMARK  status: ('A' for Active; 'I' for Inactive)
REMARK    1  A    between atoms: C4_4  and  C6_6 
REMARK    2  A    between atoms: C6_6  and  C8_8 
REMARK    3  A    between atoms: C7_7  and  C8_8 
REMARK    4  A    between atoms: C8_8  and  N9_9 
ROOT
HETATM    1  C1  UNL     1     -31.980   8.755   2.214  1.00 20.00     0.158 C 
HETATM    2  N9  UNL     1     -31.545   8.200   3.152  1.00 20.00    -0.270 NA
HETATM    3  S10 UNL     1     -32.537   9.524   0.935  1.00 20.00    -0.055 SA
ENDROOT
BRANCH   2   4
HETATM    4  C8  UNL     1     -32.514   7.362   3.871  1.00 20.00     0.109 C 
BRANCH   4   5
HETATM    5  C6  UNL     1     -33.767   7.205   3.000  1.00 20.00     0.032 C 
BRANCH   5   6
HETATM    6  C4  UNL     1     -34.045   5.753   2.634  1.00 20.00    -0.013 A 
HETATM    7  C2  UNL     1     -32.960   4.719   2.756  1.00 20.00     0.005 A 
HETATM    8  C3  UNL     1     -34.125   4.703   3.707  1.00 20.00     0.005 A 
ENDBRANCH   5   6
ENDBRANCH   4   5
BRANCH   4   9
HETATM    9  C7  UNL     1     -32.856   8.043   5.203  1.00 20.00     0.023 C 
HETATM   10  C5  UNL     1     -33.821   7.243   6.028  1.00 20.00     0.007 C 
ENDBRANCH   4   9
ENDBRANCH   2   4
TORSDOF 4
ENDMDL
MODEL 5
REMARK VINA RESULT:      -4.3      1.483      2.296
REMARK  4 active torsions:
REMARK  status: ('A' for Active; 'I' for Inactive)
REMARK    1  A    between atoms: C4_4  and  C6_6 
REMARK    2  A    between atoms: C6_6  and  C8_8 
REMARK    3  A    between atoms: C7_7  and  C8_8 
REMARK    4  A    between atoms: C8_8  and  N9_9 
ROOT
HETATM    1  C1  UNL     1     -34.455   5.320   3.897  1.00 20.00     0.158 C 
HETATM    2  N9  UNL     1     -34.819   6.380   3.551  1.00 20.00    -0.270 NA
HETATM    3  S10 UNL     1     -33.995   3.867   4.359  1.00 20.00    -0.055 SA
ENDROOT
BRANCH   2   4
HETATM    4  C8  UNL     1     -33.799   7.434   3.635  1.00 20.00     0.109 C 
BRANCH   4   5
HETATM    5  C6  UNL     1     -32.864   7.309   2.426  1.00 20.00     0.032 C 
BRANCH   5   6
HETATM    6  C4  UNL     1     -32.088   8.591   2.152  1.00 20.00    -0.013 A 
HETATM    7  C2  UNL     1     -31.454   8.820   0.809  1.00 20.00     0.005 A 
HETATM    8  C3  UNL     1     -32.650   9.631   1.223  1.00 20.00     0.005 A 
ENDBRANCH   5   6
ENDBRANCH   4   5
BRANCH   4   9
HETATM    9  C7  UNL     1     -33.023   7.261   4.947  1.00 20.00     0.023 C 
HETATM   10  C5  UNL     1     -33.881   7.477   6.159  1.00 20.00     0.007 C 
ENDBRANCH   4   9
ENDBRANCH   2   4
TORSDOF 4
ENDMDL
MODEL 6
REMARK VINA RESULT:      -4.0      2.747      4.631
REMARK  4 active torsions:
REMARK  status: ('A' for Active; 'I' for Inactive)
REMARK    1  A    between atoms: C4_4  and  C6_6 
REMARK    2  A    between atoms: C6_6  and  C8_8 
REMARK    3  A    between atoms: C7_7  and  C8_8 
REMARK    4  A    between atoms: C8_8  and  N9_9 
ROOT
HETATM    1  C1  UNL     1     -32.635   8.720   1.430  1.00 20.00     0.158 C 
HETATM    2  N9  UNL     1     -32.583   7.560   1.591  1.00 20.00    -0.270 NA
HETATM    3  S10 UNL     1     -32.703  10.291   1.173  1.00 20.00    -0.055 SA
ENDROOT
BRANCH   2   4
HETATM    4  C8  UNL     1     -32.609   7.136   2.998  1.00 20.00     0.109 C 
BRANCH   4   5
HETATM    5  C6  UNL     1     -34.044   7.264   3.522  1.00 20.00     0.032 C 
BRANCH   5   6
HETATM    6  C4  UNL     1     -34.737   5.915   3.665  1.00 20.00    -0.013 A 
HETATM    7  C2  UNL     1     -33.925   4.658   3.810  1.00 20.00     0.005 A 
HETATM    8  C3  UNL     1     -34.709   5.186   4.979  1.00 20.00     0.005 A 
ENDBRANCH   5   6
ENDBRANCH   4   5
BRANCH   4   9
HETATM    9  C7  UNL     1     -31.654   8.033   3.797  1.00 20.00     0.023 C 
HETATM   10  C5  UNL     1     -32.229   8.457   5.117  1.00 20.00     0.007 C 
ENDBRANCH   4   9
ENDBRANCH   2   4
TORSDOF 4
ENDMDL
MODEL 7
REMARK VINA RESULT:      -4.0     10.574     11.353
REMARK  4 active torsions:
REMARK  status: ('A' for Active; 'I' for Inactive)
REMARK    1  A    between atoms: C4_4  and  C6_6 
REMARK    2  A    between atoms: C6_6  and  C8_8 
REMARK    3  A    between atoms: C7_7  and  C8_8 
REMARK    4  A    between atoms: C8_8  and  N9_9 
ROOT
HETATM    1  C1  UNL     1     -35.332  13.950  -4.742  1.00 20.00     0.158 C 
HETATM    2  N9  UNL     1     -34.349  13.906  -4.105  1.00 20.00    -0.270 NA
HETATM    3  S10 UNL     1     -36.671  13.972  -5.605  1.00 20.00    -0.055 SA
ENDROOT
BRANCH   2   4
HETATM    4  C8  UNL     1     -33.702  15.207  -3.887  1.00 20.00     0.109 C 
BRANCH   4   5
HETATM    5  C6  UNL     1     -34.732  16.172  -3.286  1.00 20.00     0.032 C 
BRANCH   5   6
HETATM    6  C4  UNL     1     -34.341  16.653  -1.896  1.00 20.00    -0.013 A 
HETATM    7  C2  UNL     1     -33.203  17.621  -1.721  1.00 20.00     0.005 A 
HETATM    8  C3  UNL     1     -34.617  18.071  -1.480  1.00 20.00     0.005 A 
ENDBRANCH   5   6
ENDBRANCH   4   5
BRANCH   4   9
HETATM    9  C7  UNL     1     -33.186  15.729  -5.235  1.00 20.00     0.023 C 
HETATM   10  C5  UNL     1     -33.643  17.128  -5.525  1.00 20.00     0.007 C 
ENDBRANCH   4   9
ENDBRANCH   2   4
TORSDOF 4
ENDMDL
MODEL 8
REMARK VINA RESULT:      -3.9     10.453     11.419
REMARK  4 active torsions:
REMARK  status: ('A' for Active; 'I' for Inactive)
REMARK    1  A    between atoms: C4_4  and  C6_6 
REMARK    2  A    between atoms: C6_6  and  C8_8 
REMARK    3  A    between atoms: C7_7  and  C8_8 
REMARK    4  A    between atoms: C8_8  and  N9_9 
ROOT
HETATM    1  C1  UNL     1     -36.562  13.762  -5.329  1.00 20.00     0.158 C 
HETATM    2  N9  UNL     1     -35.557  13.172  -5.460  1.00 20.00    -0.270 NA
HETATM    3  S10 UNL     1     -37.946  14.531  -5.154  1.00 20.00    -0.055 SA
ENDROOT
BRANCH   2   4
HETATM    4  C8  UNL     1     -34.348  14.005  -5.415  1.00 20.00     0.109 C 
BRANCH   4   5
HETATM    5  C6  UNL     1     -34.110  14.447  -3.966  1.00 20.00     0.032 C 
BRANCH   5   6
HETATM    6  C4  UNL     1     -34.351  15.936  -3.762  1.00 20.00    -0.013 A 
HETATM    7  C2  UNL     1     -35.206  16.416  -2.622  1.00 20.00     0.005 A 
HETATM    8  C3  UNL     1     -33.722  16.653  -2.599  1.00 20.00     0.005 A 
ENDBRANCH   5   6
ENDBRANCH   4   5
BRANCH   4   9
HETATM    9  C7  UNL     1     -34.557  15.220  -6.329  1.00 20.00     0.023 C 
HETATM   10  C5  UNL     1     -33.900  15.055  -7.668  1.00 20.00     0.007 C 
ENDBRANCH   4   9
ENDBRANCH   2   4
TORSDOF 4
ENDMDL
MODEL 9
REMARK VINA RESULT:      -3.8     11.046     11.767
REMARK  4 active torsions:
REMARK  status: ('A' for Active; 'I' for Inactive)
REMARK    1  A    between atoms: C4_4  and  C6_6 
REMARK    2  A    between atoms: C6_6  and  C8_8 
REMARK    3  A    between atoms: C7_7  and  C8_8 
REMARK    4  A    between atoms: C8_8  and  N9_9 
ROOT
HETATM    1  C1  UNL     1     -38.539  14.795  -5.350  1.00 20.00     0.158 C 
HETATM    2  N9  UNL     1     -37.933  13.854  -5.000  1.00 20.00    -0.270 NA
HETATM    3  S10 UNL     1     -39.394  16.056  -5.815  1.00 20.00    -0.055 SA
ENDROOT
BRANCH   2   4
HETATM    4  C8  UNL     1     -36.482  13.947  -5.213  1.00 20.00     0.109 C 
BRANCH   4   5
HETATM    5  C6  UNL     1     -35.952  15.167  -4.450  1.00 20.00     0.032 C 
BRANCH   5   6
HETATM    6  C4  UNL     1     -34.564  14.934  -3.868  1.00 20.00    -0.013 A 
HETATM    7  C2  UNL     1     -33.340  15.359  -4.631  1.00 20.00     0.005 A 
HETATM    8  C3  UNL     1     -33.742  16.096  -3.384  1.00 20.00     0.005 A 
ENDBRANCH   5   6
ENDBRANCH   4   5
BRANCH   4   9
HETATM    9  C7  UNL     1     -36.215  14.085  -6.717  1.00 20.00     0.023 C 
HETATM   10  C5  UNL     1     -35.115  13.184  -7.194  1.00 20.00     0.007 C 
ENDBRANCH   4   9
ENDBRANCH   2   4
TORSDOF 4
ENDMDL
