MODEL 1
REMARK VINA RESULT:      -4.2      0.000      0.000
REMARK  3 active torsions:
REMARK  status: ('A' for Active; 'I' for Inactive)
REMARK    1  A    between atoms: C7_7  and  C8_8 
REMARK    2  A    between atoms: C8_8  and  N11_11 
REMARK    3  A    between atoms: C9_9  and  N11_11 
ROOT
HETATM    1  C1  UNL     1     -35.533  16.429  -2.417  1.00 20.00     0.015 C 
HETATM    2  C2  UNL     1     -34.909  16.154  -3.406  1.00 20.00    -0.076 C 
HETATM    3  C5  UNL     1     -33.278  17.011  -5.033  1.00 20.00     0.063 C 
HETATM    4  C6  UNL     1     -33.251  14.598  -4.350  1.00 20.00     0.063 C 
HETATM    5  C9  UNL     1     -34.142  15.815  -4.621  1.00 20.00     0.213 C 
ENDROOT
BRANCH   5   6
HETATM    6  N11 UNL     1     -35.068  15.497  -5.691  1.00 20.00     0.122 N 
HETATM    7  H25 UNL     1     -35.901  16.083  -5.607  1.00 20.00     0.319 HD
BRANCH   6   8
HETATM    8  C8  UNL     1     -35.469  14.096  -5.644  1.00 20.00     0.327 C 
HETATM    9  C3  UNL     1     -36.894  13.977  -5.303  1.00 20.00     0.095 C 
HETATM   10  N10 UNL     1     -38.018  13.882  -5.029  1.00 20.00    -0.195 NA
BRANCH   8  11
HETATM   11  C7  UNL     1     -35.118  13.369  -6.948  1.00 20.00     0.046 C 
HETATM   12  C4  UNL     1     -34.244  14.170  -7.908  1.00 20.00     0.008 C 
ENDBRANCH   8  11
ENDBRANCH   6   8
ENDBRANCH   5   6
TORSDOF 3
ENDMDL
MODEL 2
REMARK VINA RESULT:      -4.1     11.387     12.339
REMARK  3 active torsions:
REMARK  status: ('A' for Active; 'I' for Inactive)
REMARK    1  A    between atoms: C7_7  and  C8_8 
REMARK    2  A    between atoms: C8_8  and  N11_11 
REMARK    3  A    between atoms: C9_9  and  N11_11 
ROOT
HETATM    1  C1  UNL     1     -33.811   7.270   6.153  1.00 20.00     0.015 C 
HETATM    2  C2  UNL     1     -34.000   6.619   5.162  1.00 20.00    -0.076 C 
HETATM    3  C5  UNL     1     -34.229   4.328   4.299  1.00 20.00     0.063 C 
HETATM    4  C6  UNL     1     -35.580   6.200   3.321  1.00 20.00     0.063 C 
HETATM    5  C9  UNL     1     -34.234   5.818   3.943  1.00 20.00     0.213 C 
ENDROOT
BRANCH   5   6
HETATM    6  N11 UNL     1     -33.175   6.090   2.990  1.00 20.00     0.122 N 
HETATM    7  H25 UNL     1     -32.291   5.719   3.344  1.00 20.00     0.319 HD
BRANCH   6   8
HETATM    8  C8  UNL     1     -33.027   7.522   2.759  1.00 20.00     0.327 C 
HETATM    9  C3  UNL     1     -31.797   8.023   3.387  1.00 20.00     0.095 C 
HETATM   10  N10 UNL     1     -30.827   8.420   3.887  1.00 20.00    -0.195 NA
BRANCH   8  11
HETATM   11  C7  UNL     1     -33.099   7.859   1.264  1.00 20.00     0.046 C 
HETATM   12  C4  UNL     1     -32.460   9.189   0.880  1.00 20.00     0.008 C 
ENDBRANCH   8  11
ENDBRANCH   6   8
ENDBRANCH   5   6
TORSDOF 3
ENDMDL
MODEL 3
REMARK VINA RESULT:      -4.1      1.483      2.407
REMARK  3 active torsions:
REMARK  status: ('A' for Active; 'I' for Inactive)
REMARK    1  A    between atoms: C7_7  and  C8_8 
REMARK    2  A    between atoms: C8_8  and  N11_11 
REMARK    3  A    between atoms: C9_9  and  N11_11 
ROOT
HETATM    1  C1  UNL     1     -34.893  16.776  -1.675  1.00 20.00     0.015 C 
HETATM    2  C2  UNL     1     -34.792  16.291  -2.769  1.00 20.00    -0.076 C 
HETATM    3  C5  UNL     1     -34.836  16.784  -5.177  1.00 20.00     0.063 C 
HETATM    4  C6  UNL     1     -33.294  15.030  -4.262  1.00 20.00     0.063 C 
HETATM    5  C9  UNL     1     -34.667  15.694  -4.114  1.00 20.00     0.213 C 
ENDROOT
BRANCH   5   6
HETATM    6  N11 UNL     1     -35.701  14.691  -4.283  1.00 20.00     0.122 N 
HETATM    7  H25 UNL     1     -35.351  13.783  -3.970  1.00 20.00     0.319 HD
BRANCH   6   8
HETATM    8  C8  UNL     1     -36.111  14.584  -5.678  1.00 20.00     0.327 C 
HETATM    9  C3  UNL     1     -35.545  13.375  -6.293  1.00 20.00     0.095 C 
HETATM   10  N10 UNL     1     -35.095  12.422  -6.780  1.00 20.00    -0.195 NA
BRANCH   8  11
HETATM   11  C7  UNL     1     -37.637  14.652  -5.820  1.00 20.00     0.046 C 
HETATM   12  C4  UNL     1     -38.375  15.088  -4.558  1.00 20.00     0.008 C 
ENDBRANCH   8  11
ENDBRANCH   6   8
ENDBRANCH   5   6
TORSDOF 3
ENDMDL
MODEL 4
REMARK VINA RESULT:      -4.1     10.932     11.914
REMARK  3 active torsions:
REMARK  status: ('A' for Active; 'I' for Inactive)
REMARK    1  A    between atoms: C7_7  and  C8_8 
REMARK    2  A    between atoms: C8_8  and  N11_11 
REMARK    3  A    between atoms: C9_9  and  N11_11 
ROOT
HETATM    1  C1  UNL     1     -32.681  10.261   0.795  1.00 20.00     0.015 C 
HETATM    2  C2  UNL     1     -32.570   9.315   1.526  1.00 20.00    -0.076 C 
HETATM    3  C5  UNL     1     -32.078   6.907   1.602  1.00 20.00     0.063 C 
HETATM    4  C6  UNL     1     -31.335   8.421   3.459  1.00 20.00     0.063 C 
HETATM    5  C9  UNL     1     -32.432   8.150   2.424  1.00 20.00     0.213 C 
ENDROOT
BRANCH   5   6
HETATM    6  N11 UNL     1     -33.691   7.933   3.110  1.00 20.00     0.122 N 
HETATM    7  H25 UNL     1     -33.927   8.759   3.663  1.00 20.00     0.319 HD
BRANCH   6   8
HETATM    8  C8  UNL     1     -33.616   6.778   3.997  1.00 20.00     0.327 C 
HETATM    9  C3  UNL     1     -33.745   7.194   5.401  1.00 20.00     0.095 C 
HETATM   10  N10 UNL     1     -33.843   7.523   6.510  1.00 20.00    -0.195 NA
BRANCH   8  11
HETATM   11  C7  UNL     1     -34.643   5.706   3.609  1.00 20.00     0.046 C 
HETATM   12  C4  UNL     1     -34.630   4.462   4.492  1.00 20.00     0.008 C 
ENDBRANCH   8  11
ENDBRANCH   6   8
ENDBRANCH   5   6
TORSDOF 3
ENDMDL
MODEL 5
REMARK VINA RESULT:      -4.0      1.095      3.517
REMARK  3 active torsions:
REMARK  status: ('A' for Active; 'I' for Inactive)
REMARK    1  A    between atoms: C7_7  and  C8_8 
REMARK    2  A    between atoms: C8_8  and  N11_11 
REMARK    3  A    between atoms: C9_9  and  N11_11 
ROOT
HETATM    1  C1  UNL     1     -34.710  13.400  -7.118  1.00 20.00     0.015 C 
HETATM    2  C2  UNL     1     -34.354  14.046  -6.171  1.00 20.00    -0.076 C 
HETATM    3  C5  UNL     1     -32.587  14.292  -4.479  1.00 20.00     0.063 C 
HETATM    4  C6  UNL     1     -33.748  16.309  -5.413  1.00 20.00     0.063 C 
HETATM    5  C9  UNL     1     -33.916  14.842  -5.006  1.00 20.00     0.213 C 
ENDROOT
BRANCH   5   6
HETATM    6  N11 UNL     1     -34.923  14.749  -3.966  1.00 20.00     0.122 N 
HETATM    7  H25 UNL     1     -35.261  13.787  -3.901  1.00 20.00     0.319 HD
BRANCH   6   8
HETATM    8  C8  UNL     1     -36.053  15.628  -4.245  1.00 20.00     0.327 C 
HETATM    9  C3  UNL     1     -37.244  14.843  -4.598  1.00 20.00     0.095 C 
HETATM   10  N10 UNL     1     -38.184  14.223  -4.882  1.00 20.00    -0.195 NA
BRANCH   8  11
HETATM   11  C7  UNL     1     -36.313  16.592  -3.080  1.00 20.00     0.046 C 
HETATM   12  C4  UNL     1     -35.208  16.634  -2.030  1.00 20.00     0.008 C 
ENDBRANCH   8  11
ENDBRANCH   6   8
ENDBRANCH   5   6
TORSDOF 3
ENDMDL
MODEL 6
REMARK VINA RESULT:      -3.9      1.970      4.611
REMARK  3 active torsions:
REMARK  status: ('A' for Active; 'I' for Inactive)
REMARK    1  A    between atoms: C7_7  and  C8_8 
REMARK    2  A    between atoms: C8_8  and  N11_11 
REMARK    3  A    between atoms: C9_9  and  N11_11 
ROOT
HETATM    1  C1  UNL     1     -36.132  13.606  -5.250  1.00 20.00     0.015 C 
HETATM    2  C2  UNL     1     -35.207  14.372  -5.227  1.00 20.00    -0.076 C 
HETATM    3  C5  UNL     1     -32.938  14.726  -4.349  1.00 20.00     0.063 C 
HETATM    4  C6  UNL     1     -33.572  15.568  -6.625  1.00 20.00     0.063 C 
HETATM    5  C9  UNL     1     -34.069  15.314  -5.199  1.00 20.00     0.213 C 
ENDROOT
BRANCH   5   6
HETATM    6  N11 UNL     1     -34.509  16.567  -4.618  1.00 20.00     0.122 N 
HETATM    7  H25 UNL     1     -34.115  17.347  -5.147  1.00 20.00     0.319 HD
BRANCH   6   8
HETATM    8  C8  UNL     1     -34.089  16.681  -3.226  1.00 20.00     0.327 C 
HETATM    9  C3  UNL     1     -33.387  17.952  -2.999  1.00 20.00     0.095 C 
HETATM   10  N10 UNL     1     -32.829  18.954  -2.821  1.00 20.00    -0.195 NA
BRANCH   8  11
HETATM   11  C7  UNL     1     -35.271  16.487  -2.267  1.00 20.00     0.046 C 
HETATM   12  C4  UNL     1     -35.100  17.150  -0.904  1.00 20.00     0.008 C 
ENDBRANCH   8  11
ENDBRANCH   6   8
ENDBRANCH   5   6
TORSDOF 3
ENDMDL
MODEL 7
REMARK VINA RESULT:      -3.8      1.644      4.685
REMARK  3 active torsions:
REMARK  status: ('A' for Active; 'I' for Inactive)
REMARK    1  A    between atoms: C7_7  and  C8_8 
REMARK    2  A    between atoms: C8_8  and  N11_11 
REMARK    3  A    between atoms: C9_9  and  N11_11 
ROOT
HETATM    1  C1  UNL     1     -33.965  14.528  -7.865  1.00 20.00     0.015 C 
HETATM    2  C2  UNL     1     -34.164  14.623  -6.685  1.00 20.00    -0.076 C 
HETATM    3  C5  UNL     1     -35.525  13.773  -4.822  1.00 20.00     0.063 C 
HETATM    4  C6  UNL     1     -33.127  14.412  -4.462  1.00 20.00     0.063 C 
HETATM    5  C9  UNL     1     -34.410  14.739  -5.233  1.00 20.00     0.213 C 
ENDROOT
BRANCH   5   6
HETATM    6  N11 UNL     1     -34.813  16.099  -4.930  1.00 20.00     0.122 N 
HETATM    7  H25 UNL     1     -34.565  16.711  -5.710  1.00 20.00     0.319 HD
BRANCH   6   8
HETATM    8  C8  UNL     1     -34.161  16.586  -3.720  1.00 20.00     0.327 C 
HETATM    9  C3  UNL     1     -33.589  17.922  -3.943  1.00 20.00     0.095 C 
HETATM   10  N10 UNL     1     -33.133  18.974  -4.120  1.00 20.00    -0.195 NA
BRANCH   8  11
HETATM   11  C7  UNL     1     -35.114  16.553  -2.519  1.00 20.00     0.046 C 
HETATM   12  C4  UNL     1     -34.542  17.145  -1.235  1.00 20.00     0.008 C 
ENDBRANCH   8  11
ENDBRANCH   6   8
ENDBRANCH   5   6
TORSDOF 3
ENDMDL
MODEL 8
REMARK VINA RESULT:      -3.6      2.028      2.662
REMARK  3 active torsions:
REMARK  status: ('A' for Active; 'I' for Inactive)
REMARK    1  A    between atoms: C7_7  and  C8_8 
REMARK    2  A    between atoms: C8_8  and  N11_11 
REMARK    3  A    between atoms: C9_9  and  N11_11 
ROOT
HETATM    1  C1  UNL     1     -33.633  17.068  -2.094  1.00 20.00     0.015 C 
HETATM    2  C2  UNL     1     -33.770  16.398  -3.081  1.00 20.00    -0.076 C 
HETATM    3  C5  UNL     1     -32.947  14.406  -4.264  1.00 20.00     0.063 C 
HETATM    4  C6  UNL     1     -35.372  15.037  -4.362  1.00 20.00     0.063 C 
HETATM    5  C9  UNL     1     -33.939  15.573  -4.294  1.00 20.00     0.213 C 
ENDROOT
BRANCH   5   6
HETATM    6  N11 UNL     1     -33.683  16.394  -5.462  1.00 20.00     0.122 N 
HETATM    7  H25 UNL     1     -33.716  17.382  -5.200  1.00 20.00     0.319 HD
BRANCH   6   8
HETATM    8  C8  UNL     1     -34.669  16.149  -6.507  1.00 20.00     0.327 C 
HETATM    9  C3  UNL     1     -35.372  17.391  -6.858  1.00 20.00     0.095 C 
HETATM   10  N10 UNL     1     -35.930  18.372  -7.131  1.00 20.00    -0.195 NA
BRANCH   8  11
HETATM   11  C7  UNL     1     -34.034  15.473  -7.729  1.00 20.00     0.046 C 
HETATM   12  C4  UNL     1     -34.225  13.961  -7.791  1.00 20.00     0.008 C 
ENDBRANCH   8  11
ENDBRANCH   6   8
ENDBRANCH   5   6
TORSDOF 3
ENDMDL
MODEL 9
REMARK VINA RESULT:      -3.6      1.558      4.322
REMARK  3 active torsions:
REMARK  status: ('A' for Active; 'I' for Inactive)
REMARK    1  A    between atoms: C7_7  and  C8_8 
REMARK    2  A    between atoms: C8_8  and  N11_11 
REMARK    3  A    between atoms: C9_9  and  N11_11 
ROOT
HETATM    1  C1  UNL     1     -35.181  12.923  -7.180  1.00 20.00     0.015 C 
HETATM    2  C2  UNL     1     -35.519  13.918  -6.599  1.00 20.00    -0.076 C 
HETATM    3  C5  UNL     1     -36.686  16.067  -6.848  1.00 20.00     0.063 C 
HETATM    4  C6  UNL     1     -36.843  14.771  -4.707  1.00 20.00     0.063 C 
HETATM    5  C9  UNL     1     -35.937  15.141  -5.885  1.00 20.00     0.213 C 
ENDROOT
BRANCH   5   6
HETATM    6  N11 UNL     1     -34.757  15.819  -5.383  1.00 20.00     0.122 N 
HETATM    7  H25 UNL     1     -33.971  15.651  -6.013  1.00 20.00     0.319 HD
BRANCH   6   8
HETATM    8  C8  UNL     1     -34.404  15.347  -4.049  1.00 20.00     0.327 C 
HETATM    9  C3  UNL     1     -33.288  14.392  -4.118  1.00 20.00     0.095 C 
HETATM   10  N10 UNL     1     -32.410  13.635  -4.173  1.00 20.00    -0.195 NA
BRANCH   8  11
HETATM   11  C7  UNL     1     -34.114  16.516  -3.100  1.00 20.00     0.046 C 
HETATM   12  C4  UNL     1     -35.084  16.640  -1.929  1.00 20.00     0.008 C 
ENDBRANCH   8  11
ENDBRANCH   6   8
ENDBRANCH   5   6
TORSDOF 3
ENDMDL
