MODEL 1
REMARK VINA RESULT:      -4.9      0.000      0.000
REMARK  4 active torsions:
REMARK  status: ('A' for Active; 'I' for Inactive)
REMARK    1  A    between atoms: C4_4  and  C6_6 
REMARK    2  A    between atoms: C6_6  and  C8_8 
REMARK    3  A    between atoms: C7_7  and  C8_8 
REMARK    4  A    between atoms: C8_8  and  N9_9 
ROOT
HETATM    1  C1  UNL     1     -33.601   5.366   3.364  1.00 20.00     0.158 C 
HETATM    2  N9  UNL     1     -33.112   6.267   2.794  1.00 20.00    -0.270 NA
HETATM    3  S10 UNL     1     -34.275   4.129   4.107  1.00 20.00    -0.055 SA
ENDROOT
BRANCH   2   4
HETATM    4  C8  UNL     1     -32.493   7.279   3.663  1.00 20.00     0.109 C 
BRANCH   4   5
HETATM    5  C6  UNL     1     -31.807   8.328   2.781  1.00 20.00     0.032 C 
BRANCH   5   6
HETATM    6  C4  UNL     1     -32.672   8.756   1.602  1.00 20.00    -0.013 A 
HETATM    7  C2  UNL     1     -32.744  10.203   1.201  1.00 20.00     0.005 A 
HETATM    8  C3  UNL     1     -32.032   9.213   0.321  1.00 20.00     0.005 A 
ENDBRANCH   5   6
ENDBRANCH   4   5
BRANCH   4   9
HETATM    9  C7  UNL     1     -33.589   7.919   4.524  1.00 20.00     0.023 C 
HETATM   10  C5  UNL     1     -33.545   7.455   5.950  1.00 20.00     0.007 C 
ENDBRANCH   4   9
ENDBRANCH   2   4
TORSDOF 4
ENDMDL
MODEL 2
REMARK VINA RESULT:      -4.8      2.532      4.282
REMARK  4 active torsions:
REMARK  status: ('A' for Active; 'I' for Inactive)
REMARK    1  A    between atoms: C4_4  and  C6_6 
REMARK    2  A    between atoms: C6_6  and  C8_8 
REMARK    3  A    between atoms: C7_7  and  C8_8 
REMARK    4  A    between atoms: C8_8  and  N9_9 
ROOT
HETATM    1  C1  UNL     1     -32.373   8.918   1.597  1.00 20.00     0.158 C 
HETATM    2  N9  UNL     1     -32.056   7.866   2.007  1.00 20.00    -0.270 NA
HETATM    3  S10 UNL     1     -32.778  10.345   1.017  1.00 20.00    -0.055 SA
ENDROOT
BRANCH   2   4
HETATM    4  C8  UNL     1     -32.880   7.365   3.116  1.00 20.00     0.109 C 
BRANCH   4   5
HETATM    5  C6  UNL     1     -32.750   5.839   3.173  1.00 20.00     0.032 C 
BRANCH   5   6
HETATM    6  C4  UNL     1     -34.102   5.138   3.214  1.00 20.00    -0.013 A 
HETATM    7  C2  UNL     1     -34.527   4.384   4.443  1.00 20.00     0.005 A 
HETATM    8  C3  UNL     1     -35.206   5.675   4.081  1.00 20.00     0.005 A 
ENDBRANCH   5   6
ENDBRANCH   4   5
BRANCH   4   9
HETATM    9  C7  UNL     1     -32.387   8.006   4.419  1.00 20.00     0.023 C 
HETATM   10  C5  UNL     1     -33.263   7.672   5.592  1.00 20.00     0.007 C 
ENDBRANCH   4   9
ENDBRANCH   2   4
TORSDOF 4
ENDMDL
MODEL 3
REMARK VINA RESULT:      -4.6      1.337      2.172
REMARK  4 active torsions:
REMARK  status: ('A' for Active; 'I' for Inactive)
REMARK    1  A    between atoms: C4_4  and  C6_6 
REMARK    2  A    between atoms: C6_6  and  C8_8 
REMARK    3  A    between atoms: C7_7  and  C8_8 
REMARK    4  A    between atoms: C8_8  and  N9_9 
ROOT
HETATM    1  C1  UNL     1     -34.054   6.363   5.285  1.00 20.00     0.158 C 
HETATM    2  N9  UNL     1     -33.581   7.342   4.846  1.00 20.00    -0.270 NA
HETATM    3  S10 UNL     1     -34.692   5.046   5.913  1.00 20.00    -0.055 SA
ENDROOT
BRANCH   2   4
HETATM    4  C8  UNL     1     -33.513   7.386   3.378  1.00 20.00     0.109 C 
BRANCH   4   5
HETATM    5  C6  UNL     1     -32.053   7.595   2.961  1.00 20.00     0.032 C 
BRANCH   5   6
HETATM    6  C4  UNL     1     -31.851   8.877   2.164  1.00 20.00    -0.013 A 
HETATM    7  C2  UNL     1     -31.444   8.814   0.718  1.00 20.00     0.005 A 
HETATM    8  C3  UNL     1     -32.829   9.263   1.091  1.00 20.00     0.005 A 
ENDBRANCH   5   6
ENDBRANCH   4   5
BRANCH   4   9
HETATM    9  C7  UNL     1     -34.057   6.064   2.824  1.00 20.00     0.023 C 
HETATM   10  C5  UNL     1     -32.965   5.097   2.468  1.00 20.00     0.007 C 
ENDBRANCH   4   9
ENDBRANCH   2   4
TORSDOF 4
ENDMDL
MODEL 4
REMARK VINA RESULT:      -4.1     10.744     11.489
REMARK  4 active torsions:
REMARK  status: ('A' for Active; 'I' for Inactive)
REMARK    1  A    between atoms: C4_4  and  C6_6 
REMARK    2  A    between atoms: C6_6  and  C8_8 
REMARK    3  A    between atoms: C7_7  and  C8_8 
REMARK    4  A    between atoms: C8_8  and  N9_9 
ROOT
HETATM    1  C1  UNL     1     -34.874  13.453  -6.780  1.00 20.00     0.158 C 
HETATM    2  N9  UNL     1     -35.492  12.893  -5.955  1.00 20.00    -0.270 NA
HETATM    3  S10 UNL     1     -34.034  14.183  -7.918  1.00 20.00    -0.055 SA
ENDROOT
BRANCH   2   4
HETATM    4  C8  UNL     1     -35.919  13.736  -4.830  1.00 20.00     0.109 C 
BRANCH   4   5
HETATM    5  C6  UNL     1     -34.672  14.314  -4.150  1.00 20.00     0.032 C 
BRANCH   5   6
HETATM    6  C4  UNL     1     -34.808  15.800  -3.847  1.00 20.00    -0.013 A 
HETATM    7  C2  UNL     1     -34.958  16.274  -2.428  1.00 20.00     0.005 A 
HETATM    8  C3  UNL     1     -33.684  16.542  -3.180  1.00 20.00     0.005 A 
ENDBRANCH   5   6
ENDBRANCH   4   5
BRANCH   4   9
HETATM    9  C7  UNL     1     -36.816  14.857  -5.372  1.00 20.00     0.023 C 
HETATM   10  C5  UNL     1     -38.276  14.578  -5.161  1.00 20.00     0.007 C 
ENDBRANCH   4   9
ENDBRANCH   2   4
TORSDOF 4
ENDMDL
MODEL 5
REMARK VINA RESULT:      -4.0      2.502      4.643
REMARK  4 active torsions:
REMARK  status: ('A' for Active; 'I' for Inactive)
REMARK    1  A    between atoms: C4_4  and  C6_6 
REMARK    2  A    between atoms: C6_6  and  C8_8 
REMARK    3  A    between atoms: C7_7  and  C8_8 
REMARK    4  A    between atoms: C8_8  and  N9_9 
ROOT
HETATM    1  C1  UNL     1     -31.978   8.538   2.379  1.00 20.00     0.158 C 
HETATM    2  N9  UNL     1     -31.798   8.048   3.430  1.00 20.00    -0.270 NA
HETATM    3  S10 UNL     1     -32.196   9.225   0.960  1.00 20.00    -0.055 SA
ENDROOT
BRANCH   2   4
HETATM    4  C8  UNL     1     -32.702   6.934   3.750  1.00 20.00     0.109 C 
BRANCH   4   5
HETATM    5  C6  UNL     1     -33.871   7.475   4.581  1.00 20.00     0.032 C 
BRANCH   5   6
HETATM    6  C4  UNL     1     -34.250   6.548   5.729  1.00 20.00    -0.013 A 
HETATM    7  C2  UNL     1     -35.034   5.293   5.462  1.00 20.00     0.005 A 
HETATM    8  C3  UNL     1     -33.589   5.206   5.867  1.00 20.00     0.005 A 
ENDBRANCH   5   6
ENDBRANCH   4   5
BRANCH   4   9
HETATM    9  C7  UNL     1     -33.202   6.317   2.438  1.00 20.00     0.023 C 
HETATM   10  C5  UNL     1     -33.011   4.829   2.392  1.00 20.00     0.007 C 
ENDBRANCH   4   9
ENDBRANCH   2   4
TORSDOF 4
ENDMDL
MODEL 6
REMARK VINA RESULT:      -3.8     10.889     11.943
REMARK  4 active torsions:
REMARK  status: ('A' for Active; 'I' for Inactive)
REMARK    1  A    between atoms: C4_4  and  C6_6 
REMARK    2  A    between atoms: C6_6  and  C8_8 
REMARK    3  A    between atoms: C7_7  and  C8_8 
REMARK    4  A    between atoms: C8_8  and  N9_9 
ROOT
HETATM    1  C1  UNL     1     -38.740  14.814  -5.001  1.00 20.00     0.158 C 
HETATM    2  N9  UNL     1     -37.874  14.024  -4.961  1.00 20.00    -0.270 NA
HETATM    3  S10 UNL     1     -39.937  15.863  -5.042  1.00 20.00    -0.055 SA
ENDROOT
BRANCH   2   4
HETATM    4  C8  UNL     1     -36.584  14.501  -5.480  1.00 20.00     0.109 C 
BRANCH   4   5
HETATM    5  C6  UNL     1     -35.461  13.701  -4.811  1.00 20.00     0.032 C 
BRANCH   5   6
HETATM    6  C4  UNL     1     -34.488  14.588  -4.045  1.00 20.00    -0.013 A 
HETATM    7  C2  UNL     1     -33.021  14.564  -4.374  1.00 20.00     0.005 A 
HETATM    8  C3  UNL     1     -33.850  15.770  -4.719  1.00 20.00     0.005 A 
ENDBRANCH   5   6
ENDBRANCH   4   5
BRANCH   4   9
HETATM    9  C7  UNL     1     -36.566  14.304  -7.001  1.00 20.00     0.023 C 
HETATM   10  C5  UNL     1     -35.471  13.380  -7.449  1.00 20.00     0.007 C 
ENDBRANCH   4   9
ENDBRANCH   2   4
TORSDOF 4
ENDMDL
MODEL 7
REMARK VINA RESULT:      -3.7     10.955     11.763
REMARK  4 active torsions:
REMARK  status: ('A' for Active; 'I' for Inactive)
REMARK    1  A    between atoms: C4_4  and  C6_6 
REMARK    2  A    between atoms: C6_6  and  C8_8 
REMARK    3  A    between atoms: C7_7  and  C8_8 
REMARK    4  A    between atoms: C8_8  and  N9_9 
ROOT
HETATM    1  C1  UNL     1     -37.868  14.405  -5.142  1.00 20.00     0.158 C 
HETATM    2  N9  UNL     1     -36.988  13.639  -5.264  1.00 20.00    -0.270 NA
HETATM    3  S10 UNL     1     -39.082  15.419  -4.965  1.00 20.00    -0.055 SA
ENDROOT
BRANCH   2   4
HETATM    4  C8  UNL     1     -35.723  14.226  -5.726  1.00 20.00     0.109 C 
BRANCH   4   5
HETATM    5  C6  UNL     1     -34.796  14.405  -4.518  1.00 20.00     0.032 C 
BRANCH   5   6
HETATM    6  C4  UNL     1     -34.689  15.858  -4.074  1.00 20.00    -0.013 A 
HETATM    7  C2  UNL     1     -35.129  16.263  -2.695  1.00 20.00     0.005 A 
HETATM    8  C3  UNL     1     -33.668  16.263  -3.049  1.00 20.00     0.005 A 
ENDBRANCH   5   6
ENDBRANCH   4   5
BRANCH   4   9
HETATM    9  C7  UNL     1     -35.096  13.284  -6.762  1.00 20.00     0.023 C 
HETATM   10  C5  UNL     1     -34.252  14.013  -7.767  1.00 20.00     0.007 C 
ENDBRANCH   4   9
ENDBRANCH   2   4
TORSDOF 4
ENDMDL
MODEL 8
REMARK VINA RESULT:      -3.7     10.902     11.531
REMARK  4 active torsions:
REMARK  status: ('A' for Active; 'I' for Inactive)
REMARK    1  A    between atoms: C4_4  and  C6_6 
REMARK    2  A    between atoms: C6_6  and  C8_8 
REMARK    3  A    between atoms: C7_7  and  C8_8 
REMARK    4  A    between atoms: C8_8  and  N9_9 
ROOT
HETATM    1  C1  UNL     1     -34.110  14.311  -6.111  1.00 20.00     0.158 C 
HETATM    2  N9  UNL     1     -34.098  13.931  -5.001  1.00 20.00    -0.270 NA
HETATM    3  S10 UNL     1     -34.106  14.799  -7.626  1.00 20.00    -0.055 SA
ENDROOT
BRANCH   2   4
HETATM    4  C8  UNL     1     -34.882  14.748  -4.064  1.00 20.00     0.109 C 
BRANCH   4   5
HETATM    5  C6  UNL     1     -34.275  16.155  -4.015  1.00 20.00     0.032 C 
BRANCH   5   6
HETATM    6  C4  UNL     1     -33.679  16.486  -2.653  1.00 20.00    -0.013 A 
HETATM    7  C2  UNL     1     -33.552  17.917  -2.209  1.00 20.00     0.005 A 
HETATM    8  C3  UNL     1     -34.556  17.012  -1.551  1.00 20.00     0.005 A 
ENDBRANCH   5   6
ENDBRANCH   4   5
BRANCH   4   9
HETATM    9  C7  UNL     1     -36.334  14.796  -4.555  1.00 20.00     0.023 C 
HETATM   10  C5  UNL     1     -36.951  16.156  -4.396  1.00 20.00     0.007 C 
ENDBRANCH   4   9
ENDBRANCH   2   4
TORSDOF 4
ENDMDL
MODEL 9
REMARK VINA RESULT:      -3.6     10.602     11.455
REMARK  4 active torsions:
REMARK  status: ('A' for Active; 'I' for Inactive)
REMARK    1  A    between atoms: C4_4  and  C6_6 
REMARK    2  A    between atoms: C6_6  and  C8_8 
REMARK    3  A    between atoms: C7_7  and  C8_8 
REMARK    4  A    between atoms: C8_8  and  N9_9 
ROOT
HETATM    1  C1  UNL     1     -36.538  14.890  -4.555  1.00 20.00     0.158 C 
HETATM    2  N9  UNL     1     -35.447  15.021  -4.144  1.00 20.00    -0.270 NA
HETATM    3  S10 UNL     1     -38.022  14.683  -5.093  1.00 20.00    -0.055 SA
ENDROOT
BRANCH   2   4
HETATM    4  C8  UNL     1     -34.727  16.186  -4.677  1.00 20.00     0.109 C 
BRANCH   4   5
HETATM    5  C6  UNL     1     -34.682  17.272  -3.596  1.00 20.00     0.032 C 
BRANCH   5   6
HETATM    6  C4  UNL     1     -34.434  16.702  -2.206  1.00 20.00    -0.013 A 
HETATM    7  C2  UNL     1     -33.936  17.592  -1.101  1.00 20.00     0.005 A 
HETATM    8  C3  UNL     1     -35.343  17.065  -1.066  1.00 20.00     0.005 A 
ENDBRANCH   5   6
ENDBRANCH   4   5
BRANCH   4   9
HETATM    9  C7  UNL     1     -33.311  15.747  -5.070  1.00 20.00     0.023 C 
HETATM   10  C5  UNL     1     -32.912  14.449  -4.430  1.00 20.00     0.007 C 
ENDBRANCH   4   9
ENDBRANCH   2   4
TORSDOF 4
ENDMDL
