MODEL 1
REMARK VINA RESULT:      -4.6      0.000      0.000
REMARK  2 active torsions:
REMARK  status: ('A' for Active; 'I' for Inactive)
REMARK    1  A    between atoms: C7_7  and  N9_9 
REMARK    2  A    between atoms: C8_8  and  N9_9 
ROOT
HETATM    1  C1  UNL     1     -32.773   9.548   0.809  1.00 20.00     0.015 C 
HETATM    2  C2  UNL     1     -32.683   8.763   1.714  1.00 20.00    -0.076 C 
HETATM    3  C5  UNL     1     -32.361   6.389   2.265  1.00 20.00     0.063 C 
HETATM    4  C6  UNL     1     -31.394   8.181   3.729  1.00 20.00     0.063 C 
HETATM    5  C8  UNL     1     -32.571   7.799   2.827  1.00 20.00     0.212 C 
ENDROOT
BRANCH   5   6
HETATM    6  N9  UNL     1     -33.796   7.832   3.604  1.00 20.00     0.108 N 
HETATM    7  H24 UNL     1     -34.600   7.866   2.974  1.00 20.00     0.318 HD
BRANCH   6   8
HETATM    8  C7  UNL     1     -33.911   6.653   4.455  1.00 20.00     0.214 C 
HETATM    9  C3  UNL     1     -35.182   5.898   4.090  1.00 20.00     0.042 C 
HETATM   10  C4  UNL     1     -33.918   7.095   5.911  1.00 20.00     0.042 C 
ENDBRANCH   6   8
ENDBRANCH   5   6
TORSDOF 2
ENDMDL
MODEL 2
REMARK VINA RESULT:      -4.5      1.077      3.752
REMARK  2 active torsions:
REMARK  status: ('A' for Active; 'I' for Inactive)
REMARK    1  A    between atoms: C7_7  and  N9_9 
REMARK    2  A    between atoms: C8_8  and  N9_9 
ROOT
HETATM    1  C1  UNL     1     -33.887   7.225   6.123  1.00 20.00     0.015 C 
HETATM    2  C2  UNL     1     -33.932   6.654   5.067  1.00 20.00    -0.076 C 
HETATM    3  C5  UNL     1     -33.974   4.438   4.003  1.00 20.00     0.063 C 
HETATM    4  C6  UNL     1     -35.265   6.350   3.018  1.00 20.00     0.063 C 
HETATM    5  C8  UNL     1     -33.989   5.952   3.769  1.00 20.00     0.212 C 
ENDROOT
BRANCH   5   6
HETATM    6  N9  UNL     1     -32.834   6.330   2.977  1.00 20.00     0.108 N 
HETATM    7  H24 UNL     1     -32.933   5.960   2.029  1.00 20.00     0.318 HD
BRANCH   6   8
HETATM    8  C7  UNL     1     -32.695   7.780   2.908  1.00 20.00     0.214 C 
HETATM    9  C3  UNL     1     -32.712   8.213   1.448  1.00 20.00     0.042 C 
HETATM   10  C4  UNL     1     -31.402   8.186   3.600  1.00 20.00     0.042 C 
ENDBRANCH   6   8
ENDBRANCH   5   6
TORSDOF 2
ENDMDL
MODEL 3
REMARK VINA RESULT:      -4.4      1.444      2.113
REMARK  2 active torsions:
REMARK  status: ('A' for Active; 'I' for Inactive)
REMARK    1  A    between atoms: C7_7  and  N9_9 
REMARK    2  A    between atoms: C8_8  and  N9_9 
ROOT
HETATM    1  C1  UNL     1     -31.821   8.159   2.669  1.00 20.00     0.015 C 
HETATM    2  C2  UNL     1     -32.646   7.286   2.696  1.00 20.00    -0.076 C 
HETATM    3  C5  UNL     1     -34.481   6.245   1.434  1.00 20.00     0.063 C 
HETATM    4  C6  UNL     1     -32.971   4.852   2.873  1.00 20.00     0.063 C 
HETATM    5  C8  UNL     1     -33.659   6.213   2.727  1.00 20.00     0.212 C 
ENDROOT
BRANCH   5   6
HETATM    6  N9  UNL     1     -34.537   6.426   3.862  1.00 20.00     0.108 N 
HETATM    7  H24 UNL     1     -35.371   5.845   3.764  1.00 20.00     0.318 HD
BRANCH   6   8
HETATM    8  C7  UNL     1     -33.869   6.089   5.115  1.00 20.00     0.214 C 
HETATM    9  C3  UNL     1     -34.670   5.008   5.829  1.00 20.00     0.042 C 
HETATM   10  C4  UNL     1     -33.741   7.347   5.961  1.00 20.00     0.042 C 
ENDBRANCH   6   8
ENDBRANCH   5   6
TORSDOF 2
ENDMDL
MODEL 4
REMARK VINA RESULT:      -4.2      1.297      3.889
REMARK  2 active torsions:
REMARK  status: ('A' for Active; 'I' for Inactive)
REMARK    1  A    between atoms: C7_7  and  N9_9 
REMARK    2  A    between atoms: C8_8  and  N9_9 
ROOT
HETATM    1  C1  UNL     1     -32.934   4.856   2.572  1.00 20.00     0.015 C 
HETATM    2  C2  UNL     1     -32.943   6.028   2.838  1.00 20.00    -0.076 C 
HETATM    3  C5  UNL     1     -34.013   7.740   4.241  1.00 20.00     0.063 C 
HETATM    4  C6  UNL     1     -31.574   7.895   3.675  1.00 20.00     0.063 C 
HETATM    5  C8  UNL     1     -32.955   7.467   3.167  1.00 20.00     0.212 C 
ENDROOT
BRANCH   5   6
HETATM    6  N9  UNL     1     -33.276   8.221   1.970  1.00 20.00     0.108 N 
HETATM    7  H24 UNL     1     -34.141   8.745   2.118  1.00 20.00     0.318 HD
BRANCH   6   8
HETATM    8  C7  UNL     1     -32.208   9.155   1.633  1.00 20.00     0.214 C 
HETATM    9  C3  UNL     1     -32.813  10.524   1.356  1.00 20.00     0.042 C 
HETATM   10  C4  UNL     1     -31.447   8.622   0.429  1.00 20.00     0.042 C 
ENDBRANCH   6   8
ENDBRANCH   5   6
TORSDOF 2
ENDMDL
MODEL 5
REMARK VINA RESULT:      -4.2      1.095      4.006
REMARK  2 active torsions:
REMARK  status: ('A' for Active; 'I' for Inactive)
REMARK    1  A    between atoms: C7_7  and  N9_9 
REMARK    2  A    between atoms: C8_8  and  N9_9 
ROOT
HETATM    1  C1  UNL     1     -33.884   7.354   5.533  1.00 20.00     0.015 C 
HETATM    2  C2  UNL     1     -33.341   7.436   4.465  1.00 20.00    -0.076 C 
HETATM    3  C5  UNL     1     -31.236   8.034   3.344  1.00 20.00     0.063 C 
HETATM    4  C6  UNL     1     -32.663   6.166   2.468  1.00 20.00     0.063 C 
HETATM    5  C8  UNL     1     -32.673   7.537   3.152  1.00 20.00     0.212 C 
ENDROOT
BRANCH   5   6
HETATM    6  N9  UNL     1     -33.402   8.477   2.323  1.00 20.00     0.108 N 
HETATM    7  H24 UNL     1     -33.951   9.103   2.916  1.00 20.00     0.318 HD
BRANCH   6   8
HETATM    8  C7  UNL     1     -32.494   9.274   1.506  1.00 20.00     0.214 C 
HETATM    9  C3  UNL     1     -32.809  10.750   1.708  1.00 20.00     0.042 C 
HETATM   10  C4  UNL     1     -32.646   8.860   0.050  1.00 20.00     0.042 C 
ENDBRANCH   6   8
ENDBRANCH   5   6
TORSDOF 2
ENDMDL
MODEL 6
REMARK VINA RESULT:      -4.1      1.024      3.696
REMARK  2 active torsions:
REMARK  status: ('A' for Active; 'I' for Inactive)
REMARK    1  A    between atoms: C7_7  and  N9_9 
REMARK    2  A    between atoms: C8_8  and  N9_9 
ROOT
HETATM    1  C1  UNL     1     -32.823   4.538   2.536  1.00 20.00     0.015 C 
HETATM    2  C2  UNL     1     -33.460   5.340   3.163  1.00 20.00    -0.076 C 
HETATM    3  C5  UNL     1     -35.729   6.189   3.583  1.00 20.00     0.063 C 
HETATM    4  C6  UNL     1     -34.039   6.094   5.434  1.00 20.00     0.063 C 
HETATM    5  C8  UNL     1     -34.243   6.326   3.933  1.00 20.00     0.212 C 
ENDROOT
BRANCH   5   6
HETATM    6  N9  UNL     1     -33.788   7.661   3.593  1.00 20.00     0.108 N 
HETATM    7  H24 UNL     1     -33.684   8.215   4.445  1.00 20.00     0.318 HD
BRANCH   6   8
HETATM    8  C7  UNL     1     -32.508   7.618   2.895  1.00 20.00     0.214 C 
HETATM    9  C3  UNL     1     -31.431   8.206   3.796  1.00 20.00     0.042 C 
HETATM   10  C4  UNL     1     -32.632   8.390   1.589  1.00 20.00     0.042 C 
ENDBRANCH   6   8
ENDBRANCH   5   6
TORSDOF 2
ENDMDL
MODEL 7
REMARK VINA RESULT:      -3.8      0.983      2.367
REMARK  2 active torsions:
REMARK  status: ('A' for Active; 'I' for Inactive)
REMARK    1  A    between atoms: C7_7  and  N9_9 
REMARK    2  A    between atoms: C8_8  and  N9_9 
ROOT
HETATM    1  C1  UNL     1     -32.837   4.720   2.330  1.00 20.00     0.015 C 
HETATM    2  C2  UNL     1     -32.911   5.882   2.624  1.00 20.00    -0.076 C 
HETATM    3  C5  UNL     1     -31.662   7.780   3.563  1.00 20.00     0.063 C 
HETATM    4  C6  UNL     1     -33.351   8.139   1.743  1.00 20.00     0.063 C 
HETATM    5  C8  UNL     1     -33.001   7.311   2.984  1.00 20.00     0.212 C 
ENDROOT
BRANCH   5   6
HETATM    6  N9  UNL     1     -34.044   7.482   3.978  1.00 20.00     0.108 N 
HETATM    7  H24 UNL     1     -34.936   7.164   3.596  1.00 20.00     0.318 HD
BRANCH   6   8
HETATM    8  C7  UNL     1     -33.748   6.722   5.187  1.00 20.00     0.214 C 
HETATM    9  C3  UNL     1     -34.782   5.615   5.344  1.00 20.00     0.042 C 
HETATM   10  C4  UNL     1     -33.751   7.668   6.379  1.00 20.00     0.042 C 
ENDBRANCH   6   8
ENDBRANCH   5   6
TORSDOF 2
ENDMDL
MODEL 8
REMARK VINA RESULT:      -3.8     10.194     11.331
REMARK  2 active torsions:
REMARK  status: ('A' for Active; 'I' for Inactive)
REMARK    1  A    between atoms: C7_7  and  N9_9 
REMARK    2  A    between atoms: C8_8  and  N9_9 
ROOT
HETATM    1  C1  UNL     1     -34.786  16.272  -2.684  1.00 20.00     0.015 C 
HETATM    2  C2  UNL     1     -34.312  15.600  -3.559  1.00 20.00    -0.076 C 
HETATM    3  C5  UNL     1     -33.454  15.648  -5.862  1.00 20.00     0.063 C 
HETATM    4  C6  UNL     1     -32.424  14.133  -4.149  1.00 20.00     0.063 C 
HETATM    5  C8  UNL     1     -33.729  14.773  -4.635  1.00 20.00     0.212 C 
ENDROOT
BRANCH   5   6
HETATM    6  N9  UNL     1     -34.669  13.726  -4.988  1.00 20.00     0.108 N 
HETATM    7  H24 UNL     1     -35.317  13.573  -4.212  1.00 20.00     0.318 HD
BRANCH   6   8
HETATM    8  C7  UNL     1     -35.431  14.083  -6.179  1.00 20.00     0.214 C 
HETATM    9  C3  UNL     1     -36.905  14.190  -5.813  1.00 20.00     0.042 C 
HETATM   10  C4  UNL     1     -35.192  13.030  -7.251  1.00 20.00     0.042 C 
ENDBRANCH   6   8
ENDBRANCH   5   6
TORSDOF 2
ENDMDL
MODEL 9
REMARK VINA RESULT:      -3.7      1.256      1.726
REMARK  2 active torsions:
REMARK  status: ('A' for Active; 'I' for Inactive)
REMARK    1  A    between atoms: C7_7  and  N9_9 
REMARK    2  A    between atoms: C8_8  and  N9_9 
ROOT
HETATM    1  C1  UNL     1     -32.946  11.023   1.621  1.00 20.00     0.015 C 
HETATM    2  C2  UNL     1     -32.567   9.893   1.771  1.00 20.00    -0.076 C 
HETATM    3  C5  UNL     1     -31.298   8.065   0.726  1.00 20.00     0.063 C 
HETATM    4  C6  UNL     1     -31.224   8.413   3.209  1.00 20.00     0.063 C 
HETATM    5  C8  UNL     1     -32.101   8.504   1.956  1.00 20.00     0.212 C 
ENDROOT
BRANCH   5   6
HETATM    6  N9  UNL     1     -33.252   7.637   2.116  1.00 20.00     0.108 N 
HETATM    7  H24 UNL     1     -33.416   7.121   1.250  1.00 20.00     0.318 HD
BRANCH   6   8
HETATM    8  C7  UNL     1     -33.048   6.686   3.203  1.00 20.00     0.214 C 
HETATM    9  C3  UNL     1     -33.090   5.272   2.641  1.00 20.00     0.042 C 
HETATM   10  C4  UNL     1     -34.122   6.905   4.259  1.00 20.00     0.042 C 
ENDBRANCH   6   8
ENDBRANCH   5   6
TORSDOF 2
ENDMDL
