MODEL 1
REMARK VINA RESULT:      -5.4      0.000      0.000
REMARK  3 active torsions:
REMARK  status: ('A' for Active; 'I' for Inactive)
REMARK    1  A    between atoms: C2_2  and  C6_6 
REMARK    2  A    between atoms: C2_2  and  C7_7 
REMARK    3  A    between atoms: C7_7  and  C8_8 
ROOT
HETATM    1  C1  UNL     1     -32.554   9.505   1.330  1.00 20.00     0.066 C 
HETATM    2  C6  UNL     1     -32.520   8.059   1.579  1.00 20.00     0.202 C 
HETATM    3  N9  UNL     1     -32.579  10.647   1.128  1.00 20.00    -0.197 NA
ENDROOT
BRANCH   2   4
HETATM    4  C2  UNL     1     -32.174   7.727   3.018  1.00 20.00     0.143 C 
HETATM    5  O10 UNL     1     -31.440   8.438   3.705  1.00 20.00    -0.297 OA
BRANCH   4   6
HETATM    6  C7  UNL     1     -32.821   6.463   3.591  1.00 20.00     0.055 C 
HETATM    7  C3  UNL     1     -33.041   5.497   2.427  1.00 20.00     0.018 C 
BRANCH   6   8
HETATM    8  C8  UNL     1     -34.118   6.805   4.365  1.00 20.00    -0.012 C 
HETATM    9  C4  UNL     1     -33.804   7.187   5.818  1.00 20.00     0.010 C 
HETATM   10  C5  UNL     1     -35.120   5.646   4.362  1.00 20.00     0.010 C 
ENDBRANCH   6   8
ENDBRANCH   4   6
ENDBRANCH   2   4
TORSDOF 3
ENDMDL
MODEL 2
REMARK VINA RESULT:      -5.4      0.627      1.779
REMARK  3 active torsions:
REMARK  status: ('A' for Active; 'I' for Inactive)
REMARK    1  A    between atoms: C2_2  and  C6_6 
REMARK    2  A    between atoms: C2_2  and  C7_7 
REMARK    3  A    between atoms: C7_7  and  C8_8 
ROOT
HETATM    1  C1  UNL     1     -32.593   9.399   1.378  1.00 20.00     0.066 C 
HETATM    2  C6  UNL     1     -32.597   7.982   1.755  1.00 20.00     0.202 C 
HETATM    3  N9  UNL     1     -32.588  10.520   1.077  1.00 20.00    -0.197 NA
ENDROOT
BRANCH   2   4
HETATM    4  C2  UNL     1     -32.540   7.780   3.258  1.00 20.00     0.143 C 
HETATM    5  O10 UNL     1     -31.539   8.047   3.924  1.00 20.00    -0.297 OA
BRANCH   4   6
HETATM    6  C7  UNL     1     -33.818   7.254   3.916  1.00 20.00     0.055 C 
HETATM    7  C3  UNL     1     -33.605   7.304   5.428  1.00 20.00     0.018 C 
BRANCH   6   8
HETATM    8  C8  UNL     1     -34.174   5.843   3.386  1.00 20.00    -0.012 C 
HETATM    9  C4  UNL     1     -34.819   4.991   4.488  1.00 20.00     0.010 C 
HETATM   10  C5  UNL     1     -32.951   5.101   2.836  1.00 20.00     0.010 C 
ENDBRANCH   6   8
ENDBRANCH   4   6
ENDBRANCH   2   4
TORSDOF 3
ENDMDL
MODEL 3
REMARK VINA RESULT:      -5.1      1.023      1.922
REMARK  3 active torsions:
REMARK  status: ('A' for Active; 'I' for Inactive)
REMARK    1  A    between atoms: C2_2  and  C6_6 
REMARK    2  A    between atoms: C2_2  and  C7_7 
REMARK    3  A    between atoms: C7_7  and  C8_8 
ROOT
HETATM    1  C1  UNL     1     -32.500   8.811   1.534  1.00 20.00     0.066 C 
HETATM    2  C6  UNL     1     -32.768   7.559   2.250  1.00 20.00     0.202 C 
HETATM    3  N9  UNL     1     -32.287   9.799   0.964  1.00 20.00    -0.197 NA
ENDROOT
BRANCH   2   4
HETATM    4  C2  UNL     1     -32.620   7.707   3.753  1.00 20.00     0.143 C 
HETATM    5  O10 UNL     1     -31.597   8.149   4.277  1.00 20.00    -0.297 OA
BRANCH   4   6
HETATM    6  C7  UNL     1     -33.835   7.304   4.591  1.00 20.00     0.055 C 
HETATM    7  C3  UNL     1     -33.456   7.488   6.061  1.00 20.00     0.018 C 
BRANCH   6   8
HETATM    8  C8  UNL     1     -34.296   5.867   4.246  1.00 20.00    -0.012 C 
HETATM    9  C4  UNL     1     -35.628   5.886   3.482  1.00 20.00     0.010 C 
HETATM   10  C5  UNL     1     -34.452   4.990   5.493  1.00 20.00     0.010 C 
ENDBRANCH   6   8
ENDBRANCH   4   6
ENDBRANCH   2   4
TORSDOF 3
ENDMDL
MODEL 4
REMARK VINA RESULT:      -5.0      1.611      2.277
REMARK  3 active torsions:
REMARK  status: ('A' for Active; 'I' for Inactive)
REMARK    1  A    between atoms: C2_2  and  C6_6 
REMARK    2  A    between atoms: C2_2  and  C7_7 
REMARK    3  A    between atoms: C7_7  and  C8_8 
ROOT
HETATM    1  C1  UNL     1     -31.975   8.430   1.930  1.00 20.00     0.066 C 
HETATM    2  C6  UNL     1     -32.228   7.686   3.169  1.00 20.00     0.202 C 
HETATM    3  N9  UNL     1     -31.772   9.022   0.953  1.00 20.00    -0.197 NA
ENDROOT
BRANCH   2   4
HETATM    4  C2  UNL     1     -33.485   6.840   3.090  1.00 20.00     0.143 C 
HETATM    5  O10 UNL     1     -33.812   6.232   2.070  1.00 20.00    -0.297 OA
BRANCH   4   6
HETATM    6  C7  UNL     1     -34.319   6.752   4.371  1.00 20.00     0.055 C 
HETATM    7  C3  UNL     1     -33.487   7.365   5.498  1.00 20.00     0.018 C 
BRANCH   6   8
HETATM    8  C8  UNL     1     -34.758   5.293   4.649  1.00 20.00    -0.012 C 
HETATM    9  C4  UNL     1     -34.724   4.987   6.153  1.00 20.00     0.010 C 
HETATM   10  C5  UNL     1     -33.882   4.272   3.915  1.00 20.00     0.010 C 
ENDBRANCH   6   8
ENDBRANCH   4   6
ENDBRANCH   2   4
TORSDOF 3
ENDMDL
MODEL 5
REMARK VINA RESULT:      -4.9      2.788      4.616
REMARK  3 active torsions:
REMARK  status: ('A' for Active; 'I' for Inactive)
REMARK    1  A    between atoms: C2_2  and  C6_6 
REMARK    2  A    between atoms: C2_2  and  C7_7 
REMARK    3  A    between atoms: C7_7  and  C8_8 
ROOT
HETATM    1  C1  UNL     1     -34.280   6.075   5.235  1.00 20.00     0.066 C 
HETATM    2  C6  UNL     1     -33.724   7.251   4.557  1.00 20.00     0.202 C 
HETATM    3  N9  UNL     1     -34.718   5.145   5.775  1.00 20.00    -0.197 NA
ENDROOT
BRANCH   2   4
HETATM    4  C2  UNL     1     -33.301   6.954   3.131  1.00 20.00     0.143 C 
HETATM    5  O10 UNL     1     -33.909   6.160   2.412  1.00 20.00    -0.297 OA
BRANCH   4   6
HETATM    6  C7  UNL     1     -32.085   7.726   2.615  1.00 20.00     0.055 C 
HETATM    7  C3  UNL     1     -31.514   8.516   3.792  1.00 20.00     0.018 C 
BRANCH   6   8
HETATM    8  C8  UNL     1     -32.464   8.612   1.401  1.00 20.00    -0.012 C 
HETATM    9  C4  UNL     1     -31.350   8.599   0.345  1.00 20.00     0.010 C 
HETATM   10  C5  UNL     1     -32.748  10.062   1.805  1.00 20.00     0.010 C 
ENDBRANCH   6   8
ENDBRANCH   4   6
ENDBRANCH   2   4
TORSDOF 3
ENDMDL
MODEL 6
REMARK VINA RESULT:      -4.8      2.832      4.566
REMARK  3 active torsions:
REMARK  status: ('A' for Active; 'I' for Inactive)
REMARK    1  A    between atoms: C2_2  and  C6_6 
REMARK    2  A    between atoms: C2_2  and  C7_7 
REMARK    3  A    between atoms: C7_7  and  C8_8 
ROOT
HETATM    1  C1  UNL     1     -34.078   4.738   3.761  1.00 20.00     0.066 C 
HETATM    2  C6  UNL     1     -33.575   5.638   2.718  1.00 20.00     0.202 C 
HETATM    3  N9  UNL     1     -34.478   4.023   4.584  1.00 20.00    -0.197 NA
ENDROOT
BRANCH   2   4
HETATM    4  C2  UNL     1     -33.299   7.035   3.240  1.00 20.00     0.143 C 
HETATM    5  O10 UNL     1     -33.995   7.569   4.104  1.00 20.00    -0.297 OA
BRANCH   4   6
HETATM    6  C7  UNL     1     -32.074   7.742   2.655  1.00 20.00     0.055 C 
HETATM    7  C3  UNL     1     -31.423   8.537   3.787  1.00 20.00     0.018 C 
BRANCH   6   8
HETATM    8  C8  UNL     1     -32.466   8.611   1.434  1.00 20.00    -0.012 C 
HETATM    9  C4  UNL     1     -31.361   8.588   0.368  1.00 20.00     0.010 C 
HETATM   10  C5  UNL     1     -32.751  10.066   1.822  1.00 20.00     0.010 C 
ENDBRANCH   6   8
ENDBRANCH   4   6
ENDBRANCH   2   4
TORSDOF 3
ENDMDL
MODEL 7
REMARK VINA RESULT:      -4.4      1.486      2.465
REMARK  3 active torsions:
REMARK  status: ('A' for Active; 'I' for Inactive)
REMARK    1  A    between atoms: C2_2  and  C6_6 
REMARK    2  A    between atoms: C2_2  and  C7_7 
REMARK    3  A    between atoms: C7_7  and  C8_8 
ROOT
HETATM    1  C1  UNL     1     -32.206   8.474   2.164  1.00 20.00     0.066 C 
HETATM    2  C6  UNL     1     -31.917   7.904   3.485  1.00 20.00     0.202 C 
HETATM    3  N9  UNL     1     -32.431   8.928   1.120  1.00 20.00    -0.197 NA
ENDROOT
BRANCH   2   4
HETATM    4  C2  UNL     1     -33.142   7.280   4.127  1.00 20.00     0.143 C 
HETATM    5  O10 UNL     1     -33.540   7.604   5.247  1.00 20.00    -0.297 OA
BRANCH   4   6
HETATM    6  C7  UNL     1     -33.886   6.239   3.288  1.00 20.00     0.055 C 
HETATM    7  C3  UNL     1     -35.358   6.291   3.696  1.00 20.00     0.018 C 
BRANCH   6   8
HETATM    8  C8  UNL     1     -33.248   4.837   3.450  1.00 20.00    -0.012 C 
HETATM    9  C4  UNL     1     -33.004   4.184   2.082  1.00 20.00     0.010 C 
HETATM   10  C5  UNL     1     -34.112   3.899   4.300  1.00 20.00     0.010 C 
ENDBRANCH   6   8
ENDBRANCH   4   6
ENDBRANCH   2   4
TORSDOF 3
ENDMDL
MODEL 8
REMARK VINA RESULT:      -4.4     10.551     11.335
REMARK  3 active torsions:
REMARK  status: ('A' for Active; 'I' for Inactive)
REMARK    1  A    between atoms: C2_2  and  C6_6 
REMARK    2  A    between atoms: C2_2  and  C7_7 
REMARK    3  A    between atoms: C7_7  and  C8_8 
ROOT
HETATM    1  C1  UNL     1     -35.328  13.685  -4.731  1.00 20.00     0.066 C 
HETATM    2  C6  UNL     1     -34.577  14.717  -4.009  1.00 20.00     0.202 C 
HETATM    3  N9  UNL     1     -35.919  12.867  -5.305  1.00 20.00    -0.197 NA
ENDROOT
BRANCH   2   4
HETATM    4  C2  UNL     1     -35.439  15.910  -3.637  1.00 20.00     0.143 C 
HETATM    5  O10 UNL     1     -36.669  15.874  -3.672  1.00 20.00    -0.297 OA
BRANCH   4   6
HETATM    6  C7  UNL     1     -34.691  17.164  -3.178  1.00 20.00     0.055 C 
HETATM    7  C3  UNL     1     -33.611  17.456  -4.219  1.00 20.00     0.018 C 
BRANCH   6   8
HETATM    8  C8  UNL     1     -34.137  16.985  -1.743  1.00 20.00    -0.012 C 
HETATM    9  C4  UNL     1     -35.233  17.231  -0.697  1.00 20.00     0.010 C 
HETATM   10  C5  UNL     1     -32.956  17.919  -1.454  1.00 20.00     0.010 C 
ENDBRANCH   6   8
ENDBRANCH   4   6
ENDBRANCH   2   4
TORSDOF 3
ENDMDL
MODEL 9
REMARK VINA RESULT:      -4.3     10.660     11.273
REMARK  3 active torsions:
REMARK  status: ('A' for Active; 'I' for Inactive)
REMARK    1  A    between atoms: C2_2  and  C6_6 
REMARK    2  A    between atoms: C2_2  and  C7_7 
REMARK    3  A    between atoms: C7_7  and  C8_8 
ROOT
HETATM    1  C1  UNL     1     -37.100  14.044  -5.280  1.00 20.00     0.066 C 
HETATM    2  C6  UNL     1     -35.696  13.918  -5.686  1.00 20.00     0.202 C 
HETATM    3  N9  UNL     1     -38.212  14.143  -4.964  1.00 20.00    -0.197 NA
ENDROOT
BRANCH   2   4
HETATM    4  C2  UNL     1     -34.735  14.330  -4.586  1.00 20.00     0.143 C 
HETATM    5  O10 UNL     1     -34.069  13.514  -3.949  1.00 20.00    -0.297 OA
BRANCH   4   6
HETATM    6  C7  UNL     1     -34.611  15.834  -4.329  1.00 20.00     0.055 C 
HETATM    7  C3  UNL     1     -33.312  16.302  -4.984  1.00 20.00     0.018 C 
BRANCH   6   8
HETATM    8  C8  UNL     1     -34.689  16.147  -2.814  1.00 20.00    -0.012 C 
HETATM    9  C4  UNL     1     -36.014  16.837  -2.464  1.00 20.00     0.010 C 
HETATM   10  C5  UNL     1     -33.529  17.031  -2.342  1.00 20.00     0.010 C 
ENDBRANCH   6   8
ENDBRANCH   4   6
ENDBRANCH   2   4
TORSDOF 3
ENDMDL
