MODEL 1
REMARK VINA RESULT:      -4.8      0.000      0.000
REMARK  1 active torsions:
REMARK  status: ('A' for Active; 'I' for Inactive)
REMARK    1  A    between atoms: C10_10  and  N11_11 
ROOT
HETATM    1  C1  UNL     1     -33.163  10.530   1.453  1.00 20.00     0.015 C 
HETATM    2  C2  UNL     1     -32.781   9.486   1.907  1.00 20.00    -0.076 C 
HETATM    3  C8  UNL     1     -32.046   7.213   1.324  1.00 20.00     0.063 C 
HETATM    4  C9  UNL     1     -31.026   8.424   3.269  1.00 20.00     0.063 C 
HETATM    5  C10 UNL     1     -32.311   8.202   2.465  1.00 20.00     0.214 C 
ENDROOT
BRANCH   5   6
HETATM    6  N11 UNL     1     -33.344   7.660   3.349  1.00 20.00     0.110 N 
HETATM    7  C6  UNL     1     -32.862   7.630   4.739  1.00 20.00     0.282 C 
HETATM    8  C4  UNL     1     -33.953   7.155   5.696  1.00 20.00     0.108 C 
HETATM    9  C3  UNL     1     -34.532   5.843   5.227  1.00 20.00     0.130 C 
HETATM   10  C5  UNL     1     -34.877   5.760   3.759  1.00 20.00     0.108 C 
HETATM   11  O12 UNL     1     -34.812   4.938   6.011  1.00 20.00    -0.298 OA
HETATM   12  C7  UNL     1     -33.736   6.312   2.910  1.00 20.00     0.282 C 
ENDBRANCH   5   6
TORSDOF 1
ENDMDL
MODEL 2
REMARK VINA RESULT:      -4.6     10.760     11.851
REMARK  1 active torsions:
REMARK  status: ('A' for Active; 'I' for Inactive)
REMARK    1  A    between atoms: C10_10  and  N11_11 
ROOT
HETATM    1  C1  UNL     1     -32.281  18.169  -0.893  1.00 20.00     0.015 C 
HETATM    2  C2  UNL     1     -33.213  17.808  -1.560  1.00 20.00    -0.076 C 
HETATM    3  C8  UNL     1     -35.511  16.939  -1.463  1.00 20.00     0.063 C 
HETATM    4  C9  UNL     1     -34.815  18.505  -3.295  1.00 20.00     0.063 C 
HETATM    5  C10 UNL     1     -34.358  17.364  -2.380  1.00 20.00     0.214 C 
ENDROOT
BRANCH   5   6
HETATM    6  N11 UNL     1     -33.944  16.226  -3.201  1.00 20.00     0.110 N 
HETATM    7  C6  UNL     1     -33.458  16.691  -4.510  1.00 20.00     0.282 C 
HETATM    8  C4  UNL     1     -32.933  15.531  -5.352  1.00 20.00     0.108 C 
HETATM    9  C3  UNL     1     -33.966  14.434  -5.443  1.00 20.00     0.130 C 
HETATM   10  C5  UNL     1     -34.631  14.043  -4.145  1.00 20.00     0.108 C 
HETATM   11  O12 UNL     1     -34.171  13.820  -6.489  1.00 20.00    -0.298 OA
HETATM   12  C7  UNL     1     -35.062  15.285  -3.370  1.00 20.00     0.282 C 
ENDBRANCH   5   6
TORSDOF 1
ENDMDL
MODEL 3
REMARK VINA RESULT:      -4.5     10.501     11.862
REMARK  1 active torsions:
REMARK  status: ('A' for Active; 'I' for Inactive)
REMARK    1  A    between atoms: C10_10  and  N11_11 
ROOT
HETATM    1  C1  UNL     1     -32.891  17.925  -1.339  1.00 20.00     0.015 C 
HETATM    2  C2  UNL     1     -33.549  17.801  -2.337  1.00 20.00    -0.076 C 
HETATM    3  C8  UNL     1     -35.544  18.619  -3.519  1.00 20.00     0.063 C 
HETATM    4  C9  UNL     1     -33.494  17.940  -4.794  1.00 20.00     0.063 C 
HETATM    5  C10 UNL     1     -34.357  17.649  -3.563  1.00 20.00     0.214 C 
ENDROOT
BRANCH   5   6
HETATM    6  N11 UNL     1     -34.855  16.274  -3.638  1.00 20.00     0.110 N 
HETATM    7  C6  UNL     1     -33.783  15.367  -4.076  1.00 20.00     0.282 C 
HETATM    8  C4  UNL     1     -34.249  13.914  -4.074  1.00 20.00     0.108 C 
HETATM    9  C3  UNL     1     -35.528  13.768  -4.864  1.00 20.00     0.130 C 
HETATM   10  C5  UNL     1     -36.600  14.792  -4.579  1.00 20.00     0.108 C 
HETATM   11  O12 UNL     1     -35.727  12.809  -5.607  1.00 20.00    -0.298 OA
HETATM   12  C7  UNL     1     -36.003  16.197  -4.553  1.00 20.00     0.282 C 
ENDBRANCH   5   6
TORSDOF 1
ENDMDL
MODEL 4
REMARK VINA RESULT:      -4.4     10.979     11.935
REMARK  1 active torsions:
REMARK  status: ('A' for Active; 'I' for Inactive)
REMARK    1  A    between atoms: C10_10  and  N11_11 
ROOT
HETATM    1  C1  UNL     1     -33.289  19.153  -3.442  1.00 20.00     0.015 C 
HETATM    2  C2  UNL     1     -34.197  18.409  -3.187  1.00 20.00    -0.076 C 
HETATM    3  C8  UNL     1     -35.073  16.840  -1.509  1.00 20.00     0.063 C 
HETATM    4  C9  UNL     1     -36.633  18.274  -2.853  1.00 20.00     0.063 C 
HETATM    5  C10 UNL     1     -35.314  17.495  -2.875  1.00 20.00     0.214 C 
ENDROOT
BRANCH   5   6
HETATM    6  N11 UNL     1     -35.384  16.458  -3.906  1.00 20.00     0.110 N 
HETATM    7  C6  UNL     1     -36.712  15.824  -3.902  1.00 20.00     0.282 C 
HETATM    8  C4  UNL     1     -36.844  14.804  -5.029  1.00 20.00     0.108 C 
HETATM    9  C3  UNL     1     -35.701  13.818  -4.986  1.00 20.00     0.130 C 
HETATM   10  C5  UNL     1     -34.323  14.412  -4.808  1.00 20.00     0.108 C 
HETATM   11  O12 UNL     1     -35.868  12.619  -5.198  1.00 20.00    -0.298 OA
HETATM   12  C7  UNL     1     -34.332  15.454  -3.693  1.00 20.00     0.282 C 
ENDBRANCH   5   6
TORSDOF 1
ENDMDL
MODEL 5
REMARK VINA RESULT:      -4.2     11.108     11.941
REMARK  1 active torsions:
REMARK  status: ('A' for Active; 'I' for Inactive)
REMARK    1  A    between atoms: C10_10  and  N11_11 
ROOT
HETATM    1  C1  UNL     1     -34.312  16.705  -1.934  1.00 20.00     0.015 C 
HETATM    2  C2  UNL     1     -34.085  16.447  -3.085  1.00 20.00    -0.076 C 
HETATM    3  C8  UNL     1     -33.406  17.410  -5.243  1.00 20.00     0.063 C 
HETATM    4  C9  UNL     1     -32.674  15.102  -4.589  1.00 20.00     0.063 C 
HETATM    5  C10 UNL     1     -33.806  16.130  -4.500  1.00 20.00     0.214 C 
ENDROOT
BRANCH   5   6
HETATM    6  N11 UNL     1     -35.014  15.569  -5.110  1.00 20.00     0.110 N 
HETATM    7  C6  UNL     1     -36.166  16.448  -4.859  1.00 20.00     0.282 C 
HETATM    8  C4  UNL     1     -37.420  15.935  -5.563  1.00 20.00     0.108 C 
HETATM    9  C3  UNL     1     -37.671  14.489  -5.208  1.00 20.00     0.130 C 
HETATM   10  C5  UNL     1     -36.470  13.575  -5.274  1.00 20.00     0.108 C 
HETATM   11  O12 UNL     1     -38.802  14.060  -4.990  1.00 20.00    -0.298 OA
HETATM   12  C7  UNL     1     -35.270  14.219  -4.586  1.00 20.00     0.282 C 
ENDBRANCH   5   6
TORSDOF 1
ENDMDL
MODEL 6
REMARK VINA RESULT:      -4.2     10.999     11.763
REMARK  1 active torsions:
REMARK  status: ('A' for Active; 'I' for Inactive)
REMARK    1  A    between atoms: C10_10  and  N11_11 
ROOT
HETATM    1  C1  UNL     1     -35.405  19.061  -4.081  1.00 20.00     0.015 C 
HETATM    2  C2  UNL     1     -35.055  18.210  -3.308  1.00 20.00    -0.076 C 
HETATM    3  C8  UNL     1     -33.247  17.523  -1.790  1.00 20.00     0.063 C 
HETATM    4  C9  UNL     1     -35.643  17.048  -1.219  1.00 20.00     0.063 C 
HETATM    5  C10 UNL     1     -34.625  17.165  -2.358  1.00 20.00     0.214 C 
ENDROOT
BRANCH   5   6
HETATM    6  N11 UNL     1     -34.543  15.884  -3.063  1.00 20.00     0.110 N 
HETATM    7  C6  UNL     1     -33.317  15.826  -3.874  1.00 20.00     0.282 C 
HETATM    8  C4  UNL     1     -33.159  14.465  -4.547  1.00 20.00     0.108 C 
HETATM    9  C3  UNL     1     -34.410  14.106  -5.312  1.00 20.00     0.130 C 
HETATM   10  C5  UNL     1     -35.715  14.322  -4.583  1.00 20.00     0.108 C 
HETATM   11  O12 UNL     1     -34.364  13.566  -6.416  1.00 20.00    -0.298 OA
HETATM   12  C7  UNL     1     -35.731  15.691  -3.908  1.00 20.00     0.282 C 
ENDBRANCH   5   6
TORSDOF 1
ENDMDL
MODEL 7
REMARK VINA RESULT:      -4.2     11.040     11.889
REMARK  1 active torsions:
REMARK  status: ('A' for Active; 'I' for Inactive)
REMARK    1  A    between atoms: C10_10  and  N11_11 
ROOT
HETATM    1  C1  UNL     1     -35.735  13.657  -4.921  1.00 20.00     0.015 C 
HETATM    2  C2  UNL     1     -35.230  14.742  -4.804  1.00 20.00    -0.076 C 
HETATM    3  C8  UNL     1     -33.264  16.095  -5.395  1.00 20.00     0.063 C 
HETATM    4  C9  UNL     1     -35.537  17.145  -5.243  1.00 20.00     0.063 C 
HETATM    5  C10 UNL     1     -34.609  16.074  -4.660  1.00 20.00     0.214 C 
ENDROOT
BRANCH   5   6
HETATM    6  N11 UNL     1     -34.392  16.348  -3.238  1.00 20.00     0.110 N 
HETATM    7  C6  UNL     1     -35.661  16.713  -2.590  1.00 20.00     0.282 C 
HETATM    8  C4  UNL     1     -35.479  16.914  -1.088  1.00 20.00     0.108 C 
HETATM    9  C3  UNL     1     -34.358  17.887  -0.816  1.00 20.00     0.130 C 
HETATM   10  C5  UNL     1     -33.085  17.663  -1.598  1.00 20.00     0.108 C 
HETATM   11  O12 UNL     1     -34.435  18.738   0.068  1.00 20.00    -0.298 OA
HETATM   12  C7  UNL     1     -33.400  17.420  -3.072  1.00 20.00     0.282 C 
ENDBRANCH   5   6
TORSDOF 1
ENDMDL
MODEL 8
REMARK VINA RESULT:      -4.1     11.124     12.044
REMARK  1 active torsions:
REMARK  status: ('A' for Active; 'I' for Inactive)
REMARK    1  A    between atoms: C10_10  and  N11_11 
ROOT
HETATM    1  C1  UNL     1     -33.904  14.455  -7.878  1.00 20.00     0.015 C 
HETATM    2  C2  UNL     1     -34.765  14.524  -7.043  1.00 20.00    -0.076 C 
HETATM    3  C8  UNL     1     -37.141  15.039  -6.672  1.00 20.00     0.063 C 
HETATM    4  C9  UNL     1     -36.000  13.247  -5.338  1.00 20.00     0.063 C 
HETATM    5  C10 UNL     1     -35.823  14.610  -6.016  1.00 20.00     0.214 C 
ENDROOT
BRANCH   5   6
HETATM    6  N11 UNL     1     -35.434  15.601  -5.011  1.00 20.00     0.110 N 
HETATM    7  C6  UNL     1     -34.252  15.137  -4.269  1.00 20.00     0.282 C 
HETATM    8  C4  UNL     1     -33.769  16.192  -3.278  1.00 20.00     0.108 C 
HETATM    9  C3  UNL     1     -34.904  16.642  -2.390  1.00 20.00     0.130 C 
HETATM   10  C5  UNL     1     -36.204  16.958  -3.090  1.00 20.00     0.108 C 
HETATM   11  O12 UNL     1     -34.747  16.849  -1.188  1.00 20.00    -0.298 OA
HETATM   12  C7  UNL     1     -36.552  15.860  -4.092  1.00 20.00     0.282 C 
ENDBRANCH   5   6
TORSDOF 1
ENDMDL
MODEL 9
REMARK VINA RESULT:      -4.1     11.371     12.353
REMARK  1 active torsions:
REMARK  status: ('A' for Active; 'I' for Inactive)
REMARK    1  A    between atoms: C10_10  and  N11_11 
ROOT
HETATM    1  C1  UNL     1     -36.718  18.385  -3.455  1.00 20.00     0.015 C 
HETATM    2  C2  UNL     1     -35.778  17.732  -3.820  1.00 20.00    -0.076 C 
HETATM    3  C8  UNL     1     -33.601  17.839  -4.958  1.00 20.00     0.063 C 
HETATM    4  C9  UNL     1     -33.975  16.235  -3.066  1.00 20.00     0.063 C 
HETATM    5  C10 UNL     1     -34.624  16.928  -4.269  1.00 20.00     0.214 C 
ENDROOT
BRANCH   5   6
HETATM    6  N11 UNL     1     -35.088  15.913  -5.216  1.00 20.00     0.110 N 
HETATM    7  C6  UNL     1     -35.698  14.784  -4.496  1.00 20.00     0.282 C 
HETATM    8  C4  UNL     1     -36.274  13.754  -5.464  1.00 20.00     0.108 C 
HETATM    9  C3  UNL     1     -35.232  13.338  -6.474  1.00 20.00     0.130 C 
HETATM   10  C5  UNL     1     -34.446  14.458  -7.113  1.00 20.00     0.108 C 
HETATM   11  O12 UNL     1     -35.110  12.170  -6.838  1.00 20.00    -0.298 OA
HETATM   12  C7  UNL     1     -33.972  15.449  -6.054  1.00 20.00     0.282 C 
ENDBRANCH   5   6
TORSDOF 1
ENDMDL
