MODEL 1
REMARK VINA RESULT:      -6.8      0.000      0.000
REMARK  3 active torsions:
REMARK  status: ('A' for Active; 'I' for Inactive)
REMARK    1  A    between atoms: C2_2  and  C3_3 
REMARK    2  A    between atoms: C3_3  and  C11_11 
REMARK    3  A    between atoms: C11_11  and  C12_12 
ROOT
HETATM    1  C3  UNL     1     -32.030   8.145   2.895  1.00 20.00     0.159 C 
HETATM    2  O13 UNL     1     -31.092   8.658   3.499  1.00 20.00    -0.292 OA
ENDROOT
BRANCH   1   3
HETATM    3  C2  UNL     1     -33.000   7.327   3.627  1.00 20.00    -0.016 C 
HETATM    4  C1  UNL     1     -33.149   7.561   4.939  1.00 20.00    -0.016 C 
HETATM    5  C4  UNL     1     -34.105   6.781   5.796  1.00 20.00     0.028 C 
HETATM    6  C6  UNL     1     -34.641   5.521   5.113  1.00 20.00     0.004 C 
HETATM    7  C7  UNL     1     -34.997   5.787   3.652  1.00 20.00     0.005 C 
HETATM    8  C5  UNL     1     -33.782   6.297   2.870  1.00 20.00     0.042 C 
ENDBRANCH   1   3
BRANCH   1   9
HETATM    9  C11 UNL     1     -32.259   8.323   1.395  1.00 20.00     0.059 C 
HETATM   10  C8  UNL     1     -30.919   8.362   0.657  1.00 20.00     0.018 C 
BRANCH   9  11
HETATM   11  C12 UNL     1     -33.176   9.542   1.127  1.00 20.00    -0.012 C 
HETATM   12  C9  UNL     1     -32.627  10.858   1.688  1.00 20.00     0.010 C 
HETATM   13  C10 UNL     1     -33.472   9.702  -0.368  1.00 20.00     0.010 C 
ENDBRANCH   9  11
ENDBRANCH   1   9
TORSDOF 3
ENDMDL
MODEL 2
REMARK VINA RESULT:      -6.6      0.473      1.415
REMARK  3 active torsions:
REMARK  status: ('A' for Active; 'I' for Inactive)
REMARK    1  A    between atoms: C2_2  and  C3_3 
REMARK    2  A    between atoms: C3_3  and  C11_11 
REMARK    3  A    between atoms: C11_11  and  C12_12 
ROOT
HETATM    1  C3  UNL     1     -32.045   8.157   2.906  1.00 20.00     0.159 C 
HETATM    2  O13 UNL     1     -31.224   8.762   3.590  1.00 20.00    -0.292 OA
ENDROOT
BRANCH   1   3
HETATM    3  C2  UNL     1     -32.944   7.191   3.542  1.00 20.00    -0.016 C 
HETATM    4  C1  UNL     1     -33.160   6.029   2.909  1.00 20.00    -0.016 C 
HETATM    5  C4  UNL     1     -34.068   4.966   3.458  1.00 20.00     0.028 C 
HETATM    6  C6  UNL     1     -34.942   5.454   4.616  1.00 20.00     0.004 C 
HETATM    7  C7  UNL     1     -34.149   6.329   5.583  1.00 20.00     0.005 C 
HETATM    8  C5  UNL     1     -33.549   7.544   4.867  1.00 20.00     0.042 C 
ENDBRANCH   1   3
BRANCH   1   9
HETATM    9  C11 UNL     1     -32.198   8.365   1.400  1.00 20.00     0.059 C 
HETATM   10  C8  UNL     1     -30.821   8.474   0.740  1.00 20.00     0.018 C 
BRANCH   9  11
HETATM   11  C12 UNL     1     -33.146   9.555   1.110  1.00 20.00    -0.012 C 
HETATM   12  C9  UNL     1     -32.622  10.898   1.628  1.00 20.00     0.010 C 
HETATM   13  C10 UNL     1     -33.462   9.666  -0.385  1.00 20.00     0.010 C 
ENDBRANCH   9  11
ENDBRANCH   1   9
TORSDOF 3
ENDMDL
MODEL 3
REMARK VINA RESULT:      -5.0      9.981     10.868
REMARK  3 active torsions:
REMARK  status: ('A' for Active; 'I' for Inactive)
REMARK    1  A    between atoms: C2_2  and  C3_3 
REMARK    2  A    between atoms: C3_3  and  C11_11 
REMARK    3  A    between atoms: C11_11  and  C12_12 
ROOT
HETATM    1  C3  UNL     1     -33.699  16.469  -3.860  1.00 20.00     0.159 C 
HETATM    2  O13 UNL     1     -33.303  17.216  -4.750  1.00 20.00    -0.292 OA
ENDROOT
BRANCH   1   3
HETATM    3  C2  UNL     1     -33.983  17.016  -2.530  1.00 20.00    -0.016 C 
HETATM    4  C1  UNL     1     -35.121  16.637  -1.931  1.00 20.00    -0.016 C 
HETATM    5  C4  UNL     1     -35.525  17.137  -0.574  1.00 20.00     0.028 C 
HETATM    6  C6  UNL     1     -34.693  18.330  -0.095  1.00 20.00     0.004 C 
HETATM    7  C7  UNL     1     -33.212  18.137  -0.409  1.00 20.00     0.005 C 
HETATM    8  C5  UNL     1     -32.983  17.943  -1.911  1.00 20.00     0.042 C 
ENDBRANCH   1   3
BRANCH   1   9
HETATM    9  C11 UNL     1     -33.929  14.972  -4.062  1.00 20.00     0.059 C 
HETATM   10  C8  UNL     1     -32.587  14.241  -4.168  1.00 20.00     0.018 C 
BRANCH   9  11
HETATM   11  C12 UNL     1     -34.890  14.726  -5.251  1.00 20.00    -0.012 C 
HETATM   12  C9  UNL     1     -34.173  14.373  -6.558  1.00 20.00     0.010 C 
HETATM   13  C10 UNL     1     -35.924  13.644  -4.920  1.00 20.00     0.010 C 
ENDBRANCH   9  11
ENDBRANCH   1   9
TORSDOF 3
ENDMDL
MODEL 4
REMARK VINA RESULT:      -5.0      0.890      4.712
REMARK  3 active torsions:
REMARK  status: ('A' for Active; 'I' for Inactive)
REMARK    1  A    between atoms: C2_2  and  C3_3 
REMARK    2  A    between atoms: C3_3  and  C11_11 
REMARK    3  A    between atoms: C11_11  and  C12_12 
ROOT
HETATM    1  C3  UNL     1     -32.363   8.015   3.561  1.00 20.00     0.159 C 
HETATM    2  O13 UNL     1     -31.269   7.955   4.116  1.00 20.00    -0.292 OA
ENDROOT
BRANCH   1   3
HETATM    3  C2  UNL     1     -32.466   8.620   2.231  1.00 20.00    -0.016 C 
HETATM    4  C1  UNL     1     -33.268   9.686   2.091  1.00 20.00    -0.016 C 
HETATM    5  C4  UNL     1     -33.461  10.385   0.775  1.00 20.00     0.028 C 
HETATM    6  C6  UNL     1     -32.919   9.592  -0.417  1.00 20.00     0.004 C 
HETATM    7  C7  UNL     1     -31.565   8.963  -0.099  1.00 20.00     0.005 C 
HETATM    8  C5  UNL     1     -31.657   8.032   1.115  1.00 20.00     0.042 C 
ENDBRANCH   1   3
BRANCH   1   9
HETATM    9  C11 UNL     1     -33.650   7.475   4.183  1.00 20.00     0.059 C 
HETATM   10  C8  UNL     1     -33.459   7.255   5.685  1.00 20.00     0.018 C 
BRANCH   9  11
HETATM   11  C12 UNL     1     -34.143   6.227   3.409  1.00 20.00    -0.012 C 
HETATM   12  C9  UNL     1     -33.014   5.291   2.968  1.00 20.00     0.010 C 
HETATM   13  C10 UNL     1     -35.180   5.441   4.218  1.00 20.00     0.010 C 
ENDBRANCH   9  11
ENDBRANCH   1   9
TORSDOF 3
ENDMDL
MODEL 5
REMARK VINA RESULT:      -4.9      9.970     10.940
REMARK  3 active torsions:
REMARK  status: ('A' for Active; 'I' for Inactive)
REMARK    1  A    between atoms: C2_2  and  C3_3 
REMARK    2  A    between atoms: C3_3  and  C11_11 
REMARK    3  A    between atoms: C11_11  and  C12_12 
ROOT
HETATM    1  C3  UNL     1     -33.931  16.575  -3.688  1.00 20.00     0.159 C 
HETATM    2  O13 UNL     1     -33.552  17.232  -4.654  1.00 20.00    -0.292 OA
ENDROOT
BRANCH   1   3
HETATM    3  C2  UNL     1     -33.983  17.201  -2.364  1.00 20.00    -0.016 C 
HETATM    4  C1  UNL     1     -33.047  18.115  -2.070  1.00 20.00    -0.016 C 
HETATM    5  C4  UNL     1     -32.992  18.817  -0.743  1.00 20.00     0.028 C 
HETATM    6  C6  UNL     1     -33.887  18.175   0.320  1.00 20.00     0.004 C 
HETATM    7  C7  UNL     1     -35.244  17.780  -0.259  1.00 20.00     0.005 C 
HETATM    8  C5  UNL     1     -35.085  16.804  -1.429  1.00 20.00     0.042 C 
ENDBRANCH   1   3
BRANCH   1   9
HETATM    9  C11 UNL     1     -34.374  15.116  -3.787  1.00 20.00     0.059 C 
HETATM   10  C8  UNL     1     -33.179  14.225  -4.139  1.00 20.00     0.018 C 
BRANCH   9  11
HETATM   11  C12 UNL     1     -35.582  14.979  -4.746  1.00 20.00    -0.012 C 
HETATM   12  C9  UNL     1     -35.841  13.541  -5.207  1.00 20.00     0.010 C 
HETATM   13  C10 UNL     1     -36.857  15.559  -4.125  1.00 20.00     0.010 C 
ENDBRANCH   9  11
ENDBRANCH   1   9
TORSDOF 3
ENDMDL
MODEL 6
REMARK VINA RESULT:      -4.9      1.557      2.179
REMARK  3 active torsions:
REMARK  status: ('A' for Active; 'I' for Inactive)
REMARK    1  A    between atoms: C2_2  and  C3_3 
REMARK    2  A    between atoms: C3_3  and  C11_11 
REMARK    3  A    between atoms: C11_11  and  C12_12 
ROOT
HETATM    1  C3  UNL     1     -33.557   6.869   2.033  1.00 20.00     0.159 C 
HETATM    2  O13 UNL     1     -34.191   6.414   1.085  1.00 20.00    -0.292 OA
ENDROOT
BRANCH   1   3
HETATM    3  C2  UNL     1     -33.842   6.392   3.389  1.00 20.00    -0.016 C 
HETATM    4  C1  UNL     1     -33.885   5.067   3.587  1.00 20.00    -0.016 C 
HETATM    5  C4  UNL     1     -34.177   4.459   4.929  1.00 20.00     0.028 C 
HETATM    6  C6  UNL     1     -34.718   5.468   5.946  1.00 20.00     0.004 C 
HETATM    7  C7  UNL     1     -33.959   6.791   5.875  1.00 20.00     0.005 C 
HETATM    8  C5  UNL     1     -34.044   7.405   4.474  1.00 20.00     0.042 C 
ENDBRANCH   1   3
BRANCH   1   9
HETATM    9  C11 UNL     1     -32.455   7.917   1.880  1.00 20.00     0.059 C 
HETATM   10  C8  UNL     1     -31.726   8.115   3.211  1.00 20.00     0.018 C 
BRANCH   9  11
HETATM   11  C12 UNL     1     -33.025   9.217   1.260  1.00 20.00    -0.012 C 
HETATM   12  C9  UNL     1     -32.398  10.494   1.827  1.00 20.00     0.010 C 
HETATM   13  C10 UNL     1     -32.896   9.212  -0.267  1.00 20.00     0.010 C 
ENDBRANCH   9  11
ENDBRANCH   1   9
TORSDOF 3
ENDMDL
MODEL 7
REMARK VINA RESULT:      -4.9     10.330     11.244
REMARK  3 active torsions:
REMARK  status: ('A' for Active; 'I' for Inactive)
REMARK    1  A    between atoms: C2_2  and  C3_3 
REMARK    2  A    between atoms: C3_3  and  C11_11 
REMARK    3  A    between atoms: C11_11  and  C12_12 
ROOT
HETATM    1  C3  UNL     1     -34.795  14.727  -4.420  1.00 20.00     0.159 C 
HETATM    2  O13 UNL     1     -34.470  13.576  -4.139  1.00 20.00    -0.292 OA
ENDROOT
BRANCH   1   3
HETATM    3  C2  UNL     1     -34.750  15.763  -3.385  1.00 20.00    -0.016 C 
HETATM    4  C1  UNL     1     -33.547  16.245  -3.038  1.00 20.00    -0.016 C 
HETATM    5  C4  UNL     1     -33.374  17.301  -1.984  1.00 20.00     0.028 C 
HETATM    6  C6  UNL     1     -34.635  17.535  -1.148  1.00 20.00     0.004 C 
HETATM    7  C7  UNL     1     -35.887  17.551  -2.020  1.00 20.00     0.005 C 
HETATM    8  C5  UNL     1     -36.042  16.238  -2.793  1.00 20.00     0.042 C 
ENDBRANCH   1   3
BRANCH   1   9
HETATM    9  C11 UNL     1     -35.241  15.155  -5.817  1.00 20.00     0.059 C 
HETATM   10  C8  UNL     1     -36.329  14.212  -6.336  1.00 20.00     0.018 C 
BRANCH   9  11
HETATM   11  C12 UNL     1     -34.018  15.304  -6.755  1.00 20.00    -0.012 C 
HETATM   12  C9  UNL     1     -34.011  14.306  -7.918  1.00 20.00     0.010 C 
HETATM   13  C10 UNL     1     -33.901  16.731  -7.300  1.00 20.00     0.010 C 
ENDBRANCH   9  11
ENDBRANCH   1   9
TORSDOF 3
ENDMDL
MODEL 8
REMARK VINA RESULT:      -4.8     10.275     11.252
REMARK  3 active torsions:
REMARK  status: ('A' for Active; 'I' for Inactive)
REMARK    1  A    between atoms: C2_2  and  C3_3 
REMARK    2  A    between atoms: C3_3  and  C11_11 
REMARK    3  A    between atoms: C11_11  and  C12_12 
ROOT
HETATM    1  C3  UNL     1     -34.757  14.687  -4.347  1.00 20.00     0.159 C 
HETATM    2  O13 UNL     1     -34.433  13.556  -3.996  1.00 20.00    -0.292 OA
ENDROOT
BRANCH   1   3
HETATM    3  C2  UNL     1     -34.693  15.788  -3.383  1.00 20.00    -0.016 C 
HETATM    4  C1  UNL     1     -35.823  16.121  -2.740  1.00 20.00    -0.016 C 
HETATM    5  C4  UNL     1     -35.884  17.237  -1.737  1.00 20.00     0.028 C 
HETATM    6  C6  UNL     1     -34.645  18.136  -1.756  1.00 20.00     0.004 C 
HETATM    7  C7  UNL     1     -33.363  17.317  -1.882  1.00 20.00     0.005 C 
HETATM    8  C5  UNL     1     -33.374  16.462  -3.153  1.00 20.00     0.042 C 
ENDBRANCH   1   3
BRANCH   1   9
HETATM    9  C11 UNL     1     -35.220  15.026  -5.763  1.00 20.00     0.059 C 
HETATM   10  C8  UNL     1     -36.249  13.998  -6.241  1.00 20.00     0.018 C 
BRANCH   9  11
HETATM   11  C12 UNL     1     -34.003  15.202  -6.704  1.00 20.00    -0.012 C 
HETATM   12  C9  UNL     1     -34.024  14.267  -7.917  1.00 20.00     0.010 C 
HETATM   13  C10 UNL     1     -33.866  16.654  -7.175  1.00 20.00     0.010 C 
ENDBRANCH   9  11
ENDBRANCH   1   9
TORSDOF 3
ENDMDL
MODEL 9
REMARK VINA RESULT:      -4.7      9.698     10.921
REMARK  3 active torsions:
REMARK  status: ('A' for Active; 'I' for Inactive)
REMARK    1  A    between atoms: C2_2  and  C3_3 
REMARK    2  A    between atoms: C3_3  and  C11_11 
REMARK    3  A    between atoms: C11_11  and  C12_12 
ROOT
HETATM    1  C3  UNL     1     -34.773  16.405  -2.815  1.00 20.00     0.159 C 
HETATM    2  O13 UNL     1     -35.921  15.972  -2.856  1.00 20.00    -0.292 OA
ENDROOT
BRANCH   1   3
HETATM    3  C2  UNL     1     -34.340  17.196  -1.660  1.00 20.00    -0.016 C 
HETATM    4  C1  UNL     1     -33.096  17.696  -1.677  1.00 20.00    -0.016 C 
HETATM    5  C4  UNL     1     -32.538  18.514  -0.548  1.00 20.00     0.028 C 
HETATM    6  C6  UNL     1     -33.389  18.454   0.723  1.00 20.00     0.004 C 
HETATM    7  C7  UNL     1     -34.879  18.546   0.400  1.00 20.00     0.005 C 
HETATM    8  C5  UNL     1     -35.314  17.419  -0.542  1.00 20.00     0.042 C 
ENDBRANCH   1   3
BRANCH   1   9
HETATM    9  C11 UNL     1     -33.741  16.151  -3.912  1.00 20.00     0.059 C 
HETATM   10  C8  UNL     1     -33.932  17.150  -5.056  1.00 20.00     0.018 C 
BRANCH   9  11
HETATM   11  C12 UNL     1     -33.764  14.665  -4.346  1.00 20.00    -0.012 C 
HETATM   12  C9  UNL     1     -34.152  14.460  -5.814  1.00 20.00     0.010 C 
HETATM   13  C10 UNL     1     -32.423  13.979  -4.066  1.00 20.00     0.010 C 
ENDBRANCH   9  11
ENDBRANCH   1   9
TORSDOF 3
ENDMDL
