MODEL 1
REMARK VINA RESULT:      -4.5      0.000      0.000
REMARK  2 active torsions:
REMARK  status: ('A' for Active; 'I' for Inactive)
REMARK    1  A    between atoms: C4_4  and  C5_5 
REMARK    2  A    between atoms: C5_5  and  N6_6 
ROOT
HETATM    1  C1  UNL     1     -34.722   5.025   5.551  1.00 20.00     0.012 C 
HETATM    2  C2  UNL     1     -34.237   6.026   5.098  1.00 20.00    -0.116 C 
HETATM    3  C4  UNL     1     -33.644   7.254   4.547  1.00 20.00     0.115 C 
ENDROOT
BRANCH   3   4
HETATM    4  C5  UNL     1     -33.011   7.016   3.181  1.00 20.00     0.162 C 
BRANCH   4   5
HETATM    5  N6  UNL     1     -31.973   8.021   2.934  1.00 20.00    -0.275 NA
HETATM    6  C3  UNL     1     -32.152   8.692   1.988  1.00 20.00     0.157 C 
HETATM    7  S7  UNL     1     -32.368   9.616   0.709  1.00 20.00    -0.055 SA
ENDBRANCH   4   5
ENDBRANCH   3   4
TORSDOF 2
ENDMDL
MODEL 2
REMARK VINA RESULT:      -4.5      1.016      1.016
REMARK  2 active torsions:
REMARK  status: ('A' for Active; 'I' for Inactive)
REMARK    1  A    between atoms: C4_4  and  C5_5 
REMARK    2  A    between atoms: C5_5  and  N6_6 
ROOT
HETATM    1  C1  UNL     1     -34.626   5.030   5.805  1.00 20.00     0.012 C 
HETATM    2  C2  UNL     1     -34.596   5.472   4.688  1.00 20.00    -0.116 C 
HETATM    3  C4  UNL     1     -34.563   6.013   3.321  1.00 20.00     0.115 C 
ENDROOT
BRANCH   3   4
HETATM    4  C5  UNL     1     -33.142   6.099   2.778  1.00 20.00     0.162 C 
BRANCH   4   5
HETATM    5  N6  UNL     1     -32.530   7.366   3.189  1.00 20.00    -0.275 NA
HETATM    6  C3  UNL     1     -32.426   8.163   2.333  1.00 20.00     0.157 C 
HETATM    7  S7  UNL     1     -32.271   9.264   1.192  1.00 20.00    -0.055 SA
ENDBRANCH   4   5
ENDBRANCH   3   4
TORSDOF 2
ENDMDL
MODEL 3
REMARK VINA RESULT:      -4.4      0.967      1.197
REMARK  2 active torsions:
REMARK  status: ('A' for Active; 'I' for Inactive)
REMARK    1  A    between atoms: C4_4  and  C5_5 
REMARK    2  A    between atoms: C5_5  and  N6_6 
ROOT
HETATM    1  C1  UNL     1     -33.759   7.321   6.058  1.00 20.00     0.012 C 
HETATM    2  C2  UNL     1     -33.938   6.907   4.945  1.00 20.00    -0.116 C 
HETATM    3  C4  UNL     1     -34.162   6.400   3.583  1.00 20.00     0.115 C 
ENDROOT
BRANCH   3   4
HETATM    4  C5  UNL     1     -32.893   6.453   2.742  1.00 20.00     0.162 C 
BRANCH   4   5
HETATM    5  N6  UNL     1     -32.227   7.744   2.930  1.00 20.00    -0.275 NA
HETATM    6  C3  UNL     1     -32.267   8.460   2.000  1.00 20.00     0.157 C 
HETATM    7  S7  UNL     1     -32.304   9.452   0.754  1.00 20.00    -0.055 SA
ENDBRANCH   4   5
ENDBRANCH   3   4
TORSDOF 2
ENDMDL
MODEL 4
REMARK VINA RESULT:      -4.4      1.015      1.150
REMARK  2 active torsions:
REMARK  status: ('A' for Active; 'I' for Inactive)
REMARK    1  A    between atoms: C4_4  and  C5_5 
REMARK    2  A    between atoms: C5_5  and  N6_6 
ROOT
HETATM    1  C1  UNL     1     -34.773   4.628   4.844  1.00 20.00     0.012 C 
HETATM    2  C2  UNL     1     -34.421   5.721   5.195  1.00 20.00    -0.116 C 
HETATM    3  C4  UNL     1     -33.991   7.059   5.628  1.00 20.00     0.115 C 
ENDROOT
BRANCH   3   4
HETATM    4  C5  UNL     1     -32.880   7.612   4.745  1.00 20.00     0.162 C 
BRANCH   4   5
HETATM    5  N6  UNL     1     -33.086   7.181   3.359  1.00 20.00    -0.275 NA
HETATM    6  C3  UNL     1     -32.698   7.933   2.546  1.00 20.00     0.157 C 
HETATM    7  S7  UNL     1     -32.180   8.934   1.420  1.00 20.00    -0.055 SA
ENDBRANCH   4   5
ENDBRANCH   3   4
TORSDOF 2
ENDMDL
MODEL 5
REMARK VINA RESULT:      -4.3      2.808      4.688
REMARK  2 active torsions:
REMARK  status: ('A' for Active; 'I' for Inactive)
REMARK    1  A    between atoms: C4_4  and  C5_5 
REMARK    2  A    between atoms: C5_5  and  N6_6 
ROOT
HETATM    1  C1  UNL     1     -32.628  10.167   0.736  1.00 20.00     0.012 C 
HETATM    2  C2  UNL     1     -32.303   9.343   1.548  1.00 20.00    -0.116 C 
HETATM    3  C4  UNL     1     -31.901   8.338   2.543  1.00 20.00     0.115 C 
ENDROOT
BRANCH   3   4
HETATM    4  C5  UNL     1     -32.921   7.210   2.654  1.00 20.00     0.162 C 
BRANCH   4   5
HETATM    5  N6  UNL     1     -33.618   7.298   3.940  1.00 20.00    -0.275 NA
HETATM    6  C3  UNL     1     -34.072   6.286   4.325  1.00 20.00     0.157 C 
HETATM    7  S7  UNL     1     -34.699   4.928   4.871  1.00 20.00    -0.055 SA
ENDBRANCH   4   5
ENDBRANCH   3   4
TORSDOF 2
ENDMDL
MODEL 6
REMARK VINA RESULT:      -4.1      2.608      4.607
REMARK  2 active torsions:
REMARK  status: ('A' for Active; 'I' for Inactive)
REMARK    1  A    between atoms: C4_4  and  C5_5 
REMARK    2  A    between atoms: C5_5  and  N6_6 
ROOT
HETATM    1  C1  UNL     1     -33.060   9.404  -0.488  1.00 20.00     0.012 C 
HETATM    2  C2  UNL     1     -32.684   9.366   0.652  1.00 20.00    -0.116 C 
HETATM    3  C4  UNL     1     -32.224   9.323   2.048  1.00 20.00     0.115 C 
ENDROOT
BRANCH   3   4
HETATM    4  C5  UNL     1     -31.948   7.898   2.512  1.00 20.00     0.162 C 
BRANCH   4   5
HETATM    5  N6  UNL     1     -33.206   7.249   2.893  1.00 20.00    -0.275 NA
HETATM    6  C3  UNL     1     -33.417   7.224   4.048  1.00 20.00     0.157 C 
HETATM    7  S7  UNL     1     -33.729   7.174   5.609  1.00 20.00    -0.055 SA
ENDBRANCH   4   5
ENDBRANCH   3   4
TORSDOF 2
ENDMDL
MODEL 7
REMARK VINA RESULT:      -4.0      1.489      1.942
REMARK  2 active torsions:
REMARK  status: ('A' for Active; 'I' for Inactive)
REMARK    1  A    between atoms: C4_4  and  C5_5 
REMARK    2  A    between atoms: C5_5  and  N6_6 
ROOT
HETATM    1  C1  UNL     1     -34.031   3.842   4.225  1.00 20.00     0.012 C 
HETATM    2  C2  UNL     1     -34.211   4.806   4.919  1.00 20.00    -0.116 C 
HETATM    3  C4  UNL     1     -34.433   5.983   5.772  1.00 20.00     0.115 C 
ENDROOT
BRANCH   3   4
HETATM    4  C5  UNL     1     -33.722   7.218   5.231  1.00 20.00     0.162 C 
BRANCH   4   5
HETATM    5  N6  UNL     1     -33.970   7.342   3.792  1.00 20.00    -0.275 NA
HETATM    6  C3  UNL     1     -33.066   7.760   3.171  1.00 20.00     0.157 C 
HETATM    7  S7  UNL     1     -31.857   8.325   2.301  1.00 20.00    -0.055 SA
ENDBRANCH   4   5
ENDBRANCH   3   4
TORSDOF 2
ENDMDL
MODEL 8
REMARK VINA RESULT:      -3.8      2.711      4.397
REMARK  2 active torsions:
REMARK  status: ('A' for Active; 'I' for Inactive)
REMARK    1  A    between atoms: C4_4  and  C5_5 
REMARK    2  A    between atoms: C5_5  and  N6_6 
ROOT
HETATM    1  C1  UNL     1     -31.928   9.202   0.762  1.00 20.00     0.012 C 
HETATM    2  C2  UNL     1     -32.125   8.506   1.721  1.00 20.00    -0.116 C 
HETATM    3  C4  UNL     1     -32.366   7.657   2.898  1.00 20.00     0.115 C 
ENDROOT
BRANCH   3   4
HETATM    4  C5  UNL     1     -33.117   6.383   2.535  1.00 20.00     0.162 C 
BRANCH   4   5
HETATM    5  N6  UNL     1     -34.242   6.192   3.455  1.00 20.00    -0.275 NA
HETATM    6  C3  UNL     1     -34.066   6.603   4.541  1.00 20.00     0.157 C 
HETATM    7  S7  UNL     1     -33.855   7.151   6.021  1.00 20.00    -0.055 SA
ENDBRANCH   4   5
ENDBRANCH   3   4
TORSDOF 2
ENDMDL
MODEL 9
REMARK VINA RESULT:      -3.4      2.334      2.425
REMARK  2 active torsions:
REMARK  status: ('A' for Active; 'I' for Inactive)
REMARK    1  A    between atoms: C4_4  and  C5_5 
REMARK    2  A    between atoms: C5_5  and  N6_6 
ROOT
HETATM    1  C1  UNL     1     -34.681   4.835   5.807  1.00 20.00     0.012 C 
HETATM    2  C2  UNL     1     -34.300   5.974   5.813  1.00 20.00    -0.116 C 
HETATM    3  C4  UNL     1     -33.836   7.369   5.823  1.00 20.00     0.115 C 
ENDROOT
BRANCH   3   4
HETATM    4  C5  UNL     1     -32.837   7.644   4.706  1.00 20.00     0.162 C 
BRANCH   4   5
HETATM    5  N6  UNL     1     -33.468   7.401   3.406  1.00 20.00    -0.275 NA
HETATM    6  C3  UNL     1     -33.284   6.331   2.960  1.00 20.00     0.157 C 
HETATM    7  S7  UNL     1     -33.050   4.887   2.330  1.00 20.00    -0.055 SA
ENDBRANCH   4   5
ENDBRANCH   3   4
TORSDOF 2
ENDMDL
