MODEL 1
REMARK VINA RESULT:      -4.2      0.000      0.000
REMARK  1 active torsions:
REMARK  status: ('A' for Active; 'I' for Inactive)
REMARK    1  A    between atoms: C7_7  and  N9_9 
ROOT
HETATM    1  C1  UNL     1     -32.055   8.512   1.771  1.00 20.00     0.089 C 
HETATM    2  C7  UNL     1     -32.995   8.489   2.889  1.00 20.00     0.396 C 
HETATM    3  N8  UNL     1     -31.309   8.535   0.882  1.00 20.00    -0.195 NA
ENDROOT
BRANCH   2   4
HETATM    4  N9  UNL     1     -33.126   7.136   3.432  1.00 20.00     0.107 N 
HETATM    5  C2  UNL     1     -33.266   6.155   2.356  1.00 20.00     0.284 C 
HETATM    6  C3  UNL     1     -33.049   4.731   2.868  1.00 20.00     0.104 C 
HETATM    7  S10 UNL     1     -34.124   4.263   4.257  1.00 20.00    -0.165 SA
HETATM    8  C4  UNL     1     -35.070   5.802   4.415  1.00 20.00     0.109 C 
HETATM    9  C5  UNL     1     -34.193   7.068   4.452  1.00 20.00     0.229 C 
HETATM   10  C6  UNL     1     -33.542   7.243   5.833  1.00 20.00     0.043 C 
ENDBRANCH   2   4
TORSDOF 1
ENDMDL
MODEL 2
REMARK VINA RESULT:      -4.0     11.410     12.202
REMARK  1 active torsions:
REMARK  status: ('A' for Active; 'I' for Inactive)
REMARK    1  A    between atoms: C7_7  and  N9_9 
ROOT
HETATM    1  C1  UNL     1     -36.053  13.884  -5.060  1.00 20.00     0.089 C 
HETATM    2  C7  UNL     1     -36.279  15.293  -4.749  1.00 20.00     0.396 C 
HETATM    3  N8  UNL     1     -35.876  12.764  -5.309  1.00 20.00    -0.195 NA
ENDROOT
BRANCH   2   4
HETATM    4  N9  UNL     1     -35.315  15.769  -3.755  1.00 20.00     0.107 N 
HETATM    5  C2  UNL     1     -35.972  16.616  -2.758  1.00 20.00     0.284 C 
HETATM    6  C3  UNL     1     -35.082  16.830  -1.535  1.00 20.00     0.104 C 
HETATM    7  S10 UNL     1     -33.437  17.506  -1.914  1.00 20.00    -0.165 SA
HETATM    8  C4  UNL     1     -33.605  17.665  -3.713  1.00 20.00     0.109 C 
HETATM    9  C5  UNL     1     -34.144  16.396  -4.400  1.00 20.00     0.229 C 
HETATM   10  C6  UNL     1     -33.044  15.332  -4.525  1.00 20.00     0.043 C 
ENDBRANCH   2   4
TORSDOF 1
ENDMDL
MODEL 3
REMARK VINA RESULT:      -3.8     11.713     12.714
REMARK  1 active torsions:
REMARK  status: ('A' for Active; 'I' for Inactive)
REMARK    1  A    between atoms: C7_7  and  N9_9 
ROOT
HETATM    1  C1  UNL     1     -36.370  13.820  -4.960  1.00 20.00     0.089 C 
HETATM    2  C7  UNL     1     -37.031  15.032  -4.481  1.00 20.00     0.396 C 
HETATM    3  N8  UNL     1     -35.849  12.855  -5.339  1.00 20.00    -0.195 NA
ENDROOT
BRANCH   2   4
HETATM    4  N9  UNL     1     -36.095  16.157  -4.446  1.00 20.00     0.107 N 
HETATM    5  C2  UNL     1     -35.649  16.503  -5.796  1.00 20.00     0.284 C 
HETATM    6  C3  UNL     1     -34.966  17.871  -5.825  1.00 20.00     0.104 C 
HETATM    7  S10 UNL     1     -33.575  18.037  -4.666  1.00 20.00    -0.165 SA
HETATM    8  C4  UNL     1     -33.598  16.369  -3.954  1.00 20.00     0.109 C 
HETATM    9  C5  UNL     1     -34.994  15.911  -3.492  1.00 20.00     0.229 C 
HETATM   10  C6  UNL     1     -35.369  16.564  -2.154  1.00 20.00     0.043 C 
ENDBRANCH   2   4
TORSDOF 1
ENDMDL
MODEL 4
REMARK VINA RESULT:      -3.8     11.500     12.622
REMARK  1 active torsions:
REMARK  status: ('A' for Active; 'I' for Inactive)
REMARK    1  A    between atoms: C7_7  and  N9_9 
ROOT
HETATM    1  C1  UNL     1     -35.228  13.638  -4.728  1.00 20.00     0.089 C 
HETATM    2  C7  UNL     1     -34.249  14.473  -4.036  1.00 20.00     0.396 C 
HETATM    3  N8  UNL     1     -36.003  12.971  -5.278  1.00 20.00    -0.195 NA
ENDROOT
BRANCH   2   4
HETATM    4  N9  UNL     1     -34.646  15.882  -4.074  1.00 20.00     0.107 N 
HETATM    5  C2  UNL     1     -34.410  16.452  -5.401  1.00 20.00     0.284 C 
HETATM    6  C3  UNL     1     -35.130  17.790  -5.569  1.00 20.00     0.104 C 
HETATM    7  S10 UNL     1     -34.722  19.025  -4.298  1.00 20.00    -0.165 SA
HETATM    8  C4  UNL     1     -33.529  18.057  -3.335  1.00 20.00     0.109 C 
HETATM    9  C5  UNL     1     -34.025  16.645  -2.971  1.00 20.00     0.229 C 
HETATM   10  C6  UNL     1     -35.027  16.699  -1.808  1.00 20.00     0.043 C 
ENDBRANCH   2   4
TORSDOF 1
ENDMDL
MODEL 5
REMARK VINA RESULT:      -3.7     11.803     12.967
REMARK  1 active torsions:
REMARK  status: ('A' for Active; 'I' for Inactive)
REMARK    1  A    between atoms: C7_7  and  N9_9 
ROOT
HETATM    1  C1  UNL     1     -37.005  13.898  -5.219  1.00 20.00     0.089 C 
HETATM    2  C7  UNL     1     -35.608  13.598  -5.524  1.00 20.00     0.396 C 
HETATM    3  N8  UNL     1     -38.116  14.132  -4.979  1.00 20.00    -0.195 NA
ENDROOT
BRANCH   2   4
HETATM    4  N9  UNL     1     -34.759  14.767  -5.285  1.00 20.00     0.107 N 
HETATM    5  C2  UNL     1     -34.845  15.194  -3.888  1.00 20.00     0.284 C 
HETATM    6  C3  UNL     1     -33.722  16.169  -3.533  1.00 20.00     0.104 C 
HETATM    7  S10 UNL     1     -33.633  17.632  -4.608  1.00 20.00    -0.165 SA
HETATM    8  C4  UNL     1     -35.041  17.273  -5.693  1.00 20.00     0.109 C 
HETATM    9  C5  UNL     1     -35.038  15.841  -6.261  1.00 20.00     0.229 C 
HETATM   10  C6  UNL     1     -34.028  15.711  -7.411  1.00 20.00     0.043 C 
ENDBRANCH   2   4
TORSDOF 1
ENDMDL
MODEL 6
REMARK VINA RESULT:      -3.6     11.693     12.666
REMARK  1 active torsions:
REMARK  status: ('A' for Active; 'I' for Inactive)
REMARK    1  A    between atoms: C7_7  and  N9_9 
ROOT
HETATM    1  C1  UNL     1     -37.965  15.080  -4.748  1.00 20.00     0.089 C 
HETATM    2  C7  UNL     1     -37.399  16.396  -4.462  1.00 20.00     0.396 C 
HETATM    3  N8  UNL     1     -38.419  14.036  -4.974  1.00 20.00    -0.195 NA
ENDROOT
BRANCH   2   4
HETATM    4  N9  UNL     1     -35.950  16.399  -4.679  1.00 20.00     0.107 N 
HETATM    5  C2  UNL     1     -35.635  16.116  -6.079  1.00 20.00     0.284 C 
HETATM    6  C3  UNL     1     -34.180  16.458  -6.403  1.00 20.00     0.104 C 
HETATM    7  S10 UNL     1     -32.962  15.640  -5.330  1.00 20.00    -0.165 SA
HETATM    8  C4  UNL     1     -34.098  14.685  -4.287  1.00 20.00     0.109 C 
HETATM    9  C5  UNL     1     -35.262  15.516  -3.715  1.00 20.00     0.229 C 
HETATM   10  C6  UNL     1     -34.790  16.378  -2.534  1.00 20.00     0.043 C 
ENDBRANCH   2   4
TORSDOF 1
ENDMDL
MODEL 7
REMARK VINA RESULT:      -3.6      1.277      2.396
REMARK  1 active torsions:
REMARK  status: ('A' for Active; 'I' for Inactive)
REMARK    1  A    between atoms: C7_7  and  N9_9 
ROOT
HETATM    1  C1  UNL     1     -32.479   9.154   1.721  1.00 20.00     0.089 C 
HETATM    2  C7  UNL     1     -31.951   8.068   2.544  1.00 20.00     0.396 C 
HETATM    3  N8  UNL     1     -32.894  10.018   1.066  1.00 20.00    -0.195 NA
ENDROOT
BRANCH   2   4
HETATM    4  N9  UNL     1     -33.018   7.443   3.328  1.00 20.00     0.107 N 
HETATM    5  C2  UNL     1     -32.721   7.514   4.759  1.00 20.00     0.284 C 
HETATM    6  C3  UNL     1     -33.956   7.196   5.601  1.00 20.00     0.104 C 
HETATM    7  S10 UNL     1     -34.730   5.595   5.222  1.00 20.00    -0.165 SA
HETATM    8  C4  UNL     1     -33.588   5.028   3.932  1.00 20.00     0.109 C 
HETATM    9  C5  UNL     1     -33.314   6.079   2.841  1.00 20.00     0.229 C 
HETATM   10  C6  UNL     1     -34.491   6.170   1.859  1.00 20.00     0.043 C 
ENDBRANCH   2   4
TORSDOF 1
ENDMDL
MODEL 8
REMARK VINA RESULT:      -3.6     11.759     12.600
REMARK  1 active torsions:
REMARK  status: ('A' for Active; 'I' for Inactive)
REMARK    1  A    between atoms: C7_7  and  N9_9 
ROOT
HETATM    1  C1  UNL     1     -34.642  13.559  -6.837  1.00 20.00     0.089 C 
HETATM    2  C7  UNL     1     -34.090  14.910  -6.906  1.00 20.00     0.396 C 
HETATM    3  N8  UNL     1     -35.080  12.485  -6.786  1.00 20.00    -0.195 NA
ENDROOT
BRANCH   2   4
HETATM    4  N9  UNL     1     -34.417  15.670  -5.698  1.00 20.00     0.107 N 
HETATM    5  C2  UNL     1     -33.688  15.148  -4.542  1.00 20.00     0.284 C 
HETATM    6  C3  UNL     1     -33.734  16.124  -3.367  1.00 20.00     0.104 C 
HETATM    7  S10 UNL     1     -35.412  16.604  -2.857  1.00 20.00    -0.165 SA
HETATM    8  C4  UNL     1     -36.362  15.614  -4.044  1.00 20.00     0.109 C 
HETATM    9  C5  UNL     1     -35.879  15.758  -5.499  1.00 20.00     0.229 C 
HETATM   10  C6  UNL     1     -36.363  17.082  -6.108  1.00 20.00     0.043 C 
ENDBRANCH   2   4
TORSDOF 1
ENDMDL
MODEL 9
REMARK VINA RESULT:      -3.6     11.641     12.600
REMARK  1 active torsions:
REMARK  status: ('A' for Active; 'I' for Inactive)
REMARK    1  A    between atoms: C7_7  and  N9_9 
ROOT
HETATM    1  C1  UNL     1     -36.195  13.885  -5.453  1.00 20.00     0.089 C 
HETATM    2  C7  UNL     1     -36.612  15.255  -5.742  1.00 20.00     0.396 C 
HETATM    3  N8  UNL     1     -35.867  12.795  -5.225  1.00 20.00    -0.195 NA
ENDROOT
BRANCH   2   4
HETATM    4  N9  UNL     1     -35.769  16.218  -5.032  1.00 20.00     0.107 N 
HETATM    5  C2  UNL     1     -34.359  16.024  -5.370  1.00 20.00     0.284 C 
HETATM    6  C3  UNL     1     -33.510  17.217  -4.931  1.00 20.00     0.104 C 
HETATM    7  S10 UNL     1     -33.657  17.632  -3.167  1.00 20.00    -0.165 SA
HETATM    8  C4  UNL     1     -34.814  16.329  -2.665  1.00 20.00     0.109 C 
HETATM    9  C5  UNL     1     -36.047  16.207  -3.581  1.00 20.00     0.229 C 
HETATM   10  C6  UNL     1     -37.062  17.321  -3.283  1.00 20.00     0.043 C 
ENDBRANCH   2   4
TORSDOF 1
ENDMDL
