MODEL 1
REMARK VINA RESULT:      -5.1      0.000      0.000
REMARK  0 active torsions:
REMARK  status: ('A' for Active; 'I' for Inactive)
ROOT
HETATM    1  C1  UNL     1     -35.859  13.862  -6.835  1.00 20.00     0.000 C 
HETATM    2  C2  UNL     1     -34.439  13.914  -7.381  1.00 20.00     0.000 C 
HETATM    3  C3  UNL     1     -35.974  13.513  -5.357  1.00 20.00     0.003 C 
HETATM    4  C4  UNL     1     -33.772  15.264  -7.140  1.00 20.00     0.003 C 
HETATM    5  C5  UNL     1     -34.885  14.020  -4.410  1.00 20.00     0.038 C 
HETATM    6  C6  UNL     1     -33.309  15.520  -5.707  1.00 20.00     0.038 C 
HETATM    7  C7  UNL     1     -34.784  18.211  -3.620  1.00 20.00     0.046 C 
HETATM    8  C8  UNL     1     -33.785  15.945  -3.247  1.00 20.00     0.058 C 
HETATM    9  C9  UNL     1     -35.294  17.694  -4.957  1.00 20.00     0.170 C 
HETATM   10  C10 UNL     1     -33.528  17.453  -3.207  1.00 20.00     0.087 C 
HETATM   11  C11 UNL     1     -34.393  15.478  -4.599  1.00 20.00     0.062 C 
HETATM   12  O12 UNL     1     -35.532  16.290  -4.913  1.00 20.00    -0.380 OA
HETATM   13 CL13 UNL     1     -33.021  17.949  -1.568  1.00 20.00    -0.125 Cl
ENDROOT
TORSDOF 0
ENDMDL
MODEL 2
REMARK VINA RESULT:      -4.9     11.039     12.488
REMARK  0 active torsions:
REMARK  status: ('A' for Active; 'I' for Inactive)
ROOT
HETATM    1  C1  UNL     1     -33.696   4.714   5.158  1.00 20.00     0.000 C 
HETATM    2  C2  UNL     1     -34.553   5.758   5.859  1.00 20.00     0.000 C 
HETATM    3  C3  UNL     1     -33.963   4.549   3.667  1.00 20.00     0.003 C 
HETATM    4  C4  UNL     1     -33.978   7.165   5.729  1.00 20.00     0.003 C 
HETATM    5  C5  UNL     1     -34.340   5.793   2.861  1.00 20.00     0.038 C 
HETATM    6  C6  UNL     1     -34.162   7.824   4.364  1.00 20.00     0.038 C 
HETATM    7  C7  UNL     1     -31.276   8.686   2.196  1.00 20.00     0.046 C 
HETATM    8  C8  UNL     1     -33.661   7.993   1.878  1.00 20.00     0.058 C 
HETATM    9  C9  UNL     1     -31.263   7.831   3.454  1.00 20.00     0.170 C 
HETATM   10  C10 UNL     1     -32.689   9.175   1.906  1.00 20.00     0.087 C 
HETATM   11  C11 UNL     1     -33.547   7.095   3.141  1.00 20.00     0.062 C 
HETATM   12  O12 UNL     1     -32.173   6.739   3.347  1.00 20.00    -0.380 OA
HETATM   13 CL13 UNL     1     -32.731  10.045   0.347  1.00 20.00    -0.125 Cl
ENDROOT
TORSDOF 0
ENDMDL
MODEL 3
REMARK VINA RESULT:      -4.8      2.628      4.837
REMARK  0 active torsions:
REMARK  status: ('A' for Active; 'I' for Inactive)
ROOT
HETATM    1  C1  UNL     1     -33.055  17.983  -1.485  1.00 20.00     0.000 C 
HETATM    2  C2  UNL     1     -33.254  19.008  -2.592  1.00 20.00     0.000 C 
HETATM    3  C3  UNL     1     -34.337  17.427  -0.876  1.00 20.00     0.003 C 
HETATM    4  C4  UNL     1     -33.470  18.359  -3.955  1.00 20.00     0.003 C 
HETATM    5  C5  UNL     1     -35.544  17.232  -1.795  1.00 20.00     0.038 C 
HETATM    6  C6  UNL     1     -34.850  17.743  -4.177  1.00 20.00     0.038 C 
HETATM    7  C7  UNL     1     -35.316  14.096  -4.678  1.00 20.00     0.046 C 
HETATM    8  C8  UNL     1     -36.620  15.988  -3.682  1.00 20.00     0.058 C 
HETATM    9  C9  UNL     1     -34.053  14.813  -4.222  1.00 20.00     0.170 C 
HETATM   10  C10 UNL     1     -36.435  15.102  -4.916  1.00 20.00     0.087 C 
HETATM   11  C11 UNL     1     -35.288  16.623  -3.197  1.00 20.00     0.062 C 
HETATM   12  O12 UNL     1     -34.296  15.598  -3.057  1.00 20.00    -0.380 OA
HETATM   13 CL13 UNL     1     -37.957  14.250  -5.298  1.00 20.00    -0.125 Cl
ENDROOT
TORSDOF 0
ENDMDL
MODEL 4
REMARK VINA RESULT:      -4.7      1.104      1.256
REMARK  0 active torsions:
REMARK  status: ('A' for Active; 'I' for Inactive)
ROOT
HETATM    1  C1  UNL     1     -36.503  14.373  -7.436  1.00 20.00     0.000 C 
HETATM    2  C2  UNL     1     -35.384  13.357  -7.259  1.00 20.00     0.000 C 
HETATM    3  C3  UNL     1     -37.300  14.689  -6.176  1.00 20.00     0.003 C 
HETATM    4  C4  UNL     1     -34.093  13.995  -6.755  1.00 20.00     0.003 C 
HETATM    5  C5  UNL     1     -36.557  14.700  -4.839  1.00 20.00     0.038 C 
HETATM    6  C6  UNL     1     -34.083  14.374  -5.275  1.00 20.00     0.038 C 
HETATM    7  C7  UNL     1     -33.822  17.901  -4.153  1.00 20.00     0.046 C 
HETATM    8  C8  UNL     1     -34.888  15.792  -3.325  1.00 20.00     0.058 C 
HETATM    9  C9  UNL     1     -34.075  17.397  -5.566  1.00 20.00     0.170 C 
HETATM   10  C10 UNL     1     -33.684  16.726  -3.193  1.00 20.00     0.087 C 
HETATM   11  C11 UNL     1     -35.165  15.378  -4.798  1.00 20.00     0.062 C 
HETATM   12  O12 UNL     1     -35.222  16.553  -5.618  1.00 20.00    -0.380 OA
HETATM   13 CL13 UNL     1     -33.545  17.318  -1.513  1.00 20.00    -0.125 Cl
ENDROOT
TORSDOF 0
ENDMDL
MODEL 5
REMARK VINA RESULT:      -4.7      1.419      1.637
REMARK  0 active torsions:
REMARK  status: ('A' for Active; 'I' for Inactive)
ROOT
HETATM    1  C1  UNL     1     -36.733  14.237  -5.833  1.00 20.00     0.000 C 
HETATM    2  C2  UNL     1     -36.162  15.234  -6.831  1.00 20.00     0.000 C 
HETATM    3  C3  UNL     1     -35.707  13.567  -4.927  1.00 20.00     0.003 C 
HETATM    4  C4  UNL     1     -35.976  16.623  -6.226  1.00 20.00     0.003 C 
HETATM    5  C5  UNL     1     -34.499  14.389  -4.474  1.00 20.00     0.038 C 
HETATM    6  C6  UNL     1     -34.784  16.772  -5.284  1.00 20.00     0.038 C 
HETATM    7  C7  UNL     1     -35.215  17.530  -1.677  1.00 20.00     0.046 C 
HETATM    8  C8  UNL     1     -33.584  16.271  -3.100  1.00 20.00     0.058 C 
HETATM    9  C9  UNL     1     -36.294  17.128  -2.672  1.00 20.00     0.170 C 
HETATM   10  C10 UNL     1     -33.858  17.585  -2.366  1.00 20.00     0.087 C 
HETATM   11  C11 UNL     1     -34.753  15.853  -4.035  1.00 20.00     0.062 C 
HETATM   12  O12 UNL     1     -35.983  15.886  -3.299  1.00 20.00    -0.380 OA
HETATM   13 CL13 UNL     1     -32.572  17.901  -1.167  1.00 20.00    -0.125 Cl
ENDROOT
TORSDOF 0
ENDMDL
MODEL 6
REMARK VINA RESULT:      -4.6      2.264      3.430
REMARK  0 active torsions:
REMARK  status: ('A' for Active; 'I' for Inactive)
ROOT
HETATM    1  C1  UNL     1     -36.005  15.548  -4.395  1.00 20.00     0.000 C 
HETATM    2  C2  UNL     1     -35.972  16.901  -5.090  1.00 20.00     0.000 C 
HETATM    3  C3  UNL     1     -34.658  15.044  -3.891  1.00 20.00     0.003 C 
HETATM    4  C4  UNL     1     -36.048  18.064  -4.105  1.00 20.00     0.003 C 
HETATM    5  C5  UNL     1     -33.656  16.072  -3.363  1.00 20.00     0.038 C 
HETATM    6  C6  UNL     1     -34.764  18.349  -3.329  1.00 20.00     0.038 C 
HETATM    7  C7  UNL     1     -34.569  17.953   0.356  1.00 20.00     0.046 C 
HETATM    8  C8  UNL     1     -33.015  17.724  -1.594  1.00 20.00     0.058 C 
HETATM    9  C9  UNL     1     -35.688  17.490  -0.566  1.00 20.00     0.170 C 
HETATM   10  C10 UNL     1     -33.471  18.634  -0.451  1.00 20.00     0.087 C 
HETATM   11  C11 UNL     1     -34.201  17.201  -2.451  1.00 20.00     0.062 C 
HETATM   12  O12 UNL     1     -35.194  16.630  -1.589  1.00 20.00    -0.380 OA
HETATM   13 CL13 UNL     1     -32.089  19.034   0.606  1.00 20.00    -0.125 Cl
ENDROOT
TORSDOF 0
ENDMDL
MODEL 7
REMARK VINA RESULT:      -4.5      1.878      2.524
REMARK  0 active torsions:
REMARK  status: ('A' for Active; 'I' for Inactive)
ROOT
HETATM    1  C1  UNL     1     -34.301  16.527  -6.769  1.00 20.00     0.000 C 
HETATM    2  C2  UNL     1     -33.730  15.194  -6.309  1.00 20.00     0.000 C 
HETATM    3  C3  UNL     1     -35.678  16.869  -6.214  1.00 20.00     0.003 C 
HETATM    4  C4  UNL     1     -33.022  15.297  -4.962  1.00 20.00     0.003 C 
HETATM    5  C5  UNL     1     -36.011  16.426  -4.788  1.00 20.00     0.038 C 
HETATM    6  C6  UNL     1     -33.940  15.406  -3.746  1.00 20.00     0.038 C 
HETATM    7  C7  UNL     1     -34.007  18.434  -1.602  1.00 20.00     0.046 C 
HETATM    8  C8  UNL     1     -35.628  16.668  -2.326  1.00 20.00     0.058 C 
HETATM    9  C9  UNL     1     -33.330  18.274  -2.956  1.00 20.00     0.170 C 
HETATM   10  C10 UNL     1     -34.699  17.136  -1.204  1.00 20.00     0.087 C 
HETATM   11  C11 UNL     1     -34.917  16.610  -3.706  1.00 20.00     0.062 C 
HETATM   12  O12 UNL     1     -34.259  17.859  -3.954  1.00 20.00    -0.380 OA
HETATM   13 CL13 UNL     1     -35.624  17.371   0.305  1.00 20.00    -0.125 Cl
ENDROOT
TORSDOF 0
ENDMDL
MODEL 8
REMARK VINA RESULT:      -4.4      3.377      5.679
REMARK  0 active torsions:
REMARK  status: ('A' for Active; 'I' for Inactive)
ROOT
HETATM    1  C1  UNL     1     -33.260  19.262  -0.168  1.00 20.00     0.000 C 
HETATM    2  C2  UNL     1     -34.013  18.421   0.852  1.00 20.00     0.000 C 
HETATM    3  C3  UNL     1     -32.574  18.476  -1.279  1.00 20.00     0.003 C 
HETATM    4  C4  UNL     1     -35.428  18.080   0.394  1.00 20.00     0.003 C 
HETATM    5  C5  UNL     1     -33.261  17.209  -1.794  1.00 20.00     0.038 C 
HETATM    6  C6  UNL     1     -35.526  16.998  -0.679  1.00 20.00     0.038 C 
HETATM    7  C7  UNL     1     -36.828  17.716  -4.079  1.00 20.00     0.046 C 
HETATM    8  C8  UNL     1     -35.156  16.161  -3.050  1.00 20.00     0.058 C 
HETATM    9  C9  UNL     1     -36.459  18.723  -2.998  1.00 20.00     0.170 C 
HETATM   10  C10 UNL     1     -36.585  16.297  -3.581  1.00 20.00     0.087 C 
HETATM   11  C11 UNL     1     -34.793  17.267  -2.020  1.00 20.00     0.062 C 
HETATM   12  O12 UNL     1     -35.110  18.551  -2.570  1.00 20.00    -0.380 OA
HETATM   13 CL13 UNL     1     -36.867  15.126  -4.899  1.00 20.00    -0.125 Cl
ENDROOT
TORSDOF 0
ENDMDL
MODEL 9
REMARK VINA RESULT:      -4.3      2.460      4.647
REMARK  0 active torsions:
REMARK  status: ('A' for Active; 'I' for Inactive)
ROOT
HETATM    1  C1  UNL     1     -34.332  19.013  -3.303  1.00 20.00     0.000 C 
HETATM    2  C2  UNL     1     -33.331  18.165  -2.531  1.00 20.00     0.000 C 
HETATM    3  C3  UNL     1     -34.196  18.956  -4.820  1.00 20.00     0.003 C 
HETATM    4  C4  UNL     1     -33.782  16.715  -2.389  1.00 20.00     0.003 C 
HETATM    5  C5  UNL     1     -33.771  17.631  -5.456  1.00 20.00     0.038 C 
HETATM    6  C6  UNL     1     -33.645  15.861  -3.648  1.00 20.00     0.038 C 
HETATM    7  C7  UNL     1     -36.598  14.437  -5.386  1.00 20.00     0.046 C 
HETATM    8  C8  UNL     1     -34.318  15.255  -6.023  1.00 20.00     0.058 C 
HETATM    9  C9  UNL     1     -36.592  15.481  -4.279  1.00 20.00     0.170 C 
HETATM   10  C10 UNL     1     -35.172  14.020  -5.725  1.00 20.00     0.087 C 
HETATM   11  C11 UNL     1     -34.417  16.333  -4.908  1.00 20.00     0.062 C 
HETATM   12  O12 UNL     1     -35.797  16.609  -4.635  1.00 20.00    -0.380 OA
HETATM   13 CL13 UNL     1     -35.171  12.916  -7.128  1.00 20.00    -0.125 Cl
ENDROOT
TORSDOF 0
ENDMDL
