MODEL 1
REMARK VINA RESULT:      -4.6      0.000      0.000
REMARK  3 active torsions:
REMARK  status: ('A' for Active; 'I' for Inactive)
REMARK    1  A    between atoms: C4_4  and  N8_8 
REMARK    2  A    between atoms: C6_6  and  C7_7 
REMARK    3  A    between atoms: C6_6  and  N8_8 
ROOT
HETATM    1  C1  UNL     1     -33.722   5.108   3.451  1.00 20.00     0.064 C 
HETATM    2  C2  UNL     1     -34.330   4.032   4.322  1.00 20.00     0.170 C 
HETATM    3  C3  UNL     1     -34.402   6.041   5.502  1.00 20.00     0.203 C 
HETATM    4  C4  UNL     1     -34.353   6.359   4.019  1.00 20.00     0.248 C 
HETATM    5  O9  UNL     1     -34.516   4.614   5.620  1.00 20.00    -0.389 OA
ENDROOT
BRANCH   4   6
HETATM    6  N8  UNL     1     -33.619   7.552   3.719  1.00 20.00     0.092 N 
HETATM    7  C5  UNL     1     -32.766   7.924   4.847  1.00 20.00     0.310 C 
BRANCH   6   8
HETATM    8  C6  UNL     1     -32.818   7.368   2.509  1.00 20.00     0.287 C 
BRANCH   8   9
HETATM    9  C7  UNL     1     -31.848   8.513   2.271  1.00 20.00     0.144 C 
HETATM   10 CL10 UNL     1     -32.346   9.505   0.879  1.00 20.00    -0.129 Cl
ENDBRANCH   8   9
ENDBRANCH   6   8
ENDBRANCH   4   6
TORSDOF 3
ENDMDL
MODEL 2
REMARK VINA RESULT:      -4.6      1.251      1.676
REMARK  3 active torsions:
REMARK  status: ('A' for Active; 'I' for Inactive)
REMARK    1  A    between atoms: C4_4  and  N8_8 
REMARK    2  A    between atoms: C6_6  and  C7_7 
REMARK    3  A    between atoms: C6_6  and  N8_8 
ROOT
HETATM    1  C1  UNL     1     -33.765   6.984   5.400  1.00 20.00     0.064 C 
HETATM    2  C2  UNL     1     -34.620   5.752   5.584  1.00 20.00     0.170 C 
HETATM    3  C3  UNL     1     -34.384   6.129   3.297  1.00 20.00     0.203 C 
HETATM    4  C4  UNL     1     -33.207   6.769   4.011  1.00 20.00     0.248 C 
HETATM    5  O9  UNL     1     -35.139   5.417   4.290  1.00 20.00    -0.389 OA
ENDROOT
BRANCH   4   6
HETATM    6  N8  UNL     1     -32.754   7.977   3.387  1.00 20.00     0.092 N 
HETATM    7  C5  UNL     1     -31.380   8.274   3.789  1.00 20.00     0.310 C 
BRANCH   6   8
HETATM    8  C6  UNL     1     -32.850   7.865   1.932  1.00 20.00     0.287 C 
BRANCH   8   9
HETATM    9  C7  UNL     1     -31.927   8.833   1.210  1.00 20.00     0.144 C 
HETATM   10 CL10 UNL     1     -32.716  10.409   0.952  1.00 20.00    -0.129 Cl
ENDBRANCH   8   9
ENDBRANCH   6   8
ENDBRANCH   4   6
TORSDOF 3
ENDMDL
MODEL 3
REMARK VINA RESULT:      -4.1      1.218      1.853
REMARK  3 active torsions:
REMARK  status: ('A' for Active; 'I' for Inactive)
REMARK    1  A    between atoms: C4_4  and  N8_8 
REMARK    2  A    between atoms: C6_6  and  C7_7 
REMARK    3  A    between atoms: C6_6  and  N8_8 
ROOT
HETATM    1  C1  UNL     1     -34.339   5.455   4.616  1.00 20.00     0.064 C 
HETATM    2  C2  UNL     1     -34.884   5.884   5.959  1.00 20.00     0.170 C 
HETATM    3  C3  UNL     1     -33.318   7.470   5.278  1.00 20.00     0.203 C 
HETATM    4  C4  UNL     1     -33.857   6.769   4.044  1.00 20.00     0.248 C 
HETATM    5  O9  UNL     1     -34.072   6.981   6.399  1.00 20.00    -0.389 OA
ENDROOT
BRANCH   4   6
HETATM    6  N8  UNL     1     -32.879   6.613   3.008  1.00 20.00     0.092 N 
HETATM    7  C5  UNL     1     -32.961   5.275   2.426  1.00 20.00     0.310 C 
BRANCH   6   8
HETATM    8  C6  UNL     1     -33.063   7.634   1.977  1.00 20.00     0.287 C 
BRANCH   8   9
HETATM    9  C7  UNL     1     -31.999   8.717   2.032  1.00 20.00     0.144 C 
HETATM   10 CL10 UNL     1     -32.534  10.194   1.194  1.00 20.00    -0.129 Cl
ENDBRANCH   8   9
ENDBRANCH   6   8
ENDBRANCH   4   6
TORSDOF 3
ENDMDL
MODEL 4
REMARK VINA RESULT:      -3.8     11.734     12.375
REMARK  3 active torsions:
REMARK  status: ('A' for Active; 'I' for Inactive)
REMARK    1  A    between atoms: C4_4  and  N8_8 
REMARK    2  A    between atoms: C6_6  and  C7_7 
REMARK    3  A    between atoms: C6_6  and  N8_8 
ROOT
HETATM    1  C1  UNL     1     -34.527  14.769  -6.588  1.00 20.00     0.064 C 
HETATM    2  C2  UNL     1     -34.691  13.411  -7.232  1.00 20.00     0.170 C 
HETATM    3  C3  UNL     1     -35.897  13.412  -5.238  1.00 20.00     0.203 C 
HETATM    4  C4  UNL     1     -35.758  14.847  -5.714  1.00 20.00     0.248 C 
HETATM    5  O9  UNL     1     -35.342  12.575  -6.265  1.00 20.00    -0.389 OA
ENDROOT
BRANCH   4   6
HETATM    6  N8  UNL     1     -35.636  15.791  -4.642  1.00 20.00     0.092 N 
HETATM    7  C5  UNL     1     -36.931  16.003  -3.998  1.00 20.00     0.310 C 
BRANCH   6   8
HETATM    8  C6  UNL     1     -34.648  15.329  -3.668  1.00 20.00     0.287 C 
BRANCH   8   9
HETATM    9  C7  UNL     1     -33.731  16.445  -3.193  1.00 20.00     0.144 C 
HETATM   10 CL10 UNL     1     -34.162  16.984  -1.552  1.00 20.00    -0.129 Cl
ENDBRANCH   8   9
ENDBRANCH   6   8
ENDBRANCH   4   6
TORSDOF 3
ENDMDL
MODEL 5
REMARK VINA RESULT:      -3.7     11.588     12.341
REMARK  3 active torsions:
REMARK  status: ('A' for Active; 'I' for Inactive)
REMARK    1  A    between atoms: C4_4  and  N8_8 
REMARK    2  A    between atoms: C6_6  and  C7_7 
REMARK    3  A    between atoms: C6_6  and  N8_8 
ROOT
HETATM    1  C1  UNL     1     -34.417  14.029  -6.869  1.00 20.00     0.064 C 
HETATM    2  C2  UNL     1     -35.518  12.995  -6.812  1.00 20.00     0.170 C 
HETATM    3  C3  UNL     1     -35.246  13.877  -4.672  1.00 20.00     0.203 C 
HETATM    4  C4  UNL     1     -34.746  14.899  -5.678  1.00 20.00     0.248 C 
HETATM    5  O9  UNL     1     -35.820  12.797  -5.424  1.00 20.00    -0.389 OA
ENDROOT
BRANCH   4   6
HETATM    6  N8  UNL     1     -33.629  15.661  -5.204  1.00 20.00     0.092 N 
HETATM    7  C5  UNL     1     -33.811  17.079  -5.511  1.00 20.00     0.310 C 
BRANCH   6   8
HETATM    8  C6  UNL     1     -33.451  15.466  -3.766  1.00 20.00     0.287 C 
BRANCH   8   9
HETATM    9  C7  UNL     1     -33.687  16.740  -2.971  1.00 20.00     0.144 C 
HETATM   10 CL10 UNL     1     -35.119  16.593  -1.923  1.00 20.00    -0.129 Cl
ENDBRANCH   8   9
ENDBRANCH   6   8
ENDBRANCH   4   6
TORSDOF 3
ENDMDL
MODEL 6
REMARK VINA RESULT:      -3.6      1.089      1.951
REMARK  3 active torsions:
REMARK  status: ('A' for Active; 'I' for Inactive)
REMARK    1  A    between atoms: C4_4  and  N8_8 
REMARK    2  A    between atoms: C6_6  and  C7_7 
REMARK    3  A    between atoms: C6_6  and  N8_8 
ROOT
HETATM    1  C1  UNL     1     -33.627   7.248   4.960  1.00 20.00     0.064 C 
HETATM    2  C2  UNL     1     -34.360   6.427   5.996  1.00 20.00     0.170 C 
HETATM    3  C3  UNL     1     -34.321   5.210   4.010  1.00 20.00     0.203 C 
HETATM    4  C4  UNL     1     -33.155   6.181   3.999  1.00 20.00     0.248 C 
HETATM    5  O9  UNL     1     -34.940   5.315   5.302  1.00 20.00    -0.389 OA
ENDROOT
BRANCH   4   6
HETATM    6  N8  UNL     1     -32.851   6.687   2.692  1.00 20.00     0.092 N 
HETATM    7  C5  UNL     1     -33.993   6.508   1.798  1.00 20.00     0.310 C 
BRANCH   6   8
HETATM    8  C6  UNL     1     -32.474   8.098   2.767  1.00 20.00     0.287 C 
BRANCH   8   9
HETATM    9  C7  UNL     1     -32.046   8.660   1.421  1.00 20.00     0.144 C 
HETATM   10 CL10 UNL     1     -32.775  10.257   1.125  1.00 20.00    -0.129 Cl
ENDBRANCH   8   9
ENDBRANCH   6   8
ENDBRANCH   4   6
TORSDOF 3
ENDMDL
MODEL 7
REMARK VINA RESULT:      -3.6      3.080      4.434
REMARK  3 active torsions:
REMARK  status: ('A' for Active; 'I' for Inactive)
REMARK    1  A    between atoms: C4_4  and  N8_8 
REMARK    2  A    between atoms: C6_6  and  C7_7 
REMARK    3  A    between atoms: C6_6  and  N8_8 
ROOT
HETATM    1  C1  UNL     1     -32.095   7.326   3.625  1.00 20.00     0.064 C 
HETATM    2  C2  UNL     1     -31.420   8.627   3.254  1.00 20.00     0.170 C 
HETATM    3  C3  UNL     1     -32.924   8.088   1.558  1.00 20.00     0.203 C 
HETATM    4  C4  UNL     1     -33.382   7.411   2.837  1.00 20.00     0.248 C 
HETATM    5  O9  UNL     1     -31.802   8.916   1.902  1.00 20.00    -0.389 OA
ENDROOT
BRANCH   4   6
HETATM    6  N8  UNL     1     -33.997   6.135   2.614  1.00 20.00     0.092 N 
HETATM    7  C5  UNL     1     -33.016   5.062   2.765  1.00 20.00     0.310 C 
BRANCH   6   8
HETATM    8  C6  UNL     1     -35.116   5.941   3.535  1.00 20.00     0.287 C 
BRANCH   8   9
HETATM    9  C7  UNL     1     -34.734   5.109   4.749  1.00 20.00     0.144 C 
HETATM   10 CL10 UNL     1     -34.323   6.142   6.139  1.00 20.00    -0.129 Cl
ENDBRANCH   8   9
ENDBRANCH   6   8
ENDBRANCH   4   6
TORSDOF 3
ENDMDL
MODEL 8
REMARK VINA RESULT:      -3.6      3.583      5.019
REMARK  3 active torsions:
REMARK  status: ('A' for Active; 'I' for Inactive)
REMARK    1  A    between atoms: C4_4  and  N8_8 
REMARK    2  A    between atoms: C6_6  and  C7_7 
REMARK    3  A    between atoms: C6_6  and  N8_8 
ROOT
HETATM    1  C1  UNL     1     -32.948   9.690   2.147  1.00 20.00     0.064 C 
HETATM    2  C2  UNL     1     -32.707  10.419   0.845  1.00 20.00     0.170 C 
HETATM    3  C3  UNL     1     -31.466   8.447   0.807  1.00 20.00     0.203 C 
HETATM    4  C4  UNL     1     -32.627   8.262   1.766  1.00 20.00     0.248 C 
HETATM    5  O9  UNL     1     -31.640   9.728   0.181  1.00 20.00    -0.389 OA
ENDROOT
BRANCH   4   6
HETATM    6  N8  UNL     1     -32.307   7.432   2.890  1.00 20.00     0.092 N 
HETATM    7  C5  UNL     1     -31.555   8.191   3.888  1.00 20.00     0.310 C 
BRANCH   6   8
HETATM    8  C6  UNL     1     -33.526   6.878   3.478  1.00 20.00     0.287 C 
BRANCH   8   9
HETATM    9  C7  UNL     1     -33.665   7.211   4.954  1.00 20.00     0.144 C 
HETATM   10 CL10 UNL     1     -34.422   5.871   5.851  1.00 20.00    -0.129 Cl
ENDBRANCH   8   9
ENDBRANCH   6   8
ENDBRANCH   4   6
TORSDOF 3
ENDMDL
MODEL 9
REMARK VINA RESULT:      -3.6      3.152      4.353
REMARK  3 active torsions:
REMARK  status: ('A' for Active; 'I' for Inactive)
REMARK    1  A    between atoms: C4_4  and  N8_8 
REMARK    2  A    between atoms: C6_6  and  C7_7 
REMARK    3  A    between atoms: C6_6  and  N8_8 
ROOT
HETATM    1  C1  UNL     1     -33.299   7.845   2.131  1.00 20.00     0.064 C 
HETATM    2  C2  UNL     1     -32.280   8.760   1.492  1.00 20.00     0.170 C 
HETATM    3  C3  UNL     1     -31.595   8.337   3.678  1.00 20.00     0.203 C 
HETATM    4  C4  UNL     1     -32.486   7.193   3.226  1.00 20.00     0.248 C 
HETATM    5  O9  UNL     1     -31.403   9.192   2.540  1.00 20.00    -0.389 OA
ENDROOT
BRANCH   4   6
HETATM    6  N8  UNL     1     -33.287   6.647   4.282  1.00 20.00     0.092 N 
HETATM    7  C5  UNL     1     -33.332   7.568   5.417  1.00 20.00     0.310 C 
BRANCH   6   8
HETATM    8  C6  UNL     1     -34.637   6.360   3.800  1.00 20.00     0.287 C 
BRANCH   8   9
HETATM    9  C7  UNL     1     -35.225   5.106   4.425  1.00 20.00     0.144 C 
HETATM   10 CL10 UNL     1     -34.037   3.779   4.455  1.00 20.00    -0.129 Cl
ENDBRANCH   8   9
ENDBRANCH   6   8
ENDBRANCH   4   6
TORSDOF 3
ENDMDL
