MODEL 1
REMARK VINA RESULT:      -4.5      0.000      0.000
REMARK  0 active torsions:
REMARK  status: ('A' for Active; 'I' for Inactive)
ROOT
HETATM    1  C1  UNL     1     -36.102  13.824  -5.158  1.00 20.00     0.085 C 
HETATM    2  C2  UNL     1     -36.218  16.173  -5.955  1.00 20.00     0.067 C 
HETATM    3  C3  UNL     1     -35.615  15.681  -3.564  1.00 20.00     0.078 C 
HETATM    4  C4  UNL     1     -34.740  16.449  -6.202  1.00 20.00     0.171 C 
HETATM    5  C5  UNL     1     -36.423  15.211  -4.782  1.00 20.00     0.130 C 
HETATM    6  C6  UNL     1     -34.155  16.088  -3.885  1.00 20.00     0.056 C 
HETATM    7  C7  UNL     1     -33.220  14.885  -4.077  1.00 20.00     0.045 C 
HETATM    8  C8  UNL     1     -33.608  16.919  -2.713  1.00 20.00     0.045 C 
HETATM    9  N9  UNL     1     -35.849  12.731  -5.453  1.00 20.00    -0.195 NA
HETATM   10  O10 UNL     1     -34.107  16.953  -5.029  1.00 20.00    -0.381 OA
HETATM   11 CL11 UNL     1     -38.172  15.179  -4.350  1.00 20.00    -0.103 Cl
ENDROOT
TORSDOF 0
ENDMDL
MODEL 2
REMARK VINA RESULT:      -4.4      2.328      2.765
REMARK  0 active torsions:
REMARK  status: ('A' for Active; 'I' for Inactive)
ROOT
HETATM    1  C1  UNL     1     -37.548  14.507  -5.757  1.00 20.00     0.085 C 
HETATM    2  C2  UNL     1     -36.133  13.948  -7.719  1.00 20.00     0.067 C 
HETATM    3  C3  UNL     1     -35.393  15.720  -6.095  1.00 20.00     0.078 C 
HETATM    4  C4  UNL     1     -35.117  13.019  -7.065  1.00 20.00     0.171 C 
HETATM    5  C5  UNL     1     -36.603  15.038  -6.752  1.00 20.00     0.130 C 
HETATM    6  C6  UNL     1     -34.316  14.739  -5.570  1.00 20.00     0.056 C 
HETATM    7  C7  UNL     1     -34.700  14.073  -4.240  1.00 20.00     0.045 C 
HETATM    8  C8  UNL     1     -33.012  15.520  -5.338  1.00 20.00     0.045 C 
HETATM    9  N9  UNL     1     -38.293  14.089  -4.971  1.00 20.00    -0.195 NA
HETATM   10  O10 UNL     1     -34.003  13.748  -6.559  1.00 20.00    -0.381 OA
HETATM   11 CL11 UNL     1     -37.544  16.269  -7.671  1.00 20.00    -0.103 Cl
ENDROOT
TORSDOF 0
ENDMDL
MODEL 3
REMARK VINA RESULT:      -4.2      1.628      1.947
REMARK  0 active torsions:
REMARK  status: ('A' for Active; 'I' for Inactive)
ROOT
HETATM    1  C1  UNL     1     -35.719  13.846  -5.759  1.00 20.00     0.085 C 
HETATM    2  C2  UNL     1     -34.174  15.314  -7.034  1.00 20.00     0.067 C 
HETATM    3  C3  UNL     1     -35.911  16.323  -5.520  1.00 20.00     0.078 C 
HETATM    4  C4  UNL     1     -33.146  15.629  -5.953  1.00 20.00     0.171 C 
HETATM    5  C5  UNL     1     -35.576  15.142  -6.443  1.00 20.00     0.130 C 
HETATM    6  C6  UNL     1     -34.780  16.700  -4.532  1.00 20.00     0.056 C 
HETATM    7  C7  UNL     1     -34.684  15.750  -3.328  1.00 20.00     0.045 C 
HETATM    8  C8  UNL     1     -35.054  18.112  -3.987  1.00 20.00     0.045 C 
HETATM    9  N9  UNL     1     -35.833  12.825  -5.219  1.00 20.00    -0.195 NA
HETATM   10  O10 UNL     1     -33.518  16.786  -5.209  1.00 20.00    -0.381 OA
HETATM   11 CL11 UNL     1     -36.774  15.089  -7.787  1.00 20.00    -0.103 Cl
ENDROOT
TORSDOF 0
ENDMDL
MODEL 4
REMARK VINA RESULT:      -4.1      2.632      3.868
REMARK  0 active torsions:
REMARK  status: ('A' for Active; 'I' for Inactive)
ROOT
HETATM    1  C1  UNL     1     -34.472  16.107  -5.522  1.00 20.00     0.085 C 
HETATM    2  C2  UNL     1     -34.946  13.980  -4.332  1.00 20.00     0.067 C 
HETATM    3  C3  UNL     1     -36.545  15.912  -4.146  1.00 20.00     0.078 C 
HETATM    4  C4  UNL     1     -35.935  13.342  -5.300  1.00 20.00     0.171 C 
HETATM    5  C5  UNL     1     -35.074  15.506  -4.321  1.00 20.00     0.130 C 
HETATM    6  C6  UNL     1     -37.533  15.136  -5.052  1.00 20.00     0.056 C 
HETATM    7  C7  UNL     1     -37.539  15.631  -6.506  1.00 20.00     0.045 C 
HETATM    8  C8  UNL     1     -38.955  15.317  -4.495  1.00 20.00     0.045 C 
HETATM    9  N9  UNL     1     -33.998  16.582  -6.469  1.00 20.00    -0.195 NA
HETATM   10  O10 UNL     1     -37.273  13.726  -4.999  1.00 20.00    -0.381 OA
HETATM   11 CL11 UNL     1     -34.116  16.164  -2.945  1.00 20.00    -0.103 Cl
ENDROOT
TORSDOF 0
ENDMDL
MODEL 5
REMARK VINA RESULT:      -4.1      2.044      2.886
REMARK  0 active torsions:
REMARK  status: ('A' for Active; 'I' for Inactive)
ROOT
HETATM    1  C1  UNL     1     -35.251  13.783  -5.594  1.00 20.00     0.085 C 
HETATM    2  C2  UNL     1     -33.254  15.172  -5.097  1.00 20.00     0.067 C 
HETATM    3  C3  UNL     1     -35.325  16.236  -6.047  1.00 20.00     0.078 C 
HETATM    4  C4  UNL     1     -33.656  15.753  -3.746  1.00 20.00     0.171 C 
HETATM    5  C5  UNL     1     -34.469  14.961  -6.003  1.00 20.00     0.130 C 
HETATM    6  C6  UNL     1     -35.591  16.873  -4.661  1.00 20.00     0.056 C 
HETATM    7  C7  UNL     1     -36.674  16.139  -3.855  1.00 20.00     0.045 C 
HETATM    8  C8  UNL     1     -36.069  18.320  -4.869  1.00 20.00     0.045 C 
HETATM    9  N9  UNL     1     -35.868  12.854  -5.271  1.00 20.00    -0.195 NA
HETATM   10  O10 UNL     1     -34.377  16.972  -3.903  1.00 20.00    -0.381 OA
HETATM   11 CL11 UNL     1     -33.898  14.580  -7.669  1.00 20.00    -0.103 Cl
ENDROOT
TORSDOF 0
ENDMDL
MODEL 6
REMARK VINA RESULT:      -4.1      2.040      3.149
REMARK  0 active torsions:
REMARK  status: ('A' for Active; 'I' for Inactive)
ROOT
HETATM    1  C1  UNL     1     -35.217  13.821  -4.920  1.00 20.00     0.085 C 
HETATM    2  C2  UNL     1     -34.817  15.671  -3.313  1.00 20.00     0.067 C 
HETATM    3  C3  UNL     1     -34.189  15.945  -5.732  1.00 20.00     0.078 C 
HETATM    4  C4  UNL     1     -36.032  16.546  -3.598  1.00 20.00     0.171 C 
HETATM    5  C5  UNL     1     -34.336  14.948  -4.573  1.00 20.00     0.130 C 
HETATM    6  C6  UNL     1     -35.388  16.912  -5.898  1.00 20.00     0.056 C 
HETATM    7  C7  UNL     1     -36.603  16.260  -6.575  1.00 20.00     0.045 C 
HETATM    8  C8  UNL     1     -34.947  18.095  -6.776  1.00 20.00     0.045 C 
HETATM    9  N9  UNL     1     -35.912  12.933  -5.195  1.00 20.00    -0.195 NA
HETATM   10  O10 UNL     1     -35.759  17.484  -4.636  1.00 20.00    -0.381 OA
HETATM   11 CL11 UNL     1     -32.734  14.195  -4.240  1.00 20.00    -0.103 Cl
ENDROOT
TORSDOF 0
ENDMDL
MODEL 7
REMARK VINA RESULT:      -4.0      2.701      3.314
REMARK  0 active torsions:
REMARK  status: ('A' for Active; 'I' for Inactive)
ROOT
HETATM    1  C1  UNL     1     -33.611  15.691  -5.684  1.00 20.00     0.085 C 
HETATM    2  C2  UNL     1     -35.138  14.060  -4.598  1.00 20.00     0.067 C 
HETATM    3  C3  UNL     1     -34.095  15.905  -3.245  1.00 20.00     0.078 C 
HETATM    4  C4  UNL     1     -36.430  14.868  -4.581  1.00 20.00     0.171 C 
HETATM    5  C5  UNL     1     -33.909  14.960  -4.441  1.00 20.00     0.130 C 
HETATM    6  C6  UNL     1     -35.479  16.599  -3.189  1.00 20.00     0.056 C 
HETATM    7  C7  UNL     1     -35.609  17.771  -4.173  1.00 20.00     0.045 C 
HETATM    8  C8  UNL     1     -35.691  17.157  -1.772  1.00 20.00     0.045 C 
HETATM    9  N9  UNL     1     -33.376  16.267  -6.663  1.00 20.00    -0.195 NA
HETATM   10  O10 UNL     1     -36.534  15.648  -3.393  1.00 20.00    -0.381 OA
HETATM   11 CL11 UNL     1     -32.461  13.928  -4.155  1.00 20.00    -0.103 Cl
ENDROOT
TORSDOF 0
ENDMDL
MODEL 8
REMARK VINA RESULT:      -3.9      2.424      3.578
REMARK  0 active torsions:
REMARK  status: ('A' for Active; 'I' for Inactive)
ROOT
HETATM    1  C1  UNL     1     -35.048  17.275  -5.205  1.00 20.00     0.085 C 
HETATM    2  C2  UNL     1     -34.595  15.351  -3.702  1.00 20.00     0.067 C 
HETATM    3  C3  UNL     1     -35.889  15.010  -5.831  1.00 20.00     0.078 C 
HETATM    4  C4  UNL     1     -33.396  14.729  -4.410  1.00 20.00     0.171 C 
HETATM    5  C5  UNL     1     -35.565  15.993  -4.696  1.00 20.00     0.130 C 
HETATM    6  C6  UNL     1     -34.651  14.294  -6.427  1.00 20.00     0.056 C 
HETATM    7  C7  UNL     1     -33.843  15.179  -7.387  1.00 20.00     0.045 C 
HETATM    8  C8  UNL     1     -35.130  13.066  -7.220  1.00 20.00     0.045 C 
HETATM    9  N9  UNL     1     -34.641  18.284  -5.607  1.00 20.00    -0.195 NA
HETATM   10  O10 UNL     1     -33.810  13.778  -5.386  1.00 20.00    -0.381 OA
HETATM   11 CL11 UNL     1     -37.088  16.420  -3.836  1.00 20.00    -0.103 Cl
ENDROOT
TORSDOF 0
ENDMDL
MODEL 9
REMARK VINA RESULT:      -3.9      1.392      1.423
REMARK  0 active torsions:
REMARK  status: ('A' for Active; 'I' for Inactive)
ROOT
HETATM    1  C1  UNL     1     -37.672  15.001  -4.735  1.00 20.00     0.085 C 
HETATM    2  C2  UNL     1     -36.775  17.138  -5.626  1.00 20.00     0.067 C 
HETATM    3  C3  UNL     1     -36.192  16.401  -3.293  1.00 20.00     0.078 C 
HETATM    4  C4  UNL     1     -35.378  16.693  -6.043  1.00 20.00     0.171 C 
HETATM    5  C5  UNL     1     -37.264  16.374  -4.393  1.00 20.00     0.130 C 
HETATM    6  C6  UNL     1     -34.761  16.080  -3.789  1.00 20.00     0.056 C 
HETATM    7  C7  UNL     1     -34.522  14.581  -4.024  1.00 20.00     0.045 C 
HETATM    8  C8  UNL     1     -33.755  16.548  -2.724  1.00 20.00     0.045 C 
HETATM    9  N9  UNL     1     -37.994  13.919  -5.003  1.00 20.00    -0.195 NA
HETATM   10  O10 UNL     1     -34.450  16.832  -4.971  1.00 20.00    -0.381 OA
HETATM   11 CL11 UNL     1     -38.762  17.159  -3.774  1.00 20.00    -0.103 Cl
ENDROOT
TORSDOF 0
ENDMDL
