MODEL 1
REMARK VINA RESULT:      -4.4      0.000      0.000
REMARK  1 active torsions:
REMARK  status: ('A' for Active; 'I' for Inactive)
REMARK    1  A    between atoms: C5_5  and  C9_9 
ROOT
HETATM    1  C1  UNL     1     -33.155  14.481  -4.543  1.00 20.00     0.046 C 
HETATM    2  C2  UNL     1     -33.473  16.957  -4.506  1.00 20.00     0.058 C 
HETATM    3  C3  UNL     1     -34.568  14.277  -4.003  1.00 20.00     0.170 C 
HETATM    4  C4  UNL     1     -33.013  15.765  -5.345  1.00 20.00     0.087 C 
HETATM    5  C5  UNL     1     -34.740  16.674  -3.656  1.00 20.00     0.061 C 
HETATM    6  C6  UNL     1     -35.780  17.778  -3.908  1.00 20.00     0.046 C 
HETATM    7  O10 UNL     1     -35.377  15.450  -4.052  1.00 20.00    -0.380 OA
HETATM    8 CL11 UNL     1     -33.960  15.659  -6.864  1.00 20.00    -0.125 Cl
ENDROOT
BRANCH   5   9
HETATM    9  C9  UNL     1     -34.421  16.639  -2.175  1.00 20.00     0.012 C 
HETATM   10  C7  UNL     1     -33.221  17.529  -1.871  1.00 20.00     0.012 C 
HETATM   11  C8  UNL     1     -35.638  17.069  -1.363  1.00 20.00     0.012 C 
ENDBRANCH   5   9
TORSDOF 1
ENDMDL
MODEL 2
REMARK VINA RESULT:      -3.9      2.247      3.861
REMARK  1 active torsions:
REMARK  status: ('A' for Active; 'I' for Inactive)
REMARK    1  A    between atoms: C5_5  and  C9_9 
ROOT
HETATM    1  C1  UNL     1     -33.503  17.433  -1.779  1.00 20.00     0.046 C 
HETATM    2  C2  UNL     1     -35.017  15.911  -3.056  1.00 20.00     0.058 C 
HETATM    3  C3  UNL     1     -33.361  18.337  -3.000  1.00 20.00     0.170 C 
HETATM    4  C4  UNL     1     -34.829  16.689  -1.752  1.00 20.00     0.087 C 
HETATM    5  C5  UNL     1     -34.551  16.682  -4.318  1.00 20.00     0.061 C 
HETATM    6  C6  UNL     1     -35.677  16.672  -5.365  1.00 20.00     0.046 C 
HETATM    7  O10 UNL     1     -34.308  18.067  -4.030  1.00 20.00    -0.380 OA
HETATM    8 CL11 UNL     1     -36.184  17.837  -1.503  1.00 20.00    -0.125 Cl
ENDROOT
BRANCH   5   9
HETATM    9  C9  UNL     1     -33.315  16.055  -4.931  1.00 20.00     0.012 C 
HETATM   10  C7  UNL     1     -33.113  14.645  -4.386  1.00 20.00     0.012 C 
HETATM   11  C8  UNL     1     -33.429  16.039  -6.451  1.00 20.00     0.012 C 
ENDBRANCH   5   9
TORSDOF 1
ENDMDL
MODEL 3
REMARK VINA RESULT:      -3.9      2.102      3.233
REMARK  1 active torsions:
REMARK  status: ('A' for Active; 'I' for Inactive)
REMARK    1  A    between atoms: C5_5  and  C9_9 
ROOT
HETATM    1  C1  UNL     1     -36.345  15.244  -6.798  1.00 20.00     0.046 C 
HETATM    2  C2  UNL     1     -35.442  14.029  -4.812  1.00 20.00     0.058 C 
HETATM    3  C3  UNL     1     -35.048  16.037  -6.920  1.00 20.00     0.170 C 
HETATM    4  C4  UNL     1     -36.140  13.877  -6.164  1.00 20.00     0.087 C 
HETATM    5  C5  UNL     1     -34.319  15.099  -4.803  1.00 20.00     0.061 C 
HETATM    6  C6  UNL     1     -33.034  14.483  -4.226  1.00 20.00     0.046 C 
HETATM    7  O10 UNL     1     -33.979  15.516  -6.133  1.00 20.00    -0.380 OA
HETATM    8 CL11 UNL     1     -35.182  12.822  -7.252  1.00 20.00    -0.125 Cl
ENDROOT
BRANCH   5   9
HETATM    9  C9  UNL     1     -34.699  16.301  -3.962  1.00 20.00     0.012 C 
HETATM   10  C7  UNL     1     -36.020  16.047  -3.245  1.00 20.00     0.012 C 
HETATM   11  C8  UNL     1     -33.591  16.620  -2.966  1.00 20.00     0.012 C 
ENDBRANCH   5   9
TORSDOF 1
ENDMDL
MODEL 4
REMARK VINA RESULT:      -3.8      2.692      4.238
REMARK  1 active torsions:
REMARK  status: ('A' for Active; 'I' for Inactive)
REMARK    1  A    between atoms: C5_5  and  C9_9 
ROOT
HETATM    1  C1  UNL     1     -33.452  16.487  -5.061  1.00 20.00     0.046 C 
HETATM    2  C2  UNL     1     -34.681  14.367  -4.584  1.00 20.00     0.058 C 
HETATM    3  C3  UNL     1     -34.704  17.085  -5.698  1.00 20.00     0.170 C 
HETATM    4  C4  UNL     1     -33.774  15.449  -3.997  1.00 20.00     0.087 C 
HETATM    5  C5  UNL     1     -35.779  14.915  -5.533  1.00 20.00     0.061 C 
HETATM    6  C6  UNL     1     -37.148  14.364  -5.101  1.00 20.00     0.046 C 
HETATM    7  O10 UNL     1     -35.893  16.342  -5.439  1.00 20.00    -0.380 OA
HETATM    8 CL11 UNL     1     -34.555  16.227  -2.583  1.00 20.00    -0.125 Cl
ENDROOT
BRANCH   5   9
HETATM    9  C9  UNL     1     -35.526  14.507  -6.971  1.00 20.00     0.012 C 
HETATM   10  C7  UNL     1     -35.035  13.066  -7.033  1.00 20.00     0.012 C 
HETATM   11  C8  UNL     1     -36.792  14.688  -7.801  1.00 20.00     0.012 C 
ENDBRANCH   5   9
TORSDOF 1
ENDMDL
MODEL 5
REMARK VINA RESULT:      -3.8      2.010      2.996
REMARK  1 active torsions:
REMARK  status: ('A' for Active; 'I' for Inactive)
REMARK    1  A    between atoms: C5_5  and  C9_9 
ROOT
HETATM    1  C1  UNL     1     -37.145  14.290  -5.582  1.00 20.00     0.046 C 
HETATM    2  C2  UNL     1     -34.861  14.269  -4.574  1.00 20.00     0.058 C 
HETATM    3  C3  UNL     1     -36.842  15.615  -6.275  1.00 20.00     0.170 C 
HETATM    4  C4  UNL     1     -35.898  13.452  -5.347  1.00 20.00     0.087 C 
HETATM    5  C5  UNL     1     -34.764  15.749  -5.028  1.00 20.00     0.061 C 
HETATM    6  C6  UNL     1     -33.295  16.098  -5.319  1.00 20.00     0.046 C 
HETATM    7  O10 UNL     1     -35.461  15.968  -6.263  1.00 20.00    -0.380 OA
HETATM    8 CL11 UNL     1     -35.221  12.889  -6.908  1.00 20.00    -0.125 Cl
ENDROOT
BRANCH   5   9
HETATM    9  C9  UNL     1     -35.283  16.694  -3.963  1.00 20.00     0.012 C 
HETATM   10  C7  UNL     1     -34.754  16.287  -2.592  1.00 20.00     0.012 C 
HETATM   11  C8  UNL     1     -34.891  18.129  -4.294  1.00 20.00     0.012 C 
ENDBRANCH   5   9
TORSDOF 1
ENDMDL
MODEL 6
REMARK VINA RESULT:      -3.8      1.998      2.954
REMARK  1 active torsions:
REMARK  status: ('A' for Active; 'I' for Inactive)
REMARK    1  A    between atoms: C5_5  and  C9_9 
ROOT
HETATM    1  C1  UNL     1     -36.533  13.505  -5.413  1.00 20.00     0.046 C 
HETATM    2  C2  UNL     1     -34.370  14.356  -6.328  1.00 20.00     0.058 C 
HETATM    3  C3  UNL     1     -36.768  14.833  -4.699  1.00 20.00     0.170 C 
HETATM    4  C4  UNL     1     -35.687  13.656  -6.668  1.00 20.00     0.087 C 
HETATM    5  C5  UNL     1     -34.522  15.519  -5.313  1.00 20.00     0.061 C 
HETATM    6  C6  UNL     1     -33.842  16.778  -5.876  1.00 20.00     0.046 C 
HETATM    7  O10 UNL     1     -35.899  15.879  -5.126  1.00 20.00    -0.380 OA
HETATM    8 CL11 UNL     1     -36.585  14.577  -7.918  1.00 20.00    -0.125 Cl
ENDROOT
BRANCH   5   9
HETATM    9  C9  UNL     1     -33.887  15.183  -3.979  1.00 20.00     0.012 C 
HETATM   10  C7  UNL     1     -32.625  14.353  -4.189  1.00 20.00     0.012 C 
HETATM   11  C8  UNL     1     -33.577  16.459  -3.205  1.00 20.00     0.012 C 
ENDBRANCH   5   9
TORSDOF 1
ENDMDL
MODEL 7
REMARK VINA RESULT:      -3.7      2.696      4.128
REMARK  1 active torsions:
REMARK  status: ('A' for Active; 'I' for Inactive)
REMARK    1  A    between atoms: C5_5  and  C9_9 
ROOT
HETATM    1  C1  UNL     1     -34.398  15.407  -3.851  1.00 20.00     0.046 C 
HETATM    2  C2  UNL     1     -33.411  15.632  -6.134  1.00 20.00     0.058 C 
HETATM    3  C3  UNL     1     -35.282  14.260  -4.332  1.00 20.00     0.170 C 
HETATM    4  C4  UNL     1     -33.103  15.519  -4.641  1.00 20.00     0.087 C 
HETATM    5  C5  UNL     1     -34.566  14.710  -6.607  1.00 20.00     0.061 C 
HETATM    6  C6  UNL     1     -34.101  13.895  -7.825  1.00 20.00     0.046 C 
HETATM    7  O10 UNL     1     -34.910  13.741  -5.607  1.00 20.00    -0.380 OA
HETATM    8 CL11 UNL     1     -32.051  14.103  -4.319  1.00 20.00    -0.125 Cl
ENDROOT
BRANCH   5   9
HETATM    9  C9  UNL     1     -35.792  15.509  -7.000  1.00 20.00     0.012 C 
HETATM   10  C7  UNL     1     -35.380  16.811  -7.677  1.00 20.00     0.012 C 
HETATM   11  C8  UNL     1     -36.691  14.682  -7.911  1.00 20.00     0.012 C 
ENDBRANCH   5   9
TORSDOF 1
ENDMDL
MODEL 8
REMARK VINA RESULT:      -3.7      2.216      3.979
REMARK  1 active torsions:
REMARK  status: ('A' for Active; 'I' for Inactive)
REMARK    1  A    between atoms: C5_5  and  C9_9 
ROOT
HETATM    1  C1  UNL     1     -36.585  16.968  -3.926  1.00 20.00     0.046 C 
HETATM    2  C2  UNL     1     -34.112  16.741  -4.183  1.00 20.00     0.058 C 
HETATM    3  C3  UNL     1     -36.760  15.469  -4.157  1.00 20.00     0.170 C 
HETATM    4  C4  UNL     1     -35.235  17.314  -3.318  1.00 20.00     0.087 C 
HETATM    5  C5  UNL     1     -34.407  15.321  -4.735  1.00 20.00     0.061 C 
HETATM    6  C6  UNL     1     -33.224  14.394  -4.415  1.00 20.00     0.046 C 
HETATM    7  O10 UNL     1     -35.543  14.730  -4.088  1.00 20.00    -0.380 OA
HETATM    8 CL11 UNL     1     -35.125  16.682  -1.643  1.00 20.00    -0.125 Cl
ENDROOT
BRANCH   5   9
HETATM    9  C9  UNL     1     -34.615  15.339  -6.236  1.00 20.00     0.012 C 
HETATM   10  C7  UNL     1     -33.691  16.363  -6.886  1.00 20.00     0.012 C 
HETATM   11  C8  UNL     1     -34.382  13.949  -6.818  1.00 20.00     0.012 C 
ENDBRANCH   5   9
TORSDOF 1
ENDMDL
MODEL 9
REMARK VINA RESULT:      -3.7      2.335      4.047
REMARK  1 active torsions:
REMARK  status: ('A' for Active; 'I' for Inactive)
REMARK    1  A    between atoms: C5_5  and  C9_9 
ROOT
HETATM    1  C1  UNL     1     -34.280  15.857  -3.422  1.00 20.00     0.046 C 
HETATM    2  C2  UNL     1     -35.399  16.360  -5.597  1.00 20.00     0.058 C 
HETATM    3  C3  UNL     1     -33.273  14.957  -4.132  1.00 20.00     0.170 C 
HETATM    4  C4  UNL     1     -34.814  16.963  -4.319  1.00 20.00     0.087 C 
HETATM    5  C5  UNL     1     -34.566  15.186  -6.174  1.00 20.00     0.061 C 
HETATM    6  C6  UNL     1     -34.285  15.444  -7.664  1.00 20.00     0.046 C 
HETATM    7  O10 UNL     1     -33.276  15.098  -5.551  1.00 20.00    -0.380 OA
HETATM    8 CL11 UNL     1     -33.511  18.131  -4.711  1.00 20.00    -0.125 Cl
ENDROOT
BRANCH   5   9
HETATM    9  C9  UNL     1     -35.298  13.865  -6.042  1.00 20.00     0.012 C 
HETATM   10  C7  UNL     1     -36.770  14.106  -5.730  1.00 20.00     0.012 C 
HETATM   11  C8  UNL     1     -35.139  13.044  -7.316  1.00 20.00     0.012 C 
ENDBRANCH   5   9
TORSDOF 1
ENDMDL
