MODEL 1
REMARK VINA RESULT:      -5.3      0.000      0.000
REMARK  2 active torsions:
REMARK  status: ('A' for Active; 'I' for Inactive)
REMARK    1  A    between atoms: C5_5  and  C8_8 
REMARK    2  A    between atoms: C8_8  and  C9_9 
ROOT
HETATM    1  C1  UNL     1     -34.121   5.710   4.285  1.00 20.00     0.046 C 
HETATM    2  C2  UNL     1     -32.621   7.712   4.163  1.00 20.00     0.052 C 
HETATM    3  C3  UNL     1     -33.971   5.575   2.776  1.00 20.00     0.169 C 
HETATM    4  C4  UNL     1     -33.942   7.166   4.701  1.00 20.00     0.086 C 
HETATM    5  C5  UNL     1     -32.466   7.455   2.660  1.00 20.00     0.123 C 
HETATM    6  O10 UNL     1     -32.717   6.084   2.327  1.00 20.00    -0.386 OA
HETATM    7 CL11 UNL     1     -33.989   7.309   6.480  1.00 20.00    -0.125 Cl
ENDROOT
BRANCH   5   8
HETATM    8  C8  UNL     1     -33.282   8.385   1.804  1.00 20.00     0.035 C 
BRANCH   8   9
HETATM    9  C9  UNL     1     -32.433   9.269   0.875  1.00 20.00    -0.020 C 
HETATM   10  C6  UNL     1     -32.902   9.203  -0.580  1.00 20.00     0.009 C 
HETATM   11  C7  UNL     1     -32.469  10.719   1.364  1.00 20.00     0.009 C 
ENDBRANCH   8   9
ENDBRANCH   5   8
TORSDOF 2
ENDMDL
MODEL 2
REMARK VINA RESULT:      -4.6      2.499      4.717
REMARK  2 active torsions:
REMARK  status: ('A' for Active; 'I' for Inactive)
REMARK    1  A    between atoms: C5_5  and  C8_8 
REMARK    2  A    between atoms: C8_8  and  C9_9 
ROOT
HETATM    1  C1  UNL     1     -31.655   8.998   2.313  1.00 20.00     0.046 C 
HETATM    2  C2  UNL     1     -33.198   7.208   1.483  1.00 20.00     0.052 C 
HETATM    3  C3  UNL     1     -31.727   8.345   3.687  1.00 20.00     0.169 C 
HETATM    4  C4  UNL     1     -32.931   8.712   1.530  1.00 20.00     0.086 C 
HETATM    5  C5  UNL     1     -33.151   6.575   2.878  1.00 20.00     0.123 C 
HETATM    6  O10 UNL     1     -31.960   6.941   3.587  1.00 20.00    -0.386 OA
HETATM    7 CL11 UNL     1     -32.799   9.366  -0.126  1.00 20.00    -0.125 Cl
ENDROOT
BRANCH   5   8
HETATM    8  C8  UNL     1     -34.382   6.841   3.701  1.00 20.00     0.035 C 
BRANCH   8   9
HETATM    9  C9  UNL     1     -34.821   5.640   4.555  1.00 20.00    -0.020 C 
HETATM   10  C6  UNL     1     -34.203   4.325   4.073  1.00 20.00     0.009 C 
HETATM   11  C7  UNL     1     -34.445   5.881   6.020  1.00 20.00     0.009 C 
ENDBRANCH   8   9
ENDBRANCH   5   8
TORSDOF 2
ENDMDL
MODEL 3
REMARK VINA RESULT:      -4.5     10.420     11.405
REMARK  2 active torsions:
REMARK  status: ('A' for Active; 'I' for Inactive)
REMARK    1  A    between atoms: C5_5  and  C8_8 
REMARK    2  A    between atoms: C8_8  and  C9_9 
ROOT
HETATM    1  C1  UNL     1     -34.513  14.933  -6.611  1.00 20.00     0.046 C 
HETATM    2  C2  UNL     1     -34.531  14.538  -4.138  1.00 20.00     0.052 C 
HETATM    3  C3  UNL     1     -33.380  15.925  -6.388  1.00 20.00     0.169 C 
HETATM    4  C4  UNL     1     -35.387  14.848  -5.365  1.00 20.00     0.086 C 
HETATM    5  C5  UNL     1     -33.339  15.493  -4.016  1.00 20.00     0.123 C 
HETATM    6  O10 UNL     1     -32.602  15.581  -5.242  1.00 20.00    -0.386 OA
HETATM    7 CL11 UNL     1     -36.641  13.594  -5.575  1.00 20.00    -0.125 Cl
ENDROOT
BRANCH   5   8
HETATM    8  C8  UNL     1     -33.711  16.856  -3.501  1.00 20.00     0.035 C 
BRANCH   8   9
HETATM    9  C9  UNL     1     -33.695  16.958  -1.966  1.00 20.00    -0.020 C 
HETATM   10  C6  UNL     1     -32.943  18.196  -1.473  1.00 20.00     0.009 C 
HETATM   11  C7  UNL     1     -35.130  16.979  -1.433  1.00 20.00     0.009 C 
ENDBRANCH   8   9
ENDBRANCH   5   8
TORSDOF 2
ENDMDL
MODEL 4
REMARK VINA RESULT:      -4.4      2.495      4.767
REMARK  2 active torsions:
REMARK  status: ('A' for Active; 'I' for Inactive)
REMARK    1  A    between atoms: C5_5  and  C8_8 
REMARK    2  A    between atoms: C8_8  and  C9_9 
ROOT
HETATM    1  C1  UNL     1     -31.608   9.121   2.140  1.00 20.00     0.046 C 
HETATM    2  C2  UNL     1     -33.270   7.433   1.330  1.00 20.00     0.052 C 
HETATM    3  C3  UNL     1     -31.513   8.323   3.434  1.00 20.00     0.169 C 
HETATM    4  C4  UNL     1     -32.978   8.922   1.503  1.00 20.00     0.086 C 
HETATM    5  C5  UNL     1     -33.054   6.653   2.631  1.00 20.00     0.123 C 
HETATM    6  O10 UNL     1     -31.777   6.939   3.215  1.00 20.00    -0.386 OA
HETATM    7 CL11 UNL     1     -33.050   9.752  -0.077  1.00 20.00    -0.125 Cl
ENDROOT
BRANCH   5   8
HETATM    8  C8  UNL     1     -34.165   6.828   3.629  1.00 20.00     0.035 C 
BRANCH   8   9
HETATM    9  C9  UNL     1     -33.849   6.235   5.012  1.00 20.00    -0.020 C 
HETATM   10  C6  UNL     1     -33.924   7.281   6.126  1.00 20.00     0.009 C 
HETATM   11  C7  UNL     1     -34.814   5.086   5.316  1.00 20.00     0.009 C 
ENDBRANCH   8   9
ENDBRANCH   5   8
TORSDOF 2
ENDMDL
MODEL 5
REMARK VINA RESULT:      -4.3      1.973      2.409
REMARK  2 active torsions:
REMARK  status: ('A' for Active; 'I' for Inactive)
REMARK    1  A    between atoms: C5_5  and  C8_8 
REMARK    2  A    between atoms: C8_8  and  C9_9 
ROOT
HETATM    1  C1  UNL     1     -34.163   5.921   5.448  1.00 20.00     0.046 C 
HETATM    2  C2  UNL     1     -33.926   6.078   2.960  1.00 20.00     0.052 C 
HETATM    3  C3  UNL     1     -33.744   7.383   5.524  1.00 20.00     0.169 C 
HETATM    4  C4  UNL     1     -33.568   5.269   4.205  1.00 20.00     0.086 C 
HETATM    5  C5  UNL     1     -33.587   7.563   3.125  1.00 20.00     0.123 C 
HETATM    6  O10 UNL     1     -34.116   8.096   4.346  1.00 20.00    -0.386 OA
HETATM    7 CL11 UNL     1     -34.160   3.592   4.043  1.00 20.00    -0.125 Cl
ENDROOT
BRANCH   5   8
HETATM    8  C8  UNL     1     -32.120   7.864   2.985  1.00 20.00     0.035 C 
BRANCH   8   9
HETATM    9  C9  UNL     1     -31.813   8.958   1.949  1.00 20.00    -0.020 C 
HETATM   10  C6  UNL     1     -31.354   8.379   0.609  1.00 20.00     0.009 C 
HETATM   11  C7  UNL     1     -33.052   9.833   1.737  1.00 20.00     0.009 C 
ENDBRANCH   8   9
ENDBRANCH   5   8
TORSDOF 2
ENDMDL
MODEL 6
REMARK VINA RESULT:      -4.1     10.468     11.350
REMARK  2 active torsions:
REMARK  status: ('A' for Active; 'I' for Inactive)
REMARK    1  A    between atoms: C5_5  and  C8_8 
REMARK    2  A    between atoms: C8_8  and  C9_9 
ROOT
HETATM    1  C1  UNL     1     -33.405  17.928  -3.391  1.00 20.00     0.046 C 
HETATM    2  C2  UNL     1     -35.249  16.458  -2.548  1.00 20.00     0.052 C 
HETATM    3  C3  UNL     1     -33.596  17.288  -4.760  1.00 20.00     0.169 C 
HETATM    4  C4  UNL     1     -33.827  16.956  -2.295  1.00 20.00     0.086 C 
HETATM    5  C5  UNL     1     -35.423  15.925  -3.975  1.00 20.00     0.123 C 
HETATM    6  O10 UNL     1     -34.942  16.857  -4.952  1.00 20.00    -0.386 OA
HETATM    7 CL11 UNL     1     -33.726  17.746  -0.697  1.00 20.00    -0.125 Cl
ENDROOT
BRANCH   5   8
HETATM    8  C8  UNL     1     -34.830  14.558  -4.182  1.00 20.00     0.035 C 
BRANCH   8   9
HETATM    9  C9  UNL     1     -35.672  13.657  -5.100  1.00 20.00    -0.020 C 
HETATM   10  C6  UNL     1     -37.126  14.122  -5.200  1.00 20.00     0.009 C 
HETATM   11  C7  UNL     1     -35.046  13.612  -6.497  1.00 20.00     0.009 C 
ENDBRANCH   8   9
ENDBRANCH   5   8
TORSDOF 2
ENDMDL
MODEL 7
REMARK VINA RESULT:      -4.1     10.510     11.459
REMARK  2 active torsions:
REMARK  status: ('A' for Active; 'I' for Inactive)
REMARK    1  A    between atoms: C5_5  and  C8_8 
REMARK    2  A    between atoms: C8_8  and  C9_9 
ROOT
HETATM    1  C1  UNL     1     -35.885  15.992  -5.525  1.00 20.00     0.046 C 
HETATM    2  C2  UNL     1     -34.380  14.926  -3.831  1.00 20.00     0.052 C 
HETATM    3  C3  UNL     1     -35.606  17.328  -4.850  1.00 20.00     0.169 C 
HETATM    4  C4  UNL     1     -35.743  14.857  -4.518  1.00 20.00     0.086 C 
HETATM    5  C5  UNL     1     -34.096  16.321  -3.264  1.00 20.00     0.123 C 
HETATM    6  O10 UNL     1     -34.316  17.346  -4.241  1.00 20.00    -0.386 OA
HETATM    7 CL11 UNL     1     -35.944  13.280  -5.332  1.00 20.00    -0.125 Cl
ENDROOT
BRANCH   5   8
HETATM    8  C8  UNL     1     -34.834  16.612  -1.986  1.00 20.00     0.035 C 
BRANCH   8   9
HETATM    9  C9  UNL     1     -34.332  17.871  -1.260  1.00 20.00    -0.020 C 
HETATM   10  C6  UNL     1     -34.820  17.943   0.188  1.00 20.00     0.009 C 
HETATM   11  C7  UNL     1     -32.802  17.913  -1.293  1.00 20.00     0.009 C 
ENDBRANCH   8   9
ENDBRANCH   5   8
TORSDOF 2
ENDMDL
MODEL 8
REMARK VINA RESULT:      -4.0     10.915     11.856
REMARK  2 active torsions:
REMARK  status: ('A' for Active; 'I' for Inactive)
REMARK    1  A    between atoms: C5_5  and  C8_8 
REMARK    2  A    between atoms: C8_8  and  C9_9 
ROOT
HETATM    1  C1  UNL     1     -33.381  15.562  -5.895  1.00 20.00     0.046 C 
HETATM    2  C2  UNL     1     -34.807  17.145  -4.578  1.00 20.00     0.052 C 
HETATM    3  C3  UNL     1     -33.198  14.753  -4.619  1.00 20.00     0.169 C 
HETATM    4  C4  UNL     1     -33.638  17.026  -5.555  1.00 20.00     0.086 C 
HETATM    5  C5  UNL     1     -34.631  16.229  -3.362  1.00 20.00     0.123 C 
HETATM    6  O10 UNL     1     -34.322  14.884  -3.751  1.00 20.00    -0.386 OA
HETATM    7 CL11 UNL     1     -33.980  17.955  -7.041  1.00 20.00    -0.125 Cl
ENDROOT
BRANCH   5   8
HETATM    8  C8  UNL     1     -33.643  16.750  -2.355  1.00 20.00     0.035 C 
BRANCH   8   9
HETATM    9  C9  UNL     1     -34.233  17.805  -1.405  1.00 20.00    -0.020 C 
HETATM   10  C6  UNL     1     -35.367  17.246  -0.544  1.00 20.00     0.009 C 
HETATM   11  C7  UNL     1     -33.129  18.366  -0.504  1.00 20.00     0.009 C 
ENDBRANCH   8   9
ENDBRANCH   5   8
TORSDOF 2
ENDMDL
MODEL 9
REMARK VINA RESULT:      -3.8     10.207     11.121
REMARK  2 active torsions:
REMARK  status: ('A' for Active; 'I' for Inactive)
REMARK    1  A    between atoms: C5_5  and  C8_8 
REMARK    2  A    between atoms: C8_8  and  C9_9 
ROOT
HETATM    1  C1  UNL     1     -33.669  18.421  -0.012  1.00 20.00     0.046 C 
HETATM    2  C2  UNL     1     -35.311  17.675  -1.749  1.00 20.00     0.052 C 
HETATM    3  C3  UNL     1     -32.575  18.265  -1.059  1.00 20.00     0.169 C 
HETATM    4  C4  UNL     1     -34.823  17.473  -0.316  1.00 20.00     0.086 C 
HETATM    5  C5  UNL     1     -34.159  17.619  -2.758  1.00 20.00     0.123 C 
HETATM    6  O10 UNL     1     -33.077  18.479  -2.376  1.00 20.00    -0.386 OA
HETATM    7 CL11 UNL     1     -36.163  17.742   0.835  1.00 20.00    -0.125 Cl
ENDROOT
BRANCH   5   8
HETATM    8  C8  UNL     1     -33.675  16.224  -3.043  1.00 20.00     0.035 C 
BRANCH   8   9
HETATM    9  C9  UNL     1     -34.176  15.662  -4.384  1.00 20.00    -0.020 C 
HETATM   10  C6  UNL     1     -33.139  15.806  -5.500  1.00 20.00     0.009 C 
HETATM   11  C7  UNL     1     -34.556  14.188  -4.219  1.00 20.00     0.009 C 
ENDBRANCH   8   9
ENDBRANCH   5   8
TORSDOF 2
ENDMDL
