MODEL 1
REMARK VINA RESULT:      -4.7      0.000      0.000
REMARK  2 active torsions:
REMARK  status: ('A' for Active; 'I' for Inactive)
REMARK    1  A    between atoms: C4_4  and  O10_10 
REMARK    2  A    between atoms: C5_5  and  C8_8 
ROOT
HETATM    1  C1  UNL     1     -34.302   5.513   5.664  1.00 20.00     0.058 C 
HETATM    2  C2  UNL     1     -33.502   5.789   3.300  1.00 20.00     0.069 C 
HETATM    3  C3  UNL     1     -34.022   6.995   5.866  1.00 20.00     0.171 C 
HETATM    4  C4  UNL     1     -34.590   5.203   4.200  1.00 20.00     0.123 C 
HETATM    5  C5  UNL     1     -33.130   7.252   3.632  1.00 20.00     0.059 C 
HETATM    6  C6  UNL     1     -34.136   8.251   3.094  1.00 20.00     0.046 C 
HETATM    7  O9  UNL     1     -32.944   7.435   5.045  1.00 20.00    -0.380 OA
ENDROOT
BRANCH   5   8
HETATM    8  C8  UNL     1     -31.762   7.564   2.995  1.00 20.00     0.033 C 
HETATM    9  C7  UNL     1     -31.904   8.467   1.818  1.00 20.00     0.008 C 
ENDBRANCH   5   8
BRANCH   4  10
HETATM   10  O10 UNL     1     -35.858   5.732   3.825  1.00 20.00    -0.395 OA
HETATM   11  H26 UNL     1     -35.879   6.651   4.135  1.00 20.00     0.210 HD
ENDBRANCH   4  10
TORSDOF 2
ENDMDL
MODEL 2
REMARK VINA RESULT:      -4.3     11.089     12.408
REMARK  2 active torsions:
REMARK  status: ('A' for Active; 'I' for Inactive)
REMARK    1  A    between atoms: C4_4  and  O10_10 
REMARK    2  A    between atoms: C5_5  and  C8_8 
ROOT
HETATM    1  C1  UNL     1     -35.897  14.005  -6.882  1.00 20.00     0.058 C 
HETATM    2  C2  UNL     1     -35.551  14.948  -4.581  1.00 20.00     0.069 C 
HETATM    3  C3  UNL     1     -34.391  14.102  -7.080  1.00 20.00     0.171 C 
HETATM    4  C4  UNL     1     -36.248  13.865  -5.406  1.00 20.00     0.123 C 
HETATM    5  C5  UNL     1     -34.053  15.128  -4.916  1.00 20.00     0.059 C 
HETATM    6  C6  UNL     1     -33.177  14.063  -4.288  1.00 20.00     0.046 C 
HETATM    7  O9  UNL     1     -33.840  15.184  -6.336  1.00 20.00    -0.380 OA
ENDROOT
BRANCH   5   8
HETATM    8  C8  UNL     1     -33.595  16.498  -4.379  1.00 20.00     0.033 C 
HETATM    9  C7  UNL     1     -33.839  16.616  -2.913  1.00 20.00     0.008 C 
ENDBRANCH   5   8
BRANCH   4  10
HETATM   10  O10 UNL     1     -35.867  12.580  -4.928  1.00 20.00    -0.395 OA
HETATM   11  H26 UNL     1     -35.926  11.973  -5.683  1.00 20.00     0.210 HD
ENDBRANCH   4  10
TORSDOF 2
ENDMDL
MODEL 3
REMARK VINA RESULT:      -4.1     11.473     12.503
REMARK  2 active torsions:
REMARK  status: ('A' for Active; 'I' for Inactive)
REMARK    1  A    between atoms: C4_4  and  O10_10 
REMARK    2  A    between atoms: C5_5  and  C8_8 
ROOT
HETATM    1  C1  UNL     1     -36.698  14.517  -5.856  1.00 20.00     0.058 C 
HETATM    2  C2  UNL     1     -34.820  14.160  -4.229  1.00 20.00     0.069 C 
HETATM    3  C3  UNL     1     -36.046  15.843  -6.222  1.00 20.00     0.171 C 
HETATM    4  C4  UNL     1     -35.667  13.525  -5.332  1.00 20.00     0.123 C 
HETATM    5  C5  UNL     1     -34.299  15.575  -4.571  1.00 20.00     0.059 C 
HETATM    6  C6  UNL     1     -33.102  15.552  -5.501  1.00 20.00     0.046 C 
HETATM    7  O9  UNL     1     -35.344  16.398  -5.114  1.00 20.00    -0.380 OA
ENDROOT
BRANCH   5   8
HETATM    8  C8  UNL     1     -33.871  16.266  -3.262  1.00 20.00     0.033 C 
HETATM    9  C7  UNL     1     -35.032  16.467  -2.350  1.00 20.00     0.008 C 
ENDBRANCH   5   8
BRANCH   4  10
HETATM   10  O10 UNL     1     -34.824  13.084  -6.391  1.00 20.00    -0.395 OA
HETATM   11  H26 UNL     1     -35.035  12.150  -6.544  1.00 20.00     0.210 HD
ENDBRANCH   4  10
TORSDOF 2
ENDMDL
MODEL 4
REMARK VINA RESULT:      -4.1     11.512     13.123
REMARK  2 active torsions:
REMARK  status: ('A' for Active; 'I' for Inactive)
REMARK    1  A    between atoms: C4_4  and  O10_10 
REMARK    2  A    between atoms: C5_5  and  C8_8 
ROOT
HETATM    1  C1  UNL     1     -34.468  15.140  -3.791  1.00 20.00     0.058 C 
HETATM    2  C2  UNL     1     -33.220  15.609  -5.918  1.00 20.00     0.069 C 
HETATM    3  C3  UNL     1     -35.591  14.572  -4.647  1.00 20.00     0.171 C 
HETATM    4  C4  UNL     1     -33.126  15.034  -4.504  1.00 20.00     0.123 C 
HETATM    5  C5  UNL     1     -34.458  15.131  -6.710  1.00 20.00     0.059 C 
HETATM    6  C6  UNL     1     -34.294  13.732  -7.271  1.00 20.00     0.046 C 
HETATM    7  O9  UNL     1     -35.652  15.219  -5.915  1.00 20.00    -0.380 OA
ENDROOT
BRANCH   5   8
HETATM    8  C8  UNL     1     -34.681  16.094  -7.892  1.00 20.00     0.033 C 
HETATM    9  C7  UNL     1     -33.927  17.366  -7.706  1.00 20.00     0.008 C 
ENDBRANCH   5   8
BRANCH   4  10
HETATM   10  O10 UNL     1     -32.706  13.675  -4.565  1.00 20.00    -0.395 OA
HETATM   11  H26 UNL     1     -32.556  13.472  -5.502  1.00 20.00     0.210 HD
ENDBRANCH   4  10
TORSDOF 2
ENDMDL
MODEL 5
REMARK VINA RESULT:      -4.0     11.570     13.193
REMARK  2 active torsions:
REMARK  status: ('A' for Active; 'I' for Inactive)
REMARK    1  A    between atoms: C4_4  and  O10_10 
REMARK    2  A    between atoms: C5_5  and  C8_8 
ROOT
HETATM    1  C1  UNL     1     -37.272  14.576  -5.326  1.00 20.00     0.058 C 
HETATM    2  C2  UNL     1     -34.769  14.727  -5.205  1.00 20.00     0.069 C 
HETATM    3  C3  UNL     1     -37.148  14.742  -6.833  1.00 20.00     0.171 C 
HETATM    4  C4  UNL     1     -36.008  13.965  -4.734  1.00 20.00     0.123 C 
HETATM    5  C5  UNL     1     -34.747  15.016  -6.723  1.00 20.00     0.059 C 
HETATM    6  C6  UNL     1     -34.338  13.810  -7.545  1.00 20.00     0.046 C 
HETATM    7  O9  UNL     1     -36.011  15.529  -7.175  1.00 20.00    -0.380 OA
ENDROOT
BRANCH   5   8
HETATM    8  C8  UNL     1     -33.729  16.141  -6.990  1.00 20.00     0.033 C 
HETATM    9  C7  UNL     1     -33.895  17.264  -6.025  1.00 20.00     0.008 C 
ENDBRANCH   5   8
BRANCH   4  10
HETATM   10  O10 UNL     1     -35.901  12.596  -5.110  1.00 20.00    -0.395 OA
HETATM   11  H26 UNL     1     -36.772  12.329  -5.444  1.00 20.00     0.210 HD
ENDBRANCH   4  10
TORSDOF 2
ENDMDL
MODEL 6
REMARK VINA RESULT:      -4.0      1.419      2.390
REMARK  2 active torsions:
REMARK  status: ('A' for Active; 'I' for Inactive)
REMARK    1  A    between atoms: C4_4  and  O10_10 
REMARK    2  A    between atoms: C5_5  and  C8_8 
ROOT
HETATM    1  C1  UNL     1     -34.246   5.502   3.741  1.00 20.00     0.058 C 
HETATM    2  C2  UNL     1     -34.000   7.999   3.668  1.00 20.00     0.069 C 
HETATM    3  C3  UNL     1     -32.916   5.411   3.008  1.00 20.00     0.171 C 
HETATM    4  C4  UNL     1     -34.345   6.794   4.543  1.00 20.00     0.123 C 
HETATM    5  C5  UNL     1     -32.723   7.815   2.817  1.00 20.00     0.059 C 
HETATM    6  C6  UNL     1     -31.450   8.010   3.616  1.00 20.00     0.046 C 
HETATM    7  O9  UNL     1     -32.714   6.537   2.159  1.00 20.00    -0.380 OA
ENDROOT
BRANCH   5   8
HETATM    8  C8  UNL     1     -32.738   8.859   1.684  1.00 20.00     0.033 C 
HETATM    9  C7  UNL     1     -31.526   8.743   0.823  1.00 20.00     0.008 C 
ENDBRANCH   5   8
BRANCH   4  10
HETATM   10  O10 UNL     1     -33.466   6.747   5.662  1.00 20.00    -0.395 OA
HETATM   11  H26 UNL     1     -33.713   5.963   6.177  1.00 20.00     0.210 HD
ENDBRANCH   4  10
TORSDOF 2
ENDMDL
MODEL 7
REMARK VINA RESULT:      -3.9     11.625     12.303
REMARK  2 active torsions:
REMARK  status: ('A' for Active; 'I' for Inactive)
REMARK    1  A    between atoms: C4_4  and  O10_10 
REMARK    2  A    between atoms: C5_5  and  C8_8 
ROOT
HETATM    1  C1  UNL     1     -35.359  13.982  -4.836  1.00 20.00     0.058 C 
HETATM    2  C2  UNL     1     -33.279  15.085  -3.965  1.00 20.00     0.069 C 
HETATM    3  C3  UNL     1     -36.066  15.318  -4.664  1.00 20.00     0.171 C 
HETATM    4  C4  UNL     1     -33.862  14.175  -5.047  1.00 20.00     0.123 C 
HETATM    5  C5  UNL     1     -34.107  16.364  -3.704  1.00 20.00     0.059 C 
HETATM    6  C6  UNL     1     -33.880  17.436  -4.752  1.00 20.00     0.046 C 
HETATM    7  O9  UNL     1     -35.508  16.064  -3.586  1.00 20.00    -0.380 OA
ENDROOT
BRANCH   5   8
HETATM    8  C8  UNL     1     -33.695  16.941  -2.336  1.00 20.00     0.033 C 
HETATM    9  C7  UNL     1     -34.852  16.994  -1.399  1.00 20.00     0.008 C 
ENDBRANCH   5   8
BRANCH   4  10
HETATM   10  O10 UNL     1     -33.614  14.737  -6.331  1.00 20.00    -0.395 OA
HETATM   11  H26 UNL     1     -34.265  15.445  -6.456  1.00 20.00     0.210 HD
ENDBRANCH   4  10
TORSDOF 2
ENDMDL
MODEL 8
REMARK VINA RESULT:      -3.8     11.104     12.925
REMARK  2 active torsions:
REMARK  status: ('A' for Active; 'I' for Inactive)
REMARK    1  A    between atoms: C4_4  and  O10_10 
REMARK    2  A    between atoms: C5_5  and  C8_8 
ROOT
HETATM    1  C1  UNL     1     -33.798  15.499  -3.901  1.00 20.00     0.058 C 
HETATM    2  C2  UNL     1     -34.819  15.932  -6.154  1.00 20.00     0.069 C 
HETATM    3  C3  UNL     1     -34.239  14.050  -4.048  1.00 20.00     0.171 C 
HETATM    4  C4  UNL     1     -33.596  16.152  -5.263  1.00 20.00     0.123 C 
HETATM    5  C5  UNL     1     -35.338  14.475  -6.161  1.00 20.00     0.059 C 
HETATM    6  C6  UNL     1     -34.510  13.560  -7.041  1.00 20.00     0.046 C 
HETATM    7  O9  UNL     1     -35.427  13.947  -4.827  1.00 20.00    -0.380 OA
ENDROOT
BRANCH   5   8
HETATM    8  C8  UNL     1     -36.782  14.476  -6.699  1.00 20.00     0.033 C 
HETATM    9  C7  UNL     1     -37.775  14.494  -5.588  1.00 20.00     0.008 C 
ENDBRANCH   5   8
BRANCH   4  10
HETATM   10  O10 UNL     1     -32.438  15.620  -5.898  1.00 20.00    -0.395 OA
HETATM   11  H26 UNL     1     -32.199  14.816  -5.411  1.00 20.00     0.210 HD
ENDBRANCH   4  10
TORSDOF 2
ENDMDL
MODEL 9
REMARK VINA RESULT:      -3.7     11.246     12.606
REMARK  2 active torsions:
REMARK  status: ('A' for Active; 'I' for Inactive)
REMARK    1  A    between atoms: C4_4  and  O10_10 
REMARK    2  A    between atoms: C5_5  and  C8_8 
ROOT
HETATM    1  C1  UNL     1     -37.183  15.659  -6.214  1.00 20.00     0.058 C 
HETATM    2  C2  UNL     1     -36.513  15.546  -3.797  1.00 20.00     0.069 C 
HETATM    3  C3  UNL     1     -35.717  15.458  -6.566  1.00 20.00     0.171 C 
HETATM    4  C4  UNL     1     -37.508  15.059  -4.851  1.00 20.00     0.123 C 
HETATM    5  C5  UNL     1     -35.035  15.474  -4.245  1.00 20.00     0.059 C 
HETATM    6  C6  UNL     1     -34.464  14.072  -4.162  1.00 20.00     0.046 C 
HETATM    7  O9  UNL     1     -34.864  16.010  -5.567  1.00 20.00    -0.380 OA
ENDROOT
BRANCH   5   8
HETATM    8  C8  UNL     1     -34.202  16.384  -3.323  1.00 20.00     0.033 C 
HETATM    9  C7  UNL     1     -34.902  16.637  -2.033  1.00 20.00     0.008 C 
ENDBRANCH   5   8
BRANCH   4  10
HETATM   10  O10 UNL     1     -37.477  13.638  -4.918  1.00 20.00    -0.395 OA
HETATM   11  H26 UNL     1     -37.400  13.317  -4.005  1.00 20.00     0.210 HD
ENDBRANCH   4  10
TORSDOF 2
ENDMDL
