MODEL 1
REMARK VINA RESULT:      -4.5      0.000      0.000
REMARK  0 active torsions:
REMARK  status: ('A' for Active; 'I' for Inactive)
ROOT
HETATM    1  C1  UNL     1     -32.464  18.192  -0.604  1.00 20.00     0.088 C 
HETATM    2  C2  UNL     1     -34.315  17.187  -1.776  1.00 20.00    -0.065 C 
HETATM    3  C3  UNL     1     -33.850  17.942  -0.770  1.00 20.00     0.096 C 
HETATM    4  C4  UNL     1     -35.774  16.900  -1.985  1.00 20.00     0.061 C 
HETATM    5  C5  UNL     1     -33.426  16.566  -2.819  1.00 20.00     0.072 C 
HETATM    6  C6  UNL     1     -36.164  17.263  -3.413  1.00 20.00     0.173 C 
HETATM    7  C7  UNL     1     -33.918  16.920  -4.238  1.00 20.00     0.057 C 
HETATM    8  C8  UNL     1     -33.199  16.023  -5.257  1.00 20.00     0.046 C 
HETATM    9  C9  UNL     1     -33.636  18.386  -4.602  1.00 20.00     0.046 C 
HETATM   10  N10 UNL     1     -31.332  18.400  -0.463  1.00 20.00    -0.192 NA
HETATM   11  O11 UNL     1     -35.320  16.617  -4.370  1.00 20.00    -0.380 OA
ENDROOT
TORSDOF 0
ENDMDL
MODEL 2
REMARK VINA RESULT:      -4.3      3.018      4.639
REMARK  0 active torsions:
REMARK  status: ('A' for Active; 'I' for Inactive)
ROOT
HETATM    1  C1  UNL     1     -35.335  13.821  -5.472  1.00 20.00     0.088 C 
HETATM    2  C2  UNL     1     -34.251  15.877  -4.839  1.00 20.00    -0.065 C 
HETATM    3  C3  UNL     1     -34.616  15.001  -5.786  1.00 20.00     0.096 C 
HETATM    4  C4  UNL     1     -33.489  17.138  -5.131  1.00 20.00     0.061 C 
HETATM    5  C5  UNL     1     -34.585  15.703  -3.382  1.00 20.00     0.072 C 
HETATM    6  C6  UNL     1     -34.226  18.329  -4.528  1.00 20.00     0.173 C 
HETATM    7  C7  UNL     1     -35.268  16.969  -2.822  1.00 20.00     0.057 C 
HETATM    8  C8  UNL     1     -35.301  16.886  -1.289  1.00 20.00     0.046 C 
HETATM    9  C9  UNL     1     -36.710  17.123  -3.328  1.00 20.00     0.046 C 
HETATM   10  N10 UNL     1     -35.924  12.853  -5.222  1.00 20.00    -0.192 NA
HETATM   11  O11 UNL     1     -34.485  18.136  -3.135  1.00 20.00    -0.380 OA
ENDROOT
TORSDOF 0
ENDMDL
MODEL 3
REMARK VINA RESULT:      -4.3      3.113      4.367
REMARK  0 active torsions:
REMARK  status: ('A' for Active; 'I' for Inactive)
ROOT
HETATM    1  C1  UNL     1     -35.207  13.683  -4.720  1.00 20.00     0.088 C 
HETATM    2  C2  UNL     1     -34.676  15.665  -3.457  1.00 20.00    -0.065 C 
HETATM    3  C3  UNL     1     -34.281  14.550  -4.088  1.00 20.00     0.096 C 
HETATM    4  C4  UNL     1     -33.725  16.608  -2.777  1.00 20.00     0.061 C 
HETATM    5  C5  UNL     1     -36.113  16.105  -3.383  1.00 20.00     0.072 C 
HETATM    6  C6  UNL     1     -33.957  18.024  -3.294  1.00 20.00     0.173 C 
HETATM    7  C7  UNL     1     -36.263  17.566  -3.858  1.00 20.00     0.057 C 
HETATM    8  C8  UNL     1     -37.658  18.079  -3.472  1.00 20.00     0.046 C 
HETATM    9  C9  UNL     1     -36.104  17.702  -5.381  1.00 20.00     0.046 C 
HETATM   10  N10 UNL     1     -35.960  12.969  -5.239  1.00 20.00    -0.192 NA
HETATM   11  O11 UNL     1     -35.327  18.414  -3.165  1.00 20.00    -0.380 OA
ENDROOT
TORSDOF 0
ENDMDL
MODEL 4
REMARK VINA RESULT:      -4.2      3.616      5.191
REMARK  0 active torsions:
REMARK  status: ('A' for Active; 'I' for Inactive)
ROOT
HETATM    1  C1  UNL     1     -37.689  14.295  -5.355  1.00 20.00     0.088 C 
HETATM    2  C2  UNL     1     -35.304  14.523  -5.610  1.00 20.00    -0.065 C 
HETATM    3  C3  UNL     1     -36.502  14.215  -6.127  1.00 20.00     0.096 C 
HETATM    4  C4  UNL     1     -34.025  14.451  -6.395  1.00 20.00     0.061 C 
HETATM    5  C5  UNL     1     -35.112  14.996  -4.195  1.00 20.00     0.072 C 
HETATM    6  C6  UNL     1     -33.289  15.783  -6.291  1.00 20.00     0.173 C 
HETATM    7  C7  UNL     1     -34.305  16.311  -4.162  1.00 20.00     0.057 C 
HETATM    8  C8  UNL     1     -33.857  16.590  -2.720  1.00 20.00     0.046 C 
HETATM    9  C9  UNL     1     -35.130  17.512  -4.652  1.00 20.00     0.046 C 
HETATM   10  N10 UNL     1     -38.664  14.358  -4.730  1.00 20.00    -0.192 NA
HETATM   11  O11 UNL     1     -33.094  16.171  -4.929  1.00 20.00    -0.380 OA
ENDROOT
TORSDOF 0
ENDMDL
MODEL 5
REMARK VINA RESULT:      -4.2      2.024      2.603
REMARK  0 active torsions:
REMARK  status: ('A' for Active; 'I' for Inactive)
ROOT
HETATM    1  C1  UNL     1     -33.216  17.967  -2.636  1.00 20.00     0.088 C 
HETATM    2  C2  UNL     1     -33.820  15.963  -3.831  1.00 20.00    -0.065 C 
HETATM    3  C3  UNL     1     -33.734  16.647  -2.681  1.00 20.00     0.096 C 
HETATM    4  C4  UNL     1     -34.362  14.565  -3.919  1.00 20.00     0.061 C 
HETATM    5  C5  UNL     1     -33.405  16.530  -5.161  1.00 20.00     0.072 C 
HETATM    6  C6  UNL     1     -35.462  14.512  -4.975  1.00 20.00     0.173 C 
HETATM    7  C7  UNL     1     -34.540  16.384  -6.197  1.00 20.00     0.057 C 
HETATM    8  C8  UNL     1     -33.982  16.670  -7.598  1.00 20.00     0.046 C 
HETATM    9  C9  UNL     1     -35.699  17.357  -5.931  1.00 20.00     0.046 C 
HETATM   10  N10 UNL     1     -32.794  19.046  -2.592  1.00 20.00    -0.192 NA
HETATM   11  O11 UNL     1     -35.009  15.022  -6.232  1.00 20.00    -0.380 OA
ENDROOT
TORSDOF 0
ENDMDL
MODEL 6
REMARK VINA RESULT:      -4.1     11.581     12.255
REMARK  0 active torsions:
REMARK  status: ('A' for Active; 'I' for Inactive)
ROOT
HETATM    1  C1  UNL     1     -32.240   8.867   1.270  1.00 20.00     0.088 C 
HETATM    2  C2  UNL     1     -32.467   7.923   3.475  1.00 20.00    -0.065 C 
HETATM    3  C3  UNL     1     -32.321   8.992   2.680  1.00 20.00     0.096 C 
HETATM    4  C4  UNL     1     -32.557   8.015   4.972  1.00 20.00     0.061 C 
HETATM    5  C5  UNL     1     -32.581   6.516   2.953  1.00 20.00     0.072 C 
HETATM    6  C6  UNL     1     -33.807   7.285   5.452  1.00 20.00     0.173 C 
HETATM    7  C7  UNL     1     -33.831   5.818   3.530  1.00 20.00     0.057 C 
HETATM    8  C8  UNL     1     -33.743   4.312   3.241  1.00 20.00     0.046 C 
HETATM    9  C9  UNL     1     -35.133   6.353   2.914  1.00 20.00     0.046 C 
HETATM   10  N10 UNL     1     -32.173   8.772   0.116  1.00 20.00    -0.192 NA
HETATM   11  O11 UNL     1     -33.851   5.941   4.965  1.00 20.00    -0.380 OA
ENDROOT
TORSDOF 0
ENDMDL
MODEL 7
REMARK VINA RESULT:      -4.1      2.873      4.345
REMARK  0 active torsions:
REMARK  status: ('A' for Active; 'I' for Inactive)
ROOT
HETATM    1  C1  UNL     1     -34.781  15.529  -3.737  1.00 20.00     0.088 C 
HETATM    2  C2  UNL     1     -33.964  17.009  -2.020  1.00 20.00    -0.065 C 
HETATM    3  C3  UNL     1     -33.771  16.344  -3.168  1.00 20.00     0.096 C 
HETATM    4  C4  UNL     1     -32.918  17.882  -1.387  1.00 20.00     0.061 C 
HETATM    5  C5  UNL     1     -35.258  16.973  -1.254  1.00 20.00     0.072 C 
HETATM    6  C6  UNL     1     -33.505  19.263  -1.115  1.00 20.00     0.173 C 
HETATM    7  C7  UNL     1     -35.759  18.402  -0.957  1.00 20.00     0.057 C 
HETATM    8  C8  UNL     1     -36.886  18.334   0.084  1.00 20.00     0.046 C 
HETATM    9  C9  UNL     1     -36.304  19.100  -2.213  1.00 20.00     0.046 C 
HETATM   10  N10 UNL     1     -35.604  14.861  -4.208  1.00 20.00    -0.192 NA
HETATM   11  O11 UNL     1     -34.711  19.181  -0.349  1.00 20.00    -0.380 OA
ENDROOT
TORSDOF 0
ENDMDL
MODEL 8
REMARK VINA RESULT:      -4.0      3.172      3.997
REMARK  0 active torsions:
REMARK  status: ('A' for Active; 'I' for Inactive)
ROOT
HETATM    1  C1  UNL     1     -36.615  17.054  -3.286  1.00 20.00     0.088 C 
HETATM    2  C2  UNL     1     -36.160  14.971  -4.408  1.00 20.00    -0.065 C 
HETATM    3  C3  UNL     1     -36.988  15.992  -4.148  1.00 20.00     0.096 C 
HETATM    4  C4  UNL     1     -36.518  13.829  -5.315  1.00 20.00     0.061 C 
HETATM    5  C5  UNL     1     -34.771  14.870  -3.838  1.00 20.00     0.072 C 
HETATM    6  C6  UNL     1     -35.434  13.662  -6.375  1.00 20.00     0.173 C 
HETATM    7  C7  UNL     1     -33.735  14.636  -4.958  1.00 20.00     0.057 C 
HETATM    8  C8  UNL     1     -32.398  14.221  -4.327  1.00 20.00     0.046 C 
HETATM    9  C9  UNL     1     -33.499  15.896  -5.804  1.00 20.00     0.046 C 
HETATM   10  N10 UNL     1     -36.316  17.926  -2.581  1.00 20.00    -0.192 NA
HETATM   11  O11 UNL     1     -34.138  13.528  -5.785  1.00 20.00    -0.380 OA
ENDROOT
TORSDOF 0
ENDMDL
MODEL 9
REMARK VINA RESULT:      -4.0      3.532      5.454
REMARK  0 active torsions:
REMARK  status: ('A' for Active; 'I' for Inactive)
ROOT
HETATM    1  C1  UNL     1     -34.881  13.359  -7.237  1.00 20.00     0.088 C 
HETATM    2  C2  UNL     1     -34.077  15.611  -6.943  1.00 20.00    -0.065 C 
HETATM    3  C3  UNL     1     -34.629  14.669  -7.719  1.00 20.00     0.096 C 
HETATM    4  C4  UNL     1     -33.795  17.008  -7.417  1.00 20.00     0.061 C 
HETATM    5  C5  UNL     1     -33.701  15.380  -5.504  1.00 20.00     0.072 C 
HETATM    6  C6  UNL     1     -34.424  18.009  -6.453  1.00 20.00     0.173 C 
HETATM    7  C7  UNL     1     -34.317  16.465  -4.596  1.00 20.00     0.057 C 
HETATM    8  C8  UNL     1     -33.662  16.389  -3.209  1.00 20.00     0.046 C 
HETATM    9  C9  UNL     1     -35.834  16.288  -4.424  1.00 20.00     0.046 C 
HETATM   10  N10 UNL     1     -35.090  12.286  -6.849  1.00 20.00    -0.192 NA
HETATM   11  O11 UNL     1     -34.005  17.776  -5.105  1.00 20.00    -0.380 OA
ENDROOT
TORSDOF 0
ENDMDL
