MODEL 1
REMARK VINA RESULT:      -4.8      0.000      0.000
REMARK  2 active torsions:
REMARK  status: ('A' for Active; 'I' for Inactive)
REMARK    1  A    between atoms: C6_6  and  C8_8 
REMARK    2  A    between atoms: C7_7  and  O11_11 
ROOT
HETATM    1  C3  UNL     1     -34.397  14.076  -6.379  1.00 20.00     0.058 C 
HETATM    2  C4  UNL     1     -34.995  14.608  -4.013  1.00 20.00     0.069 C 
HETATM    3  C5  UNL     1     -33.834  15.482  -6.496  1.00 20.00     0.171 C 
HETATM    4  C7  UNL     1     -35.499  14.023  -5.330  1.00 20.00     0.123 C 
HETATM    5  C8  UNL     1     -34.356  16.000  -4.188  1.00 20.00     0.063 C 
HETATM    6  C9  UNL     1     -35.412  17.081  -4.472  1.00 20.00     0.046 C 
HETATM    7  O10 UNL     1     -33.375  15.968  -5.238  1.00 20.00    -0.380 OA
ENDROOT
BRANCH   5   8
HETATM    8  C6  UNL     1     -33.616  16.370  -2.916  1.00 20.00     0.020 A 
HETATM    9  C1  UNL     1     -33.368  17.813  -2.575  1.00 20.00     0.008 A 
HETATM   10  C2  UNL     1     -34.351  17.008  -1.771  1.00 20.00     0.008 A 
ENDBRANCH   5   8
BRANCH   4  11
HETATM   11  O11 UNL     1     -35.898  12.674  -5.112  1.00 20.00    -0.395 OA
HETATM   12  H27 UNL     1     -36.561  12.467  -5.791  1.00 20.00     0.210 HD
ENDBRANCH   4  11
TORSDOF 2
ENDMDL
MODEL 2
REMARK VINA RESULT:      -4.5     11.617     12.740
REMARK  2 active torsions:
REMARK  status: ('A' for Active; 'I' for Inactive)
REMARK    1  A    between atoms: C6_6  and  C8_8 
REMARK    2  A    between atoms: C7_7  and  O11_11 
ROOT
HETATM    1  C3  UNL     1     -34.244   4.656   5.360  1.00 20.00     0.058 C 
HETATM    2  C4  UNL     1     -33.711   6.940   4.500  1.00 20.00     0.069 C 
HETATM    3  C5  UNL     1     -34.040   4.136   3.947  1.00 20.00     0.171 C 
HETATM    4  C7  UNL     1     -34.684   6.114   5.338  1.00 20.00     0.123 C 
HETATM    5  C8  UNL     1     -33.466   6.333   3.104  1.00 20.00     0.063 C 
HETATM    6  C9  UNL     1     -34.686   6.506   2.185  1.00 20.00     0.046 C 
HETATM    7  O10 UNL     1     -33.118   4.944   3.220  1.00 20.00    -0.380 OA
ENDROOT
BRANCH   5   8
HETATM    8  C6  UNL     1     -32.277   7.025   2.464  1.00 20.00     0.020 A 
HETATM    9  C1  UNL     1     -32.414   8.420   1.921  1.00 20.00     0.008 A 
HETATM   10  C2  UNL     1     -31.603   8.173   3.163  1.00 20.00     0.008 A 
ENDBRANCH   5   8
BRANCH   4  11
HETATM   11  O11 UNL     1     -34.708   6.634   6.663  1.00 20.00    -0.395 OA
HETATM   12  H27 UNL     1     -35.634   6.847   6.862  1.00 20.00     0.210 HD
ENDBRANCH   4  11
TORSDOF 2
ENDMDL
MODEL 3
REMARK VINA RESULT:      -4.5      1.312      1.484
REMARK  2 active torsions:
REMARK  status: ('A' for Active; 'I' for Inactive)
REMARK    1  A    between atoms: C6_6  and  C8_8 
REMARK    2  A    between atoms: C7_7  and  O11_11 
ROOT
HETATM    1  C3  UNL     1     -33.569  15.947  -6.408  1.00 20.00     0.058 C 
HETATM    2  C4  UNL     1     -33.915  15.080  -4.091  1.00 20.00     0.069 C 
HETATM    3  C5  UNL     1     -33.931  17.327  -5.888  1.00 20.00     0.171 C 
HETATM    4  C7  UNL     1     -34.234  14.864  -5.568  1.00 20.00     0.123 C 
HETATM    5  C8  UNL     1     -34.217  16.518  -3.623  1.00 20.00     0.063 C 
HETATM    6  C9  UNL     1     -35.729  16.778  -3.519  1.00 20.00     0.046 C 
HETATM    7  O10 UNL     1     -33.603  17.469  -4.508  1.00 20.00    -0.380 OA
ENDROOT
BRANCH   5   8
HETATM    8  C6  UNL     1     -33.594  16.735  -2.256  1.00 20.00     0.020 A 
HETATM    9  C1  UNL     1     -33.149  18.109  -1.836  1.00 20.00     0.008 A 
HETATM   10  C2  UNL     1     -34.350  17.477  -1.189  1.00 20.00     0.008 A 
ENDBRANCH   5   8
BRANCH   4  11
HETATM   11  O11 UNL     1     -33.754  13.582  -5.961  1.00 20.00    -0.395 OA
HETATM   12  H27 UNL     1     -33.627  13.615  -6.923  1.00 20.00     0.210 HD
ENDBRANCH   4  11
TORSDOF 2
ENDMDL
MODEL 4
REMARK VINA RESULT:      -4.5      1.414      1.771
REMARK  2 active torsions:
REMARK  status: ('A' for Active; 'I' for Inactive)
REMARK    1  A    between atoms: C6_6  and  C8_8 
REMARK    2  A    between atoms: C7_7  and  O11_11 
ROOT
HETATM    1  C3  UNL     1     -35.648  13.642  -4.848  1.00 20.00     0.058 C 
HETATM    2  C4  UNL     1     -36.617  15.787  -4.012  1.00 20.00     0.069 C 
HETATM    3  C5  UNL     1     -34.299  14.337  -4.906  1.00 20.00     0.171 C 
HETATM    4  C7  UNL     1     -36.779  14.648  -5.016  1.00 20.00     0.123 C 
HETATM    5  C8  UNL     1     -35.207  16.410  -4.044  1.00 20.00     0.063 C 
HETATM    6  C9  UNL     1     -34.985  17.254  -5.310  1.00 20.00     0.046 C 
HETATM    7  O10 UNL     1     -34.208  15.384  -3.943  1.00 20.00    -0.380 OA
ENDROOT
BRANCH   5   8
HETATM    8  C6  UNL     1     -35.033  17.304  -2.830  1.00 20.00     0.020 A 
HETATM    9  C1  UNL     1     -35.300  16.770  -1.450  1.00 20.00     0.008 A 
HETATM   10  C2  UNL     1     -33.892  17.076  -1.879  1.00 20.00     0.008 A 
ENDBRANCH   5   8
BRANCH   4  11
HETATM   11  O11 UNL     1     -38.032  14.011  -4.792  1.00 20.00    -0.395 OA
HETATM   12  H27 UNL     1     -38.718  14.637  -5.077  1.00 20.00     0.210 HD
ENDBRANCH   4  11
TORSDOF 2
ENDMDL
MODEL 5
REMARK VINA RESULT:      -4.4     10.542     11.646
REMARK  2 active torsions:
REMARK  status: ('A' for Active; 'I' for Inactive)
REMARK    1  A    between atoms: C6_6  and  C8_8 
REMARK    2  A    between atoms: C7_7  and  O11_11 
ROOT
HETATM    1  C3  UNL     1     -34.391   6.107   4.812  1.00 20.00     0.058 C 
HETATM    2  C4  UNL     1     -33.199   6.173   2.619  1.00 20.00     0.069 C 
HETATM    3  C5  UNL     1     -33.967   7.549   5.026  1.00 20.00     0.171 C 
HETATM    4  C7  UNL     1     -33.402   5.382   3.909  1.00 20.00     0.123 C 
HETATM    5  C8  UNL     1     -32.852   7.653   2.877  1.00 20.00     0.063 C 
HETATM    6  C9  UNL     1     -31.421   7.817   3.416  1.00 20.00     0.046 C 
HETATM    7  O10 UNL     1     -33.800   8.234   3.787  1.00 20.00    -0.380 OA
ENDROOT
BRANCH   5   8
HETATM    8  C6  UNL     1     -32.970   8.425   1.577  1.00 20.00     0.020 A 
HETATM    9  C1  UNL     1     -32.605   9.883   1.524  1.00 20.00     0.008 A 
HETATM   10  C2  UNL     1     -31.735   8.864   0.842  1.00 20.00     0.008 A 
ENDBRANCH   5   8
BRANCH   4  11
HETATM   11  O11 UNL     1     -33.899   4.089   3.584  1.00 20.00    -0.395 OA
HETATM   12  H27 UNL     1     -33.712   3.518   4.346  1.00 20.00     0.210 HD
ENDBRANCH   4  11
TORSDOF 2
ENDMDL
MODEL 6
REMARK VINA RESULT:      -4.2      2.224      3.999
REMARK  2 active torsions:
REMARK  status: ('A' for Active; 'I' for Inactive)
REMARK    1  A    between atoms: C6_6  and  C8_8 
REMARK    2  A    between atoms: C7_7  and  O11_11 
ROOT
HETATM    1  C3  UNL     1     -36.761  16.771  -4.797  1.00 20.00     0.058 C 
HETATM    2  C4  UNL     1     -36.295  14.323  -4.959  1.00 20.00     0.069 C 
HETATM    3  C5  UNL     1     -35.338  17.019  -5.269  1.00 20.00     0.171 C 
HETATM    4  C7  UNL     1     -36.865  15.432  -4.079  1.00 20.00     0.123 C 
HETATM    5  C8  UNL     1     -34.884  14.649  -5.487  1.00 20.00     0.063 C 
HETATM    6  C9  UNL     1     -33.824  14.558  -4.376  1.00 20.00     0.046 C 
HETATM    7  O10 UNL     1     -34.867  15.953  -6.090  1.00 20.00    -0.380 OA
ENDROOT
BRANCH   5   8
HETATM    8  C6  UNL     1     -34.523  13.662  -6.581  1.00 20.00     0.020 A 
HETATM    9  C1  UNL     1     -35.401  13.520  -7.794  1.00 20.00     0.008 A 
HETATM   10  C2  UNL     1     -34.044  14.155  -7.918  1.00 20.00     0.008 A 
ENDBRANCH   5   8
BRANCH   4  11
HETATM   11  O11 UNL     1     -38.228  15.140  -3.792  1.00 20.00    -0.395 OA
HETATM   12  H27 UNL     1     -38.761  15.773  -4.299  1.00 20.00     0.210 HD
ENDBRANCH   4  11
TORSDOF 2
ENDMDL
MODEL 7
REMARK VINA RESULT:      -4.1      1.804      2.795
REMARK  2 active torsions:
REMARK  status: ('A' for Active; 'I' for Inactive)
REMARK    1  A    between atoms: C6_6  and  C8_8 
REMARK    2  A    between atoms: C7_7  and  O11_11 
ROOT
HETATM    1  C3  UNL     1     -37.577  16.227  -5.451  1.00 20.00     0.058 C 
HETATM    2  C4  UNL     1     -35.929  14.799  -4.234  1.00 20.00     0.069 C 
HETATM    3  C5  UNL     1     -36.785  17.439  -4.992  1.00 20.00     0.171 C 
HETATM    4  C7  UNL     1     -37.412  15.073  -4.471  1.00 20.00     0.123 C 
HETATM    5  C8  UNL     1     -35.143  16.070  -3.852  1.00 20.00     0.063 C 
HETATM    6  C9  UNL     1     -35.470  16.535  -2.424  1.00 20.00     0.046 C 
HETATM    7  O10 UNL     1     -35.410  17.121  -4.795  1.00 20.00    -0.380 OA
ENDROOT
BRANCH   5   8
HETATM    8  C6  UNL     1     -33.657  15.779  -3.937  1.00 20.00     0.020 A 
HETATM    9  C1  UNL     1     -33.173  14.446  -4.440  1.00 20.00     0.008 A 
HETATM   10  C2  UNL     1     -32.980  15.681  -5.276  1.00 20.00     0.008 A 
ENDBRANCH   5   8
BRANCH   4  11
HETATM   11  O11 UNL     1     -38.019  13.898  -4.997  1.00 20.00    -0.395 OA
HETATM   12  H27 UNL     1     -37.324  13.223  -5.047  1.00 20.00     0.210 HD
ENDBRANCH   4  11
TORSDOF 2
ENDMDL
MODEL 8
REMARK VINA RESULT:      -4.1     11.192     12.374
REMARK  2 active torsions:
REMARK  status: ('A' for Active; 'I' for Inactive)
REMARK    1  A    between atoms: C6_6  and  C8_8 
REMARK    2  A    between atoms: C7_7  and  O11_11 
ROOT
HETATM    1  C3  UNL     1     -32.362   8.652   2.237  1.00 20.00     0.058 C 
HETATM    2  C4  UNL     1     -32.759   7.129   4.176  1.00 20.00     0.069 C 
HETATM    3  C5  UNL     1     -33.173   7.690   1.385  1.00 20.00     0.171 C 
HETATM    4  C7  UNL     1     -31.708   7.919   3.401  1.00 20.00     0.123 C 
HETATM    5  C8  UNL     1     -33.617   6.228   3.265  1.00 20.00     0.063 C 
HETATM    6  C9  UNL     1     -32.823   5.015   2.752  1.00 20.00     0.046 C 
HETATM    7  O10 UNL     1     -34.139   6.989   2.164  1.00 20.00    -0.380 OA
ENDROOT
BRANCH   5   8
HETATM    8  C6  UNL     1     -34.814   5.725   4.049  1.00 20.00     0.020 A 
HETATM    9  C1  UNL     1     -34.730   4.434   4.816  1.00 20.00     0.008 A 
HETATM   10  C2  UNL     1     -34.796   5.743   5.552  1.00 20.00     0.008 A 
ENDBRANCH   5   8
BRANCH   4  11
HETATM   11  O11 UNL     1     -31.094   8.855   4.280  1.00 20.00    -0.395 OA
HETATM   12  H27 UNL     1     -31.467   9.725   4.066  1.00 20.00     0.210 HD
ENDBRANCH   4  11
TORSDOF 2
ENDMDL
MODEL 9
REMARK VINA RESULT:      -4.0      1.876      2.141
REMARK  2 active torsions:
REMARK  status: ('A' for Active; 'I' for Inactive)
REMARK    1  A    between atoms: C6_6  and  C8_8 
REMARK    2  A    between atoms: C7_7  and  O11_11 
ROOT
HETATM    1  C3  UNL     1     -32.987  16.224  -5.325  1.00 20.00     0.058 C 
HETATM    2  C4  UNL     1     -34.159  15.174  -3.386  1.00 20.00     0.069 C 
HETATM    3  C5  UNL     1     -33.932  17.406  -5.187  1.00 20.00     0.171 C 
HETATM    4  C7  UNL     1     -33.638  14.950  -4.803  1.00 20.00     0.123 C 
HETATM    5  C8  UNL     1     -35.046  16.429  -3.270  1.00 20.00     0.063 C 
HETATM    6  C9  UNL     1     -36.417  16.223  -3.934  1.00 20.00     0.046 C 
HETATM    7  O10 UNL     1     -34.377  17.565  -3.842  1.00 20.00    -0.380 OA
ENDROOT
BRANCH   5   8
HETATM    8  C6  UNL     1     -35.263  16.750  -1.803  1.00 20.00     0.020 A 
HETATM    9  C1  UNL     1     -34.266  17.590  -1.054  1.00 20.00     0.008 A 
HETATM   10  C2  UNL     1     -35.625  18.145  -1.378  1.00 20.00     0.008 A 
ENDBRANCH   5   8
BRANCH   4  11
HETATM   11  O11 UNL     1     -32.687  13.891  -4.783  1.00 20.00    -0.395 OA
HETATM   12  H27 UNL     1     -32.058  14.095  -4.073  1.00 20.00     0.210 HD
ENDBRANCH   4  11
TORSDOF 2
ENDMDL
