MODEL 1
REMARK VINA RESULT:      -4.8      0.000      0.000
REMARK  0 active torsions:
REMARK  status: ('A' for Active; 'I' for Inactive)
ROOT
HETATM    1  C1  UNL     1     -32.230   8.110   2.327  1.00 20.00     0.088 C 
HETATM    2  C2  UNL     1     -33.309   6.014   2.820  1.00 20.00    -0.066 C 
HETATM    3  C3  UNL     1     -32.242   6.693   2.379  1.00 20.00     0.096 C 
HETATM    4  C4  UNL     1     -33.361   4.514   2.890  1.00 20.00     0.061 C 
HETATM    5  C5  UNL     1     -34.562   6.682   3.318  1.00 20.00     0.066 C 
HETATM    6  C6  UNL     1     -33.768   4.084   4.296  1.00 20.00     0.172 C 
HETATM    7  C7  UNL     1     -34.950   6.142   4.701  1.00 20.00     0.121 C 
HETATM    8  C8  UNL     1     -34.071   6.678   5.830  1.00 20.00     0.040 C 
HETATM    9  N9  UNL     1     -32.212   9.269   2.281  1.00 20.00    -0.192 NA
HETATM   10  O10 UNL     1     -34.991   4.707   4.699  1.00 20.00    -0.386 OA
ENDROOT
TORSDOF 0
ENDMDL
MODEL 2
REMARK VINA RESULT:      -4.2     12.170     13.103
REMARK  0 active torsions:
REMARK  status: ('A' for Active; 'I' for Inactive)
ROOT
HETATM    1  C1  UNL     1     -35.526  13.895  -5.553  1.00 20.00     0.088 C 
HETATM    2  C2  UNL     1     -34.240  15.912  -5.267  1.00 20.00    -0.066 C 
HETATM    3  C3  UNL     1     -35.127  15.192  -5.966  1.00 20.00     0.096 C 
HETATM    4  C4  UNL     1     -33.792  17.288  -5.672  1.00 20.00     0.061 C 
HETATM    5  C5  UNL     1     -33.615  15.430  -3.986  1.00 20.00     0.066 C 
HETATM    6  C6  UNL     1     -33.976  18.248  -4.500  1.00 20.00     0.172 C 
HETATM    7  C7  UNL     1     -33.773  16.481  -2.878  1.00 20.00     0.121 C 
HETATM    8  C8  UNL     1     -35.187  16.550  -2.304  1.00 20.00     0.040 C 
HETATM    9  N9  UNL     1     -35.857  12.834  -5.221  1.00 20.00    -0.192 NA
HETATM   10  O10 UNL     1     -33.320  17.768  -3.324  1.00 20.00    -0.386 OA
ENDROOT
TORSDOF 0
ENDMDL
MODEL 3
REMARK VINA RESULT:      -4.2     11.779     12.848
REMARK  0 active torsions:
REMARK  status: ('A' for Active; 'I' for Inactive)
ROOT
HETATM    1  C1  UNL     1     -37.682  14.454  -5.606  1.00 20.00     0.088 C 
HETATM    2  C2  UNL     1     -35.309  14.583  -6.003  1.00 20.00    -0.066 C 
HETATM    3  C3  UNL     1     -36.566  14.828  -6.396  1.00 20.00     0.096 C 
HETATM    4  C4  UNL     1     -34.102  14.964  -6.813  1.00 20.00     0.061 C 
HETATM    5  C5  UNL     1     -34.971  13.923  -4.694  1.00 20.00     0.066 C 
HETATM    6  C6  UNL     1     -33.143  15.774  -5.946  1.00 20.00     0.172 C 
HETATM    7  C7  UNL     1     -33.944  14.758  -3.916  1.00 20.00     0.121 C 
HETATM    8  C8  UNL     1     -34.543  16.007  -3.270  1.00 20.00     0.040 C 
HETATM    9  N9  UNL     1     -38.599  14.150  -4.964  1.00 20.00    -0.192 NA
HETATM   10  O10 UNL     1     -32.814  15.079  -4.740  1.00 20.00    -0.386 OA
ENDROOT
TORSDOF 0
ENDMDL
MODEL 4
REMARK VINA RESULT:      -4.2     11.781     13.016
REMARK  0 active torsions:
REMARK  status: ('A' for Active; 'I' for Inactive)
ROOT
HETATM    1  C1  UNL     1     -35.216  13.676  -4.716  1.00 20.00     0.088 C 
HETATM    2  C2  UNL     1     -34.686  15.665  -3.464  1.00 20.00    -0.066 C 
HETATM    3  C3  UNL     1     -34.292  14.536  -4.069  1.00 20.00     0.096 C 
HETATM    4  C4  UNL     1     -33.738  16.601  -2.768  1.00 20.00     0.061 C 
HETATM    5  C5  UNL     1     -36.116  16.130  -3.439  1.00 20.00     0.066 C 
HETATM    6  C6  UNL     1     -33.933  18.015  -3.307  1.00 20.00     0.172 C 
HETATM    7  C7  UNL     1     -36.221  17.584  -3.920  1.00 20.00     0.121 C 
HETATM    8  C8  UNL     1     -36.071  17.734  -5.433  1.00 20.00     0.040 C 
HETATM    9  N9  UNL     1     -35.965  12.968  -5.247  1.00 20.00    -0.192 NA
HETATM   10  O10 UNL     1     -35.300  18.426  -3.212  1.00 20.00    -0.386 OA
ENDROOT
TORSDOF 0
ENDMDL
MODEL 5
REMARK VINA RESULT:      -4.1     11.806     12.888
REMARK  0 active torsions:
REMARK  status: ('A' for Active; 'I' for Inactive)
ROOT
HETATM    1  C1  UNL     1     -33.731  17.079  -2.563  1.00 20.00     0.088 C 
HETATM    2  C2  UNL     1     -34.218  15.225  -4.022  1.00 20.00    -0.066 C 
HETATM    3  C3  UNL     1     -34.544  15.991  -2.973  1.00 20.00     0.096 C 
HETATM    4  C4  UNL     1     -35.053  14.065  -4.487  1.00 20.00     0.061 C 
HETATM    5  C5  UNL     1     -32.994  15.460  -4.865  1.00 20.00     0.066 C 
HETATM    6  C6  UNL     1     -35.352  14.217  -5.975  1.00 20.00     0.172 C 
HETATM    7  C7  UNL     1     -33.365  15.523  -6.353  1.00 20.00     0.121 C 
HETATM    8  C8  UNL     1     -34.042  16.834  -6.754  1.00 20.00     0.040 C 
HETATM    9  N9  UNL     1     -33.071  17.970  -2.222  1.00 20.00    -0.192 NA
HETATM   10  O10 UNL     1     -34.152  14.385  -6.734  1.00 20.00    -0.386 OA
ENDROOT
TORSDOF 0
ENDMDL
MODEL 6
REMARK VINA RESULT:      -4.0     12.392     13.101
REMARK  0 active torsions:
REMARK  status: ('A' for Active; 'I' for Inactive)
ROOT
HETATM    1  C1  UNL     1     -32.439  18.212  -0.542  1.00 20.00     0.088 C 
HETATM    2  C2  UNL     1     -34.316  17.235  -1.693  1.00 20.00    -0.066 C 
HETATM    3  C3  UNL     1     -33.829  17.970  -0.685  1.00 20.00     0.096 C 
HETATM    4  C4  UNL     1     -35.781  16.957  -1.878  1.00 20.00     0.061 C 
HETATM    5  C5  UNL     1     -33.449  16.629  -2.763  1.00 20.00     0.066 C 
HETATM    6  C6  UNL     1     -36.196  17.341  -3.295  1.00 20.00     0.172 C 
HETATM    7  C7  UNL     1     -33.975  16.996  -4.158  1.00 20.00     0.121 C 
HETATM    8  C8  UNL     1     -33.672  18.439  -4.560  1.00 20.00     0.040 C 
HETATM    9  N9  UNL     1     -31.303  18.413  -0.418  1.00 20.00    -0.192 NA
HETATM   10  O10 UNL     1     -35.375  16.698  -4.273  1.00 20.00    -0.386 OA
ENDROOT
TORSDOF 0
ENDMDL
MODEL 7
REMARK VINA RESULT:      -4.0      1.294      2.419
REMARK  0 active torsions:
REMARK  status: ('A' for Active; 'I' for Inactive)
ROOT
HETATM    1  C1  UNL     1     -32.092   8.786   1.507  1.00 20.00     0.088 C 
HETATM    2  C2  UNL     1     -32.542   7.703   3.611  1.00 20.00    -0.066 C 
HETATM    3  C3  UNL     1     -32.267   8.813   2.914  1.00 20.00     0.096 C 
HETATM    4  C4  UNL     1     -32.733   7.691   5.102  1.00 20.00     0.061 C 
HETATM    5  C5  UNL     1     -32.716   6.352   2.972  1.00 20.00     0.066 C 
HETATM    6  C6  UNL     1     -34.060   7.019   5.439  1.00 20.00     0.172 C 
HETATM    7  C7  UNL     1     -34.035   5.707   3.420  1.00 20.00     0.121 C 
HETATM    8  C8  UNL     1     -35.266   6.316   2.750  1.00 20.00     0.040 C 
HETATM    9  N9  UNL     1     -31.948   8.771   0.356  1.00 20.00    -0.192 NA
HETATM   10  O10 UNL     1     -34.151   5.718   4.851  1.00 20.00    -0.386 OA
ENDROOT
TORSDOF 0
ENDMDL
MODEL 8
REMARK VINA RESULT:      -4.0     12.075     12.952
REMARK  0 active torsions:
REMARK  status: ('A' for Active; 'I' for Inactive)
ROOT
HETATM    1  C1  UNL     1     -37.360  13.991  -5.100  1.00 20.00     0.088 C 
HETATM    2  C2  UNL     1     -35.083  14.574  -4.574  1.00 20.00    -0.066 C 
HETATM    3  C3  UNL     1     -35.963  13.759  -5.170  1.00 20.00     0.096 C 
HETATM    4  C4  UNL     1     -33.596  14.362  -4.625  1.00 20.00     0.061 C 
HETATM    5  C5  UNL     1     -35.489  15.806  -3.811  1.00 20.00     0.066 C 
HETATM    6  C6  UNL     1     -32.917  15.638  -5.113  1.00 20.00     0.172 C 
HETATM    7  C7  UNL     1     -34.708  17.031  -4.306  1.00 20.00     0.121 C 
HETATM    8  C8  UNL     1     -35.197  17.558  -5.654  1.00 20.00     0.040 C 
HETATM    9  N9  UNL     1     -38.505  14.173  -5.047  1.00 20.00    -0.192 NA
HETATM   10  O10 UNL     1     -33.296  16.767  -4.322  1.00 20.00    -0.386 OA
ENDROOT
TORSDOF 0
ENDMDL
MODEL 9
REMARK VINA RESULT:      -4.0     11.705     12.582
REMARK  0 active torsions:
REMARK  status: ('A' for Active; 'I' for Inactive)
ROOT
HETATM    1  C1  UNL     1     -36.128  16.691  -2.966  1.00 20.00     0.088 C 
HETATM    2  C2  UNL     1     -35.926  14.778  -4.415  1.00 20.00    -0.066 C 
HETATM    3  C3  UNL     1     -36.663  15.772  -3.904  1.00 20.00     0.096 C 
HETATM    4  C4  UNL     1     -36.457  13.785  -5.410  1.00 20.00     0.061 C 
HETATM    5  C5  UNL     1     -34.478  14.563  -4.067  1.00 20.00     0.066 C 
HETATM    6  C6  UNL     1     -35.535  13.738  -6.624  1.00 20.00     0.172 C 
HETATM    7  C7  UNL     1     -33.627  14.449  -5.339  1.00 20.00     0.121 C 
HETATM    8  C8  UNL     1     -33.388  15.790  -6.031  1.00 20.00     0.040 C 
HETATM    9  N9  UNL     1     -35.697  17.447  -2.198  1.00 20.00    -0.192 NA
HETATM   10  O10 UNL     1     -34.181  13.480  -6.241  1.00 20.00    -0.386 OA
ENDROOT
TORSDOF 0
ENDMDL
