MODEL 1
REMARK VINA RESULT:      -4.0      0.000      0.000
REMARK  2 active torsions:
REMARK  status: ('A' for Active; 'I' for Inactive)
REMARK    1  A    between atoms: C4_4  and  S10_10 
REMARK    2  A    between atoms: C5_5  and  C8_8 
ROOT
HETATM    1  C1  UNL     1     -31.730   8.966   2.716  1.00 20.00     0.041 C 
HETATM    2  C2  UNL     1     -33.725   7.620   2.017  1.00 20.00     0.052 C 
HETATM    3  C3  UNL     1     -31.537   7.979   3.860  1.00 20.00     0.170 C 
HETATM    4  C4  UNL     1     -32.430   8.285   1.540  1.00 20.00     0.049 C 
HETATM    5  C5  UNL     1     -33.486   6.696   3.229  1.00 20.00     0.058 C 
HETATM    6  C6  UNL     1     -32.751   5.405   2.839  1.00 20.00     0.046 C 
HETATM    7  O9  UNL     1     -32.775   7.396   4.261  1.00 20.00    -0.381 OA
ENDROOT
BRANCH   5   8
HETATM    8  C8  UNL     1     -34.841   6.311   3.841  1.00 20.00     0.033 C 
HETATM    9  C7  UNL     1     -34.667   5.505   5.083  1.00 20.00     0.008 C 
ENDBRANCH   5   8
BRANCH   4  10
HETATM   10  S10 UNL     1     -32.790   9.499   0.228  1.00 20.00    -0.177 SA
HETATM   11  H26 UNL     1     -34.050   9.098   0.017  1.00 20.00     0.102 HD
ENDBRANCH   4  10
TORSDOF 2
ENDMDL
MODEL 2
REMARK VINA RESULT:      -3.6     10.805     11.779
REMARK  2 active torsions:
REMARK  status: ('A' for Active; 'I' for Inactive)
REMARK    1  A    between atoms: C4_4  and  S10_10 
REMARK    2  A    between atoms: C5_5  and  C8_8 
ROOT
HETATM    1  C1  UNL     1     -35.640  15.783  -6.544  1.00 20.00     0.041 C 
HETATM    2  C2  UNL     1     -35.442  15.354  -4.084  1.00 20.00     0.052 C 
HETATM    3  C3  UNL     1     -34.154  16.118  -6.547  1.00 20.00     0.170 C 
HETATM    4  C4  UNL     1     -35.961  14.804  -5.416  1.00 20.00     0.049 C 
HETATM    5  C5  UNL     1     -33.955  15.756  -4.166  1.00 20.00     0.058 C 
HETATM    6  C6  UNL     1     -33.026  14.534  -4.233  1.00 20.00     0.046 C 
HETATM    7  O9  UNL     1     -33.732  16.628  -5.285  1.00 20.00    -0.381 OA
ENDROOT
BRANCH   5   8
HETATM    8  C8  UNL     1     -33.585  16.572  -2.918  1.00 20.00     0.033 C 
HETATM    9  C7  UNL     1     -34.734  16.669  -1.973  1.00 20.00     0.008 C 
ENDBRANCH   5   8
BRANCH   4  10
HETATM   10  S10 UNL     1     -37.758  14.513  -5.321  1.00 20.00    -0.177 SA
HETATM   11  H26 UNL     1     -38.000  15.463  -4.409  1.00 20.00     0.102 HD
ENDBRANCH   4  10
TORSDOF 2
ENDMDL
MODEL 3
REMARK VINA RESULT:      -3.6     10.886     11.554
REMARK  2 active torsions:
REMARK  status: ('A' for Active; 'I' for Inactive)
REMARK    1  A    between atoms: C4_4  and  S10_10 
REMARK    2  A    between atoms: C5_5  and  C8_8 
ROOT
HETATM    1  C1  UNL     1     -33.571  18.222  -0.410  1.00 20.00     0.041 C 
HETATM    2  C2  UNL     1     -35.369  16.823  -1.451  1.00 20.00     0.052 C 
HETATM    3  C3  UNL     1     -32.914  18.297  -1.782  1.00 20.00     0.170 C 
HETATM    4  C4  UNL     1     -35.079  18.030  -0.553  1.00 20.00     0.049 C 
HETATM    5  C5  UNL     1     -34.615  16.909  -2.794  1.00 20.00     0.058 C 
HETATM    6  C6  UNL     1     -35.207  17.977  -3.726  1.00 20.00     0.046 C 
HETATM    7  O9  UNL     1     -33.217  17.148  -2.569  1.00 20.00    -0.381 OA
ENDROOT
BRANCH   5   8
HETATM    8  C8  UNL     1     -34.699  15.550  -3.506  1.00 20.00     0.033 C 
HETATM    9  C7  UNL     1     -33.403  15.194  -4.150  1.00 20.00     0.008 C 
ENDBRANCH   5   8
BRANCH   4  10
HETATM   10  S10 UNL     1     -35.847  17.796   1.084  1.00 20.00    -0.177 SA
HETATM   11  H26 UNL     1     -34.869  18.393   1.777  1.00 20.00     0.102 HD
ENDBRANCH   4  10
TORSDOF 2
ENDMDL
MODEL 4
REMARK VINA RESULT:      -3.5     10.487     11.797
REMARK  2 active torsions:
REMARK  status: ('A' for Active; 'I' for Inactive)
REMARK    1  A    between atoms: C4_4  and  S10_10 
REMARK    2  A    between atoms: C5_5  and  C8_8 
ROOT
HETATM    1  C1  UNL     1     -36.175  17.115  -2.708  1.00 20.00     0.041 C 
HETATM    2  C2  UNL     1     -33.772  16.501  -3.062  1.00 20.00     0.052 C 
HETATM    3  C3  UNL     1     -36.511  16.279  -3.936  1.00 20.00     0.170 C 
HETATM    4  C4  UNL     1     -34.907  16.588  -2.037  1.00 20.00     0.049 C 
HETATM    5  C5  UNL     1     -34.192  15.715  -4.321  1.00 20.00     0.058 C 
HETATM    6  C6  UNL     1     -34.312  14.207  -4.053  1.00 20.00     0.046 C 
HETATM    7  O9  UNL     1     -35.420  16.237  -4.852  1.00 20.00    -0.381 OA
ENDROOT
BRANCH   5   8
HETATM    8  C8  UNL     1     -33.138  15.925  -5.419  1.00 20.00     0.033 C 
HETATM    9  C7  UNL     1     -33.687  15.605  -6.767  1.00 20.00     0.008 C 
ENDBRANCH   5   8
BRANCH   4  10
HETATM   10  S10 UNL     1     -34.425  17.673  -0.653  1.00 20.00    -0.177 SA
HETATM   11  H26 UNL     1     -35.515  18.448  -0.704  1.00 20.00     0.102 HD
ENDBRANCH   4  10
TORSDOF 2
ENDMDL
MODEL 5
REMARK VINA RESULT:      -3.5      1.640      2.533
REMARK  2 active torsions:
REMARK  status: ('A' for Active; 'I' for Inactive)
REMARK    1  A    between atoms: C4_4  and  S10_10 
REMARK    2  A    between atoms: C5_5  and  C8_8 
ROOT
HETATM    1  C1  UNL     1     -32.360   5.915   2.183  1.00 20.00     0.041 C 
HETATM    2  C2  UNL     1     -33.565   7.329   3.863  1.00 20.00     0.052 C 
HETATM    3  C3  UNL     1     -33.206   4.738   2.652  1.00 20.00     0.170 C 
HETATM    4  C4  UNL     1     -33.109   7.228   2.405  1.00 20.00     0.049 C 
HETATM    5  C5  UNL     1     -34.345   6.076   4.311  1.00 20.00     0.058 C 
HETATM    6  C6  UNL     1     -35.746   6.009   3.686  1.00 20.00     0.046 C 
HETATM    7  O9  UNL     1     -33.597   4.887   4.015  1.00 20.00    -0.381 OA
ENDROOT
BRANCH   5   8
HETATM    8  C8  UNL     1     -34.502   6.102   5.840  1.00 20.00     0.033 C 
HETATM    9  C7  UNL     1     -33.840   7.298   6.433  1.00 20.00     0.008 C 
ENDBRANCH   5   8
BRANCH   4  10
HETATM   10  S10 UNL     1     -32.044   8.645   1.977  1.00 20.00    -0.177 SA
HETATM   11  H26 UNL     1     -30.884   8.007   2.179  1.00 20.00     0.102 HD
ENDBRANCH   4  10
TORSDOF 2
ENDMDL
MODEL 6
REMARK VINA RESULT:      -3.5     10.760     11.660
REMARK  2 active torsions:
REMARK  status: ('A' for Active; 'I' for Inactive)
REMARK    1  A    between atoms: C4_4  and  S10_10 
REMARK    2  A    between atoms: C5_5  and  C8_8 
ROOT
HETATM    1  C1  UNL     1     -33.262  15.934  -4.432  1.00 20.00     0.041 C 
HETATM    2  C2  UNL     1     -35.242  15.795  -5.960  1.00 20.00     0.052 C 
HETATM    3  C3  UNL     1     -33.218  14.412  -4.443  1.00 20.00     0.170 C 
HETATM    4  C4  UNL     1     -33.880  16.457  -5.727  1.00 20.00     0.049 C 
HETATM    5  C5  UNL     1     -35.157  14.257  -5.878  1.00 20.00     0.058 C 
HETATM    6  C6  UNL     1     -34.448  13.648  -7.097  1.00 20.00     0.046 C 
HETATM    7  O9  UNL     1     -34.512  13.855  -4.659  1.00 20.00    -0.381 OA
ENDROOT
BRANCH   5   8
HETATM    8  C8  UNL     1     -36.579  13.678  -5.811  1.00 20.00     0.033 C 
HETATM    9  C7  UNL     1     -37.464  14.512  -4.950  1.00 20.00     0.008 C 
ENDBRANCH   5   8
BRANCH   4  10
HETATM   10  S10 UNL     1     -34.064  18.269  -5.656  1.00 20.00    -0.177 SA
HETATM   11  H26 UNL     1     -34.040  18.459  -6.982  1.00 20.00     0.102 HD
ENDBRANCH   4  10
TORSDOF 2
ENDMDL
MODEL 7
REMARK VINA RESULT:      -3.5     10.769     11.917
REMARK  2 active torsions:
REMARK  status: ('A' for Active; 'I' for Inactive)
REMARK    1  A    between atoms: C4_4  and  S10_10 
REMARK    2  A    between atoms: C5_5  and  C8_8 
ROOT
HETATM    1  C1  UNL     1     -34.541  15.489  -3.512  1.00 20.00     0.041 C 
HETATM    2  C2  UNL     1     -35.725  15.228  -5.705  1.00 20.00     0.052 C 
HETATM    3  C3  UNL     1     -33.316  14.859  -4.164  1.00 20.00     0.170 C 
HETATM    4  C4  UNL     1     -35.396  16.195  -4.563  1.00 20.00     0.049 C 
HETATM    5  C5  UNL     1     -34.458  14.555  -6.273  1.00 20.00     0.058 C 
HETATM    6  C6  UNL     1     -33.603  15.528  -7.098  1.00 20.00     0.046 C 
HETATM    7  O9  UNL     1     -33.685  13.968  -5.214  1.00 20.00    -0.381 OA
ENDROOT
BRANCH   5   8
HETATM    8  C8  UNL     1     -34.874  13.390  -7.183  1.00 20.00     0.033 C 
HETATM    9  C7  UNL     1     -36.134  13.698  -7.918  1.00 20.00     0.008 C 
ENDBRANCH   5   8
BRANCH   4  10
HETATM   10  S10 UNL     1     -36.932  16.826  -3.810  1.00 20.00    -0.177 SA
HETATM   11  H26 UNL     1     -36.720  18.109  -4.129  1.00 20.00     0.102 HD
ENDBRANCH   4  10
TORSDOF 2
ENDMDL
MODEL 8
REMARK VINA RESULT:      -3.4     10.968     11.742
REMARK  2 active torsions:
REMARK  status: ('A' for Active; 'I' for Inactive)
REMARK    1  A    between atoms: C4_4  and  S10_10 
REMARK    2  A    between atoms: C5_5  and  C8_8 
ROOT
HETATM    1  C1  UNL     1     -34.387  14.794  -6.199  1.00 20.00     0.041 C 
HETATM    2  C2  UNL     1     -34.387  16.913  -4.864  1.00 20.00     0.052 C 
HETATM    3  C3  UNL     1     -34.923  14.082  -4.963  1.00 20.00     0.170 C 
HETATM    4  C4  UNL     1     -34.802  16.264  -6.187  1.00 20.00     0.049 C 
HETATM    5  C5  UNL     1     -34.885  16.109  -3.645  1.00 20.00     0.058 C 
HETATM    6  C6  UNL     1     -36.402  16.237  -3.444  1.00 20.00     0.046 C 
HETATM    7  O9  UNL     1     -34.502  14.730  -3.765  1.00 20.00    -0.381 OA
ENDROOT
BRANCH   5   8
HETATM    8  C8  UNL     1     -34.187  16.630  -2.380  1.00 20.00     0.033 C 
HETATM    9  C7  UNL     1     -35.173  16.967  -1.315  1.00 20.00     0.008 C 
ENDBRANCH   5   8
BRANCH   4  10
HETATM   10  S10 UNL     1     -34.043  17.148  -7.589  1.00 20.00    -0.177 SA
HETATM   11  H26 UNL     1     -33.043  17.689  -6.881  1.00 20.00     0.102 HD
ENDBRANCH   4  10
TORSDOF 2
ENDMDL
MODEL 9
REMARK VINA RESULT:      -3.4     11.006     11.777
REMARK  2 active torsions:
REMARK  status: ('A' for Active; 'I' for Inactive)
REMARK    1  A    between atoms: C4_4  and  S10_10 
REMARK    2  A    between atoms: C5_5  and  C8_8 
ROOT
HETATM    1  C1  UNL     1     -36.747  14.115  -5.634  1.00 20.00     0.041 C 
HETATM    2  C2  UNL     1     -34.590  15.241  -5.036  1.00 20.00     0.052 C 
HETATM    3  C3  UNL     1     -37.440  15.045  -4.646  1.00 20.00     0.170 C 
HETATM    4  C4  UNL     1     -35.485  14.775  -6.188  1.00 20.00     0.049 C 
HETATM    5  C5  UNL     1     -35.362  16.110  -4.021  1.00 20.00     0.058 C 
HETATM    6  C6  UNL     1     -35.684  17.505  -4.577  1.00 20.00     0.046 C 
HETATM    7  O9  UNL     1     -36.559  15.441  -3.597  1.00 20.00    -0.381 OA
ENDROOT
BRANCH   5   8
HETATM    8  C8  UNL     1     -34.507  16.283  -2.756  1.00 20.00     0.033 C 
HETATM    9  C7  UNL     1     -35.311  16.836  -1.630  1.00 20.00     0.008 C 
ENDBRANCH   5   8
BRANCH   4  10
HETATM   10  S10 UNL     1     -34.579  13.611  -7.260  1.00 20.00    -0.177 SA
HETATM   11  H26 UNL     1     -35.039  12.500  -6.669  1.00 20.00     0.102 HD
ENDBRANCH   4  10
TORSDOF 2
ENDMDL
