MODEL 1
REMARK VINA RESULT:      -4.4      0.000      0.000
REMARK  2 active torsions:
REMARK  status: ('A' for Active; 'I' for Inactive)
REMARK    1  A    between atoms: C5_5  and  C8_8 
REMARK    2  A    between atoms: C5_5  and  O10_10 
ROOT
HETATM    1  C1  UNL     1     -34.417  13.971  -6.453  1.00 20.00     0.064 C 
HETATM    2  C2  UNL     1     -34.997  14.612  -4.100  1.00 20.00     0.069 C 
HETATM    3  C3  UNL     1     -33.745  15.332  -6.588  1.00 20.00     0.171 C 
HETATM    4  C4  UNL     1     -34.297  15.949  -4.359  1.00 20.00     0.120 C 
HETATM    5  C5  UNL     1     -35.528  13.980  -5.396  1.00 20.00     0.062 C 
HETATM    6  C6  UNL     1     -33.662  16.486  -3.082  1.00 20.00     0.039 C 
HETATM    7  O9  UNL     1     -33.254  15.781  -5.325  1.00 20.00    -0.386 OA
ENDROOT
BRANCH   5   8
HETATM    8  C8  UNL     1     -36.787  14.694  -5.897  1.00 20.00     0.033 C 
HETATM    9  C7  UNL     1     -37.897  14.609  -4.903  1.00 20.00     0.008 C 
ENDBRANCH   5   8
BRANCH   5  10
HETATM   10  O10 UNL     1     -35.892  12.628  -5.103  1.00 20.00    -0.390 OA
HETATM   11  H26 UNL     1     -36.753  12.483  -5.522  1.00 20.00     0.210 HD
ENDBRANCH   5  10
TORSDOF 2
ENDMDL
MODEL 2
REMARK VINA RESULT:      -4.3     11.621     12.659
REMARK  2 active torsions:
REMARK  status: ('A' for Active; 'I' for Inactive)
REMARK    1  A    between atoms: C5_5  and  C8_8 
REMARK    2  A    between atoms: C5_5  and  O10_10 
ROOT
HETATM    1  C1  UNL     1     -34.534   6.622   5.435  1.00 20.00     0.064 C 
HETATM    2  C2  UNL     1     -33.899   6.899   3.026  1.00 20.00     0.069 C 
HETATM    3  C3  UNL     1     -33.145   7.137   5.791  1.00 20.00     0.171 C 
HETATM    4  C4  UNL     1     -32.535   7.397   3.508  1.00 20.00     0.120 C 
HETATM    5  C5  UNL     1     -34.566   5.966   4.048  1.00 20.00     0.062 C 
HETATM    6  C6  UNL     1     -31.957   8.424   2.542  1.00 20.00     0.039 C 
HETATM    7  O9  UNL     1     -32.663   8.029   4.786  1.00 20.00    -0.386 OA
ENDROOT
BRANCH   5   8
HETATM    8  C8  UNL     1     -33.915   4.580   4.057  1.00 20.00     0.033 C 
HETATM    9  C7  UNL     1     -33.191   4.309   2.781  1.00 20.00     0.008 C 
ENDBRANCH   5   8
BRANCH   5  10
HETATM   10  O10 UNL     1     -35.931   5.795   3.655  1.00 20.00    -0.390 OA
HETATM   11  H26 UNL     1     -35.934   5.787   2.686  1.00 20.00     0.210 HD
ENDBRANCH   5  10
TORSDOF 2
ENDMDL
MODEL 3
REMARK VINA RESULT:      -4.1      1.610      2.404
REMARK  2 active torsions:
REMARK  status: ('A' for Active; 'I' for Inactive)
REMARK    1  A    between atoms: C5_5  and  C8_8 
REMARK    2  A    between atoms: C5_5  and  O10_10 
ROOT
HETATM    1  C1  UNL     1     -34.210  14.119  -4.242  1.00 20.00     0.064 C 
HETATM    2  C2  UNL     1     -36.558  14.986  -4.380  1.00 20.00     0.069 C 
HETATM    3  C3  UNL     1     -33.772  15.545  -3.930  1.00 20.00     0.171 C 
HETATM    4  C4  UNL     1     -35.996  16.375  -4.065  1.00 20.00     0.120 C 
HETATM    5  C5  UNL     1     -35.513  14.081  -5.050  1.00 20.00     0.062 C 
HETATM    6  C6  UNL     1     -37.004  17.205  -3.280  1.00 20.00     0.039 C 
HETATM    7  O9  UNL     1     -34.814  16.260  -3.266  1.00 20.00    -0.386 OA
ENDROOT
BRANCH   5   8
HETATM    8  C8  UNL     1     -35.287  14.468  -6.515  1.00 20.00     0.033 C 
HETATM    9  C7  UNL     1     -34.493  13.432  -7.238  1.00 20.00     0.008 C 
ENDBRANCH   5   8
BRANCH   5  10
HETATM   10  O10 UNL     1     -36.022  12.745  -5.035  1.00 20.00    -0.390 OA
HETATM   11  H26 UNL     1     -36.293  12.548  -5.944  1.00 20.00     0.210 HD
ENDBRANCH   5  10
TORSDOF 2
ENDMDL
MODEL 4
REMARK VINA RESULT:      -4.0      1.557      1.879
REMARK  2 active torsions:
REMARK  status: ('A' for Active; 'I' for Inactive)
REMARK    1  A    between atoms: C5_5  and  C8_8 
REMARK    2  A    between atoms: C5_5  and  O10_10 
ROOT
HETATM    1  C1  UNL     1     -33.344  16.006  -6.027  1.00 20.00     0.064 C 
HETATM    2  C2  UNL     1     -34.078  15.169  -3.781  1.00 20.00     0.069 C 
HETATM    3  C3  UNL     1     -33.759  17.399  -5.569  1.00 20.00     0.171 C 
HETATM    4  C4  UNL     1     -34.462  16.611  -3.439  1.00 20.00     0.120 C 
HETATM    5  C5  UNL     1     -34.121  14.905  -5.294  1.00 20.00     0.062 C 
HETATM    6  C6  UNL     1     -34.280  16.884  -1.951  1.00 20.00     0.039 C 
HETATM    7  O9  UNL     1     -33.626  17.527  -4.153  1.00 20.00    -0.386 OA
ENDROOT
BRANCH   5   8
HETATM    8  C8  UNL     1     -35.560  14.784  -5.805  1.00 20.00     0.033 C 
HETATM    9  C7  UNL     1     -36.214  13.539  -5.306  1.00 20.00     0.008 C 
ENDBRANCH   5   8
BRANCH   5  10
HETATM   10  O10 UNL     1     -33.475  13.651  -5.535  1.00 20.00    -0.390 OA
HETATM   11  H26 UNL     1     -32.913  13.484  -4.763  1.00 20.00     0.210 HD
ENDBRANCH   5  10
TORSDOF 2
ENDMDL
MODEL 5
REMARK VINA RESULT:      -4.0     10.013     11.205
REMARK  2 active torsions:
REMARK  status: ('A' for Active; 'I' for Inactive)
REMARK    1  A    between atoms: C5_5  and  C8_8 
REMARK    2  A    between atoms: C5_5  and  O10_10 
ROOT
HETATM    1  C1  UNL     1     -31.379   8.421   3.485  1.00 20.00     0.064 C 
HETATM    2  C2  UNL     1     -33.166   7.128   2.293  1.00 20.00     0.069 C 
HETATM    3  C3  UNL     1     -32.249   8.342   4.734  1.00 20.00     0.171 C 
HETATM    4  C4  UNL     1     -33.950   7.121   3.608  1.00 20.00     0.120 C 
HETATM    5  C5  UNL     1     -32.210   8.328   2.199  1.00 20.00     0.062 C 
HETATM    6  C6  UNL     1     -34.786   5.854   3.735  1.00 20.00     0.039 C 
HETATM    7  O9  UNL     1     -33.049   7.160   4.720  1.00 20.00    -0.386 OA
ENDROOT
BRANCH   5   8
HETATM    8  C8  UNL     1     -32.965   9.630   1.911  1.00 20.00     0.033 C 
HETATM    9  C7  UNL     1     -32.562  10.216   0.599  1.00 20.00     0.008 C 
ENDBRANCH   5   8
BRANCH   5  10
HETATM   10  O10 UNL     1     -31.326   8.094   1.099  1.00 20.00    -0.390 OA
HETATM   11  H26 UNL     1     -30.695   7.422   1.398  1.00 20.00     0.210 HD
ENDBRANCH   5  10
TORSDOF 2
ENDMDL
MODEL 6
REMARK VINA RESULT:      -3.8      1.563      3.429
REMARK  2 active torsions:
REMARK  status: ('A' for Active; 'I' for Inactive)
REMARK    1  A    between atoms: C5_5  and  C8_8 
REMARK    2  A    between atoms: C5_5  and  O10_10 
ROOT
HETATM    1  C1  UNL     1     -33.838  15.628  -3.446  1.00 20.00     0.064 C 
HETATM    2  C2  UNL     1     -35.192  14.193  -4.994  1.00 20.00     0.069 C 
HETATM    3  C3  UNL     1     -35.045  16.555  -3.358  1.00 20.00     0.171 C 
HETATM    4  C4  UNL     1     -36.332  15.201  -4.829  1.00 20.00     0.120 C 
HETATM    5  C5  UNL     1     -33.816  14.836  -4.760  1.00 20.00     0.062 C 
HETATM    6  C6  UNL     1     -37.687  14.512  -4.930  1.00 20.00     0.039 C 
HETATM    7  O9  UNL     1     -36.258  15.825  -3.543  1.00 20.00    -0.386 OA
ENDROOT
BRANCH   5   8
HETATM    8  C8  UNL     1     -33.393  15.710  -5.946  1.00 20.00     0.033 C 
HETATM    9  C7  UNL     1     -33.764  15.082  -7.247  1.00 20.00     0.008 C 
ENDBRANCH   5   8
BRANCH   5  10
HETATM   10  O10 UNL     1     -32.857  13.782  -4.643  1.00 20.00    -0.390 OA
HETATM   11  H26 UNL     1     -31.999  14.169  -4.872  1.00 20.00     0.210 HD
ENDBRANCH   5  10
TORSDOF 2
ENDMDL
MODEL 7
REMARK VINA RESULT:      -3.8      1.735      3.739
REMARK  2 active torsions:
REMARK  status: ('A' for Active; 'I' for Inactive)
REMARK    1  A    between atoms: C5_5  and  C8_8 
REMARK    2  A    between atoms: C5_5  and  O10_10 
ROOT
HETATM    1  C1  UNL     1     -33.299  16.283  -4.477  1.00 20.00     0.064 C 
HETATM    2  C2  UNL     1     -35.713  15.623  -4.624  1.00 20.00     0.069 C 
HETATM    3  C3  UNL     1     -32.963  14.797  -4.461  1.00 20.00     0.171 C 
HETATM    4  C4  UNL     1     -35.251  14.164  -4.596  1.00 20.00     0.120 C 
HETATM    5  C5  UNL     1     -34.708  16.560  -3.936  1.00 20.00     0.062 C 
HETATM    6  C6  UNL     1     -36.194  13.279  -5.400  1.00 20.00     0.039 C 
HETATM    7  O9  UNL     1     -33.947  14.048  -5.175  1.00 20.00    -0.386 OA
ENDROOT
BRANCH   5   8
HETATM    8  C8  UNL     1     -34.770  16.431  -2.411  1.00 20.00     0.033 C 
HETATM    9  C7  UNL     1     -33.712  17.251  -1.751  1.00 20.00     0.008 C 
ENDBRANCH   5   8
BRANCH   5  10
HETATM   10  O10 UNL     1     -35.069  17.903  -4.267  1.00 20.00    -0.390 OA
HETATM   11  H26 UNL     1     -35.365  18.315  -3.441  1.00 20.00     0.210 HD
ENDBRANCH   5  10
TORSDOF 2
ENDMDL
MODEL 8
REMARK VINA RESULT:      -3.8      2.183      2.875
REMARK  2 active torsions:
REMARK  status: ('A' for Active; 'I' for Inactive)
REMARK    1  A    between atoms: C5_5  and  C8_8 
REMARK    2  A    between atoms: C5_5  and  O10_10 
ROOT
HETATM    1  C1  UNL     1     -33.959  16.762  -5.951  1.00 20.00     0.064 C 
HETATM    2  C2  UNL     1     -33.700  15.716  -3.688  1.00 20.00     0.069 C 
HETATM    3  C3  UNL     1     -35.264  17.367  -5.448  1.00 20.00     0.171 C 
HETATM    4  C4  UNL     1     -35.027  16.374  -3.301  1.00 20.00     0.120 C 
HETATM    5  C5  UNL     1     -33.596  15.474  -5.201  1.00 20.00     0.062 C 
HETATM    6  C6  UNL     1     -35.049  16.727  -1.819  1.00 20.00     0.039 C 
HETATM    7  O9  UNL     1     -35.210  17.587  -4.039  1.00 20.00    -0.386 OA
ENDROOT
BRANCH   5   8
HETATM    8  C8  UNL     1     -34.464  14.292  -5.645  1.00 20.00     0.033 C 
HETATM    9  C7  UNL     1     -34.318  14.025  -7.106  1.00 20.00     0.008 C 
ENDBRANCH   5   8
BRANCH   5  10
HETATM   10  O10 UNL     1     -32.237  15.140  -5.496  1.00 20.00    -0.390 OA
HETATM   11  H26 UNL     1     -32.091  14.253  -5.134  1.00 20.00     0.210 HD
ENDBRANCH   5  10
TORSDOF 2
ENDMDL
MODEL 9
REMARK VINA RESULT:      -3.7     11.224     12.464
REMARK  2 active torsions:
REMARK  status: ('A' for Active; 'I' for Inactive)
REMARK    1  A    between atoms: C5_5  and  C8_8 
REMARK    2  A    between atoms: C5_5  and  O10_10 
ROOT
HETATM    1  C1  UNL     1     -32.624   7.985   4.834  1.00 20.00     0.064 C 
HETATM    2  C2  UNL     1     -32.841   6.019   3.295  1.00 20.00     0.069 C 
HETATM    3  C3  UNL     1     -33.916   7.525   5.497  1.00 20.00     0.171 C 
HETATM    4  C4  UNL     1     -34.131   5.661   4.037  1.00 20.00     0.120 C 
HETATM    5  C5  UNL     1     -32.529   7.521   3.375  1.00 20.00     0.062 C 
HETATM    6  C6  UNL     1     -34.346   4.153   4.059  1.00 20.00     0.039 C 
HETATM    7  O9  UNL     1     -34.060   6.108   5.395  1.00 20.00    -0.386 OA
ENDROOT
BRANCH   5   8
HETATM    8  C8  UNL     1     -33.442   8.338   2.455  1.00 20.00     0.033 C 
HETATM    9  C7  UNL     1     -32.654   9.160   1.492  1.00 20.00     0.008 C 
ENDBRANCH   5   8
BRANCH   5  10
HETATM   10  O10 UNL     1     -31.186   7.711   2.921  1.00 20.00    -0.390 OA
HETATM   11  H26 UNL     1     -30.814   6.824   2.800  1.00 20.00     0.210 HD
ENDBRANCH   5  10
TORSDOF 2
ENDMDL
