MODEL 1
REMARK VINA RESULT:      -4.5      0.000      0.000
REMARK  1 active torsions:
REMARK  status: ('A' for Active; 'I' for Inactive)
REMARK    1  A    between atoms: C5_5  and  C7_7 
ROOT
HETATM    1  C1  UNL     1     -35.367   5.822   3.868  1.00 20.00     0.046 C 
HETATM    2  C2  UNL     1     -33.676   7.231   5.077  1.00 20.00     0.052 C 
HETATM    3  C3  UNL     1     -34.372   5.590   2.728  1.00 20.00     0.169 C 
HETATM    4  C4  UNL     1     -34.673   6.073   5.202  1.00 20.00     0.086 C 
HETATM    5  C5  UNL     1     -33.144   7.407   3.646  1.00 20.00     0.122 C 
HETATM    6  O8  UNL     1     -33.079   6.145   2.984  1.00 20.00    -0.386 OA
HETATM    7 CL9  UNL     1     -33.829   4.582   5.738  1.00 20.00    -0.125 Cl
ENDROOT
BRANCH   5   8
HETATM    8  C7  UNL     1     -31.752   8.022   3.643  1.00 20.00     0.027 C 
HETATM    9  C6  UNL     1     -31.443   8.693   2.343  1.00 20.00     0.007 C 
ENDBRANCH   5   8
TORSDOF 1
ENDMDL
MODEL 2
REMARK VINA RESULT:      -4.5      1.690      2.225
REMARK  1 active torsions:
REMARK  status: ('A' for Active; 'I' for Inactive)
REMARK    1  A    between atoms: C5_5  and  C7_7 
ROOT
HETATM    1  C1  UNL     1     -34.260   5.466   5.338  1.00 20.00     0.046 C 
HETATM    2  C2  UNL     1     -33.260   6.059   3.112  1.00 20.00     0.052 C 
HETATM    3  C3  UNL     1     -34.008   6.890   5.841  1.00 20.00     0.169 C 
HETATM    4  C4  UNL     1     -34.450   5.410   3.827  1.00 20.00     0.086 C 
HETATM    5  C5  UNL     1     -32.555   7.120   3.973  1.00 20.00     0.122 C 
HETATM    6  O8  UNL     1     -33.495   7.763   4.832  1.00 20.00    -0.386 OA
HETATM    7 CL9  UNL     1     -35.975   6.241   3.375  1.00 20.00    -0.125 Cl
ENDROOT
BRANCH   5   8
HETATM    8  C7  UNL     1     -31.889   8.182   3.110  1.00 20.00     0.027 C 
HETATM    9  C6  UNL     1     -32.578   8.340   1.792  1.00 20.00     0.007 C 
ENDBRANCH   5   8
TORSDOF 1
ENDMDL
MODEL 3
REMARK VINA RESULT:      -4.2      1.643      3.395
REMARK  1 active torsions:
REMARK  status: ('A' for Active; 'I' for Inactive)
REMARK    1  A    between atoms: C5_5  and  C7_7 
ROOT
HETATM    1  C1  UNL     1     -33.014   7.459   2.096  1.00 20.00     0.046 C 
HETATM    2  C2  UNL     1     -34.585   6.221   3.616  1.00 20.00     0.052 C 
HETATM    3  C3  UNL     1     -32.106   7.784   3.285  1.00 20.00     0.169 C 
HETATM    4  C4  UNL     1     -33.798   6.167   2.302  1.00 20.00     0.086 C 
HETATM    5  C5  UNL     1     -33.944   7.156   4.655  1.00 20.00     0.122 C 
HETATM    6  O8  UNL     1     -32.526   7.165   4.503  1.00 20.00    -0.386 OA
HETATM    7 CL9  UNL     1     -32.674   4.768   2.308  1.00 20.00    -0.125 Cl
ENDROOT
BRANCH   5   8
HETATM    8  C7  UNL     1     -34.272   6.715   6.075  1.00 20.00     0.027 C 
HETATM    9  C6  UNL     1     -34.673   5.275   6.132  1.00 20.00     0.007 C 
ENDBRANCH   5   8
TORSDOF 1
ENDMDL
MODEL 4
REMARK VINA RESULT:      -3.7     11.736     12.369
REMARK  1 active torsions:
REMARK  status: ('A' for Active; 'I' for Inactive)
REMARK    1  A    between atoms: C5_5  and  C7_7 
ROOT
HETATM    1  C1  UNL     1     -37.018  14.253  -5.196  1.00 20.00     0.046 C 
HETATM    2  C2  UNL     1     -34.740  14.015  -4.167  1.00 20.00     0.052 C 
HETATM    3  C3  UNL     1     -36.797  15.759  -5.359  1.00 20.00     0.169 C 
HETATM    4  C4  UNL     1     -35.711  13.469  -5.220  1.00 20.00     0.086 C 
HETATM    5  C5  UNL     1     -34.990  15.496  -3.837  1.00 20.00     0.122 C 
HETATM    6  O8  UNL     1     -35.483  16.182  -4.987  1.00 20.00    -0.386 OA
HETATM    7 CL9  UNL     1     -34.974  13.565  -6.853  1.00 20.00    -0.125 Cl
ENDROOT
BRANCH   5   8
HETATM    8  C7  UNL     1     -33.714  16.186  -3.378  1.00 20.00     0.027 C 
HETATM    9  C6  UNL     1     -33.920  16.948  -2.108  1.00 20.00     0.007 C 
ENDBRANCH   5   8
TORSDOF 1
ENDMDL
MODEL 5
REMARK VINA RESULT:      -3.6     12.151     12.412
REMARK  1 active torsions:
REMARK  status: ('A' for Active; 'I' for Inactive)
REMARK    1  A    between atoms: C5_5  and  C7_7 
ROOT
HETATM    1  C1  UNL     1     -35.512  13.765  -5.277  1.00 20.00     0.046 C 
HETATM    2  C2  UNL     1     -33.543  14.972  -4.291  1.00 20.00     0.052 C 
HETATM    3  C3  UNL     1     -36.456  14.839  -4.730  1.00 20.00     0.169 C 
HETATM    4  C4  UNL     1     -34.113  14.306  -5.548  1.00 20.00     0.086 C 
HETATM    5  C5  UNL     1     -34.636  15.508  -3.353  1.00 20.00     0.122 C 
HETATM    6  O8  UNL     1     -35.771  15.929  -4.107  1.00 20.00    -0.386 OA
HETATM    7 CL9  UNL     1     -34.168  15.482  -6.903  1.00 20.00    -0.125 Cl
ENDROOT
BRANCH   5   8
HETATM    8  C7  UNL     1     -34.137  16.690  -2.535  1.00 20.00     0.027 C 
HETATM    9  C6  UNL     1     -35.025  16.971  -1.365  1.00 20.00     0.007 C 
ENDBRANCH   5   8
TORSDOF 1
ENDMDL
MODEL 6
REMARK VINA RESULT:      -3.5     11.841     12.426
REMARK  1 active torsions:
REMARK  status: ('A' for Active; 'I' for Inactive)
REMARK    1  A    between atoms: C5_5  and  C7_7 
ROOT
HETATM    1  C1  UNL     1     -34.207  15.387  -6.082  1.00 20.00     0.046 C 
HETATM    2  C2  UNL     1     -35.919  15.946  -4.331  1.00 20.00     0.052 C 
HETATM    3  C3  UNL     1     -33.135  15.240  -5.000  1.00 20.00     0.169 C 
HETATM    4  C4  UNL     1     -35.606  15.081  -5.558  1.00 20.00     0.086 C 
HETATM    5  C5  UNL     1     -34.656  16.372  -3.566  1.00 20.00     0.122 C 
HETATM    6  O8  UNL     1     -33.650  15.366  -3.672  1.00 20.00    -0.386 OA
HETATM    7 CL9  UNL     1     -35.731  13.341  -5.139  1.00 20.00    -0.125 Cl
ENDROOT
BRANCH   5   8
HETATM    8  C7  UNL     1     -34.951  16.601  -2.091  1.00 20.00     0.027 C 
HETATM    9  C6  UNL     1     -33.889  17.424  -1.432  1.00 20.00     0.007 C 
ENDBRANCH   5   8
TORSDOF 1
ENDMDL
MODEL 7
REMARK VINA RESULT:      -3.5     12.165     12.967
REMARK  1 active torsions:
REMARK  status: ('A' for Active; 'I' for Inactive)
REMARK    1  A    between atoms: C5_5  and  C7_7 
ROOT
HETATM    1  C1  UNL     1     -36.106  14.093  -7.636  1.00 20.00     0.046 C 
HETATM    2  C2  UNL     1     -35.315  15.781  -5.954  1.00 20.00     0.052 C 
HETATM    3  C3  UNL     1     -35.036  13.105  -7.162  1.00 20.00     0.169 C 
HETATM    4  C4  UNL     1     -36.534  15.057  -6.536  1.00 20.00     0.086 C 
HETATM    5  C5  UNL     1     -34.016  14.971  -6.097  1.00 20.00     0.122 C 
HETATM    6  O8  UNL     1     -34.296  13.574  -6.032  1.00 20.00    -0.386 OA
HETATM    7 CL9  UNL     1     -37.398  14.160  -5.244  1.00 20.00    -0.125 Cl
ENDROOT
BRANCH   5   8
HETATM    8  C7  UNL     1     -33.023  15.314  -4.997  1.00 20.00     0.027 C 
HETATM    9  C6  UNL     1     -33.711  15.778  -3.752  1.00 20.00     0.007 C 
ENDBRANCH   5   8
TORSDOF 1
ENDMDL
MODEL 8
REMARK VINA RESULT:      -3.5     11.779     12.917
REMARK  1 active torsions:
REMARK  status: ('A' for Active; 'I' for Inactive)
REMARK    1  A    between atoms: C5_5  and  C7_7 
ROOT
HETATM    1  C1  UNL     1     -32.996  15.157  -4.927  1.00 20.00     0.046 C 
HETATM    2  C2  UNL     1     -35.214  14.010  -4.661  1.00 20.00     0.052 C 
HETATM    3  C3  UNL     1     -33.596  16.094  -5.978  1.00 20.00     0.169 C 
HETATM    4  C4  UNL     1     -34.036  14.663  -3.929  1.00 20.00     0.086 C 
HETATM    5  C5  UNL     1     -35.403  14.553  -6.087  1.00 20.00     0.122 C 
HETATM    6  O8  UNL     1     -35.004  15.921  -6.152  1.00 20.00    -0.386 OA
HETATM    7 CL9  UNL     1     -34.613  16.034  -2.924  1.00 20.00    -0.125 Cl
ENDROOT
BRANCH   5   8
HETATM    8  C7  UNL     1     -36.855  14.454  -6.531  1.00 20.00     0.027 C 
HETATM    9  C6  UNL     1     -37.793  14.441  -5.366  1.00 20.00     0.007 C 
ENDBRANCH   5   8
TORSDOF 1
ENDMDL
MODEL 9
REMARK VINA RESULT:      -3.4     12.119     12.962
REMARK  1 active torsions:
REMARK  status: ('A' for Active; 'I' for Inactive)
REMARK    1  A    between atoms: C5_5  and  C7_7 
ROOT
HETATM    1  C1  UNL     1     -33.640  15.868  -3.832  1.00 20.00     0.046 C 
HETATM    2  C2  UNL     1     -35.134  14.056  -4.720  1.00 20.00     0.052 C 
HETATM    3  C3  UNL     1     -33.286  16.289  -5.261  1.00 20.00     0.169 C 
HETATM    4  C4  UNL     1     -35.021  15.229  -3.741  1.00 20.00     0.086 C 
HETATM    5  C5  UNL     1     -34.197  14.198  -5.931  1.00 20.00     0.122 C 
HETATM    6  O8  UNL     1     -34.019  15.575  -6.259  1.00 20.00    -0.386 OA
HETATM    7 CL9  UNL     1     -36.282  16.456  -4.093  1.00 20.00    -0.125 Cl
ENDROOT
BRANCH   5   8
HETATM    8  C7  UNL     1     -34.755  13.482  -7.152  1.00 20.00     0.027 C 
HETATM    9  C6  UNL     1     -36.101  14.009  -7.539  1.00 20.00     0.007 C 
ENDBRANCH   5   8
TORSDOF 1
ENDMDL
