MODEL 1
REMARK VINA RESULT:      -4.1      0.000      0.000
REMARK  0 active torsions:
REMARK  status: ('A' for Active; 'I' for Inactive)
ROOT
HETATM    1  C1  UNL     1     -32.234   6.149   2.530  1.00 20.00     0.046 C 
HETATM    2  C2  UNL     1     -33.485   7.013   4.518  1.00 20.00     0.057 C 
HETATM    3  C3  UNL     1     -33.200   4.973   2.503  1.00 20.00     0.170 C 
HETATM    4  C4  UNL     1     -32.903   7.370   3.150  1.00 20.00     0.087 C 
HETATM    5  C5  UNL     1     -34.392   5.768   4.451  1.00 20.00     0.055 C 
HETATM    6  C6  UNL     1     -34.689   5.285   5.878  1.00 20.00     0.045 C 
HETATM    7  C7  UNL     1     -35.729   6.061   3.754  1.00 20.00     0.045 C 
HETATM    8  O8  UNL     1     -33.707   4.685   3.805  1.00 20.00    -0.381 OA
HETATM    9 CL9  UNL     1     -31.725   8.702   3.310  1.00 20.00    -0.125 Cl
ENDROOT
TORSDOF 0
ENDMDL
MODEL 2
REMARK VINA RESULT:      -3.8      2.439      3.729
REMARK  0 active torsions:
REMARK  status: ('A' for Active; 'I' for Inactive)
ROOT
HETATM    1  C1  UNL     1     -34.071   5.933   5.669  1.00 20.00     0.046 C 
HETATM    2  C2  UNL     1     -33.083   6.006   3.371  1.00 20.00     0.057 C 
HETATM    3  C3  UNL     1     -33.842   7.435   5.756  1.00 20.00     0.170 C 
HETATM    4  C4  UNL     1     -34.254   5.507   4.217  1.00 20.00     0.087 C 
HETATM    5  C5  UNL     1     -32.843   7.518   3.554  1.00 20.00     0.055 C 
HETATM    6  C6  UNL     1     -31.489   7.891   2.935  1.00 20.00     0.045 C 
HETATM    7  C7  UNL     1     -33.931   8.365   2.879  1.00 20.00     0.045 C 
HETATM    8  O8  UNL     1     -32.738   7.841   4.950  1.00 20.00    -0.381 OA
HETATM    9 CL9  UNL     1     -34.380   3.729   4.107  1.00 20.00    -0.125 Cl
ENDROOT
TORSDOF 0
ENDMDL
MODEL 3
REMARK VINA RESULT:      -3.7     11.757     12.787
REMARK  0 active torsions:
REMARK  status: ('A' for Active; 'I' for Inactive)
ROOT
HETATM    1  C1  UNL     1     -36.115  17.178  -2.602  1.00 20.00     0.046 C 
HETATM    2  C2  UNL     1     -33.752  16.478  -3.034  1.00 20.00     0.057 C 
HETATM    3  C3  UNL     1     -36.514  16.409  -3.852  1.00 20.00     0.170 C 
HETATM    4  C4  UNL     1     -34.859  16.574  -1.985  1.00 20.00     0.087 C 
HETATM    5  C5  UNL     1     -34.230  15.759  -4.312  1.00 20.00     0.055 C 
HETATM    6  C6  UNL     1     -33.192  15.967  -5.424  1.00 20.00     0.045 C 
HETATM    7  C7  UNL     1     -34.411  14.250  -4.097  1.00 20.00     0.045 C 
HETATM    8  O8  UNL     1     -35.445  16.354  -4.795  1.00 20.00    -0.381 OA
HETATM    9 CL9  UNL     1     -34.314  17.564  -0.603  1.00 20.00    -0.125 Cl
ENDROOT
TORSDOF 0
ENDMDL
MODEL 4
REMARK VINA RESULT:      -3.7      1.503      2.327
REMARK  0 active torsions:
REMARK  status: ('A' for Active; 'I' for Inactive)
ROOT
HETATM    1  C1  UNL     1     -32.505   8.102   4.614  1.00 20.00     0.046 C 
HETATM    2  C2  UNL     1     -33.741   6.824   2.853  1.00 20.00     0.057 C 
HETATM    3  C3  UNL     1     -33.240   7.270   5.655  1.00 20.00     0.170 C 
HETATM    4  C4  UNL     1     -32.371   7.323   3.310  1.00 20.00     0.087 C 
HETATM    5  C5  UNL     1     -34.478   6.056   3.968  1.00 20.00     0.055 C 
HETATM    6  C6  UNL     1     -35.944   5.857   3.558  1.00 20.00     0.045 C 
HETATM    7  C7  UNL     1     -33.858   4.676   4.230  1.00 20.00     0.045 C 
HETATM    8  O8  UNL     1     -34.511   6.837   5.174  1.00 20.00    -0.381 OA
HETATM    9 CL9  UNL     1     -31.637   8.352   2.050  1.00 20.00    -0.125 Cl
ENDROOT
TORSDOF 0
ENDMDL
MODEL 5
REMARK VINA RESULT:      -3.6     11.765     12.595
REMARK  0 active torsions:
REMARK  status: ('A' for Active; 'I' for Inactive)
ROOT
HETATM    1  C1  UNL     1     -34.984  13.983  -4.310  1.00 20.00     0.046 C 
HETATM    2  C2  UNL     1     -36.621  15.847  -3.982  1.00 20.00     0.057 C 
HETATM    3  C3  UNL     1     -35.955  13.380  -5.314  1.00 20.00     0.170 C 
HETATM    4  C4  UNL     1     -35.157  15.496  -4.246  1.00 20.00     0.087 C 
HETATM    5  C5  UNL     1     -37.570  15.150  -4.977  1.00 20.00     0.055 C 
HETATM    6  C6  UNL     1     -39.014  15.289  -4.477  1.00 20.00     0.045 C 
HETATM    7  C7  UNL     1     -37.485  15.759  -6.384  1.00 20.00     0.045 C 
HETATM    8  O8  UNL     1     -37.303  13.739  -5.016  1.00 20.00    -0.381 OA
HETATM    9 CL9  UNL     1     -34.118  16.181  -2.966  1.00 20.00    -0.125 Cl
ENDROOT
TORSDOF 0
ENDMDL
MODEL 6
REMARK VINA RESULT:      -3.6      2.008      2.845
REMARK  0 active torsions:
REMARK  status: ('A' for Active; 'I' for Inactive)
ROOT
HETATM    1  C1  UNL     1     -31.695   9.012   2.580  1.00 20.00     0.046 C 
HETATM    2  C2  UNL     1     -33.726   7.666   2.009  1.00 20.00     0.057 C 
HETATM    3  C3  UNL     1     -31.451   8.053   3.736  1.00 20.00     0.170 C 
HETATM    4  C4  UNL     1     -32.454   8.311   1.459  1.00 20.00     0.087 C 
HETATM    5  C5  UNL     1     -33.436   6.766   3.228  1.00 20.00     0.055 C 
HETATM    6  C6  UNL     1     -34.761   6.403   3.912  1.00 20.00     0.045 C 
HETATM    7  C7  UNL     1     -32.726   5.463   2.831  1.00 20.00     0.045 C 
HETATM    8  O8  UNL     1     -32.672   7.485   4.208  1.00 20.00    -0.381 OA
HETATM    9 CL9  UNL     1     -32.862   9.476   0.170  1.00 20.00    -0.125 Cl
ENDROOT
TORSDOF 0
ENDMDL
MODEL 7
REMARK VINA RESULT:      -3.6     12.072     13.031
REMARK  0 active torsions:
REMARK  status: ('A' for Active; 'I' for Inactive)
ROOT
HETATM    1  C1  UNL     1     -34.543  15.343  -3.664  1.00 20.00     0.046 C 
HETATM    2  C2  UNL     1     -35.872  14.992  -5.755  1.00 20.00     0.057 C 
HETATM    3  C3  UNL     1     -33.363  14.692  -4.370  1.00 20.00     0.170 C 
HETATM    4  C4  UNL     1     -35.472  16.000  -4.679  1.00 20.00     0.087 C 
HETATM    5  C5  UNL     1     -34.644  14.303  -6.385  1.00 20.00     0.055 C 
HETATM    6  C6  UNL     1     -35.113  13.102  -7.218  1.00 20.00     0.045 C 
HETATM    7  C7  UNL     1     -33.855  15.248  -7.302  1.00 20.00     0.045 C 
HETATM    8  O8  UNL     1     -33.796  13.761  -5.360  1.00 20.00    -0.381 OA
HETATM    9 CL9  UNL     1     -36.925  16.637  -3.861  1.00 20.00    -0.125 Cl
ENDROOT
TORSDOF 0
ENDMDL
MODEL 8
REMARK VINA RESULT:      -3.4     11.873     12.727
REMARK  0 active torsions:
REMARK  status: ('A' for Active; 'I' for Inactive)
ROOT
HETATM    1  C1  UNL     1     -33.233  15.793  -5.574  1.00 20.00     0.046 C 
HETATM    2  C2  UNL     1     -34.779  14.242  -4.363  1.00 20.00     0.057 C 
HETATM    3  C3  UNL     1     -34.433  16.689  -5.845  1.00 20.00     0.170 C 
HETATM    4  C4  UNL     1     -33.448  14.990  -4.296  1.00 20.00     0.087 C 
HETATM    5  C5  UNL     1     -35.951  15.179  -4.718  1.00 20.00     0.055 C 
HETATM    6  C6  UNL     1     -37.182  14.334  -5.070  1.00 20.00     0.045 C 
HETATM    7  C7  UNL     1     -36.322  16.110  -3.555  1.00 20.00     0.045 C 
HETATM    8  O8  UNL     1     -35.644  15.937  -5.899  1.00 20.00    -0.381 OA
HETATM    9 CL9  UNL     1     -32.105  13.839  -4.059  1.00 20.00    -0.125 Cl
ENDROOT
TORSDOF 0
ENDMDL
MODEL 9
REMARK VINA RESULT:      -3.4     12.095     12.945
REMARK  0 active torsions:
REMARK  status: ('A' for Active; 'I' for Inactive)
ROOT
HETATM    1  C1  UNL     1     -33.225  16.564  -4.893  1.00 20.00     0.046 C 
HETATM    2  C2  UNL     1     -35.084  15.224  -3.887  1.00 20.00     0.057 C 
HETATM    3  C3  UNL     1     -33.767  16.186  -6.264  1.00 20.00     0.170 C 
HETATM    4  C4  UNL     1     -34.345  16.562  -3.859  1.00 20.00     0.087 C 
HETATM    5  C5  UNL     1     -35.544  14.849  -5.310  1.00 20.00     0.055 C 
HETATM    6  C6  UNL     1     -35.993  13.381  -5.323  1.00 20.00     0.045 C 
HETATM    7  C7  UNL     1     -36.717  15.716  -5.789  1.00 20.00     0.045 C 
HETATM    8  O8  UNL     1     -34.442  14.930  -6.229  1.00 20.00    -0.381 OA
HETATM    9 CL9  UNL     1     -33.681  16.866  -2.230  1.00 20.00    -0.125 Cl
ENDROOT
TORSDOF 0
ENDMDL
