MODEL 1
REMARK VINA RESULT:      -5.1      0.000      0.000
REMARK  1 active torsions:
REMARK  status: ('A' for Active; 'I' for Inactive)
REMARK    1  A    between atoms: C6_6  and  C7_7 
ROOT
HETATM    1  C3  UNL     1     -31.459   8.484   2.501  1.00 20.00     0.046 C 
HETATM    2  C4  UNL     1     -33.661   7.374   2.028  1.00 20.00     0.052 C 
HETATM    3  C5  UNL     1     -31.601   8.145   3.987  1.00 20.00     0.169 C 
HETATM    4  C7  UNL     1     -33.312   6.629   3.326  1.00 20.00     0.126 C 
HETATM    5  C8  UNL     1     -32.829   8.648   1.858  1.00 20.00     0.086 C 
HETATM    6  O9  UNL     1     -32.866   7.561   4.313  1.00 20.00    -0.385 OA
HETATM    7 CL10 UNL     1     -32.673   9.069   0.133  1.00 20.00    -0.125 Cl
ENDROOT
BRANCH   4   8
HETATM    8  C6  UNL     1     -34.488   5.875   3.869  1.00 20.00     0.015 A 
HETATM    9  C1  UNL     1     -34.318   4.466   4.369  1.00 20.00     0.007 A 
HETATM   10  C2  UNL     1     -34.585   5.582   5.341  1.00 20.00     0.007 A 
ENDBRANCH   4   8
TORSDOF 1
ENDMDL
MODEL 2
REMARK VINA RESULT:      -4.9      2.424      4.184
REMARK  1 active torsions:
REMARK  status: ('A' for Active; 'I' for Inactive)
REMARK    1  A    between atoms: C6_6  and  C7_7 
ROOT
HETATM    1  C3  UNL     1     -34.254   6.345   5.332  1.00 20.00     0.046 C 
HETATM    2  C4  UNL     1     -33.330   6.065   3.014  1.00 20.00     0.052 C 
HETATM    3  C5  UNL     1     -33.415   7.612   5.519  1.00 20.00     0.169 C 
HETATM    4  C7  UNL     1     -33.106   7.578   3.161  1.00 20.00     0.126 C 
HETATM    5  C8  UNL     1     -33.568   5.389   4.368  1.00 20.00     0.086 C 
HETATM    6  O9  UNL     1     -32.518   7.860   4.433  1.00 20.00    -0.385 OA
HETATM    7 CL10 UNL     1     -34.524   3.899   4.164  1.00 20.00    -0.125 Cl
ENDROOT
BRANCH   4   8
HETATM    8  C6  UNL     1     -32.212   8.116   2.085  1.00 20.00     0.015 A 
HETATM    9  C1  UNL     1     -32.803   8.771   0.866  1.00 20.00     0.007 A 
HETATM   10  C2  UNL     1     -32.074   9.600   1.887  1.00 20.00     0.007 A 
ENDBRANCH   4   8
TORSDOF 1
ENDMDL
MODEL 3
REMARK VINA RESULT:      -4.7      2.566      4.453
REMARK  1 active torsions:
REMARK  status: ('A' for Active; 'I' for Inactive)
REMARK    1  A    between atoms: C6_6  and  C7_7 
ROOT
HETATM    1  C3  UNL     1     -34.058   5.447   3.844  1.00 20.00     0.046 C 
HETATM    2  C4  UNL     1     -32.964   7.665   4.281  1.00 20.00     0.052 C 
HETATM    3  C5  UNL     1     -33.960   5.690   2.336  1.00 20.00     0.169 C 
HETATM    4  C7  UNL     1     -32.420   7.424   2.864  1.00 20.00     0.126 C 
HETATM    5  C8  UNL     1     -34.166   6.768   4.591  1.00 20.00     0.086 C 
HETATM    6  O9  UNL     1     -33.479   6.996   2.005  1.00 20.00    -0.385 OA
HETATM    7 CL10 UNL     1     -34.307   6.495   6.347  1.00 20.00    -0.125 Cl
ENDROOT
BRANCH   4   8
HETATM    8  C6  UNL     1     -31.800   8.662   2.288  1.00 20.00     0.015 A 
HETATM    9  C1  UNL     1     -31.388   8.700   0.841  1.00 20.00     0.007 A 
HETATM   10  C2  UNL     1     -32.568   9.507   1.309  1.00 20.00     0.007 A 
ENDBRANCH   4   8
TORSDOF 1
ENDMDL
MODEL 4
REMARK VINA RESULT:      -4.0     10.816     11.512
REMARK  1 active torsions:
REMARK  status: ('A' for Active; 'I' for Inactive)
REMARK    1  A    between atoms: C6_6  and  C7_7 
ROOT
HETATM    1  C3  UNL     1     -34.738  14.067  -4.455  1.00 20.00     0.046 C 
HETATM    2  C4  UNL     1     -35.864  16.052  -3.406  1.00 20.00     0.052 C 
HETATM    3  C5  UNL     1     -33.373  14.731  -4.259  1.00 20.00     0.169 C 
HETATM    4  C7  UNL     1     -34.476  16.221  -2.768  1.00 20.00     0.126 C 
HETATM    5  C8  UNL     1     -35.825  15.120  -4.621  1.00 20.00     0.086 C 
HETATM    6  O9  UNL     1     -33.463  16.070  -3.766  1.00 20.00    -0.385 OA
HETATM    7 CL10 UNL     1     -37.415  14.356  -4.877  1.00 20.00    -0.125 Cl
ENDROOT
BRANCH   4   8
HETATM    8  C6  UNL     1     -34.322  17.563  -2.120  1.00 20.00     0.015 A 
HETATM    9  C1  UNL     1     -34.214  17.673  -0.623  1.00 20.00     0.007 A 
HETATM   10  C2  UNL     1     -33.014  17.951  -1.486  1.00 20.00     0.007 A 
ENDBRANCH   4   8
TORSDOF 1
ENDMDL
MODEL 5
REMARK VINA RESULT:      -3.9     10.892     11.537
REMARK  1 active torsions:
REMARK  status: ('A' for Active; 'I' for Inactive)
REMARK    1  A    between atoms: C6_6  and  C7_7 
ROOT
HETATM    1  C3  UNL     1     -34.680  17.831  -0.149  1.00 20.00     0.046 C 
HETATM    2  C4  UNL     1     -33.383  17.120  -2.178  1.00 20.00     0.052 C 
HETATM    3  C5  UNL     1     -35.993  17.553  -0.884  1.00 20.00     0.169 C 
HETATM    4  C7  UNL     1     -34.683  16.352  -2.465  1.00 20.00     0.126 C 
HETATM    5  C8  UNL     1     -33.589  18.223  -1.135  1.00 20.00     0.086 C 
HETATM    6  O9  UNL     1     -35.807  17.210  -2.260  1.00 20.00    -0.385 OA
HETATM    7 CL10 UNL     1     -32.062  18.575  -0.285  1.00 20.00    -0.125 Cl
ENDROOT
BRANCH   4   8
HETATM    8  C6  UNL     1     -34.722  15.829  -3.869  1.00 20.00     0.015 A 
HETATM    9  C1  UNL     1     -34.613  14.352  -4.131  1.00 20.00     0.007 A 
HETATM   10  C2  UNL     1     -35.919  15.062  -4.358  1.00 20.00     0.007 A 
ENDBRANCH   4   8
TORSDOF 1
ENDMDL
MODEL 6
REMARK VINA RESULT:      -3.8     11.133     11.811
REMARK  1 active torsions:
REMARK  status: ('A' for Active; 'I' for Inactive)
REMARK    1  A    between atoms: C6_6  and  C7_7 
ROOT
HETATM    1  C3  UNL     1     -37.024  14.536  -6.145  1.00 20.00     0.046 C 
HETATM    2  C4  UNL     1     -34.785  14.414  -5.013  1.00 20.00     0.052 C 
HETATM    3  C5  UNL     1     -37.620  15.207  -4.905  1.00 20.00     0.169 C 
HETATM    4  C7  UNL     1     -35.376  15.585  -4.211  1.00 20.00     0.126 C 
HETATM    5  C8  UNL     1     -35.868  13.625  -5.754  1.00 20.00     0.086 C 
HETATM    6  O9  UNL     1     -36.709  15.269  -3.804  1.00 20.00    -0.385 OA
HETATM    7 CL10 UNL     1     -35.184  12.818  -7.188  1.00 20.00    -0.125 Cl
ENDROOT
BRANCH   4   8
HETATM    8  C6  UNL     1     -34.558  15.895  -2.994  1.00 20.00     0.015 A 
HETATM    9  C1  UNL     1     -34.045  17.290  -2.761  1.00 20.00     0.007 A 
HETATM   10  C2  UNL     1     -35.136  16.735  -1.888  1.00 20.00     0.007 A 
ENDBRANCH   4   8
TORSDOF 1
ENDMDL
MODEL 7
REMARK VINA RESULT:      -3.7     11.012     11.765
REMARK  1 active torsions:
REMARK  status: ('A' for Active; 'I' for Inactive)
REMARK    1  A    between atoms: C6_6  and  C7_7 
ROOT
HETATM    1  C3  UNL     1     -33.583  16.050  -3.646  1.00 20.00     0.046 C 
HETATM    2  C4  UNL     1     -35.873  15.257  -4.304  1.00 20.00     0.052 C 
HETATM    3  C5  UNL     1     -32.950  14.960  -4.515  1.00 20.00     0.169 C 
HETATM    4  C7  UNL     1     -35.094  14.718  -5.515  1.00 20.00     0.126 C 
HETATM    5  C8  UNL     1     -34.945  15.602  -3.136  1.00 20.00     0.086 C 
HETATM    6  O9  UNL     1     -33.908  14.056  -5.072  1.00 20.00    -0.385 OA
HETATM    7 CL10 UNL     1     -35.678  16.853  -2.101  1.00 20.00    -0.125 Cl
ENDROOT
BRANCH   4   8
HETATM    8  C6  UNL     1     -35.915  13.755  -6.320  1.00 20.00     0.015 A 
HETATM    9  C1  UNL     1     -36.196  14.030  -7.772  1.00 20.00     0.007 A 
HETATM   10  C2  UNL     1     -35.265  12.914  -7.384  1.00 20.00     0.007 A 
ENDBRANCH   4   8
TORSDOF 1
ENDMDL
MODEL 8
REMARK VINA RESULT:      -3.7     11.230     11.798
REMARK  1 active torsions:
REMARK  status: ('A' for Active; 'I' for Inactive)
REMARK    1  A    between atoms: C6_6  and  C7_7 
ROOT
HETATM    1  C3  UNL     1     -36.086  15.633  -5.066  1.00 20.00     0.046 C 
HETATM    2  C4  UNL     1     -33.801  15.558  -4.027  1.00 20.00     0.052 C 
HETATM    3  C5  UNL     1     -36.656  16.239  -3.781  1.00 20.00     0.169 C 
HETATM    4  C7  UNL     1     -34.401  16.678  -3.163  1.00 20.00     0.126 C 
HETATM    5  C8  UNL     1     -34.884  14.754  -4.753  1.00 20.00     0.086 C 
HETATM    6  O9  UNL     1     -35.704  16.298  -2.715  1.00 20.00    -0.385 OA
HETATM    7 CL10 UNL     1     -34.229  14.021  -6.240  1.00 20.00    -0.125 Cl
ENDROOT
BRANCH   4   8
HETATM    8  C6  UNL     1     -33.547  16.978  -1.968  1.00 20.00     0.015 A 
HETATM    9  C1  UNL     1     -33.089  18.385  -1.698  1.00 20.00     0.007 A 
HETATM   10  C2  UNL     1     -34.115  17.743  -0.804  1.00 20.00     0.007 A 
ENDBRANCH   4   8
TORSDOF 1
ENDMDL
MODEL 9
REMARK VINA RESULT:      -3.7     11.111     11.993
REMARK  1 active torsions:
REMARK  status: ('A' for Active; 'I' for Inactive)
REMARK    1  A    between atoms: C6_6  and  C7_7 
ROOT
HETATM    1  C3  UNL     1     -33.932  14.975  -5.799  1.00 20.00     0.046 C 
HETATM    2  C4  UNL     1     -35.014  15.259  -3.551  1.00 20.00     0.052 C 
HETATM    3  C5  UNL     1     -33.312  16.370  -5.684  1.00 20.00     0.169 C 
HETATM    4  C7  UNL     1     -33.862  16.262  -3.372  1.00 20.00     0.126 C 
HETATM    5  C8  UNL     1     -35.240  14.906  -5.024  1.00 20.00     0.086 C 
HETATM    6  O9  UNL     1     -33.757  17.090  -4.532  1.00 20.00    -0.385 OA
HETATM    7 CL10 UNL     1     -35.983  13.293  -5.174  1.00 20.00    -0.125 Cl
ENDROOT
BRANCH   4   8
HETATM    8  C6  UNL     1     -34.065  17.134  -2.170  1.00 20.00     0.015 A 
HETATM    9  C1  UNL     1     -32.884  17.763  -1.483  1.00 20.00     0.007 A 
HETATM   10  C2  UNL     1     -33.841  18.618  -2.266  1.00 20.00     0.007 A 
ENDBRANCH   4   8
TORSDOF 1
ENDMDL
