MODEL 1
REMARK VINA RESULT:      -3.7      0.000      0.000
REMARK  1 active torsions:
REMARK  status: ('A' for Active; 'I' for Inactive)
REMARK    1  A    between atoms: C4_4  and  S9_9 
ROOT
HETATM    1  C1  UNL     1     -32.298   7.876   4.489  1.00 20.00     0.041 C 
HETATM    2  C2  UNL     1     -32.987   5.871   3.118  1.00 20.00     0.052 C 
HETATM    3  C3  UNL     1     -33.584   7.681   5.279  1.00 20.00     0.170 C 
HETATM    4  C4  UNL     1     -32.373   7.276   3.087  1.00 20.00     0.049 C 
HETATM    5  C5  UNL     1     -34.184   5.676   4.076  1.00 20.00     0.054 C 
HETATM    6  C6  UNL     1     -34.324   4.174   4.382  1.00 20.00     0.045 C 
HETATM    7  C7  UNL     1     -35.520   6.145   3.484  1.00 20.00     0.045 C 
HETATM    8  O8  UNL     1     -33.943   6.304   5.342  1.00 20.00    -0.381 OA
ENDROOT
BRANCH   4   9
HETATM    9  S9  UNL     1     -33.215   8.391   1.905  1.00 20.00    -0.177 SA
HETATM   10  H23 UNL     1     -32.134   9.131   1.628  1.00 20.00     0.102 HD
ENDBRANCH   4   9
TORSDOF 1
ENDMDL
MODEL 2
REMARK VINA RESULT:      -3.7     12.012     12.834
REMARK  1 active torsions:
REMARK  status: ('A' for Active; 'I' for Inactive)
REMARK    1  A    between atoms: C4_4  and  S9_9 
ROOT
HETATM    1  C1  UNL     1     -33.101  14.814  -4.389  1.00 20.00     0.041 C 
HETATM    2  C2  UNL     1     -33.833  15.121  -6.786  1.00 20.00     0.052 C 
HETATM    3  C3  UNL     1     -34.452  14.159  -4.142  1.00 20.00     0.170 C 
HETATM    4  C4  UNL     1     -33.118  15.759  -5.589  1.00 20.00     0.049 C 
HETATM    5  C5  UNL     1     -35.108  14.311  -6.460  1.00 20.00     0.054 C 
HETATM    6  C6  UNL     1     -35.379  13.340  -7.623  1.00 20.00     0.045 C 
HETATM    7  C7  UNL     1     -36.359  15.184  -6.297  1.00 20.00     0.045 C 
HETATM    8  O8  UNL     1     -34.915  13.482  -5.306  1.00 20.00    -0.381 OA
ENDROOT
BRANCH   4   9
HETATM    9  S9  UNL     1     -33.787  17.406  -5.159  1.00 20.00    -0.177 SA
HETATM   10  H23 UNL     1     -35.028  16.980  -4.893  1.00 20.00     0.102 HD
ENDBRANCH   4   9
TORSDOF 1
ENDMDL
MODEL 3
REMARK VINA RESULT:      -3.5     11.716     12.611
REMARK  1 active torsions:
REMARK  status: ('A' for Active; 'I' for Inactive)
REMARK    1  A    between atoms: C4_4  and  S9_9 
ROOT
HETATM    1  C1  UNL     1     -36.627  13.950  -5.271  1.00 20.00     0.041 C 
HETATM    2  C2  UNL     1     -34.845  15.147  -3.943  1.00 20.00     0.052 C 
HETATM    3  C3  UNL     1     -35.548  13.648  -6.300  1.00 20.00     0.170 C 
HETATM    4  C4  UNL     1     -36.302  15.176  -4.421  1.00 20.00     0.049 C 
HETATM    5  C5  UNL     1     -33.803  14.660  -4.974  1.00 20.00     0.054 C 
HETATM    6  C6  UNL     1     -32.547  14.195  -4.216  1.00 20.00     0.045 C 
HETATM    7  C7  UNL     1     -33.360  15.753  -5.957  1.00 20.00     0.045 C 
HETATM    8  O8  UNL     1     -34.274  13.505  -5.681  1.00 20.00    -0.381 OA
ENDROOT
BRANCH   4   9
HETATM    9  S9  UNL     1     -36.739  16.737  -5.269  1.00 20.00    -0.177 SA
HETATM   10  H23 UNL     1     -35.546  16.909  -5.854  1.00 20.00     0.102 HD
ENDBRANCH   4   9
TORSDOF 1
ENDMDL
MODEL 4
REMARK VINA RESULT:      -3.4     11.904     12.831
REMARK  1 active torsions:
REMARK  status: ('A' for Active; 'I' for Inactive)
REMARK    1  A    between atoms: C4_4  and  S9_9 
ROOT
HETATM    1  C1  UNL     1     -34.131  15.488  -6.374  1.00 20.00     0.041 C 
HETATM    2  C2  UNL     1     -33.990  14.883  -3.927  1.00 20.00     0.052 C 
HETATM    3  C3  UNL     1     -34.756  16.804  -5.933  1.00 20.00     0.170 C 
HETATM    4  C4  UNL     1     -34.308  14.378  -5.340  1.00 20.00     0.049 C 
HETATM    5  C5  UNL     1     -34.494  16.303  -3.586  1.00 20.00     0.054 C 
HETATM    6  C6  UNL     1     -33.671  16.841  -2.402  1.00 20.00     0.045 C 
HETATM    7  C7  UNL     1     -35.970  16.343  -3.168  1.00 20.00     0.045 C 
HETATM    8  O8  UNL     1     -34.249  17.213  -4.667  1.00 20.00    -0.381 OA
ENDROOT
BRANCH   4   9
HETATM    9  S9  UNL     1     -35.951  13.584  -5.457  1.00 20.00    -0.177 SA
HETATM   10  H23 UNL     1     -35.486  12.332  -5.565  1.00 20.00     0.102 HD
ENDBRANCH   4   9
TORSDOF 1
ENDMDL
MODEL 5
REMARK VINA RESULT:      -3.4     11.998     12.885
REMARK  1 active torsions:
REMARK  status: ('A' for Active; 'I' for Inactive)
REMARK    1  A    between atoms: C4_4  and  S9_9 
ROOT
HETATM    1  C1  UNL     1     -34.991  15.430  -3.851  1.00 20.00     0.041 C 
HETATM    2  C2  UNL     1     -35.486  15.674  -6.315  1.00 20.00     0.052 C 
HETATM    3  C3  UNL     1     -34.364  14.086  -4.189  1.00 20.00     0.170 C 
HETATM    4  C4  UNL     1     -36.017  15.877  -4.891  1.00 20.00     0.049 C 
HETATM    5  C5  UNL     1     -34.696  14.369  -6.563  1.00 20.00     0.054 C 
HETATM    6  C6  UNL     1     -33.817  14.562  -7.812  1.00 20.00     0.045 C 
HETATM    7  C7  UNL     1     -35.595  13.153  -6.825  1.00 20.00     0.045 C 
HETATM    8  O8  UNL     1     -33.784  14.103  -5.490  1.00 20.00    -0.381 OA
ENDROOT
BRANCH   4   9
HETATM    9  S9  UNL     1     -37.651  15.099  -4.625  1.00 20.00    -0.177 SA
HETATM   10  H23 UNL     1     -37.863  15.642  -3.420  1.00 20.00     0.102 HD
ENDBRANCH   4   9
TORSDOF 1
ENDMDL
MODEL 6
REMARK VINA RESULT:      -3.3     11.826     12.653
REMARK  1 active torsions:
REMARK  status: ('A' for Active; 'I' for Inactive)
REMARK    1  A    between atoms: C4_4  and  S9_9 
ROOT
HETATM    1  C1  UNL     1     -35.151  14.035  -4.595  1.00 20.00     0.041 C 
HETATM    2  C2  UNL     1     -35.556  16.182  -3.329  1.00 20.00     0.052 C 
HETATM    3  C3  UNL     1     -33.729  14.527  -4.819  1.00 20.00     0.170 C 
HETATM    4  C4  UNL     1     -36.132  15.177  -4.333  1.00 20.00     0.049 C 
HETATM    5  C5  UNL     1     -34.055  16.514  -3.488  1.00 20.00     0.054 C 
HETATM    6  C6  UNL     1     -33.536  17.077  -2.153  1.00 20.00     0.045 C 
HETATM    7  C7  UNL     1     -33.775  17.571  -4.565  1.00 20.00     0.045 C 
HETATM    8  O8  UNL     1     -33.285  15.329  -3.729  1.00 20.00    -0.381 OA
ENDROOT
BRANCH   4   9
HETATM    9  S9  UNL     1     -36.698  15.967  -5.883  1.00 20.00    -0.177 SA
HETATM   10  H23 UNL     1     -36.036  17.116  -5.695  1.00 20.00     0.102 HD
ENDBRANCH   4   9
TORSDOF 1
ENDMDL
MODEL 7
REMARK VINA RESULT:      -3.2     12.084     12.992
REMARK  1 active torsions:
REMARK  status: ('A' for Active; 'I' for Inactive)
REMARK    1  A    between atoms: C4_4  and  S9_9 
ROOT
HETATM    1  C1  UNL     1     -36.462  15.094  -7.029  1.00 20.00     0.041 C 
HETATM    2  C2  UNL     1     -35.621  13.778  -5.045  1.00 20.00     0.052 C 
HETATM    3  C3  UNL     1     -35.564  16.229  -6.559  1.00 20.00     0.170 C 
HETATM    4  C4  UNL     1     -36.842  14.139  -5.899  1.00 20.00     0.049 C 
HETATM    5  C5  UNL     1     -34.640  14.933  -4.743  1.00 20.00     0.054 C 
HETATM    6  C6  UNL     1     -33.276  14.329  -4.367  1.00 20.00     0.045 C 
HETATM    7  C7  UNL     1     -35.083  15.818  -3.570  1.00 20.00     0.045 C 
HETATM    8  O8  UNL     1     -34.399  15.727  -5.913  1.00 20.00    -0.381 OA
ENDROOT
BRANCH   4   9
HETATM    9  S9  UNL     1     -38.241  14.773  -4.905  1.00 20.00    -0.177 SA
HETATM   10  H23 UNL     1     -38.415  15.892  -5.619  1.00 20.00     0.102 HD
ENDBRANCH   4   9
TORSDOF 1
ENDMDL
MODEL 8
REMARK VINA RESULT:      -3.2     12.106     13.014
REMARK  1 active torsions:
REMARK  status: ('A' for Active; 'I' for Inactive)
REMARK    1  A    between atoms: C4_4  and  S9_9 
ROOT
HETATM    1  C1  UNL     1     -36.233  15.704  -3.968  1.00 20.00     0.041 C 
HETATM    2  C2  UNL     1     -34.245  14.372  -4.774  1.00 20.00     0.052 C 
HETATM    3  C3  UNL     1     -36.376  16.210  -5.396  1.00 20.00     0.170 C 
HETATM    4  C4  UNL     1     -34.813  15.244  -3.647  1.00 20.00     0.049 C 
HETATM    5  C5  UNL     1     -34.571  14.830  -6.213  1.00 20.00     0.054 C 
HETATM    6  C6  UNL     1     -34.409  13.625  -7.157  1.00 20.00     0.045 C 
HETATM    7  C7  UNL     1     -33.640  15.937  -6.727  1.00 20.00     0.045 C 
HETATM    8  O8  UNL     1     -35.943  15.228  -6.333  1.00 20.00    -0.381 OA
ENDROOT
BRANCH   4   9
HETATM    9  S9  UNL     1     -33.717  16.643  -3.213  1.00 20.00    -0.177 SA
HETATM   10  H23 UNL     1     -34.685  17.569  -3.194  1.00 20.00     0.102 HD
ENDBRANCH   4   9
TORSDOF 1
ENDMDL
MODEL 9
REMARK VINA RESULT:      -3.2     12.025     12.476
REMARK  1 active torsions:
REMARK  status: ('A' for Active; 'I' for Inactive)
REMARK    1  A    between atoms: C4_4  and  S9_9 
ROOT
HETATM    1  C1  UNL     1     -35.123  17.081  -1.454  1.00 20.00     0.041 C 
HETATM    2  C2  UNL     1     -33.741  15.961  -3.247  1.00 20.00     0.052 C 
HETATM    3  C3  UNL     1     -36.286  17.042  -2.435  1.00 20.00     0.170 C 
HETATM    4  C4  UNL     1     -33.765  17.035  -2.152  1.00 20.00     0.049 C 
HETATM    5  C5  UNL     1     -35.022  15.839  -4.103  1.00 20.00     0.054 C 
HETATM    6  C6  UNL     1     -35.045  14.442  -4.748  1.00 20.00     0.045 C 
HETATM    7  C7  UNL     1     -35.094  16.866  -5.242  1.00 20.00     0.045 C 
HETATM    8  O8  UNL     1     -36.199  15.905  -3.288  1.00 20.00    -0.381 OA
ENDROOT
BRANCH   4   9
HETATM    9  S9  UNL     1     -33.248  18.680  -2.762  1.00 20.00    -0.177 SA
HETATM   10  H23 UNL     1     -33.790  19.373  -1.752  1.00 20.00     0.102 HD
ENDBRANCH   4   9
TORSDOF 1
ENDMDL
