MODEL 1
REMARK VINA RESULT:      -4.1      0.000      0.000
REMARK  1 active torsions:
REMARK  status: ('A' for Active; 'I' for Inactive)
REMARK    1  A    between atoms: C5_5  and  C8_8 
ROOT
HETATM    1  C1  UNL     1     -32.699   8.040   4.847  1.00 20.00     0.046 C 
HETATM    2  C2  UNL     1     -33.194   6.372   3.048  1.00 20.00     0.057 C 
HETATM    3  C3  UNL     1     -33.740   7.341   5.708  1.00 20.00     0.170 C 
HETATM    4  C4  UNL     1     -33.030   7.856   3.371  1.00 20.00     0.087 C 
HETATM    5  C5  UNL     1     -34.183   5.675   4.007  1.00 20.00     0.058 C 
HETATM    6  C6  UNL     1     -35.623   6.045   3.715  1.00 20.00     0.046 C 
HETATM    7  O9  UNL     1     -33.853   5.959   5.378  1.00 20.00    -0.380 OA
HETATM    8 CL10 UNL     1     -31.744   8.569   2.358  1.00 20.00    -0.125 Cl
ENDROOT
BRANCH   5   9
HETATM    9  C8  UNL     1     -34.031   4.151   3.853  1.00 20.00     0.033 C 
HETATM   10  C7  UNL     1     -33.045   3.808   2.789  1.00 20.00     0.008 C 
ENDBRANCH   5   9
TORSDOF 1
ENDMDL
MODEL 2
REMARK VINA RESULT:      -4.0      3.011      4.483
REMARK  1 active torsions:
REMARK  status: ('A' for Active; 'I' for Inactive)
REMARK    1  A    between atoms: C5_5  and  C8_8 
ROOT
HETATM    1  C1  UNL     1     -32.539   7.483   4.148  1.00 20.00     0.046 C 
HETATM    2  C2  UNL     1     -33.504   7.951   1.887  1.00 20.00     0.057 C 
HETATM    3  C3  UNL     1     -31.367   8.379   3.775  1.00 20.00     0.170 C 
HETATM    4  C4  UNL     1     -33.144   6.861   2.895  1.00 20.00     0.087 C 
HETATM    5  C5  UNL     1     -32.320   8.901   1.609  1.00 20.00     0.058 C 
HETATM    6  C6  UNL     1     -31.255   8.254   0.747  1.00 20.00     0.046 C 
HETATM    7  O9  UNL     1     -31.752   9.385   2.840  1.00 20.00    -0.380 OA
HETATM    8 CL10 UNL     1     -34.594   5.909   3.319  1.00 20.00    -0.125 Cl
ENDROOT
BRANCH   5   9
HETATM    9  C8  UNL     1     -32.846  10.149   0.879  1.00 20.00     0.033 C 
HETATM   10  C7  UNL     1     -33.271   9.825  -0.512  1.00 20.00     0.008 C 
ENDBRANCH   5   9
TORSDOF 1
ENDMDL
MODEL 3
REMARK VINA RESULT:      -3.9     11.885     12.763
REMARK  1 active torsions:
REMARK  status: ('A' for Active; 'I' for Inactive)
REMARK    1  A    between atoms: C5_5  and  C8_8 
ROOT
HETATM    1  C1  UNL     1     -35.182  14.054  -4.738  1.00 20.00     0.046 C 
HETATM    2  C2  UNL     1     -35.673  16.157  -3.474  1.00 20.00     0.057 C 
HETATM    3  C3  UNL     1     -33.717  14.462  -4.745  1.00 20.00     0.170 C 
HETATM    4  C4  UNL     1     -36.071  15.289  -4.666  1.00 20.00     0.087 C 
HETATM    5  C5  UNL     1     -34.161  16.467  -3.460  1.00 20.00     0.058 C 
HETATM    6  C6  UNL     1     -33.774  17.485  -4.514  1.00 20.00     0.046 C 
HETATM    7  O9  UNL     1     -33.389  15.262  -3.611  1.00 20.00    -0.380 OA
HETATM    8 CL10 UNL     1     -37.786  14.808  -4.533  1.00 20.00    -0.125 Cl
ENDROOT
BRANCH   5   9
HETATM    9  C8  UNL     1     -33.782  17.029  -2.079  1.00 20.00     0.033 C 
HETATM   10  C7  UNL     1     -34.964  17.081  -1.171  1.00 20.00     0.008 C 
ENDBRANCH   5   9
TORSDOF 1
ENDMDL
MODEL 4
REMARK VINA RESULT:      -3.8     12.003     12.710
REMARK  1 active torsions:
REMARK  status: ('A' for Active; 'I' for Inactive)
REMARK    1  A    between atoms: C5_5  and  C8_8 
ROOT
HETATM    1  C1  UNL     1     -33.557  18.022  -3.594  1.00 20.00     0.046 C 
HETATM    2  C2  UNL     1     -34.839  16.031  -2.784  1.00 20.00     0.057 C 
HETATM    3  C3  UNL     1     -33.500  17.362  -4.963  1.00 20.00     0.170 C 
HETATM    4  C4  UNL     1     -33.660  16.962  -2.504  1.00 20.00     0.087 C 
HETATM    5  C5  UNL     1     -34.801  15.459  -4.217  1.00 20.00     0.058 C 
HETATM    6  C6  UNL     1     -33.735  14.395  -4.382  1.00 20.00     0.046 C 
HETATM    7  O9  UNL     1     -34.623  16.510  -5.183  1.00 20.00    -0.380 OA
HETATM    8 CL10 UNL     1     -33.852  17.737  -0.906  1.00 20.00    -0.125 Cl
ENDROOT
BRANCH   5   9
HETATM    9  C8  UNL     1     -36.169  14.832  -4.537  1.00 20.00     0.033 C 
HETATM   10  C7  UNL     1     -36.017  13.522  -5.231  1.00 20.00     0.008 C 
ENDBRANCH   5   9
TORSDOF 1
ENDMDL
MODEL 5
REMARK VINA RESULT:      -3.8     12.210     13.226
REMARK  1 active torsions:
REMARK  status: ('A' for Active; 'I' for Inactive)
REMARK    1  A    between atoms: C5_5  and  C8_8 
ROOT
HETATM    1  C1  UNL     1     -34.177  15.050  -6.130  1.00 20.00     0.046 C 
HETATM    2  C2  UNL     1     -35.009  15.354  -3.790  1.00 20.00     0.057 C 
HETATM    3  C3  UNL     1     -33.574  16.444  -6.041  1.00 20.00     0.170 C 
HETATM    4  C4  UNL     1     -35.388  14.942  -5.212  1.00 20.00     0.087 C 
HETATM    5  C5  UNL     1     -34.309  16.729  -3.750  1.00 20.00     0.058 C 
HETATM    6  C6  UNL     1     -35.278  17.872  -3.978  1.00 20.00     0.046 C 
HETATM    7  O9  UNL     1     -33.229  16.782  -4.699  1.00 20.00    -0.380 OA
HETATM    8 CL10 UNL     1     -36.021  13.272  -5.222  1.00 20.00    -0.125 Cl
ENDROOT
BRANCH   5   9
HETATM    9  C8  UNL     1     -33.656  16.913  -2.369  1.00 20.00     0.033 C 
HETATM   10  C7  UNL     1     -34.680  17.103  -1.304  1.00 20.00     0.008 C 
ENDBRANCH   5   9
TORSDOF 1
ENDMDL
MODEL 6
REMARK VINA RESULT:      -3.8      2.294      3.640
REMARK  1 active torsions:
REMARK  status: ('A' for Active; 'I' for Inactive)
REMARK    1  A    between atoms: C5_5  and  C8_8 
ROOT
HETATM    1  C1  UNL     1     -34.350   6.022   5.181  1.00 20.00     0.046 C 
HETATM    2  C2  UNL     1     -33.373   6.064   2.877  1.00 20.00     0.057 C 
HETATM    3  C3  UNL     1     -33.888   7.462   5.346  1.00 20.00     0.170 C 
HETATM    4  C4  UNL     1     -33.449   5.291   4.193  1.00 20.00     0.087 C 
HETATM    5  C5  UNL     1     -33.000   7.546   3.094  1.00 20.00     0.058 C 
HETATM    6  C6  UNL     1     -31.537   7.723   3.448  1.00 20.00     0.046 C 
HETATM    7  O9  UNL     1     -33.841   8.145   4.095  1.00 20.00    -0.380 OA
HETATM    8 CL10 UNL     1     -34.062   3.639   3.904  1.00 20.00    -0.125 Cl
ENDROOT
BRANCH   5   9
HETATM    9  C8  UNL     1     -33.284   8.323   1.797  1.00 20.00     0.033 C 
HETATM   10  C7  UNL     1     -32.141   9.208   1.432  1.00 20.00     0.008 C 
ENDBRANCH   5   9
TORSDOF 1
ENDMDL
MODEL 7
REMARK VINA RESULT:      -3.8      2.417      3.845
REMARK  1 active torsions:
REMARK  status: ('A' for Active; 'I' for Inactive)
REMARK    1  A    between atoms: C5_5  and  C8_8 
ROOT
HETATM    1  C1  UNL     1     -33.884   4.530   4.069  1.00 20.00     0.046 C 
HETATM    2  C2  UNL     1     -33.520   6.956   4.562  1.00 20.00     0.057 C 
HETATM    3  C3  UNL     1     -33.365   4.792   2.663  1.00 20.00     0.170 C 
HETATM    4  C4  UNL     1     -34.510   5.795   4.642  1.00 20.00     0.087 C 
HETATM    5  C5  UNL     1     -32.939   7.128   3.143  1.00 20.00     0.058 C 
HETATM    6  C6  UNL     1     -33.943   7.730   2.181  1.00 20.00     0.046 C 
HETATM    7  O9  UNL     1     -32.440   5.877   2.639  1.00 20.00    -0.380 OA
HETATM    8 CL10 UNL     1     -35.007   5.524   6.336  1.00 20.00    -0.125 Cl
ENDROOT
BRANCH   5   9
HETATM    9  C8  UNL     1     -31.717   8.060   3.217  1.00 20.00     0.033 C 
HETATM   10  C7  UNL     1     -31.530   8.813   1.944  1.00 20.00     0.008 C 
ENDBRANCH   5   9
TORSDOF 1
ENDMDL
MODEL 8
REMARK VINA RESULT:      -3.8      1.929      2.449
REMARK  1 active torsions:
REMARK  status: ('A' for Active; 'I' for Inactive)
REMARK    1  A    between atoms: C5_5  and  C8_8 
ROOT
HETATM    1  C1  UNL     1     -31.553   8.886   1.974  1.00 20.00     0.046 C 
HETATM    2  C2  UNL     1     -33.443   7.291   1.592  1.00 20.00     0.057 C 
HETATM    3  C3  UNL     1     -31.435   8.326   3.383  1.00 20.00     0.170 C 
HETATM    4  C4  UNL     1     -32.984   8.743   1.470  1.00 20.00     0.087 C 
HETATM    5  C5  UNL     1     -33.215   6.726   3.010  1.00 20.00     0.058 C 
HETATM    6  C6  UNL     1     -34.210   7.276   4.012  1.00 20.00     0.046 C 
HETATM    7  O9  UNL     1     -31.866   6.969   3.447  1.00 20.00    -0.380 OA
HETATM    8 CL10 UNL     1     -33.096   9.285  -0.228  1.00 20.00    -0.125 Cl
ENDROOT
BRANCH   5   9
HETATM    9  C8  UNL     1     -33.366   5.196   2.964  1.00 20.00     0.033 C 
HETATM   10  C7  UNL     1     -34.255   4.704   4.055  1.00 20.00     0.008 C 
ENDBRANCH   5   9
TORSDOF 1
ENDMDL
MODEL 9
REMARK VINA RESULT:      -3.8     12.012     12.438
REMARK  1 active torsions:
REMARK  status: ('A' for Active; 'I' for Inactive)
REMARK    1  A    between atoms: C5_5  and  C8_8 
ROOT
HETATM    1  C1  UNL     1     -34.468  17.786  -0.200  1.00 20.00     0.046 C 
HETATM    2  C2  UNL     1     -33.380  17.048  -2.330  1.00 20.00     0.057 C 
HETATM    3  C3  UNL     1     -35.814  17.550  -0.867  1.00 20.00     0.170 C 
HETATM    4  C4  UNL     1     -33.415  18.127  -1.248  1.00 20.00     0.087 C 
HETATM    5  C5  UNL     1     -34.781  16.764  -2.913  1.00 20.00     0.058 C 
HETATM    6  C6  UNL     1     -35.255  17.873  -3.831  1.00 20.00     0.046 C 
HETATM    7  O9  UNL     1     -35.736  16.531  -1.862  1.00 20.00    -0.380 OA
HETATM    8 CL10 UNL     1     -31.810  18.283  -0.481  1.00 20.00    -0.125 Cl
ENDROOT
BRANCH   5   9
HETATM    9  C8  UNL     1     -34.726  15.455  -3.719  1.00 20.00     0.033 C 
HETATM   10  C7  UNL     1     -33.344  15.168  -4.197  1.00 20.00     0.008 C 
ENDBRANCH   5   9
TORSDOF 1
ENDMDL
