MODEL 1
REMARK VINA RESULT:      -4.8      0.000      0.000
REMARK  2 active torsions:
REMARK  status: ('A' for Active; 'I' for Inactive)
REMARK    1  A    between atoms: C5_5  and  C8_8 
REMARK    2  A    between atoms: C8_8  and  C9_9 
ROOT
HETATM    1  C1  UNL     1     -34.399   5.471   3.690  1.00 20.00     0.046 C 
HETATM    2  C2  UNL     1     -33.246   7.505   4.582  1.00 20.00     0.057 C 
HETATM    3  C3  UNL     1     -33.400   5.401   2.538  1.00 20.00     0.170 C 
HETATM    4  C4  UNL     1     -33.764   6.105   4.917  1.00 20.00     0.087 C 
HETATM    5  C5  UNL     1     -32.540   7.563   3.207  1.00 20.00     0.058 C 
HETATM    6  C6  UNL     1     -31.174   8.248   3.355  1.00 20.00     0.046 C 
HETATM    7  O10 UNL     1     -32.264   6.244   2.718  1.00 20.00    -0.380 OA
HETATM    8 CL11 UNL     1     -34.932   6.180   6.262  1.00 20.00    -0.125 Cl
ENDROOT
BRANCH   5   9
HETATM    9  C8  UNL     1     -33.364   8.355   2.179  1.00 20.00     0.037 C 
BRANCH   9  10
HETATM   10  C9  UNL     1     -32.493   9.364   1.443  1.00 20.00    -0.002 C 
HETATM   11  C7  UNL     1     -32.883   9.451  -0.024  1.00 20.00     0.005 C 
ENDBRANCH   9  10
ENDBRANCH   5   9
TORSDOF 2
ENDMDL
MODEL 2
REMARK VINA RESULT:      -4.8      2.439      4.497
REMARK  2 active torsions:
REMARK  status: ('A' for Active; 'I' for Inactive)
REMARK    1  A    between atoms: C5_5  and  C8_8 
REMARK    2  A    between atoms: C8_8  and  C9_9 
ROOT
HETATM    1  C1  UNL     1     -32.004   9.321   2.635  1.00 20.00     0.046 C 
HETATM    2  C2  UNL     1     -33.375   7.515   1.575  1.00 20.00     0.057 C 
HETATM    3  C3  UNL     1     -31.473   8.324   3.662  1.00 20.00     0.170 C 
HETATM    4  C4  UNL     1     -32.344   8.619   1.330  1.00 20.00     0.087 C 
HETATM    5  C5  UNL     1     -33.077   6.700   2.856  1.00 20.00     0.058 C 
HETATM    6  C6  UNL     1     -33.114   5.199   2.535  1.00 20.00     0.046 C 
HETATM    7  O10 UNL     1     -31.752   6.965   3.334  1.00 20.00    -0.380 OA
HETATM    8 CL11 UNL     1     -32.958   9.787   0.130  1.00 20.00    -0.125 Cl
ENDROOT
BRANCH   5   9
HETATM    9  C8  UNL     1     -34.111   6.980   3.959  1.00 20.00     0.037 C 
BRANCH   9  10
HETATM   10  C9  UNL     1     -34.875   5.715   4.324  1.00 20.00    -0.002 C 
HETATM   11  C7  UNL     1     -34.606   5.314   5.765  1.00 20.00     0.005 C 
ENDBRANCH   9  10
ENDBRANCH   5   9
TORSDOF 2
ENDMDL
MODEL 3
REMARK VINA RESULT:      -4.1     11.302     12.079
REMARK  2 active torsions:
REMARK  status: ('A' for Active; 'I' for Inactive)
REMARK    1  A    between atoms: C5_5  and  C8_8 
REMARK    2  A    between atoms: C8_8  and  C9_9 
ROOT
HETATM    1  C1  UNL     1     -36.396  14.072  -5.162  1.00 20.00     0.046 C 
HETATM    2  C2  UNL     1     -34.213  15.099  -5.827  1.00 20.00     0.057 C 
HETATM    3  C3  UNL     1     -36.766  15.339  -4.395  1.00 20.00     0.170 C 
HETATM    4  C4  UNL     1     -35.477  14.398  -6.328  1.00 20.00     0.087 C 
HETATM    5  C5  UNL     1     -34.513  16.157  -4.739  1.00 20.00     0.058 C 
HETATM    6  C6  UNL     1     -33.826  17.481  -5.101  1.00 20.00     0.046 C 
HETATM    7  O10 UNL     1     -35.916  16.447  -4.683  1.00 20.00    -0.380 OA
HETATM    8 CL11 UNL     1     -35.052  12.916  -7.226  1.00 20.00    -0.125 Cl
ENDROOT
BRANCH   5   9
HETATM    9  C8  UNL     1     -34.001  15.712  -3.359  1.00 20.00     0.037 C 
BRANCH   9  10
HETATM   10  C9  UNL     1     -33.837  16.904  -2.429  1.00 20.00    -0.002 C 
HETATM   11  C7  UNL     1     -34.950  16.945  -1.394  1.00 20.00     0.005 C 
ENDBRANCH   9  10
ENDBRANCH   5   9
TORSDOF 2
ENDMDL
MODEL 4
REMARK VINA RESULT:      -4.1     10.742     11.972
REMARK  2 active torsions:
REMARK  status: ('A' for Active; 'I' for Inactive)
REMARK    1  A    between atoms: C5_5  and  C8_8 
REMARK    2  A    between atoms: C8_8  and  C9_9 
ROOT
HETATM    1  C1  UNL     1     -35.599  16.279  -6.242  1.00 20.00     0.046 C 
HETATM    2  C2  UNL     1     -35.007  14.496  -4.590  1.00 20.00     0.057 C 
HETATM    3  C3  UNL     1     -34.126  16.659  -6.370  1.00 20.00     0.170 C 
HETATM    4  C4  UNL     1     -35.746  14.807  -5.892  1.00 20.00     0.087 C 
HETATM    5  C5  UNL     1     -33.628  15.192  -4.509  1.00 20.00     0.058 C 
HETATM    6  C6  UNL     1     -32.551  14.167  -4.126  1.00 20.00     0.046 C 
HETATM    7  O10 UNL     1     -33.239  15.705  -5.791  1.00 20.00    -0.380 OA
HETATM    8 CL11 UNL     1     -37.468  14.364  -5.750  1.00 20.00    -0.125 Cl
ENDROOT
BRANCH   5   9
HETATM    9  C8  UNL     1     -33.619  16.313  -3.458  1.00 20.00     0.037 C 
BRANCH   9  10
HETATM   10  C9  UNL     1     -34.877  16.268  -2.603  1.00 20.00    -0.002 C 
HETATM   11  C7  UNL     1     -34.699  17.077  -1.329  1.00 20.00     0.005 C 
ENDBRANCH   9  10
ENDBRANCH   5   9
TORSDOF 2
ENDMDL
MODEL 5
REMARK VINA RESULT:      -4.1     10.687     11.940
REMARK  2 active torsions:
REMARK  status: ('A' for Active; 'I' for Inactive)
REMARK    1  A    between atoms: C5_5  and  C8_8 
REMARK    2  A    between atoms: C8_8  and  C9_9 
ROOT
HETATM    1  C1  UNL     1     -36.358  14.007  -6.863  1.00 20.00     0.046 C 
HETATM    2  C2  UNL     1     -35.420  14.792  -4.680  1.00 20.00     0.057 C 
HETATM    3  C3  UNL     1     -34.981  13.499  -7.280  1.00 20.00     0.170 C 
HETATM    4  C4  UNL     1     -36.514  13.961  -5.352  1.00 20.00     0.087 C 
HETATM    5  C5  UNL     1     -34.034  14.590  -5.338  1.00 20.00     0.058 C 
HETATM    6  C6  UNL     1     -32.988  14.283  -4.257  1.00 20.00     0.046 C 
HETATM    7  O10 UNL     1     -34.042  13.451  -6.208  1.00 20.00    -0.380 OA
HETATM    8 CL11 UNL     1     -38.127  14.549  -4.868  1.00 20.00    -0.125 Cl
ENDROOT
BRANCH   5   9
HETATM    9  C8  UNL     1     -33.581  15.845  -6.101  1.00 20.00     0.037 C 
BRANCH   9  10
HETATM   10  C9  UNL     1     -34.403  17.058  -5.691  1.00 20.00    -0.002 C 
HETATM   11  C7  UNL     1     -33.565  18.035  -4.881  1.00 20.00     0.005 C 
ENDBRANCH   9  10
ENDBRANCH   5   9
TORSDOF 2
ENDMDL
MODEL 6
REMARK VINA RESULT:      -4.0     11.093     12.329
REMARK  2 active torsions:
REMARK  status: ('A' for Active; 'I' for Inactive)
REMARK    1  A    between atoms: C5_5  and  C8_8 
REMARK    2  A    between atoms: C8_8  and  C9_9 
ROOT
HETATM    1  C1  UNL     1     -33.412  15.892  -4.421  1.00 20.00     0.046 C 
HETATM    2  C2  UNL     1     -34.897  15.542  -6.405  1.00 20.00     0.057 C 
HETATM    3  C3  UNL     1     -33.187  14.386  -4.315  1.00 20.00     0.170 C 
HETATM    4  C4  UNL     1     -33.682  16.296  -5.862  1.00 20.00     0.087 C 
HETATM    5  C5  UNL     1     -34.905  14.052  -5.988  1.00 20.00     0.058 C 
HETATM    6  C6  UNL     1     -35.133  13.170  -7.223  1.00 20.00     0.046 C 
HETATM    7  O10 UNL     1     -33.630  13.662  -5.461  1.00 20.00    -0.380 OA
HETATM    8 CL11 UNL     1     -33.940  18.057  -5.983  1.00 20.00    -0.125 Cl
ENDROOT
BRANCH   5   9
HETATM    9  C8  UNL     1     -36.019  13.754  -4.972  1.00 20.00     0.037 C 
BRANCH   9  10
HETATM   10  C9  UNL     1     -36.972  14.933  -4.847  1.00 20.00    -0.002 C 
HETATM   11  C7  UNL     1     -38.391  14.528  -5.210  1.00 20.00     0.005 C 
ENDBRANCH   9  10
ENDBRANCH   5   9
TORSDOF 2
ENDMDL
MODEL 7
REMARK VINA RESULT:      -4.0     11.411     12.363
REMARK  2 active torsions:
REMARK  status: ('A' for Active; 'I' for Inactive)
REMARK    1  A    between atoms: C5_5  and  C8_8 
REMARK    2  A    between atoms: C8_8  and  C9_9 
ROOT
HETATM    1  C1  UNL     1     -33.048  15.671  -5.576  1.00 20.00     0.046 C 
HETATM    2  C2  UNL     1     -34.677  17.326  -4.645  1.00 20.00     0.057 C 
HETATM    3  C3  UNL     1     -33.331  14.726  -4.411  1.00 20.00     0.170 C 
HETATM    4  C4  UNL     1     -34.265  16.528  -5.883  1.00 20.00     0.087 C 
HETATM    5  C5  UNL     1     -34.609  16.486  -3.347  1.00 20.00     0.058 C 
HETATM    6  C6  UNL     1     -35.926  16.625  -2.571  1.00 20.00     0.046 C 
HETATM    7  O10 UNL     1     -34.480  15.090  -3.649  1.00 20.00    -0.380 OA
HETATM    8 CL11 UNL     1     -33.933  17.626  -7.248  1.00 20.00    -0.125 Cl
ENDROOT
BRANCH   5   9
HETATM    9  C8  UNL     1     -33.462  16.945  -2.434  1.00 20.00     0.037 C 
BRANCH   9  10
HETATM   10  C9  UNL     1     -34.000  17.548  -1.144  1.00 20.00    -0.002 C 
HETATM   11  C7  UNL     1     -32.963  18.443  -0.486  1.00 20.00     0.005 C 
ENDBRANCH   9  10
ENDBRANCH   5   9
TORSDOF 2
ENDMDL
MODEL 8
REMARK VINA RESULT:      -3.9     11.179     11.918
REMARK  2 active torsions:
REMARK  status: ('A' for Active; 'I' for Inactive)
REMARK    1  A    between atoms: C5_5  and  C8_8 
REMARK    2  A    between atoms: C8_8  and  C9_9 
ROOT
HETATM    1  C1  UNL     1     -33.672  16.380  -3.143  1.00 20.00     0.046 C 
HETATM    2  C2  UNL     1     -36.132  15.992  -3.384  1.00 20.00     0.057 C 
HETATM    3  C3  UNL     1     -33.506  16.315  -4.658  1.00 20.00     0.170 C 
HETATM    4  C4  UNL     1     -35.055  16.891  -2.774  1.00 20.00     0.087 C 
HETATM    5  C5  UNL     1     -35.805  15.578  -4.838  1.00 20.00     0.058 C 
HETATM    6  C6  UNL     1     -37.019  15.847  -5.739  1.00 20.00     0.046 C 
HETATM    7  O10 UNL     1     -34.740  16.377  -5.370  1.00 20.00    -0.380 OA
HETATM    8 CL11 UNL     1     -35.244  16.972  -1.002  1.00 20.00    -0.125 Cl
ENDROOT
BRANCH   5   9
HETATM    9  C8  UNL     1     -35.456  14.084  -4.937  1.00 20.00     0.037 C 
BRANCH   9  10
HETATM   10  C9  UNL     1     -35.764  13.543  -6.325  1.00 20.00    -0.002 C 
HETATM   11  C7  UNL     1     -34.509  13.491  -7.181  1.00 20.00     0.005 C 
ENDBRANCH   9  10
ENDBRANCH   5   9
TORSDOF 2
ENDMDL
MODEL 9
REMARK VINA RESULT:      -3.9     11.374     12.752
REMARK  2 active torsions:
REMARK  status: ('A' for Active; 'I' for Inactive)
REMARK    1  A    between atoms: C5_5  and  C8_8 
REMARK    2  A    between atoms: C8_8  and  C9_9 
ROOT
HETATM    1  C1  UNL     1     -34.015  17.063  -6.425  1.00 20.00     0.046 C 
HETATM    2  C2  UNL     1     -36.038  16.005  -5.400  1.00 20.00     0.057 C 
HETATM    3  C3  UNL     1     -33.347  15.695  -6.535  1.00 20.00     0.170 C 
HETATM    4  C4  UNL     1     -35.527  16.932  -6.504  1.00 20.00     0.087 C 
HETATM    5  C5  UNL     1     -35.146  14.755  -5.214  1.00 20.00     0.058 C 
HETATM    6  C6  UNL     1     -36.017  13.492  -5.215  1.00 20.00     0.046 C 
HETATM    7  O10 UNL     1     -34.241  14.605  -6.316  1.00 20.00    -0.380 OA
HETATM    8 CL11 UNL     1     -36.305  18.532  -6.382  1.00 20.00    -0.125 Cl
ENDROOT
BRANCH   5   9
HETATM    9  C8  UNL     1     -34.372  14.803  -3.887  1.00 20.00     0.037 C 
BRANCH   9  10
HETATM   10  C9  UNL     1     -34.855  15.953  -3.016  1.00 20.00    -0.002 C 
HETATM   11  C7  UNL     1     -33.692  16.822  -2.566  1.00 20.00     0.005 C 
ENDBRANCH   9  10
ENDBRANCH   5   9
TORSDOF 2
ENDMDL
