MODEL 1
REMARK VINA RESULT:      -3.7      0.000      0.000
REMARK  1 active torsions:
REMARK  status: ('A' for Active; 'I' for Inactive)
REMARK    1  A    between atoms: C4_4  and  S9_9 
ROOT
HETATM    1  C1  UNL     1     -32.856   6.048   1.995  1.00 20.00     0.041 C 
HETATM    2  C2  UNL     1     -33.633   7.375   3.976  1.00 20.00     0.052 C 
HETATM    3  C3  UNL     1     -33.218   4.750   2.714  1.00 20.00     0.170 C 
HETATM    4  C4  UNL     1     -32.480   7.131   2.997  1.00 20.00     0.049 C 
HETATM    5  C5  UNL     1     -34.324   6.063   4.420  1.00 20.00     0.054 C 
HETATM    6  C6  UNL     1     -35.724   5.918   3.802  1.00 20.00     0.045 C 
HETATM    7  C7  UNL     1     -34.475   6.050   5.948  1.00 20.00     0.045 C 
HETATM    8  O8  UNL     1     -33.512   4.927   4.099  1.00 20.00    -0.381 OA
ENDROOT
BRANCH   4   9
HETATM    9  S9  UNL     1     -32.033   8.676   2.139  1.00 20.00    -0.177 SA
HETATM   10  H23 UNL     1     -33.131   9.352   2.503  1.00 20.00     0.102 HD
ENDBRANCH   4   9
TORSDOF 1
ENDMDL
MODEL 2
REMARK VINA RESULT:      -3.5     12.023     13.037
REMARK  1 active torsions:
REMARK  status: ('A' for Active; 'I' for Inactive)
REMARK    1  A    between atoms: C4_4  and  S9_9 
ROOT
HETATM    1  C1  UNL     1     -35.319  15.051  -3.929  1.00 20.00     0.041 C 
HETATM    2  C2  UNL     1     -35.928  14.915  -6.358  1.00 20.00     0.052 C 
HETATM    3  C3  UNL     1     -33.958  14.426  -4.228  1.00 20.00     0.170 C 
HETATM    4  C4  UNL     1     -36.362  14.572  -4.928  1.00 20.00     0.049 C 
HETATM    5  C5  UNL     1     -34.414  14.685  -6.591  1.00 20.00     0.054 C 
HETATM    6  C6  UNL     1     -33.650  16.012  -6.722  1.00 20.00     0.045 C 
HETATM    7  C7  UNL     1     -34.207  13.886  -7.886  1.00 20.00     0.045 C 
HETATM    8  O8  UNL     1     -33.855  13.883  -5.543  1.00 20.00    -0.381 OA
ENDROOT
BRANCH   4   9
HETATM    9  S9  UNL     1     -37.990  15.306  -4.564  1.00 20.00    -0.177 SA
HETATM   10  H23 UNL     1     -38.165  14.668  -3.399  1.00 20.00     0.102 HD
ENDBRANCH   4   9
TORSDOF 1
ENDMDL
MODEL 3
REMARK VINA RESULT:      -3.4     11.897     12.705
REMARK  1 active torsions:
REMARK  status: ('A' for Active; 'I' for Inactive)
REMARK    1  A    between atoms: C4_4  and  S9_9 
ROOT
HETATM    1  C1  UNL     1     -33.329  16.735  -4.910  1.00 20.00     0.041 C 
HETATM    2  C2  UNL     1     -35.185  15.381  -3.905  1.00 20.00     0.052 C 
HETATM    3  C3  UNL     1     -33.313  15.818  -6.131  1.00 20.00     0.170 C 
HETATM    4  C4  UNL     1     -33.792  15.976  -3.674  1.00 20.00     0.049 C 
HETATM    5  C5  UNL     1     -35.353  14.794  -5.329  1.00 20.00     0.054 C 
HETATM    6  C6  UNL     1     -36.279  15.661  -6.197  1.00 20.00     0.045 C 
HETATM    7  C7  UNL     1     -35.964  13.388  -5.239  1.00 20.00     0.045 C 
HETATM    8  O8  UNL     1     -34.079  14.627  -5.963  1.00 20.00    -0.381 OA
ENDROOT
BRANCH   4   9
HETATM    9  S9  UNL     1     -33.799  17.066  -2.213  1.00 20.00    -0.177 SA
HETATM   10  H23 UNL     1     -32.494  16.930  -1.940  1.00 20.00     0.102 HD
ENDBRANCH   4   9
TORSDOF 1
ENDMDL
MODEL 4
REMARK VINA RESULT:      -3.3     11.904     12.807
REMARK  1 active torsions:
REMARK  status: ('A' for Active; 'I' for Inactive)
REMARK    1  A    between atoms: C4_4  and  S9_9 
ROOT
HETATM    1  C1  UNL     1     -34.729  14.111  -4.346  1.00 20.00     0.041 C 
HETATM    2  C2  UNL     1     -35.402  16.525  -4.424  1.00 20.00     0.052 C 
HETATM    3  C3  UNL     1     -33.258  14.511  -4.428  1.00 20.00     0.170 C 
HETATM    4  C4  UNL     1     -35.607  15.139  -5.045  1.00 20.00     0.049 C 
HETATM    5  C5  UNL     1     -33.917  16.815  -4.093  1.00 20.00     0.054 C 
HETATM    6  C6  UNL     1     -33.658  16.800  -2.577  1.00 20.00     0.045 C 
HETATM    7  C7  UNL     1     -33.530  18.201  -4.628  1.00 20.00     0.045 C 
HETATM    8  O8  UNL     1     -33.056  15.883  -4.759  1.00 20.00    -0.381 OA
ENDROOT
BRANCH   4   9
HETATM    9  S9  UNL     1     -37.362  14.655  -4.960  1.00 20.00    -0.177 SA
HETATM   10  H23 UNL     1     -37.145  13.472  -4.370  1.00 20.00     0.102 HD
ENDBRANCH   4   9
TORSDOF 1
ENDMDL
MODEL 5
REMARK VINA RESULT:      -3.2     11.915     12.749
REMARK  1 active torsions:
REMARK  status: ('A' for Active; 'I' for Inactive)
REMARK    1  A    between atoms: C4_4  and  S9_9 
ROOT
HETATM    1  C1  UNL     1     -33.004  15.793  -5.020  1.00 20.00     0.041 C 
HETATM    2  C2  UNL     1     -35.376  15.808  -5.832  1.00 20.00     0.052 C 
HETATM    3  C3  UNL     1     -33.183  14.367  -4.503  1.00 20.00     0.170 C 
HETATM    4  C4  UNL     1     -34.327  16.545  -4.993  1.00 20.00     0.049 C 
HETATM    5  C5  UNL     1     -35.311  14.271  -5.649  1.00 20.00     0.054 C 
HETATM    6  C6  UNL     1     -34.750  13.572  -6.898  1.00 20.00     0.045 C 
HETATM    7  C7  UNL     1     -36.722  13.722  -5.390  1.00 20.00     0.045 C 
HETATM    8  O8  UNL     1     -34.540  13.929  -4.491  1.00 20.00    -0.381 OA
ENDROOT
BRANCH   4   9
HETATM    9  S9  UNL     1     -34.112  18.251  -5.597  1.00 20.00    -0.177 SA
HETATM   10  H23 UNL     1     -34.154  18.826  -4.388  1.00 20.00     0.102 HD
ENDBRANCH   4   9
TORSDOF 1
ENDMDL
MODEL 6
REMARK VINA RESULT:      -3.2     11.729     12.667
REMARK  1 active torsions:
REMARK  status: ('A' for Active; 'I' for Inactive)
REMARK    1  A    between atoms: C4_4  and  S9_9 
ROOT
HETATM    1  C1  UNL     1     -35.997  16.680  -2.570  1.00 20.00     0.041 C 
HETATM    2  C2  UNL     1     -33.585  16.369  -3.181  1.00 20.00     0.052 C 
HETATM    3  C3  UNL     1     -36.412  16.313  -3.993  1.00 20.00     0.170 C 
HETATM    4  C4  UNL     1     -34.615  17.318  -2.560  1.00 20.00     0.049 C 
HETATM    5  C5  UNL     1     -34.131  15.633  -4.430  1.00 20.00     0.054 C 
HETATM    6  C6  UNL     1     -34.387  14.144  -4.147  1.00 20.00     0.045 C 
HETATM    7  C7  UNL     1     -33.111  15.732  -5.574  1.00 20.00     0.045 C 
HETATM    8  O8  UNL     1     -35.322  16.267  -4.913  1.00 20.00    -0.381 OA
ENDROOT
BRANCH   4   9
HETATM    9  S9  UNL     1     -34.125  17.769  -0.863  1.00 20.00    -0.177 SA
HETATM   10  H23 UNL     1     -32.806  17.664  -1.074  1.00 20.00     0.102 HD
ENDBRANCH   4   9
TORSDOF 1
ENDMDL
MODEL 7
REMARK VINA RESULT:      -3.2     12.261     13.085
REMARK  1 active torsions:
REMARK  status: ('A' for Active; 'I' for Inactive)
REMARK    1  A    between atoms: C4_4  and  S9_9 
ROOT
HETATM    1  C1  UNL     1     -36.987  14.254  -5.884  1.00 20.00     0.041 C 
HETATM    2  C2  UNL     1     -35.287  16.090  -6.049  1.00 20.00     0.052 C 
HETATM    3  C3  UNL     1     -35.940  13.330  -5.266  1.00 20.00     0.170 C 
HETATM    4  C4  UNL     1     -36.331  15.267  -6.811  1.00 20.00     0.049 C 
HETATM    5  C5  UNL     1     -34.454  15.230  -5.066  1.00 20.00     0.054 C 
HETATM    6  C6  UNL     1     -34.821  15.522  -3.602  1.00 20.00     0.045 C 
HETATM    7  C7  UNL     1     -32.960  15.533  -5.252  1.00 20.00     0.045 C 
HETATM    8  O8  UNL     1     -34.609  13.835  -5.354  1.00 20.00    -0.381 OA
ENDROOT
BRANCH   4   9
HETATM    9  S9  UNL     1     -37.581  16.361  -7.560  1.00 20.00    -0.177 SA
HETATM   10  H23 UNL     1     -37.666  15.693  -8.718  1.00 20.00     0.102 HD
ENDBRANCH   4   9
TORSDOF 1
ENDMDL
MODEL 8
REMARK VINA RESULT:      -3.2     12.109     12.955
REMARK  1 active torsions:
REMARK  status: ('A' for Active; 'I' for Inactive)
REMARK    1  A    between atoms: C4_4  and  S9_9 
ROOT
HETATM    1  C1  UNL     1     -35.144  15.107  -6.683  1.00 20.00     0.041 C 
HETATM    2  C2  UNL     1     -35.361  15.216  -4.187  1.00 20.00     0.052 C 
HETATM    3  C3  UNL     1     -33.855  15.923  -6.613  1.00 20.00     0.170 C 
HETATM    4  C4  UNL     1     -36.067  15.460  -5.525  1.00 20.00     0.049 C 
HETATM    5  C5  UNL     1     -33.878  15.661  -4.208  1.00 20.00     0.054 C 
HETATM    6  C6  UNL     1     -32.922  14.457  -4.203  1.00 20.00     0.045 C 
HETATM    7  C7  UNL     1     -33.577  16.512  -2.966  1.00 20.00     0.045 C 
HETATM    8  O8  UNL     1     -33.616  16.507  -5.334  1.00 20.00    -0.381 OA
ENDROOT
BRANCH   4   9
HETATM    9  S9  UNL     1     -37.612  14.497  -5.615  1.00 20.00    -0.177 SA
HETATM   10  H23 UNL     1     -37.852  14.507  -4.297  1.00 20.00     0.102 HD
ENDBRANCH   4   9
TORSDOF 1
ENDMDL
MODEL 9
REMARK VINA RESULT:      -3.2      1.621      2.538
REMARK  1 active torsions:
REMARK  status: ('A' for Active; 'I' for Inactive)
REMARK    1  A    between atoms: C4_4  and  S9_9 
ROOT
HETATM    1  C1  UNL     1     -31.588   8.435   2.635  1.00 20.00     0.041 C 
HETATM    2  C2  UNL     1     -33.707   7.356   1.840  1.00 20.00     0.052 C 
HETATM    3  C3  UNL     1     -31.821   7.875   4.037  1.00 20.00     0.170 C 
HETATM    4  C4  UNL     1     -32.912   8.663   1.920  1.00 20.00     0.049 C 
HETATM    5  C5  UNL     1     -33.622   6.526   3.145  1.00 20.00     0.054 C 
HETATM    6  C6  UNL     1     -32.758   5.268   2.964  1.00 20.00     0.045 C 
HETATM    7  C7  UNL     1     -35.029   6.081   3.567  1.00 20.00     0.045 C 
HETATM    8  O8  UNL     1     -33.125   7.327   4.224  1.00 20.00    -0.381 OA
ENDROOT
BRANCH   4   9
HETATM    9  S9  UNL     1     -32.636   9.345   0.253  1.00 20.00    -0.177 SA
HETATM   10  H23 UNL     1     -33.891   9.156  -0.178  1.00 20.00     0.102 HD
ENDBRANCH   4   9
TORSDOF 1
ENDMDL
