MODEL 1
REMARK VINA RESULT:      -5.0      0.000      0.000
REMARK  1 active torsions:
REMARK  status: ('A' for Active; 'I' for Inactive)
REMARK    1  A    between atoms: C6_6  and  C8_8 
ROOT
HETATM    1  C3  UNL     1     -34.293   5.522   3.896  1.00 20.00     0.046 C 
HETATM    2  C4  UNL     1     -34.089   7.982   3.422  1.00 20.00     0.058 C 
HETATM    3  C5  UNL     1     -32.951   5.348   3.201  1.00 20.00     0.170 C 
HETATM    4  C7  UNL     1     -34.458   6.926   4.466  1.00 20.00     0.087 C 
HETATM    5  C8  UNL     1     -32.811   7.687   2.597  1.00 20.00     0.062 C 
HETATM    6  C9  UNL     1     -31.515   8.039   3.348  1.00 20.00     0.046 C 
HETATM    7  O10 UNL     1     -32.778   6.318   2.171  1.00 20.00    -0.380 OA
HETATM    8 CL11 UNL     1     -33.504   7.122   5.965  1.00 20.00    -0.125 Cl
ENDROOT
BRANCH   5   9
HETATM    9  C6  UNL     1     -32.853   8.526   1.328  1.00 20.00     0.020 A 
HETATM   10  C1  UNL     1     -32.537   9.995   1.381  1.00 20.00     0.008 A 
HETATM   11  C2  UNL     1     -31.578   9.044   0.722  1.00 20.00     0.008 A 
ENDBRANCH   5   9
TORSDOF 1
ENDMDL
MODEL 2
REMARK VINA RESULT:      -4.5     10.719     11.626
REMARK  1 active torsions:
REMARK  status: ('A' for Active; 'I' for Inactive)
REMARK    1  A    between atoms: C6_6  and  C8_8 
ROOT
HETATM    1  C3  UNL     1     -36.866  14.602  -5.919  1.00 20.00     0.046 C 
HETATM    2  C4  UNL     1     -34.892  13.979  -4.494  1.00 20.00     0.058 C 
HETATM    3  C5  UNL     1     -36.239  15.981  -6.062  1.00 20.00     0.170 C 
HETATM    4  C7  UNL     1     -35.822  13.532  -5.624  1.00 20.00     0.087 C 
HETATM    5  C8  UNL     1     -34.414  15.452  -4.566  1.00 20.00     0.062 C 
HETATM    6  C9  UNL     1     -33.247  15.657  -5.548  1.00 20.00     0.046 C 
HETATM    7  O10 UNL     1     -35.499  16.329  -4.896  1.00 20.00    -0.380 OA
HETATM    8 CL11 UNL     1     -34.905  13.111  -7.101  1.00 20.00    -0.125 Cl
ENDROOT
BRANCH   5   9
HETATM    9  C6  UNL     1     -33.934  15.869  -3.183  1.00 20.00     0.020 A 
HETATM   10  C1  UNL     1     -33.726  17.323  -2.861  1.00 20.00     0.008 A 
HETATM   11  C2  UNL     1     -34.870  16.571  -2.239  1.00 20.00     0.008 A 
ENDBRANCH   5   9
TORSDOF 1
ENDMDL
MODEL 3
REMARK VINA RESULT:      -4.3     10.712     11.539
REMARK  1 active torsions:
REMARK  status: ('A' for Active; 'I' for Inactive)
REMARK    1  A    between atoms: C6_6  and  C8_8 
ROOT
HETATM    1  C3  UNL     1     -35.095  14.000  -4.492  1.00 20.00     0.046 C 
HETATM    2  C4  UNL     1     -33.715  15.965  -3.749  1.00 20.00     0.058 C 
HETATM    3  C5  UNL     1     -36.295  14.936  -4.502  1.00 20.00     0.170 C 
HETATM    4  C7  UNL     1     -33.786  14.756  -4.684  1.00 20.00     0.087 C 
HETATM    5  C8  UNL     1     -35.018  16.799  -3.636  1.00 20.00     0.062 C 
HETATM    6  C9  UNL     1     -35.211  17.773  -4.812  1.00 20.00     0.046 C 
HETATM    7  O10 UNL     1     -36.164  15.947  -3.507  1.00 20.00    -0.380 OA
HETATM    8 CL11 UNL     1     -33.570  15.234  -6.394  1.00 20.00    -0.125 Cl
ENDROOT
BRANCH   5   9
HETATM    9  C6  UNL     1     -34.952  17.622  -2.358  1.00 20.00     0.020 A 
HETATM   10  C1  UNL     1     -35.330  17.006  -1.040  1.00 20.00     0.008 A 
HETATM   11  C2  UNL     1     -33.894  17.338  -1.330  1.00 20.00     0.008 A 
ENDBRANCH   5   9
TORSDOF 1
ENDMDL
MODEL 4
REMARK VINA RESULT:      -4.3     10.732     11.705
REMARK  1 active torsions:
REMARK  status: ('A' for Active; 'I' for Inactive)
REMARK    1  A    between atoms: C6_6  and  C8_8 
ROOT
HETATM    1  C3  UNL     1     -33.365  14.382  -4.750  1.00 20.00     0.046 C 
HETATM    2  C4  UNL     1     -33.446  16.864  -4.361  1.00 20.00     0.058 C 
HETATM    3  C5  UNL     1     -34.807  14.329  -4.268  1.00 20.00     0.170 C 
HETATM    4  C7  UNL     1     -33.005  15.752  -5.315  1.00 20.00     0.087 C 
HETATM    5  C8  UNL     1     -34.855  16.689  -3.738  1.00 20.00     0.062 C 
HETATM    6  C9  UNL     1     -35.989  17.113  -4.687  1.00 20.00     0.046 C 
HETATM    7  O10 UNL     1     -35.058  15.340  -3.296  1.00 20.00    -0.380 OA
HETATM    8 CL11 UNL     1     -33.702  15.971  -6.947  1.00 20.00    -0.125 Cl
ENDROOT
BRANCH   5   9
HETATM    9  C6  UNL     1     -34.942  17.562  -2.494  1.00 20.00     0.020 A 
HETATM   10  C1  UNL     1     -35.302  16.956  -1.167  1.00 20.00     0.008 A 
HETATM   11  C2  UNL     1     -33.903  17.445  -1.415  1.00 20.00     0.008 A 
ENDBRANCH   5   9
TORSDOF 1
ENDMDL
MODEL 5
REMARK VINA RESULT:      -4.3     10.626     11.845
REMARK  1 active torsions:
REMARK  status: ('A' for Active; 'I' for Inactive)
REMARK    1  A    between atoms: C6_6  and  C8_8 
ROOT
HETATM    1  C3  UNL     1     -35.155  16.104  -6.855  1.00 20.00     0.046 C 
HETATM    2  C4  UNL     1     -35.380  15.328  -4.475  1.00 20.00     0.058 C 
HETATM    3  C5  UNL     1     -33.662  16.235  -6.598  1.00 20.00     0.170 C 
HETATM    4  C7  UNL     1     -35.803  15.084  -5.925  1.00 20.00     0.087 C 
HETATM    5  C8  UNL     1     -33.878  15.644  -4.262  1.00 20.00     0.062 C 
HETATM    6  C9  UNL     1     -32.993  14.385  -4.263  1.00 20.00     0.046 C 
HETATM    7  O10 UNL     1     -33.405  16.580  -5.239  1.00 20.00    -0.380 OA
HETATM    8 CL11 UNL     1     -35.429  13.416  -6.448  1.00 20.00    -0.125 Cl
ENDROOT
BRANCH   5   9
HETATM    9  C6  UNL     1     -33.716  16.322  -2.909  1.00 20.00     0.020 A 
HETATM   10  C1  UNL     1     -34.142  17.751  -2.722  1.00 20.00     0.008 A 
HETATM   11  C2  UNL     1     -34.925  16.643  -2.076  1.00 20.00     0.008 A 
ENDBRANCH   5   9
TORSDOF 1
ENDMDL
MODEL 6
REMARK VINA RESULT:      -4.2     10.675     11.847
REMARK  1 active torsions:
REMARK  status: ('A' for Active; 'I' for Inactive)
REMARK    1  A    between atoms: C6_6  and  C8_8 
ROOT
HETATM    1  C3  UNL     1     -33.572  17.025  -4.649  1.00 20.00     0.046 C 
HETATM    2  C4  UNL     1     -34.298  14.652  -4.250  1.00 20.00     0.058 C 
HETATM    3  C5  UNL     1     -34.852  17.209  -5.450  1.00 20.00     0.170 C 
HETATM    4  C7  UNL     1     -33.704  15.912  -3.616  1.00 20.00     0.087 C 
HETATM    5  C8  UNL     1     -35.492  14.888  -5.211  1.00 20.00     0.062 C 
HETATM    6  C9  UNL     1     -36.826  15.094  -4.473  1.00 20.00     0.046 C 
HETATM    7  O10 UNL     1     -35.236  15.994  -6.087  1.00 20.00    -0.380 OA
HETATM    8 CL11 UNL     1     -34.665  16.456  -2.210  1.00 20.00    -0.125 Cl
ENDROOT
BRANCH   5   9
HETATM    9  C6  UNL     1     -35.640  13.664  -6.103  1.00 20.00     0.020 A 
HETATM   10  C1  UNL     1     -36.017  13.822  -7.550  1.00 20.00     0.008 A 
HETATM   11  C2  UNL     1     -34.628  13.385  -7.178  1.00 20.00     0.008 A 
ENDBRANCH   5   9
TORSDOF 1
ENDMDL
MODEL 7
REMARK VINA RESULT:      -4.1     10.525     11.499
REMARK  1 active torsions:
REMARK  status: ('A' for Active; 'I' for Inactive)
REMARK    1  A    between atoms: C6_6  and  C8_8 
ROOT
HETATM    1  C3  UNL     1     -33.815  17.708  -0.994  1.00 20.00     0.046 C 
HETATM    2  C4  UNL     1     -35.283  16.239  -2.411  1.00 20.00     0.058 C 
HETATM    3  C5  UNL     1     -33.301  18.323  -2.287  1.00 20.00     0.170 C 
HETATM    4  C7  UNL     1     -35.212  17.120  -1.161  1.00 20.00     0.087 C 
HETATM    5  C8  UNL     1     -34.587  16.813  -3.672  1.00 20.00     0.062 C 
HETATM    6  C9  UNL     1     -35.445  17.856  -4.410  1.00 20.00     0.046 C 
HETATM    7  O10 UNL     1     -33.306  17.370  -3.344  1.00 20.00    -0.380 OA
HETATM    8 CL11 UNL     1     -36.448  18.411  -1.196  1.00 20.00    -0.125 Cl
ENDROOT
BRANCH   5   9
HETATM    9  C6  UNL     1     -34.319  15.667  -4.637  1.00 20.00     0.020 A 
HETATM   10  C1  UNL     1     -33.123  14.777  -4.442  1.00 20.00     0.008 A 
HETATM   11  C2  UNL     1     -34.506  14.244  -4.190  1.00 20.00     0.008 A 
ENDBRANCH   5   9
TORSDOF 1
ENDMDL
MODEL 8
REMARK VINA RESULT:      -4.1      2.119      4.173
REMARK  1 active torsions:
REMARK  status: ('A' for Active; 'I' for Inactive)
REMARK    1  A    between atoms: C6_6  and  C8_8 
ROOT
HETATM    1  C3  UNL     1     -31.781   9.351   2.886  1.00 20.00     0.046 C 
HETATM    2  C4  UNL     1     -33.727   7.935   2.160  1.00 20.00     0.058 C 
HETATM    3  C5  UNL     1     -31.363   8.194   3.781  1.00 20.00     0.170 C 
HETATM    4  C7  UNL     1     -32.613   8.878   1.699  1.00 20.00     0.087 C 
HETATM    5  C8  UNL     1     -33.313   6.878   3.216  1.00 20.00     0.062 C 
HETATM    6  C9  UNL     1     -32.596   5.663   2.601  1.00 20.00     0.046 C 
HETATM    7  O10 UNL     1     -32.498   7.466   4.239  1.00 20.00    -0.380 OA
HETATM    8 CL11 UNL     1     -31.577   8.115   0.457  1.00 20.00    -0.125 Cl
ENDROOT
BRANCH   5   9
HETATM    9  C6  UNL     1     -34.569   6.373   3.909  1.00 20.00     0.020 A 
HETATM   10  C1  UNL     1     -34.672   4.936   4.340  1.00 20.00     0.008 A 
HETATM   11  C2  UNL     1     -34.537   6.022   5.370  1.00 20.00     0.008 A 
ENDBRANCH   5   9
TORSDOF 1
ENDMDL
MODEL 9
REMARK VINA RESULT:      -4.0     10.971     11.746
REMARK  1 active torsions:
REMARK  status: ('A' for Active; 'I' for Inactive)
REMARK    1  A    between atoms: C6_6  and  C8_8 
ROOT
HETATM    1  C3  UNL     1     -35.398  13.745  -6.692  1.00 20.00     0.046 C 
HETATM    2  C4  UNL     1     -34.732  15.950  -5.685  1.00 20.00     0.058 C 
HETATM    3  C5  UNL     1     -35.917  13.353  -5.317  1.00 20.00     0.170 C 
HETATM    4  C7  UNL     1     -35.385  15.257  -6.884  1.00 20.00     0.087 C 
HETATM    5  C8  UNL     1     -35.142  15.403  -4.294  1.00 20.00     0.062 C 
HETATM    6  C9  UNL     1     -36.500  15.945  -3.812  1.00 20.00     0.046 C 
HETATM    7  O10 UNL     1     -35.151  13.970  -4.286  1.00 20.00    -0.380 OA
HETATM    8 CL11 UNL     1     -37.036  15.876  -7.181  1.00 20.00    -0.125 Cl
ENDROOT
BRANCH   5   9
HETATM    9  C6  UNL     1     -34.089  15.828  -3.281  1.00 20.00     0.020 A 
HETATM   10  C1  UNL     1     -33.616  17.254  -3.232  1.00 20.00     0.008 A 
HETATM   11  C2  UNL     1     -34.466  16.706  -2.121  1.00 20.00     0.008 A 
ENDBRANCH   5   9
TORSDOF 1
ENDMDL
