MODEL 1
REMARK VINA RESULT:      -4.3      0.000      0.000
REMARK  2 active torsions:
REMARK  status: ('A' for Active; 'I' for Inactive)
REMARK    1  A    between atoms: C5_5  and  C8_8 
REMARK    2  A    between atoms: C5_5  and  C9_9 
ROOT
HETATM    1  C1  UNL     1     -31.520   9.062   2.397  1.00 20.00     0.046 C 
HETATM    2  C2  UNL     1     -33.764   7.953   2.337  1.00 20.00     0.058 C 
HETATM    3  C3  UNL     1     -31.113   8.056   3.464  1.00 20.00     0.170 C 
HETATM    4  C4  UNL     1     -32.599   8.472   1.495  1.00 20.00     0.087 C 
HETATM    5  C5  UNL     1     -33.289   7.000   3.452  1.00 20.00     0.061 C 
HETATM    6  O10 UNL     1     -32.238   7.610   4.218  1.00 20.00    -0.380 OA
HETATM    7 CL11 UNL     1     -33.175   9.704   0.338  1.00 20.00    -0.125 Cl
ENDROOT
BRANCH   5   8
HETATM    8  C8  UNL     1     -34.443   6.764   4.436  1.00 20.00     0.033 C 
HETATM    9  C6  UNL     1     -34.030   7.052   5.839  1.00 20.00     0.008 C 
ENDBRANCH   5   8
BRANCH   5  10
HETATM   10  C9  UNL     1     -32.842   5.639   2.900  1.00 20.00     0.033 C 
HETATM   11  C7  UNL     1     -33.727   4.540   3.379  1.00 20.00     0.008 C 
ENDBRANCH   5  10
TORSDOF 2
ENDMDL
MODEL 2
REMARK VINA RESULT:      -3.9     10.612     11.837
REMARK  2 active torsions:
REMARK  status: ('A' for Active; 'I' for Inactive)
REMARK    1  A    between atoms: C5_5  and  C8_8 
REMARK    2  A    between atoms: C5_5  and  C9_9 
ROOT
HETATM    1  C1  UNL     1     -35.965  17.354  -2.715  1.00 20.00     0.046 C 
HETATM    2  C2  UNL     1     -33.727  16.333  -3.177  1.00 20.00     0.058 C 
HETATM    3  C3  UNL     1     -36.497  16.603  -3.927  1.00 20.00     0.170 C 
HETATM    4  C4  UNL     1     -34.781  16.610  -2.106  1.00 20.00     0.087 C 
HETATM    5  C5  UNL     1     -34.332  15.644  -4.416  1.00 20.00     0.061 C 
HETATM    6  O10 UNL     1     -35.472  16.377  -4.891  1.00 20.00    -0.380 OA
HETATM    7 CL11 UNL     1     -34.072  17.565  -0.775  1.00 20.00    -0.125 Cl
ENDROOT
BRANCH   5   8
HETATM    8  C8  UNL     1     -33.306  15.674  -5.559  1.00 20.00     0.033 C 
HETATM    9  C6  UNL     1     -33.731  16.600  -6.647  1.00 20.00     0.008 C 
ENDBRANCH   5   8
BRANCH   5  10
HETATM   10  C9  UNL     1     -34.702  14.179  -4.142  1.00 20.00     0.033 C 
HETATM   11  C7  UNL     1     -35.478  13.593  -5.271  1.00 20.00     0.008 C 
ENDBRANCH   5  10
TORSDOF 2
ENDMDL
MODEL 3
REMARK VINA RESULT:      -3.8     11.004     11.838
REMARK  2 active torsions:
REMARK  status: ('A' for Active; 'I' for Inactive)
REMARK    1  A    between atoms: C5_5  and  C8_8 
REMARK    2  A    between atoms: C5_5  and  C9_9 
ROOT
HETATM    1  C1  UNL     1     -34.023  17.315  -4.411  1.00 20.00     0.046 C 
HETATM    2  C2  UNL     1     -34.424  16.646  -2.033  1.00 20.00     0.058 C 
HETATM    3  C3  UNL     1     -33.508  18.649  -3.890  1.00 20.00     0.170 C 
HETATM    4  C4  UNL     1     -33.814  16.222  -3.368  1.00 20.00     0.087 C 
HETATM    5  C5  UNL     1     -33.931  18.037  -1.589  1.00 20.00     0.061 C 
HETATM    6  O10 UNL     1     -34.113  18.993  -2.646  1.00 20.00    -0.380 OA
HETATM    7 CL11 UNL     1     -34.549  14.693  -3.924  1.00 20.00    -0.125 Cl
ENDROOT
BRANCH   5   8
HETATM    8  C8  UNL     1     -34.799  18.531  -0.423  1.00 20.00     0.033 C 
HETATM    9  C6  UNL     1     -35.724  17.464   0.056  1.00 20.00     0.008 C 
ENDBRANCH   5   8
BRANCH   5  10
HETATM   10  C9  UNL     1     -32.469  18.012  -1.123  1.00 20.00     0.033 C 
HETATM   11  C7  UNL     1     -32.258  18.901   0.056  1.00 20.00     0.008 C 
ENDBRANCH   5  10
TORSDOF 2
ENDMDL
MODEL 4
REMARK VINA RESULT:      -3.8     11.006     12.052
REMARK  2 active torsions:
REMARK  status: ('A' for Active; 'I' for Inactive)
REMARK    1  A    between atoms: C5_5  and  C8_8 
REMARK    2  A    between atoms: C5_5  and  C9_9 
ROOT
HETATM    1  C1  UNL     1     -34.050  14.503  -5.543  1.00 20.00     0.046 C 
HETATM    2  C2  UNL     1     -35.569  16.108  -4.367  1.00 20.00     0.058 C 
HETATM    3  C3  UNL     1     -32.878  15.351  -5.069  1.00 20.00     0.170 C 
HETATM    4  C4  UNL     1     -35.224  14.634  -4.578  1.00 20.00     0.087 C 
HETATM    5  C5  UNL     1     -34.333  16.937  -3.966  1.00 20.00     0.061 C 
HETATM    6  O10 UNL     1     -33.259  16.714  -4.892  1.00 20.00    -0.380 OA
HETATM    7 CL11 UNL     1     -36.642  13.753  -5.211  1.00 20.00    -0.125 Cl
ENDROOT
BRANCH   5   8
HETATM    8  C8  UNL     1     -34.675  18.431  -4.071  1.00 20.00     0.033 C 
HETATM    9  C6  UNL     1     -33.471  19.241  -4.415  1.00 20.00     0.008 C 
ENDBRANCH   5   8
BRANCH   5  10
HETATM   10  C9  UNL     1     -33.882  16.647  -2.528  1.00 20.00     0.033 C 
HETATM   11  C7  UNL     1     -34.991  16.863  -1.556  1.00 20.00     0.008 C 
ENDBRANCH   5  10
TORSDOF 2
ENDMDL
MODEL 5
REMARK VINA RESULT:      -3.8     10.817     11.771
REMARK  2 active torsions:
REMARK  status: ('A' for Active; 'I' for Inactive)
REMARK    1  A    between atoms: C5_5  and  C8_8 
REMARK    2  A    between atoms: C5_5  and  C9_9 
ROOT
HETATM    1  C1  UNL     1     -33.173  15.702  -5.788  1.00 20.00     0.046 C 
HETATM    2  C2  UNL     1     -34.639  14.851  -3.946  1.00 20.00     0.058 C 
HETATM    3  C3  UNL     1     -34.192  16.811  -6.012  1.00 20.00     0.170 C 
HETATM    4  C4  UNL     1     -33.211  15.231  -4.339  1.00 20.00     0.087 C 
HETATM    5  C5  UNL     1     -35.642  15.977  -4.265  1.00 20.00     0.061 C 
HETATM    6  O10 UNL     1     -35.503  16.399  -5.631  1.00 20.00    -0.380 OA
HETATM    7 CL11 UNL     1     -32.120  13.836  -4.116  1.00 20.00    -0.125 Cl
ENDROOT
BRANCH   5   8
HETATM    8  C8  UNL     1     -37.071  15.428  -4.139  1.00 20.00     0.033 C 
HETATM    9  C6  UNL     1     -37.333  14.358  -5.143  1.00 20.00     0.008 C 
ENDBRANCH   5   8
BRANCH   5  10
HETATM   10  C9  UNL     1     -35.500  17.170  -3.309  1.00 20.00     0.033 C 
HETATM   11  C7  UNL     1     -35.413  16.721  -1.890  1.00 20.00     0.008 C 
ENDBRANCH   5  10
TORSDOF 2
ENDMDL
MODEL 6
REMARK VINA RESULT:      -3.8     11.183     12.027
REMARK  2 active torsions:
REMARK  status: ('A' for Active; 'I' for Inactive)
REMARK    1  A    between atoms: C5_5  and  C8_8 
REMARK    2  A    between atoms: C5_5  and  C9_9 
ROOT
HETATM    1  C1  UNL     1     -33.512  16.138  -3.619  1.00 20.00     0.046 C 
HETATM    2  C2  UNL     1     -35.782  15.223  -4.146  1.00 20.00     0.058 C 
HETATM    3  C3  UNL     1     -33.116  15.833  -5.056  1.00 20.00     0.170 C 
HETATM    4  C4  UNL     1     -35.014  16.388  -3.524  1.00 20.00     0.087 C 
HETATM    5  C5  UNL     1     -35.288  14.903  -5.571  1.00 20.00     0.061 C 
HETATM    6  O10 UNL     1     -33.862  14.737  -5.582  1.00 20.00    -0.380 OA
HETATM    7 CL11 UNL     1     -35.496  16.604  -1.818  1.00 20.00    -0.125 Cl
ENDROOT
BRANCH   5   8
HETATM    8  C8  UNL     1     -35.871  13.554  -6.014  1.00 20.00     0.033 C 
HETATM    9  C6  UNL     1     -35.174  13.030  -7.223  1.00 20.00     0.008 C 
ENDBRANCH   5   8
BRANCH   5  10
HETATM   10  C9  UNL     1     -35.720  15.970  -6.587  1.00 20.00     0.033 C 
HETATM   11  C7  UNL     1     -37.198  16.165  -6.577  1.00 20.00     0.008 C 
ENDBRANCH   5  10
TORSDOF 2
ENDMDL
MODEL 7
REMARK VINA RESULT:      -3.8     10.615     11.726
REMARK  2 active torsions:
REMARK  status: ('A' for Active; 'I' for Inactive)
REMARK    1  A    between atoms: C5_5  and  C8_8 
REMARK    2  A    between atoms: C5_5  and  C9_9 
ROOT
HETATM    1  C1  UNL     1     -35.231  13.934  -4.646  1.00 20.00     0.046 C 
HETATM    2  C2  UNL     1     -34.377  15.900  -3.354  1.00 20.00     0.058 C 
HETATM    3  C3  UNL     1     -36.551  14.677  -4.798  1.00 20.00     0.170 C 
HETATM    4  C4  UNL     1     -34.080  14.922  -4.490  1.00 20.00     0.087 C 
HETATM    5  C5  UNL     1     -35.758  16.566  -3.513  1.00 20.00     0.061 C 
HETATM    6  O10 UNL     1     -36.774  15.570  -3.710  1.00 20.00    -0.380 OA
HETATM    7 CL11 UNL     1     -32.557  14.048  -4.169  1.00 20.00    -0.125 Cl
ENDROOT
BRANCH   5   8
HETATM    8  C8  UNL     1     -36.122  17.286  -2.206  1.00 20.00     0.033 C 
HETATM    9  C6  UNL     1     -35.113  17.022  -1.140  1.00 20.00     0.008 C 
ENDBRANCH   5   8
BRANCH   5  10
HETATM   10  C9  UNL     1     -35.777  17.597  -4.650  1.00 20.00     0.033 C 
HETATM   11  C7  UNL     1     -34.662  18.577  -4.515  1.00 20.00     0.008 C 
ENDBRANCH   5  10
TORSDOF 2
ENDMDL
MODEL 8
REMARK VINA RESULT:      -3.8     10.855     11.982
REMARK  2 active torsions:
REMARK  status: ('A' for Active; 'I' for Inactive)
REMARK    1  A    between atoms: C5_5  and  C8_8 
REMARK    2  A    between atoms: C5_5  and  C9_9 
ROOT
HETATM    1  C1  UNL     1     -36.765  16.804  -5.696  1.00 20.00     0.046 C 
HETATM    2  C2  UNL     1     -35.667  15.453  -3.898  1.00 20.00     0.058 C 
HETATM    3  C3  UNL     1     -35.531  17.696  -5.703  1.00 20.00     0.170 C 
HETATM    4  C4  UNL     1     -36.400  15.396  -5.238  1.00 20.00     0.087 C 
HETATM    5  C5  UNL     1     -34.475  16.429  -3.934  1.00 20.00     0.061 C 
HETATM    6  O10 UNL     1     -34.892  17.711  -4.429  1.00 20.00    -0.380 OA
HETATM    7 CL11 UNL     1     -37.871  14.395  -5.094  1.00 20.00    -0.125 Cl
ENDROOT
BRANCH   5   8
HETATM    8  C8  UNL     1     -33.980  16.672  -2.501  1.00 20.00     0.033 C 
HETATM    9  C6  UNL     1     -35.119  16.826  -1.551  1.00 20.00     0.008 C 
ENDBRANCH   5   8
BRANCH   5  10
HETATM   10  C9  UNL     1     -33.302  15.882  -4.761  1.00 20.00     0.033 C 
HETATM   11  C7  UNL     1     -32.963  14.486  -4.365  1.00 20.00     0.008 C 
ENDBRANCH   5  10
TORSDOF 2
ENDMDL
MODEL 9
REMARK VINA RESULT:      -3.7     10.743     11.648
REMARK  2 active torsions:
REMARK  status: ('A' for Active; 'I' for Inactive)
REMARK    1  A    between atoms: C5_5  and  C8_8 
REMARK    2  A    between atoms: C5_5  and  C9_9 
ROOT
HETATM    1  C1  UNL     1     -33.634  15.992  -3.418  1.00 20.00     0.046 C 
HETATM    2  C2  UNL     1     -35.789  15.914  -4.690  1.00 20.00     0.058 C 
HETATM    3  C3  UNL     1     -33.206  14.743  -4.175  1.00 20.00     0.170 C 
HETATM    4  C4  UNL     1     -34.626  16.801  -4.247  1.00 20.00     0.087 C 
HETATM    5  C5  UNL     1     -35.300  14.625  -5.379  1.00 20.00     0.061 C 
HETATM    6  O10 UNL     1     -34.330  13.955  -4.559  1.00 20.00    -0.380 OA
HETATM    7 CL11 UNL     1     -35.234  18.187  -3.300  1.00 20.00    -0.125 Cl
ENDROOT
BRANCH   5   8
HETATM    8  C8  UNL     1     -36.479  13.651  -5.518  1.00 20.00     0.033 C 
HETATM    9  C6  UNL     1     -37.775  14.316  -5.199  1.00 20.00     0.008 C 
ENDBRANCH   5   8
BRANCH   5  10
HETATM   10  C9  UNL     1     -34.734  14.896  -6.781  1.00 20.00     0.033 C 
HETATM   11  C7  UNL     1     -34.476  13.627  -7.518  1.00 20.00     0.008 C 
ENDBRANCH   5  10
TORSDOF 2
ENDMDL
