MODEL 1
REMARK VINA RESULT:      -5.0      0.000      0.000
REMARK  0 active torsions:
REMARK  status: ('A' for Active; 'I' for Inactive)
ROOT
HETATM    1  C1  UNL     1     -32.752   7.927   4.837  1.00 20.00     0.046 C 
HETATM    2  C2  UNL     1     -33.194   6.070   3.217  1.00 20.00     0.057 C 
HETATM    3  C3  UNL     1     -33.836   7.334   5.726  1.00 20.00     0.170 C 
HETATM    4  C4  UNL     1     -33.016   7.579   3.375  1.00 20.00     0.087 C 
HETATM    5  C5  UNL     1     -34.244   5.506   4.195  1.00 20.00     0.055 C 
HETATM    6  C6  UNL     1     -34.153   3.974   4.204  1.00 20.00     0.045 C 
HETATM    7  C7  UNL     1     -35.675   5.901   3.800  1.00 20.00     0.045 C 
HETATM    8  O8  UNL     1     -33.953   5.926   5.538  1.00 20.00    -0.381 OA
HETATM    9 CL9  UNL     1     -31.669   8.152   2.354  1.00 20.00    -0.125 Cl
ENDROOT
TORSDOF 0
ENDMDL
MODEL 2
REMARK VINA RESULT:      -3.9      2.392      3.706
REMARK  0 active torsions:
REMARK  status: ('A' for Active; 'I' for Inactive)
ROOT
HETATM    1  C1  UNL     1     -33.897   4.849   3.904  1.00 20.00     0.046 C 
HETATM    2  C2  UNL     1     -33.312   7.165   4.650  1.00 20.00     0.057 C 
HETATM    3  C3  UNL     1     -33.291   5.191   2.550  1.00 20.00     0.170 C 
HETATM    4  C4  UNL     1     -34.415   6.110   4.588  1.00 20.00     0.087 C 
HETATM    5  C5  UNL     1     -32.675   7.418   3.269  1.00 20.00     0.055 C 
HETATM    6  C6  UNL     1     -31.391   8.239   3.448  1.00 20.00     0.045 C 
HETATM    7  C7  UNL     1     -33.614   8.190   2.330  1.00 20.00     0.045 C 
HETATM    8  O8  UNL     1     -32.267   6.176   2.671  1.00 20.00    -0.381 OA
HETATM    9 CL9  UNL     1     -34.993   5.725   6.232  1.00 20.00    -0.125 Cl
ENDROOT
TORSDOF 0
ENDMDL
MODEL 3
REMARK VINA RESULT:      -3.7      2.917      4.335
REMARK  0 active torsions:
REMARK  status: ('A' for Active; 'I' for Inactive)
ROOT
HETATM    1  C1  UNL     1     -32.460   7.437   4.038  1.00 20.00     0.046 C 
HETATM    2  C2  UNL     1     -33.520   8.113   1.874  1.00 20.00     0.057 C 
HETATM    3  C3  UNL     1     -31.298   8.359   3.693  1.00 20.00     0.170 C 
HETATM    4  C4  UNL     1     -33.134   6.934   2.766  1.00 20.00     0.087 C 
HETATM    5  C5  UNL     1     -32.330   9.060   1.621  1.00 20.00     0.055 C 
HETATM    6  C6  UNL     1     -32.845  10.361   0.991  1.00 20.00     0.045 C 
HETATM    7  C7  UNL     1     -31.292   8.444   0.671  1.00 20.00     0.045 C 
HETATM    8  O8  UNL     1     -31.718   9.440   2.864  1.00 20.00    -0.381 OA
HETATM    9 CL9  UNL     1     -34.581   5.972   3.176  1.00 20.00    -0.125 Cl
ENDROOT
TORSDOF 0
ENDMDL
MODEL 4
REMARK VINA RESULT:      -3.6     12.247     13.285
REMARK  0 active torsions:
REMARK  status: ('A' for Active; 'I' for Inactive)
ROOT
HETATM    1  C1  UNL     1     -33.794  15.431  -3.896  1.00 20.00     0.046 C 
HETATM    2  C2  UNL     1     -33.984  16.036  -6.318  1.00 20.00     0.057 C 
HETATM    3  C3  UNL     1     -34.434  14.092  -4.238  1.00 20.00     0.170 C 
HETATM    4  C4  UNL     1     -34.243  16.501  -4.885  1.00 20.00     0.087 C 
HETATM    5  C5  UNL     1     -34.583  14.641  -6.589  1.00 20.00     0.055 C 
HETATM    6  C6  UNL     1     -34.033  14.106  -7.918  1.00 20.00     0.045 C 
HETATM    7  C7  UNL     1     -36.116  14.677  -6.682  1.00 20.00     0.045 C 
HETATM    8  O8  UNL     1     -34.156  13.709  -5.582  1.00 20.00    -0.381 OA
HETATM    9 CL9  UNL     1     -33.380  18.032  -4.569  1.00 20.00    -0.125 Cl
ENDROOT
TORSDOF 0
ENDMDL
MODEL 5
REMARK VINA RESULT:      -3.6     11.991     12.851
REMARK  0 active torsions:
REMARK  status: ('A' for Active; 'I' for Inactive)
ROOT
HETATM    1  C1  UNL     1     -33.448  17.919  -3.429  1.00 20.00     0.046 C 
HETATM    2  C2  UNL     1     -35.143  16.307  -2.538  1.00 20.00     0.057 C 
HETATM    3  C3  UNL     1     -33.581  17.227  -4.778  1.00 20.00     0.170 C 
HETATM    4  C4  UNL     1     -33.776  16.947  -2.300  1.00 20.00     0.087 C 
HETATM    5  C5  UNL     1     -35.254  15.691  -3.947  1.00 20.00     0.055 C 
HETATM    6  C6  UNL     1     -36.723  15.347  -4.232  1.00 20.00     0.045 C 
HETATM    7  C7  UNL     1     -34.423  14.407  -4.086  1.00 20.00     0.045 C 
HETATM    8  O8  UNL     1     -34.875  16.653  -4.945  1.00 20.00    -0.381 OA
HETATM    9 CL9  UNL     1     -33.759  17.799  -0.731  1.00 20.00    -0.125 Cl
ENDROOT
TORSDOF 0
ENDMDL
MODEL 6
REMARK VINA RESULT:      -3.5     11.903     13.019
REMARK  0 active torsions:
REMARK  status: ('A' for Active; 'I' for Inactive)
ROOT
HETATM    1  C1  UNL     1     -36.480  13.988  -6.146  1.00 20.00     0.046 C 
HETATM    2  C2  UNL     1     -35.084  14.968  -4.314  1.00 20.00     0.057 C 
HETATM    3  C3  UNL     1     -35.191  13.736  -6.917  1.00 20.00     0.170 C 
HETATM    4  C4  UNL     1     -36.310  15.174  -5.202  1.00 20.00     0.087 C 
HETATM    5  C5  UNL     1     -33.823  14.636  -5.137  1.00 20.00     0.055 C 
HETATM    6  C6  UNL     1     -32.719  14.143  -4.192  1.00 20.00     0.045 C 
HETATM    7  C7  UNL     1     -33.293  15.859  -5.901  1.00 20.00     0.045 C 
HETATM    8  O8  UNL     1     -34.085  13.548  -6.038  1.00 20.00    -0.381 OA
HETATM    9 CL9  UNL     1     -37.773  15.375  -4.198  1.00 20.00    -0.125 Cl
ENDROOT
TORSDOF 0
ENDMDL
MODEL 7
REMARK VINA RESULT:      -3.4     12.200     13.006
REMARK  0 active torsions:
REMARK  status: ('A' for Active; 'I' for Inactive)
ROOT
HETATM    1  C1  UNL     1     -33.324  16.161  -4.800  1.00 20.00     0.046 C 
HETATM    2  C2  UNL     1     -35.656  15.736  -3.995  1.00 20.00     0.057 C 
HETATM    3  C3  UNL     1     -33.668  15.360  -6.048  1.00 20.00     0.170 C 
HETATM    4  C4  UNL     1     -34.175  15.699  -3.621  1.00 20.00     0.087 C 
HETATM    5  C5  UNL     1     -35.940  14.979  -5.308  1.00 20.00     0.055 C 
HETATM    6  C6  UNL     1     -37.361  15.311  -5.785  1.00 20.00     0.045 C 
HETATM    7  C7  UNL     1     -35.834  13.457  -5.134  1.00 20.00     0.045 C 
HETATM    8  O8  UNL     1     -35.060  15.434  -6.349  1.00 20.00    -0.381 OA
HETATM    9 CL9  UNL     1     -33.872  16.735  -2.200  1.00 20.00    -0.125 Cl
ENDROOT
TORSDOF 0
ENDMDL
MODEL 8
REMARK VINA RESULT:      -3.4     12.334     13.321
REMARK  0 active torsions:
REMARK  status: ('A' for Active; 'I' for Inactive)
ROOT
HETATM    1  C1  UNL     1     -34.217  15.112  -6.138  1.00 20.00     0.046 C 
HETATM    2  C2  UNL     1     -34.970  15.348  -3.762  1.00 20.00     0.057 C 
HETATM    3  C3  UNL     1     -33.626  16.511  -6.031  1.00 20.00     0.170 C 
HETATM    4  C4  UNL     1     -35.392  14.958  -5.178  1.00 20.00     0.087 C 
HETATM    5  C5  UNL     1     -34.305  16.739  -3.721  1.00 20.00     0.055 C 
HETATM    6  C6  UNL     1     -33.635  16.937  -2.354  1.00 20.00     0.045 C 
HETATM    7  C7  UNL     1     -35.320  17.873  -3.929  1.00 20.00     0.045 C 
HETATM    8  O8  UNL     1     -33.248  16.817  -4.691  1.00 20.00    -0.381 OA
HETATM    9 CL9  UNL     1     -35.989  13.275  -5.201  1.00 20.00    -0.125 Cl
ENDROOT
TORSDOF 0
ENDMDL
MODEL 9
REMARK VINA RESULT:      -3.4     12.171     12.913
REMARK  0 active torsions:
REMARK  status: ('A' for Active; 'I' for Inactive)
ROOT
HETATM    1  C1  UNL     1     -35.218  14.163  -4.853  1.00 20.00     0.046 C 
HETATM    2  C2  UNL     1     -35.572  16.213  -3.459  1.00 20.00     0.057 C 
HETATM    3  C3  UNL     1     -33.747  14.544  -4.939  1.00 20.00     0.170 C 
HETATM    4  C4  UNL     1     -36.077  15.408  -4.656  1.00 20.00     0.087 C 
HETATM    5  C5  UNL     1     -34.061  16.503  -3.555  1.00 20.00     0.055 C 
HETATM    6  C6  UNL     1     -33.562  17.031  -2.203  1.00 20.00     0.045 C 
HETATM    7  C7  UNL     1     -33.739  17.552  -4.630  1.00 20.00     0.045 C 
HETATM    8  O8  UNL     1     -33.332  15.288  -3.796  1.00 20.00    -0.381 OA
HETATM    9 CL9  UNL     1     -37.784  14.945  -4.412  1.00 20.00    -0.125 Cl
ENDROOT
TORSDOF 0
ENDMDL
