MODEL 1
REMARK VINA RESULT:      -4.8      0.000      0.000
REMARK  0 active torsions:
REMARK  status: ('A' for Active; 'I' for Inactive)
ROOT
HETATM    1  C1  UNL     1     -33.488   7.668   4.938  1.00 20.00     0.066 C 
HETATM    2  C2  UNL     1     -34.760   6.248   3.274  1.00 20.00     0.071 C 
HETATM    3  C3  UNL     1     -33.751   6.574   5.967  1.00 20.00     0.171 C 
HETATM    4  C4  UNL     1     -32.816   7.757   2.426  1.00 20.00     0.207 A 
HETATM    5  C5  UNL     1     -35.018   5.248   4.409  1.00 20.00     0.120 C 
HETATM    6  C6  UNL     1     -33.555   7.091   3.560  1.00 20.00     0.086 A 
HETATM    7  C7  UNL     1     -34.099   4.029   4.361  1.00 20.00     0.039 C 
HETATM    8  O8  UNL     1     -34.978   5.895   5.689  1.00 20.00    -0.386 OA
HETATM    9  O9  UNL     1     -32.317   6.569   3.062  1.00 20.00    -0.375 OA
ENDROOT
TORSDOF 0
ENDMDL
MODEL 2
REMARK VINA RESULT:      -3.9     12.030     13.286
REMARK  0 active torsions:
REMARK  status: ('A' for Active; 'I' for Inactive)
ROOT
HETATM    1  C1  UNL     1     -34.008  14.184  -7.185  1.00 20.00     0.066 C 
HETATM    2  C2  UNL     1     -34.694  14.505  -4.770  1.00 20.00     0.071 C 
HETATM    3  C3  UNL     1     -35.201  13.247  -7.327  1.00 20.00     0.171 C 
HETATM    4  C4  UNL     1     -33.547  16.471  -6.033  1.00 20.00     0.207 A 
HETATM    5  C5  UNL     1     -35.822  13.495  -5.015  1.00 20.00     0.120 C 
HETATM    6  C6  UNL     1     -34.243  15.134  -6.053  1.00 20.00     0.086 A 
HETATM    7  C7  UNL     1     -37.186  14.150  -5.224  1.00 20.00     0.039 C 
HETATM    8  O8  UNL     1     -35.493  12.599  -6.086  1.00 20.00    -0.386 OA
HETATM    9  O9  UNL     1     -34.927  16.341  -6.410  1.00 20.00    -0.375 OA
ENDROOT
TORSDOF 0
ENDMDL
MODEL 3
REMARK VINA RESULT:      -3.7     11.742     13.184
REMARK  0 active torsions:
REMARK  status: ('A' for Active; 'I' for Inactive)
ROOT
HETATM    1  C1  UNL     1     -34.999  14.061  -6.502  1.00 20.00     0.066 C 
HETATM    2  C2  UNL     1     -33.202  15.347  -5.269  1.00 20.00     0.071 C 
HETATM    3  C3  UNL     1     -35.545  13.653  -5.139  1.00 20.00     0.171 C 
HETATM    4  C4  UNL     1     -34.045  16.235  -7.566  1.00 20.00     0.207 A 
HETATM    5  C5  UNL     1     -33.801  14.819  -3.959  1.00 20.00     0.120 C 
HETATM    6  C6  UNL     1     -34.214  15.327  -6.373  1.00 20.00     0.086 A 
HETATM    7  C7  UNL     1     -34.673  15.844  -3.237  1.00 20.00     0.039 C 
HETATM    8  O8  UNL     1     -34.497  13.581  -4.169  1.00 20.00    -0.386 OA
HETATM    9  O9  UNL     1     -34.980  16.530  -6.516  1.00 20.00    -0.375 OA
ENDROOT
TORSDOF 0
ENDMDL
MODEL 4
REMARK VINA RESULT:      -3.7     11.885     13.141
REMARK  0 active torsions:
REMARK  status: ('A' for Active; 'I' for Inactive)
ROOT
HETATM    1  C1  UNL     1     -34.079  14.843  -6.250  1.00 20.00     0.066 C 
HETATM    2  C2  UNL     1     -35.697  15.852  -4.587  1.00 20.00     0.071 C 
HETATM    3  C3  UNL     1     -33.020  15.783  -5.685  1.00 20.00     0.171 C 
HETATM    4  C4  UNL     1     -35.980  13.358  -5.278  1.00 20.00     0.207 A 
HETATM    5  C5  UNL     1     -34.569  16.793  -4.145  1.00 20.00     0.120 C 
HETATM    6  C6  UNL     1     -35.149  14.615  -5.231  1.00 20.00     0.086 A 
HETATM    7  C7  UNL     1     -33.897  16.361  -2.844  1.00 20.00     0.039 C 
HETATM    8  O8  UNL     1     -33.614  16.989  -5.198  1.00 20.00    -0.386 OA
HETATM    9  O9  UNL     1     -34.907  13.522  -4.336  1.00 20.00    -0.375 OA
ENDROOT
TORSDOF 0
ENDMDL
MODEL 5
REMARK VINA RESULT:      -3.7     11.700     12.965
REMARK  0 active torsions:
REMARK  status: ('A' for Active; 'I' for Inactive)
ROOT
HETATM    1  C1  UNL     1     -35.048  15.277  -6.530  1.00 20.00     0.066 C 
HETATM    2  C2  UNL     1     -34.803  15.003  -4.026  1.00 20.00     0.071 C 
HETATM    3  C3  UNL     1     -33.541  15.489  -6.585  1.00 20.00     0.171 C 
HETATM    4  C4  UNL     1     -36.674  13.686  -5.267  1.00 20.00     0.207 A 
HETATM    5  C5  UNL     1     -33.306  15.295  -4.198  1.00 20.00     0.120 C 
HETATM    6  C6  UNL     1     -35.405  14.500  -5.303  1.00 20.00     0.086 A 
HETATM    7  C7  UNL     1     -32.438  14.040  -4.164  1.00 20.00     0.039 C 
HETATM    8  O8  UNL     1     -33.062  16.080  -5.374  1.00 20.00    -0.386 OA
HETATM    9  O9  UNL     1     -35.387  13.077  -5.462  1.00 20.00    -0.375 OA
ENDROOT
TORSDOF 0
ENDMDL
MODEL 6
REMARK VINA RESULT:      -3.6      1.216      3.114
REMARK  0 active torsions:
REMARK  status: ('A' for Active; 'I' for Inactive)
ROOT
HETATM    1  C1  UNL     1     -33.782   6.633   5.522  1.00 20.00     0.066 C 
HETATM    2  C2  UNL     1     -32.965   5.847   3.259  1.00 20.00     0.071 C 
HETATM    3  C3  UNL     1     -33.223   8.006   5.170  1.00 20.00     0.171 C 
HETATM    4  C4  UNL     1     -35.106   4.771   4.277  1.00 20.00     0.207 A 
HETATM    5  C5  UNL     1     -32.385   7.252   3.044  1.00 20.00     0.120 C 
HETATM    6  C6  UNL     1     -34.071   5.869   4.269  1.00 20.00     0.086 A 
HETATM    7  C7  UNL     1     -33.250   8.131   2.143  1.00 20.00     0.039 C 
HETATM    8  O8  UNL     1     -32.098   7.892   4.296  1.00 20.00    -0.386 OA
HETATM    9  O9  UNL     1     -35.383   6.070   3.728  1.00 20.00    -0.375 OA
ENDROOT
TORSDOF 0
ENDMDL
MODEL 7
REMARK VINA RESULT:      -3.6      8.935     10.104
REMARK  0 active torsions:
REMARK  status: ('A' for Active; 'I' for Inactive)
ROOT
HETATM    1  C1  UNL     1     -43.407   5.011   0.427  1.00 20.00     0.066 C 
HETATM    2  C2  UNL     1     -41.248   5.474  -0.809  1.00 20.00     0.071 C 
HETATM    3  C3  UNL     1     -43.219   6.357   1.117  1.00 20.00     0.171 C 
HETATM    4  C4  UNL     1     -43.108   4.083  -1.985  1.00 20.00     0.207 A 
HETATM    5  C5  UNL     1     -41.132   6.776  -0.005  1.00 20.00     0.120 C 
HETATM    6  C6  UNL     1     -42.669   5.003  -0.873  1.00 20.00     0.086 A 
HETATM    7  C7  UNL     1     -41.552   8.013  -0.794  1.00 20.00     0.039 C 
HETATM    8  O8  UNL     1     -41.832   6.678   1.244  1.00 20.00    -0.386 OA
HETATM    9  O9  UNL     1     -43.417   5.486  -1.996  1.00 20.00    -0.375 OA
ENDROOT
TORSDOF 0
ENDMDL
MODEL 8
REMARK VINA RESULT:      -3.6     11.642     12.755
REMARK  0 active torsions:
REMARK  status: ('A' for Active; 'I' for Inactive)
ROOT
HETATM    1  C1  UNL     1     -34.768  15.577  -3.605  1.00 20.00     0.066 C 
HETATM    2  C2  UNL     1     -36.827  14.682  -4.772  1.00 20.00     0.071 C 
HETATM    3  C3  UNL     1     -34.007  14.394  -4.190  1.00 20.00     0.171 C 
HETATM    4  C4  UNL     1     -36.570  17.252  -4.452  1.00 20.00     0.207 A 
HETATM    5  C5  UNL     1     -35.974  13.499  -5.250  1.00 20.00     0.120 C 
HETATM    6  C6  UNL     1     -35.973  15.867  -4.443  1.00 20.00     0.086 A 
HETATM    7  C7  UNL     1     -35.519  13.630  -6.702  1.00 20.00     0.039 C 
HETATM    8  O8  UNL     1     -34.869  13.266  -4.365  1.00 20.00    -0.386 OA
HETATM    9  O9  UNL     1     -35.748  16.774  -5.529  1.00 20.00    -0.375 OA
ENDROOT
TORSDOF 0
ENDMDL
MODEL 9
REMARK VINA RESULT:      -3.6     11.995     13.191
REMARK  0 active torsions:
REMARK  status: ('A' for Active; 'I' for Inactive)
ROOT
HETATM    1  C1  UNL     1     -33.253  15.729  -6.014  1.00 20.00     0.066 C 
HETATM    2  C2  UNL     1     -34.378  15.112  -3.833  1.00 20.00     0.071 C 
HETATM    3  C3  UNL     1     -34.095  14.644  -6.675  1.00 20.00     0.171 C 
HETATM    4  C4  UNL     1     -33.644  17.578  -4.227  1.00 20.00     0.207 A 
HETATM    5  C5  UNL     1     -35.122  14.007  -4.595  1.00 20.00     0.120 C 
HETATM    6  C6  UNL     1     -33.924  16.196  -4.762  1.00 20.00     0.086 A 
HETATM    7  C7  UNL     1     -36.563  14.376  -4.940  1.00 20.00     0.039 C 
HETATM    8  O8  UNL     1     -34.387  13.590  -5.754  1.00 20.00    -0.386 OA
HETATM    9  O9  UNL     1     -34.854  17.272  -4.940  1.00 20.00    -0.375 OA
ENDROOT
TORSDOF 0
ENDMDL
