MODEL 1
REMARK VINA RESULT:      -4.0      0.000      0.000
REMARK  1 active torsions:
REMARK  status: ('A' for Active; 'I' for Inactive)
REMARK    1  A    between atoms: C4_4  and  C5_5 
ROOT
HETATM    1  C1  UNL     1     -33.985   6.777   5.691  1.00 20.00     0.011 C 
HETATM    2  C2  UNL     1     -34.491   7.192   4.316  1.00 20.00     0.017 C 
HETATM    3  C3  UNL     1     -34.527   5.382   5.949  1.00 20.00     0.074 C 
HETATM    4  C4  UNL     1     -34.195   6.045   3.353  1.00 20.00     0.061 C 
HETATM    5  S6  UNL     1     -34.449   4.536   4.347  1.00 20.00    -0.163 SA
ENDROOT
BRANCH   4   6
HETATM    6  C5  UNL     1     -32.771   6.076   2.812  1.00 20.00     0.129 C 
HETATM    7 CL7  UNL     1     -32.212   7.752   2.638  1.00 20.00    -0.129 Cl
ENDBRANCH   4   6
TORSDOF 1
ENDMDL
MODEL 2
REMARK VINA RESULT:      -4.0      1.433      1.580
REMARK  1 active torsions:
REMARK  status: ('A' for Active; 'I' for Inactive)
REMARK    1  A    between atoms: C4_4  and  C5_5 
ROOT
HETATM    1  C1  UNL     1     -34.670   5.053   5.078  1.00 20.00     0.011 C 
HETATM    2  C2  UNL     1     -35.119   6.123   4.091  1.00 20.00     0.017 C 
HETATM    3  C3  UNL     1     -34.044   3.941   4.256  1.00 20.00     0.074 C 
HETATM    4  C4  UNL     1     -33.946   6.404   3.155  1.00 20.00     0.061 C 
HETATM    5  S6  UNL     1     -33.147   4.781   2.921  1.00 20.00    -0.163 SA
ENDROOT
BRANCH   4   6
HETATM    6  C5  UNL     1     -32.946   7.396   3.737  1.00 20.00     0.129 C 
HETATM    7 CL7  UNL     1     -32.010   8.164   2.438  1.00 20.00    -0.129 Cl
ENDBRANCH   4   6
TORSDOF 1
ENDMDL
MODEL 3
REMARK VINA RESULT:      -3.8      2.367      3.153
REMARK  1 active torsions:
REMARK  status: ('A' for Active; 'I' for Inactive)
REMARK    1  A    between atoms: C4_4  and  C5_5 
ROOT
HETATM    1  C1  UNL     1     -33.120   6.422   3.047  1.00 20.00     0.011 C 
HETATM    2  C2  UNL     1     -34.592   6.183   3.358  1.00 20.00     0.017 C 
HETATM    3  C3  UNL     1     -32.684   7.601   3.899  1.00 20.00     0.074 C 
HETATM    4  C4  UNL     1     -34.739   6.148   4.878  1.00 20.00     0.061 C 
HETATM    5  S6  UNL     1     -33.547   7.390   5.482  1.00 20.00    -0.163 SA
ENDROOT
BRANCH   4   6
HETATM    6  C5  UNL     1     -34.415   4.785   5.475  1.00 20.00     0.129 C 
HETATM    7 CL7  UNL     1     -34.055   3.616   4.189  1.00 20.00    -0.129 Cl
ENDBRANCH   4   6
TORSDOF 1
ENDMDL
MODEL 4
REMARK VINA RESULT:      -3.7      1.763      2.307
REMARK  1 active torsions:
REMARK  status: ('A' for Active; 'I' for Inactive)
REMARK    1  A    between atoms: C4_4  and  C5_5 
ROOT
HETATM    1  C1  UNL     1     -34.597   5.784   3.346  1.00 20.00     0.011 C 
HETATM    2  C2  UNL     1     -33.174   5.807   2.804  1.00 20.00     0.017 C 
HETATM    3  C3  UNL     1     -34.506   6.159   4.815  1.00 20.00     0.074 C 
HETATM    4  C4  UNL     1     -32.540   7.126   3.239  1.00 20.00     0.061 C 
HETATM    5  S6  UNL     1     -33.220   7.436   4.903  1.00 20.00    -0.163 SA
ENDROOT
BRANCH   4   6
HETATM    6  C5  UNL     1     -32.886   8.286   2.313  1.00 20.00     0.129 C 
HETATM    7 CL7  UNL     1     -31.562   8.578   1.167  1.00 20.00    -0.129 Cl
ENDBRANCH   4   6
TORSDOF 1
ENDMDL
MODEL 5
REMARK VINA RESULT:      -3.6      1.402      1.440
REMARK  1 active torsions:
REMARK  status: ('A' for Active; 'I' for Inactive)
REMARK    1  A    between atoms: C4_4  and  C5_5 
ROOT
HETATM    1  C1  UNL     1     -33.538   6.414   5.965  1.00 20.00     0.011 C 
HETATM    2  C2  UNL     1     -33.590   7.623   5.041  1.00 20.00     0.017 C 
HETATM    3  C3  UNL     1     -34.811   5.624   5.715  1.00 20.00     0.074 C 
HETATM    4  C4  UNL     1     -33.937   7.118   3.643  1.00 20.00     0.061 C 
HETATM    5  S6  UNL     1     -35.105   5.746   3.929  1.00 20.00    -0.163 SA
ENDROOT
BRANCH   4   6
HETATM    6  C5  UNL     1     -32.721   6.613   2.875  1.00 20.00     0.129 C 
HETATM    7 CL7  UNL     1     -32.873   4.874   2.553  1.00 20.00    -0.129 Cl
ENDBRANCH   4   6
TORSDOF 1
ENDMDL
MODEL 6
REMARK VINA RESULT:      -3.6      2.423      3.394
REMARK  1 active torsions:
REMARK  status: ('A' for Active; 'I' for Inactive)
REMARK    1  A    between atoms: C4_4  and  C5_5 
ROOT
HETATM    1  C1  UNL     1     -33.552   5.278   2.954  1.00 20.00     0.011 C 
HETATM    2  C2  UNL     1     -34.764   6.045   3.465  1.00 20.00     0.017 C 
HETATM    3  C3  UNL     1     -32.556   6.316   2.469  1.00 20.00     0.074 C 
HETATM    4  C4  UNL     1     -34.254   7.138   4.400  1.00 20.00     0.061 C 
HETATM    5  S6  UNL     1     -32.686   7.689   3.648  1.00 20.00    -0.163 SA
ENDROOT
BRANCH   4   6
HETATM    6  C5  UNL     1     -34.002   6.639   5.818  1.00 20.00     0.129 C 
HETATM    7 CL7  UNL     1     -34.665   5.005   6.024  1.00 20.00    -0.129 Cl
ENDBRANCH   4   6
TORSDOF 1
ENDMDL
MODEL 7
REMARK VINA RESULT:      -2.9     12.435     12.920
REMARK  1 active torsions:
REMARK  status: ('A' for Active; 'I' for Inactive)
REMARK    1  A    between atoms: C4_4  and  C5_5 
ROOT
HETATM    1  C1  UNL     1     -33.544  14.480  -4.346  1.00 20.00     0.011 C 
HETATM    2  C2  UNL     1     -35.019  14.819  -4.168  1.00 20.00     0.017 C 
HETATM    3  C3  UNL     1     -32.950  15.576  -5.213  1.00 20.00     0.074 C 
HETATM    4  C4  UNL     1     -35.105  16.284  -3.749  1.00 20.00     0.061 C 
HETATM    5  S6  UNL     1     -33.764  17.105  -4.674  1.00 20.00    -0.163 SA
ENDROOT
BRANCH   4   6
HETATM    6  C5  UNL     1     -34.903  16.488  -2.252  1.00 20.00     0.129 C 
HETATM    7 CL7  UNL     1     -33.325  17.240  -1.938  1.00 20.00    -0.129 Cl
ENDBRANCH   4   6
TORSDOF 1
ENDMDL
MODEL 8
REMARK VINA RESULT:      -2.9     12.040     12.867
REMARK  1 active torsions:
REMARK  status: ('A' for Active; 'I' for Inactive)
REMARK    1  A    between atoms: C4_4  and  C5_5 
ROOT
HETATM    1  C1  UNL     1     -33.288  15.530  -5.977  1.00 20.00     0.011 C 
HETATM    2  C2  UNL     1     -33.045  14.965  -4.583  1.00 20.00     0.017 C 
HETATM    3  C3  UNL     1     -34.254  14.580  -6.665  1.00 20.00     0.074 C 
HETATM    4  C4  UNL     1     -34.408  14.652  -3.971  1.00 20.00     0.061 C 
HETATM    5  S6  UNL     1     -35.415  14.060  -5.372  1.00 20.00    -0.163 SA
ENDROOT
BRANCH   4   6
HETATM    6  C5  UNL     1     -35.068  15.870  -3.336  1.00 20.00     0.129 C 
HETATM    7 CL7  UNL     1     -33.922  16.708  -2.270  1.00 20.00    -0.129 Cl
ENDBRANCH   4   6
TORSDOF 1
ENDMDL
MODEL 9
REMARK VINA RESULT:      -2.9     12.552     13.383
REMARK  1 active torsions:
REMARK  status: ('A' for Active; 'I' for Inactive)
REMARK    1  A    between atoms: C4_4  and  C5_5 
ROOT
HETATM    1  C1  UNL     1     -34.976  13.157  -7.271  1.00 20.00     0.011 C 
HETATM    2  C2  UNL     1     -35.991  13.887  -6.401  1.00 20.00     0.017 C 
HETATM    3  C3  UNL     1     -34.103  14.225  -7.905  1.00 20.00     0.074 C 
HETATM    4  C4  UNL     1     -35.223  14.885  -5.539  1.00 20.00     0.061 C 
HETATM    5  S6  UNL     1     -33.881  15.486  -6.620  1.00 20.00    -0.163 SA
ENDROOT
BRANCH   4   6
HETATM    6  C5  UNL     1     -34.635  14.257  -4.282  1.00 20.00     0.129 C 
HETATM    7 CL7  UNL     1     -32.862  14.349  -4.317  1.00 20.00    -0.129 Cl
ENDBRANCH   4   6
TORSDOF 1
ENDMDL
