MODEL 1
REMARK VINA RESULT:      -5.1      0.000      0.000
REMARK  4 active torsions:
REMARK  status: ('A' for Active; 'I' for Inactive)
REMARK    1  A    between atoms: C1_1  and  C3_3 
REMARK    2  A    between atoms: C1_1  and  C7_7 
REMARK    3  A    between atoms: C7_7  and  C8_8 
REMARK    4  A    between atoms: C8_8  and  S10_10 
ROOT
HETATM    1  C1  UNL     1     -31.941   8.199   2.661  1.00 20.00     0.132 C 
HETATM    2  O9  UNL     1     -31.195   8.410   3.617  1.00 20.00    -0.298 OA
ENDROOT
BRANCH   1   3
HETATM    3  C3  UNL     1     -31.871   9.043   1.416  1.00 20.00     0.059 A 
HETATM    4  C2  UNL     1     -32.508  10.387   1.445  1.00 20.00     0.017 A 
HETATM    5  C4  UNL     1     -33.142   9.271   0.657  1.00 20.00    -0.007 A 
HETATM    6  C5  UNL     1     -33.103   9.289  -0.833  1.00 20.00     0.011 C 
ENDBRANCH   1   3
BRANCH   1   7
HETATM    7  C7  UNL     1     -32.977   7.091   2.701  1.00 20.00     0.088 C 
BRANCH   7   8
HETATM    8  C8  UNL     1     -33.817   7.090   3.971  1.00 20.00     0.081 C 
BRANCH   8   9
HETATM    9  S10 UNL     1     -35.020   5.727   3.995  1.00 20.00    -0.173 SA
HETATM   10  C6  UNL     1     -34.534   4.980   5.566  1.00 20.00     0.089 C 
ENDBRANCH   8   9
ENDBRANCH   7   8
ENDBRANCH   1   7
TORSDOF 4
ENDMDL
MODEL 2
REMARK VINA RESULT:      -5.0      2.108      5.059
REMARK  4 active torsions:
REMARK  status: ('A' for Active; 'I' for Inactive)
REMARK    1  A    between atoms: C1_1  and  C3_3 
REMARK    2  A    between atoms: C1_1  and  C7_7 
REMARK    3  A    between atoms: C7_7  and  C8_8 
REMARK    4  A    between atoms: C8_8  and  S10_10 
ROOT
HETATM    1  C1  UNL     1     -32.887   7.209   3.428  1.00 20.00     0.132 C 
HETATM    2  O9  UNL     1     -32.413   7.853   4.365  1.00 20.00    -0.298 OA
ENDROOT
BRANCH   1   3
HETATM    3  C3  UNL     1     -33.708   5.970   3.669  1.00 20.00     0.059 A 
HETATM    4  C2  UNL     1     -35.189   6.089   3.599  1.00 20.00     0.017 A 
HETATM    5  C4  UNL     1     -34.512   5.902   4.931  1.00 20.00    -0.007 A 
HETATM    6  C5  UNL     1     -34.620   4.603   5.652  1.00 20.00     0.011 C 
ENDBRANCH   1   3
BRANCH   1   7
HETATM    7  C7  UNL     1     -32.652   7.626   1.989  1.00 20.00     0.088 C 
BRANCH   7   8
HETATM    8  C8  UNL     1     -31.799   8.881   1.851  1.00 20.00     0.081 C 
BRANCH   8   9
HETATM    9  S10 UNL     1     -32.701  10.236   1.041  1.00 20.00    -0.173 SA
HETATM   10  C6  UNL     1     -33.134   9.380  -0.490  1.00 20.00     0.089 C 
ENDBRANCH   8   9
ENDBRANCH   7   8
ENDBRANCH   1   7
TORSDOF 4
ENDMDL
MODEL 3
REMARK VINA RESULT:      -5.0      0.911      1.150
REMARK  4 active torsions:
REMARK  status: ('A' for Active; 'I' for Inactive)
REMARK    1  A    between atoms: C1_1  and  C3_3 
REMARK    2  A    between atoms: C1_1  and  C7_7 
REMARK    3  A    between atoms: C7_7  and  C8_8 
REMARK    4  A    between atoms: C8_8  and  S10_10 
ROOT
HETATM    1  C1  UNL     1     -32.354   7.916   2.984  1.00 20.00     0.132 C 
HETATM    2  O9  UNL     1     -31.408   8.306   3.670  1.00 20.00    -0.298 OA
ENDROOT
BRANCH   1   3
HETATM    3  C3  UNL     1     -32.355   8.084   1.488  1.00 20.00     0.059 A 
HETATM    4  C2  UNL     1     -31.182   8.748   0.859  1.00 20.00     0.017 A 
HETATM    5  C4  UNL     1     -32.500   9.471   0.943  1.00 20.00    -0.007 A 
HETATM    6  C5  UNL     1     -33.317   9.686  -0.285  1.00 20.00     0.011 C 
ENDBRANCH   1   3
BRANCH   1   7
HETATM    7  C7  UNL     1     -33.569   7.264   3.617  1.00 20.00     0.088 C 
BRANCH   7   8
HETATM    8  C8  UNL     1     -33.829   5.850   3.116  1.00 20.00     0.081 C 
BRANCH   8   9
HETATM    9  S10 UNL     1     -34.513   4.778   4.416  1.00 20.00    -0.173 SA
HETATM   10  C6  UNL     1     -34.430   5.950   5.788  1.00 20.00     0.089 C 
ENDBRANCH   8   9
ENDBRANCH   7   8
ENDBRANCH   1   7
TORSDOF 4
ENDMDL
MODEL 4
REMARK VINA RESULT:      -5.0      2.085      5.016
REMARK  4 active torsions:
REMARK  status: ('A' for Active; 'I' for Inactive)
REMARK    1  A    between atoms: C1_1  and  C3_3 
REMARK    2  A    between atoms: C1_1  and  C7_7 
REMARK    3  A    between atoms: C7_7  and  C8_8 
REMARK    4  A    between atoms: C8_8  and  S10_10 
ROOT
HETATM    1  C1  UNL     1     -32.684   7.703   3.751  1.00 20.00     0.132 C 
HETATM    2  O9  UNL     1     -31.718   8.171   4.355  1.00 20.00    -0.298 OA
ENDROOT
BRANCH   1   3
HETATM    3  C3  UNL     1     -33.884   7.174   4.491  1.00 20.00     0.059 A 
HETATM    4  C2  UNL     1     -33.901   7.295   5.973  1.00 20.00     0.017 A 
HETATM    5  C4  UNL     1     -33.701   5.948   5.330  1.00 20.00    -0.007 A 
HETATM    6  C5  UNL     1     -34.786   4.928   5.371  1.00 20.00     0.011 C 
ENDBRANCH   1   3
BRANCH   1   7
HETATM    7  C7  UNL     1     -32.702   7.624   2.237  1.00 20.00     0.088 C 
BRANCH   7   8
HETATM    8  C8  UNL     1     -31.752   8.608   1.566  1.00 20.00     0.081 C 
BRANCH   8   9
HETATM    9  S10 UNL     1     -32.614  10.093   0.970  1.00 20.00    -0.173 SA
HETATM   10  C6  UNL     1     -33.237   9.424  -0.588  1.00 20.00     0.089 C 
ENDBRANCH   8   9
ENDBRANCH   7   8
ENDBRANCH   1   7
TORSDOF 4
ENDMDL
MODEL 5
REMARK VINA RESULT:      -4.8      1.767      2.348
REMARK  4 active torsions:
REMARK  status: ('A' for Active; 'I' for Inactive)
REMARK    1  A    between atoms: C1_1  and  C3_3 
REMARK    2  A    between atoms: C1_1  and  C7_7 
REMARK    3  A    between atoms: C7_7  and  C8_8 
REMARK    4  A    between atoms: C8_8  and  S10_10 
ROOT
HETATM    1  C1  UNL     1     -33.053   6.177   2.732  1.00 20.00     0.132 C 
HETATM    2  O9  UNL     1     -32.800   4.975   2.648  1.00 20.00    -0.298 OA
ENDROOT
BRANCH   1   3
HETATM    3  C3  UNL     1     -32.069   7.216   2.265  1.00 20.00     0.059 A 
HETATM    4  C2  UNL     1     -31.673   8.284   3.222  1.00 20.00     0.017 A 
HETATM    5  C4  UNL     1     -32.573   8.611   2.061  1.00 20.00    -0.007 A 
HETATM    6  C5  UNL     1     -32.057   9.408   0.912  1.00 20.00     0.011 C 
ENDBRANCH   1   3
BRANCH   1   7
HETATM    7  C7  UNL     1     -34.362   6.665   3.323  1.00 20.00     0.088 C 
BRANCH   7   8
HETATM    8  C8  UNL     1     -35.117   5.592   4.097  1.00 20.00     0.081 C 
BRANCH   8   9
HETATM    9  S10 UNL     1     -34.531   5.444   5.811  1.00 20.00    -0.173 SA
HETATM   10  C6  UNL     1     -33.883   7.119   6.009  1.00 20.00     0.089 C 
ENDBRANCH   8   9
ENDBRANCH   7   8
ENDBRANCH   1   7
TORSDOF 4
ENDMDL
MODEL 6
REMARK VINA RESULT:      -4.4      2.410      4.641
REMARK  4 active torsions:
REMARK  status: ('A' for Active; 'I' for Inactive)
REMARK    1  A    between atoms: C1_1  and  C3_3 
REMARK    2  A    between atoms: C1_1  and  C7_7 
REMARK    3  A    between atoms: C7_7  and  C8_8 
REMARK    4  A    between atoms: C8_8  and  S10_10 
ROOT
HETATM    1  C1  UNL     1     -32.832   7.505   3.954  1.00 20.00     0.132 C 
HETATM    2  O9  UNL     1     -33.116   7.611   5.147  1.00 20.00    -0.298 OA
ENDROOT
BRANCH   1   3
HETATM    3  C3  UNL     1     -33.544   6.520   3.066  1.00 20.00     0.059 A 
HETATM    4  C2  UNL     1     -34.585   5.653   3.679  1.00 20.00     0.017 A 
HETATM    5  C4  UNL     1     -33.260   5.064   3.273  1.00 20.00    -0.007 A 
HETATM    6  C5  UNL     1     -33.170   4.167   2.086  1.00 20.00     0.011 C 
ENDBRANCH   1   3
BRANCH   1   7
HETATM    7  C7  UNL     1     -31.740   8.352   3.328  1.00 20.00     0.088 C 
BRANCH   7   8
HETATM    8  C8  UNL     1     -31.816   8.415   1.808  1.00 20.00     0.081 C 
BRANCH   8   9
HETATM    9  S10 UNL     1     -32.529   9.981   1.222  1.00 20.00    -0.173 SA
HETATM   10  C6  UNL     1     -33.137   9.408  -0.379  1.00 20.00     0.089 C 
ENDBRANCH   8   9
ENDBRANCH   7   8
ENDBRANCH   1   7
TORSDOF 4
ENDMDL
MODEL 7
REMARK VINA RESULT:      -4.2      2.491      5.104
REMARK  4 active torsions:
REMARK  status: ('A' for Active; 'I' for Inactive)
REMARK    1  A    between atoms: C1_1  and  C3_3 
REMARK    2  A    between atoms: C1_1  and  C7_7 
REMARK    3  A    between atoms: C7_7  and  C8_8 
REMARK    4  A    between atoms: C8_8  and  S10_10 
ROOT
HETATM    1  C1  UNL     1     -33.216   5.692   2.854  1.00 20.00     0.132 C 
HETATM    2  O9  UNL     1     -32.931   4.666   2.236  1.00 20.00    -0.298 OA
ENDROOT
BRANCH   1   3
HETATM    3  C3  UNL     1     -33.460   5.665   4.340  1.00 20.00     0.059 A 
HETATM    4  C2  UNL     1     -34.836   5.363   4.816  1.00 20.00     0.017 A 
HETATM    5  C4  UNL     1     -34.292   6.762   4.929  1.00 20.00    -0.007 A 
HETATM    6  C5  UNL     1     -33.921   7.318   6.261  1.00 20.00     0.011 C 
ENDBRANCH   1   3
BRANCH   1   7
HETATM    7  C7  UNL     1     -33.350   7.027   2.146  1.00 20.00     0.088 C 
BRANCH   7   8
HETATM    8  C8  UNL     1     -32.138   7.933   2.323  1.00 20.00     0.081 C 
BRANCH   8   9
HETATM    9  S10 UNL     1     -31.776   8.892   0.822  1.00 20.00    -0.173 SA
HETATM   10  C6  UNL     1     -32.774  10.349   1.197  1.00 20.00     0.089 C 
ENDBRANCH   8   9
ENDBRANCH   7   8
ENDBRANCH   1   7
TORSDOF 4
ENDMDL
MODEL 8
REMARK VINA RESULT:      -3.8     10.006     11.025
REMARK  4 active torsions:
REMARK  status: ('A' for Active; 'I' for Inactive)
REMARK    1  A    between atoms: C1_1  and  C3_3 
REMARK    2  A    between atoms: C1_1  and  C7_7 
REMARK    3  A    between atoms: C7_7  and  C8_8 
REMARK    4  A    between atoms: C8_8  and  S10_10 
ROOT
HETATM    1  C1  UNL     1     -34.646  14.255  -4.292  1.00 20.00     0.132 C 
HETATM    2  O9  UNL     1     -33.521  13.755  -4.261  1.00 20.00    -0.298 OA
ENDROOT
BRANCH   1   3
HETATM    3  C3  UNL     1     -34.928  15.581  -3.636  1.00 20.00     0.059 A 
HETATM    4  C2  UNL     1     -34.424  16.812  -4.301  1.00 20.00     0.017 A 
HETATM    5  C4  UNL     1     -33.773  16.320  -3.035  1.00 20.00    -0.007 A 
HETATM    6  C5  UNL     1     -33.972  17.057  -1.755  1.00 20.00     0.011 C 
ENDBRANCH   1   3
BRANCH   1   7
HETATM    7  C7  UNL     1     -35.801  13.552  -4.979  1.00 20.00     0.088 C 
BRANCH   7   8
HETATM    8  C8  UNL     1     -36.119  14.113  -6.359  1.00 20.00     0.081 C 
BRANCH   8   9
HETATM    9  S10 UNL     1     -34.959  13.514  -7.625  1.00 20.00    -0.173 SA
HETATM   10  C6  UNL     1     -33.982  15.021  -7.815  1.00 20.00     0.089 C 
ENDBRANCH   8   9
ENDBRANCH   7   8
ENDBRANCH   1   7
TORSDOF 4
ENDMDL
MODEL 9
REMARK VINA RESULT:      -3.8      9.970     11.052
REMARK  4 active torsions:
REMARK  status: ('A' for Active; 'I' for Inactive)
REMARK    1  A    between atoms: C1_1  and  C3_3 
REMARK    2  A    between atoms: C1_1  and  C7_7 
REMARK    3  A    between atoms: C7_7  and  C8_8 
REMARK    4  A    between atoms: C8_8  and  S10_10 
ROOT
HETATM    1  C1  UNL     1     -35.270  13.774  -5.355  1.00 20.00     0.132 C 
HETATM    2  O9  UNL     1     -35.931  12.746  -5.208  1.00 20.00    -0.298 OA
ENDROOT
BRANCH   1   3
HETATM    3  C3  UNL     1     -35.207  14.477  -6.685  1.00 20.00     0.059 A 
HETATM    4  C2  UNL     1     -34.315  13.913  -7.732  1.00 20.00     0.017 A 
HETATM    5  C4  UNL     1     -33.940  15.194  -7.035  1.00 20.00    -0.007 A 
HETATM    6  C5  UNL     1     -34.018  16.494  -7.760  1.00 20.00     0.011 C 
ENDBRANCH   1   3
BRANCH   1   7
HETATM    7  C7  UNL     1     -34.477  14.371  -4.208  1.00 20.00     0.088 C 
BRANCH   7   8
HETATM    8  C8  UNL     1     -35.154  15.573  -3.562  1.00 20.00     0.081 C 
BRANCH   8   9
HETATM    9  S10 UNL     1     -33.957  16.689  -2.770  1.00 20.00    -0.173 SA
HETATM   10  C6  UNL     1     -34.911  17.083  -1.288  1.00 20.00     0.089 C 
ENDBRANCH   8   9
ENDBRANCH   7   8
ENDBRANCH   1   7
TORSDOF 4
ENDMDL
