MODEL 1
REMARK VINA RESULT:      -3.8      0.000      0.000
REMARK  1 active torsions:
REMARK  status: ('A' for Active; 'I' for Inactive)
REMARK    1  A    between atoms: C4_4  and  C5_5 
ROOT
HETATM    1  C1  UNL     1     -35.000   6.097   3.424  1.00 20.00     0.016 C 
HETATM    2  C2  UNL     1     -34.739   4.842   4.240  1.00 20.00     0.074 C 
HETATM    3  C3  UNL     1     -33.919   7.153   5.341  1.00 20.00     0.079 C 
HETATM    4  C4  UNL     1     -33.948   7.138   3.813  1.00 20.00     0.009 C 
HETATM    5  S6  UNL     1     -34.205   5.437   5.867  1.00 20.00    -0.169 SA
ENDROOT
BRANCH   4   6
HETATM    6  C5  UNL     1     -32.576   6.844   3.206  1.00 20.00     0.120 C 
HETATM    7 CL7  UNL     1     -31.861   8.331   2.553  1.00 20.00    -0.130 Cl
ENDBRANCH   4   6
TORSDOF 1
ENDMDL
MODEL 2
REMARK VINA RESULT:      -3.8      1.409      1.546
REMARK  1 active torsions:
REMARK  status: ('A' for Active; 'I' for Inactive)
REMARK    1  A    between atoms: C4_4  and  C5_5 
ROOT
HETATM    1  C1  UNL     1     -33.797   6.111   2.536  1.00 20.00     0.016 C 
HETATM    2  C2  UNL     1     -33.179   4.775   2.914  1.00 20.00     0.074 C 
HETATM    3  C3  UNL     1     -34.925   5.805   4.679  1.00 20.00     0.079 C 
HETATM    4  C4  UNL     1     -34.181   6.834   3.829  1.00 20.00     0.009 C 
HETATM    5  S6  UNL     1     -34.123   4.208   4.354  1.00 20.00    -0.169 SA
ENDROOT
BRANCH   4   6
HETATM    6  C5  UNL     1     -32.971   7.425   4.554  1.00 20.00     0.120 C 
HETATM    7 CL7  UNL     1     -31.798   8.055   3.382  1.00 20.00    -0.130 Cl
ENDBRANCH   4   6
TORSDOF 1
ENDMDL
MODEL 3
REMARK VINA RESULT:      -3.6      2.602      3.365
REMARK  1 active torsions:
REMARK  status: ('A' for Active; 'I' for Inactive)
REMARK    1  A    between atoms: C4_4  and  C5_5 
ROOT
HETATM    1  C1  UNL     1     -34.050   7.282   5.533  1.00 20.00     0.016 C 
HETATM    2  C2  UNL     1     -32.787   7.408   4.698  1.00 20.00     0.074 C 
HETATM    3  C3  UNL     1     -34.844   6.128   3.534  1.00 20.00     0.079 C 
HETATM    4  C4  UNL     1     -34.805   6.039   5.059  1.00 20.00     0.009 C 
HETATM    5  S6  UNL     1     -33.265   6.874   3.033  1.00 20.00    -0.169 SA
ENDROOT
BRANCH   4   6
HETATM    6  C5  UNL     1     -34.168   4.739   5.552  1.00 20.00     0.120 C 
HETATM    7 CL7  UNL     1     -33.994   3.591   4.210  1.00 20.00    -0.130 Cl
ENDBRANCH   4   6
TORSDOF 1
ENDMDL
MODEL 4
REMARK VINA RESULT:      -3.6      2.670      3.145
REMARK  1 active torsions:
REMARK  status: ('A' for Active; 'I' for Inactive)
REMARK    1  A    between atoms: C4_4  and  C5_5 
ROOT
HETATM    1  C1  UNL     1     -34.433   6.857   4.127  1.00 20.00     0.016 C 
HETATM    2  C2  UNL     1     -33.276   7.326   4.994  1.00 20.00     0.074 C 
HETATM    3  C3  UNL     1     -32.814   7.266   2.347  1.00 20.00     0.079 C 
HETATM    4  C4  UNL     1     -33.848   6.258   2.846  1.00 20.00     0.009 C 
HETATM    5  S6  UNL     1     -32.049   7.981   3.831  1.00 20.00    -0.169 SA
ENDROOT
BRANCH   4   6
HETATM    6  C5  UNL     1     -33.249   4.868   3.067  1.00 20.00     0.120 C 
HETATM    7 CL7  UNL     1     -34.197   3.974   4.272  1.00 20.00    -0.130 Cl
ENDBRANCH   4   6
TORSDOF 1
ENDMDL
MODEL 5
REMARK VINA RESULT:      -3.6      2.144      2.922
REMARK  1 active torsions:
REMARK  status: ('A' for Active; 'I' for Inactive)
REMARK    1  A    between atoms: C4_4  and  C5_5 
ROOT
HETATM    1  C1  UNL     1     -34.924   6.365   3.600  1.00 20.00     0.016 C 
HETATM    2  C2  UNL     1     -33.552   6.412   2.948  1.00 20.00     0.074 C 
HETATM    3  C3  UNL     1     -34.246   4.066   4.060  1.00 20.00     0.079 C 
HETATM    4  C4  UNL     1     -34.887   5.298   4.696  1.00 20.00     0.009 C 
HETATM    5  S6  UNL     1     -32.987   4.690   2.908  1.00 20.00    -0.169 SA
ENDROOT
BRANCH   4   6
HETATM    6  C5  UNL     1     -34.140   5.765   5.947  1.00 20.00     0.120 C 
HETATM    7 CL7  UNL     1     -33.880   7.519   5.889  1.00 20.00    -0.130 Cl
ENDBRANCH   4   6
TORSDOF 1
ENDMDL
MODEL 6
REMARK VINA RESULT:      -3.4      1.627      2.312
REMARK  1 active torsions:
REMARK  status: ('A' for Active; 'I' for Inactive)
REMARK    1  A    between atoms: C4_4  and  C5_5 
ROOT
HETATM    1  C1  UNL     1     -32.728   7.510   4.509  1.00 20.00     0.016 C 
HETATM    2  C2  UNL     1     -34.208   7.275   4.764  1.00 20.00     0.074 C 
HETATM    3  C3  UNL     1     -33.111   5.827   2.783  1.00 20.00     0.079 C 
HETATM    4  C4  UNL     1     -32.446   7.178   3.043  1.00 20.00     0.009 C 
HETATM    5  S6  UNL     1     -34.633   5.816   3.775  1.00 20.00    -0.169 SA
ENDROOT
BRANCH   4   6
HETATM    6  C5  UNL     1     -32.939   8.266   2.087  1.00 20.00     0.120 C 
HETATM    7 CL7  UNL     1     -31.640   8.746   0.978  1.00 20.00    -0.130 Cl
ENDBRANCH   4   6
TORSDOF 1
ENDMDL
MODEL 7
REMARK VINA RESULT:      -2.9     12.000     12.557
REMARK  1 active torsions:
REMARK  status: ('A' for Active; 'I' for Inactive)
REMARK    1  A    between atoms: C4_4  and  C5_5 
ROOT
HETATM    1  C1  UNL     1     -34.408  14.089  -4.177  1.00 20.00     0.016 C 
HETATM    2  C2  UNL     1     -35.316  14.338  -5.371  1.00 20.00     0.074 C 
HETATM    3  C3  UNL     1     -33.245  16.029  -5.094  1.00 20.00     0.079 C 
HETATM    4  C4  UNL     1     -33.764  15.422  -3.791  1.00 20.00     0.009 C 
HETATM    5  S6  UNL     1     -34.446  15.570  -6.377  1.00 20.00    -0.169 SA
ENDROOT
BRANCH   4   6
HETATM    6  C5  UNL     1     -34.730  16.353  -3.057  1.00 20.00     0.120 C 
HETATM    7 CL7  UNL     1     -33.954  17.029  -1.611  1.00 20.00    -0.130 Cl
ENDBRANCH   4   6
TORSDOF 1
ENDMDL
MODEL 8
REMARK VINA RESULT:      -2.9     12.205     12.741
REMARK  1 active torsions:
REMARK  status: ('A' for Active; 'I' for Inactive)
REMARK    1  A    between atoms: C4_4  and  C5_5 
ROOT
HETATM    1  C1  UNL     1     -33.385  14.686  -4.666  1.00 20.00     0.016 C 
HETATM    2  C2  UNL     1     -33.181  15.829  -5.646  1.00 20.00     0.074 C 
HETATM    3  C3  UNL     1     -34.359  16.473  -3.318  1.00 20.00     0.079 C 
HETATM    4  C4  UNL     1     -34.584  15.034  -3.781  1.00 20.00     0.009 C 
HETATM    5  S6  UNL     1     -33.567  17.332  -4.708  1.00 20.00    -0.169 SA
ENDROOT
BRANCH   4   6
HETATM    6  C5  UNL     1     -35.920  14.855  -4.503  1.00 20.00     0.120 C 
HETATM    7 CL7  UNL     1     -35.990  13.262  -5.282  1.00 20.00    -0.130 Cl
ENDBRANCH   4   6
TORSDOF 1
ENDMDL
MODEL 9
REMARK VINA RESULT:      -2.8     12.037     12.491
REMARK  1 active torsions:
REMARK  status: ('A' for Active; 'I' for Inactive)
REMARK    1  A    between atoms: C4_4  and  C5_5 
ROOT
HETATM    1  C1  UNL     1     -35.767  13.603  -5.003  1.00 20.00     0.016 C 
HETATM    2  C2  UNL     1     -35.854  14.229  -6.386  1.00 20.00     0.074 C 
HETATM    3  C3  UNL     1     -33.578  14.681  -5.030  1.00 20.00     0.079 C 
HETATM    4  C4  UNL     1     -34.814  14.454  -4.161  1.00 20.00     0.009 C 
HETATM    5  S6  UNL     1     -34.181  14.835  -6.736  1.00 20.00    -0.169 SA
ENDROOT
BRANCH   4   6
HETATM    6  C5  UNL     1     -35.450  15.765  -3.696  1.00 20.00     0.120 C 
HETATM    7 CL7  UNL     1     -34.520  16.457  -2.352  1.00 20.00    -0.130 Cl
ENDBRANCH   4   6
TORSDOF 1
ENDMDL
