MODEL 1
REMARK VINA RESULT:      -4.3      0.000      0.000
REMARK  0 active torsions:
REMARK  status: ('A' for Active; 'I' for Inactive)
ROOT
HETATM    1  C1  UNL     1     -33.761   6.216   5.716  1.00 20.00     0.066 C 
HETATM    2  C2  UNL     1     -33.189   6.077   3.253  1.00 20.00     0.071 C 
HETATM    3  C3  UNL     1     -33.525   7.719   5.603  1.00 20.00     0.171 C 
HETATM    4  C4  UNL     1     -34.919   4.396   4.250  1.00 20.00     0.207 A 
HETATM    5  C5  UNL     1     -32.992   7.596   3.292  1.00 20.00     0.120 C 
HETATM    6  C6  UNL     1     -34.101   5.657   4.368  1.00 20.00     0.086 A 
HETATM    7  C7  UNL     1     -31.942   8.039   2.284  1.00 20.00     0.039 C 
HETATM    8  O8  UNL     1     -32.546   7.999   4.597  1.00 20.00    -0.386 OA
HETATM    9  O9  UNL     1     -35.497   5.695   4.042  1.00 20.00    -0.375 OA
ENDROOT
TORSDOF 0
ENDMDL
MODEL 2
REMARK VINA RESULT:      -4.2      1.463      3.619
REMARK  0 active torsions:
REMARK  status: ('A' for Active; 'I' for Inactive)
ROOT
HETATM    1  C1  UNL     1     -32.964   6.149   2.265  1.00 20.00     0.066 C 
HETATM    2  C2  UNL     1     -32.549   7.725   4.203  1.00 20.00     0.071 C 
HETATM    3  C3  UNL     1     -34.262   5.759   2.964  1.00 20.00     0.171 C 
HETATM    4  C4  UNL     1     -31.676   8.375   1.831  1.00 20.00     0.207 A 
HETATM    5  C5  UNL     1     -33.882   7.238   4.782  1.00 20.00     0.120 C 
HETATM    6  C6  UNL     1     -32.537   7.512   2.718  1.00 20.00     0.086 A 
HETATM    7  C7  UNL     1     -33.867   7.282   6.303  1.00 20.00     0.039 C 
HETATM    8  O8  UNL     1     -34.122   5.879   4.384  1.00 20.00    -0.386 OA
HETATM    9  O9  UNL     1     -33.090   8.593   1.956  1.00 20.00    -0.375 OA
ENDROOT
TORSDOF 0
ENDMDL
MODEL 3
REMARK VINA RESULT:      -4.0     11.872     12.479
REMARK  0 active torsions:
REMARK  status: ('A' for Active; 'I' for Inactive)
ROOT
HETATM    1  C1  UNL     1     -34.335  15.204  -6.030  1.00 20.00     0.066 C 
HETATM    2  C2  UNL     1     -35.369  15.537  -3.743  1.00 20.00     0.071 C 
HETATM    3  C3  UNL     1     -33.019  15.669  -5.414  1.00 20.00     0.171 C 
HETATM    4  C4  UNL     1     -36.293  13.649  -5.289  1.00 20.00     0.207 A 
HETATM    5  C5  UNL     1     -33.981  15.979  -3.266  1.00 20.00     0.120 C 
HETATM    6  C6  UNL     1     -35.231  14.666  -4.957  1.00 20.00     0.086 A 
HETATM    7  C7  UNL     1     -34.087  16.998  -2.141  1.00 20.00     0.039 C 
HETATM    8  O8  UNL     1     -33.263  16.592  -4.348  1.00 20.00    -0.386 OA
HETATM    9  O9  UNL     1     -35.051  13.273  -4.673  1.00 20.00    -0.375 OA
ENDROOT
TORSDOF 0
ENDMDL
MODEL 4
REMARK VINA RESULT:      -3.9      1.029      3.252
REMARK  0 active torsions:
REMARK  status: ('A' for Active; 'I' for Inactive)
ROOT
HETATM    1  C1  UNL     1     -33.736   8.154   4.565  1.00 20.00     0.066 C 
HETATM    2  C2  UNL     1     -33.756   6.039   3.172  1.00 20.00     0.071 C 
HETATM    3  C3  UNL     1     -33.702   7.249   5.793  1.00 20.00     0.171 C 
HETATM    4  C4  UNL     1     -32.579   8.168   2.227  1.00 20.00     0.207 A 
HETATM    5  C5  UNL     1     -33.716   5.262   4.493  1.00 20.00     0.120 C 
HETATM    6  C6  UNL     1     -33.194   7.414   3.379  1.00 20.00     0.086 A 
HETATM    7  C7  UNL     1     -34.431   3.925   4.363  1.00 20.00     0.039 C 
HETATM    8  O8  UNL     1     -34.375   6.015   5.524  1.00 20.00    -0.386 OA
HETATM    9  O9  UNL     1     -31.773   7.508   3.217  1.00 20.00    -0.375 OA
ENDROOT
TORSDOF 0
ENDMDL
MODEL 5
REMARK VINA RESULT:      -3.9      1.512      2.217
REMARK  0 active torsions:
REMARK  status: ('A' for Active; 'I' for Inactive)
ROOT
HETATM    1  C1  UNL     1     -35.076   5.936   3.598  1.00 20.00     0.066 C 
HETATM    2  C2  UNL     1     -33.343   7.354   4.781  1.00 20.00     0.071 C 
HETATM    3  C3  UNL     1     -34.096   5.854   2.432  1.00 20.00     0.171 C 
HETATM    4  C4  UNL     1     -34.897   5.808   6.196  1.00 20.00     0.207 A 
HETATM    5  C5  UNL     1     -32.465   7.179   3.537  1.00 20.00     0.120 C 
HETATM    6  C6  UNL     1     -34.329   6.227   4.864  1.00 20.00     0.086 A 
HETATM    7  C7  UNL     1     -31.566   8.389   3.326  1.00 20.00     0.039 C 
HETATM    8  O8  UNL     1     -33.290   7.036   2.370  1.00 20.00    -0.386 OA
HETATM    9  O9  UNL     1     -33.849   5.065   5.552  1.00 20.00    -0.375 OA
ENDROOT
TORSDOF 0
ENDMDL
MODEL 6
REMARK VINA RESULT:      -3.7     11.777     12.807
REMARK  0 active torsions:
REMARK  status: ('A' for Active; 'I' for Inactive)
ROOT
HETATM    1  C1  UNL     1     -36.517  14.173  -6.989  1.00 20.00     0.066 C 
HETATM    2  C2  UNL     1     -35.817  15.070  -4.727  1.00 20.00     0.071 C 
HETATM    3  C3  UNL     1     -35.316  13.237  -6.900  1.00 20.00     0.171 C 
HETATM    4  C4  UNL     1     -38.353  15.012  -5.338  1.00 20.00     0.207 A 
HETATM    5  C5  UNL     1     -34.657  14.071  -4.777  1.00 20.00     0.120 C 
HETATM    6  C6  UNL     1     -36.931  14.594  -5.612  1.00 20.00     0.086 A 
HETATM    7  C7  UNL     1     -33.444  14.602  -4.026  1.00 20.00     0.039 C 
HETATM    8  O8  UNL     1     -34.265  13.842  -6.139  1.00 20.00    -0.386 OA
HETATM    9  O9  UNL     1     -37.863  13.711  -4.974  1.00 20.00    -0.375 OA
ENDROOT
TORSDOF 0
ENDMDL
MODEL 7
REMARK VINA RESULT:      -3.6     11.889     13.123
REMARK  0 active torsions:
REMARK  status: ('A' for Active; 'I' for Inactive)
ROOT
HETATM    1  C1  UNL     1     -34.093  15.006  -5.489  1.00 20.00     0.066 C 
HETATM    2  C2  UNL     1     -36.329  14.560  -6.592  1.00 20.00     0.071 C 
HETATM    3  C3  UNL     1     -34.766  14.651  -4.167  1.00 20.00     0.171 C 
HETATM    4  C4  UNL     1     -34.138  14.056  -7.918  1.00 20.00     0.207 A 
HETATM    5  C5  UNL     1     -36.863  14.227  -5.195  1.00 20.00     0.120 C 
HETATM    6  C6  UNL     1     -34.841  14.370  -6.621  1.00 20.00     0.086 A 
HETATM    7  C7  UNL     1     -38.342  14.569  -5.078  1.00 20.00     0.039 C 
HETATM    8  O8  UNL     1     -36.156  14.989  -4.205  1.00 20.00    -0.386 OA
HETATM    9  O9  UNL     1     -34.417  13.039  -6.942  1.00 20.00    -0.375 OA
ENDROOT
TORSDOF 0
ENDMDL
MODEL 8
REMARK VINA RESULT:      -3.6     11.636     12.822
REMARK  0 active torsions:
REMARK  status: ('A' for Active; 'I' for Inactive)
ROOT
HETATM    1  C1  UNL     1     -34.960  13.885  -4.376  1.00 20.00     0.066 C 
HETATM    2  C2  UNL     1     -36.529  15.785  -3.794  1.00 20.00     0.071 C 
HETATM    3  C3  UNL     1     -36.020  13.420  -5.369  1.00 20.00     0.171 C 
HETATM    4  C4  UNL     1     -33.954  16.183  -3.662  1.00 20.00     0.207 A 
HETATM    5  C5  UNL     1     -37.495  15.202  -4.831  1.00 20.00     0.120 C 
HETATM    6  C6  UNL     1     -35.129  15.349  -4.107  1.00 20.00     0.086 A 
HETATM    7  C7  UNL     1     -38.942  15.481  -4.452  1.00 20.00     0.039 C 
HETATM    8  O8  UNL     1     -37.328  13.777  -4.910  1.00 20.00    -0.386 OA
HETATM    9  O9  UNL     1     -34.428  16.206  -5.018  1.00 20.00    -0.375 OA
ENDROOT
TORSDOF 0
ENDMDL
MODEL 9
REMARK VINA RESULT:      -3.4     11.930     12.786
REMARK  0 active torsions:
REMARK  status: ('A' for Active; 'I' for Inactive)
ROOT
HETATM    1  C1  UNL     1     -34.426  15.301  -3.597  1.00 20.00     0.066 C 
HETATM    2  C2  UNL     1     -36.078  14.521  -5.350  1.00 20.00     0.071 C 
HETATM    3  C3  UNL     1     -33.325  14.936  -4.588  1.00 20.00     0.171 C 
HETATM    4  C4  UNL     1     -36.757  16.462  -3.744  1.00 20.00     0.207 A 
HETATM    5  C5  UNL     1     -34.869  14.208  -6.238  1.00 20.00     0.120 C 
HETATM    6  C6  UNL     1     -35.703  15.560  -4.336  1.00 20.00     0.086 A 
HETATM    7  C7  UNL     1     -35.160  13.038  -7.168  1.00 20.00     0.039 C 
HETATM    8  O8  UNL     1     -33.742  13.850  -5.423  1.00 20.00    -0.386 OA
HETATM    9  O9  UNL     1     -35.870  16.913  -4.780  1.00 20.00    -0.375 OA
ENDROOT
TORSDOF 0
ENDMDL
