MODEL 1
REMARK VINA RESULT:      -6.1      0.000      0.000
REMARK  2 active torsions:
REMARK  status: ('A' for Active; 'I' for Inactive)
REMARK    1  A    between atoms: C3_3  and  C7_7 
REMARK    2  A    between atoms: C3_3  and  C10_10 
ROOT
HETATM    1  C1  UNL     1     -32.521  10.389   0.704  1.00 20.00     0.012 C 
HETATM    2  C2  UNL     1     -32.514   9.264   1.121  1.00 20.00    -0.110 C 
HETATM    3  C10 UNL     1     -32.511   7.885   1.623  1.00 20.00     0.171 C 
ENDROOT
BRANCH   3   4
HETATM    4  C3  UNL     1     -32.116   7.800   3.083  1.00 20.00     0.144 C 
HETATM    5  O11 UNL     1     -31.366   8.609   3.625  1.00 20.00    -0.297 OA
BRANCH   4   6
HETATM    6  C7  UNL     1     -32.698   6.656   3.855  1.00 20.00     0.087 C 
HETATM    7  C6  UNL     1     -33.529   5.745   2.944  1.00 20.00     0.046 C 
HETATM    8  C8  UNL     1     -34.909   5.822   3.595  1.00 20.00     0.122 C 
HETATM    9  C4  UNL     1     -34.922   5.089   4.936  1.00 20.00     0.034 C 
HETATM   10  O12 UNL     1     -34.938   7.201   4.029  1.00 20.00    -0.380 OA
HETATM   11  C5  UNL     1     -34.120   6.037   5.830  1.00 20.00     0.035 C 
HETATM   12  C9  UNL     1     -33.748   7.153   4.855  1.00 20.00     0.133 C 
ENDBRANCH   4   6
ENDBRANCH   3   4
TORSDOF 2
ENDMDL
MODEL 2
REMARK VINA RESULT:      -5.9      1.278      1.299
REMARK  2 active torsions:
REMARK  status: ('A' for Active; 'I' for Inactive)
REMARK    1  A    between atoms: C3_3  and  C7_7 
REMARK    2  A    between atoms: C3_3  and  C10_10 
ROOT
HETATM    1  C1  UNL     1     -32.542  10.273   0.614  1.00 20.00     0.012 C 
HETATM    2  C2  UNL     1     -32.280   9.431   1.430  1.00 20.00    -0.110 C 
HETATM    3  C10 UNL     1     -31.951   8.407   2.427  1.00 20.00     0.171 C 
ENDROOT
BRANCH   3   4
HETATM    4  C3  UNL     1     -32.925   7.247   2.410  1.00 20.00     0.144 C 
HETATM    5  O11 UNL     1     -33.587   6.938   1.421  1.00 20.00    -0.297 OA
BRANCH   4   6
HETATM    6  C7  UNL     1     -33.048   6.473   3.687  1.00 20.00     0.087 C 
HETATM    7  C6  UNL     1     -33.393   5.006   3.408  1.00 20.00     0.046 C 
HETATM    8  C8  UNL     1     -34.726   4.851   4.141  1.00 20.00     0.122 C 
HETATM    9  C4  UNL     1     -34.524   4.886   5.655  1.00 20.00     0.034 C 
HETATM   10  O12 UNL     1     -35.326   6.145   3.906  1.00 20.00    -0.380 OA
HETATM   11  C5  UNL     1     -34.219   6.365   5.906  1.00 20.00     0.035 C 
HETATM   12  C9  UNL     1     -34.266   6.942   4.491  1.00 20.00     0.133 C 
ENDBRANCH   4   6
ENDBRANCH   3   4
TORSDOF 2
ENDMDL
MODEL 3
REMARK VINA RESULT:      -5.2      0.942      1.612
REMARK  2 active torsions:
REMARK  status: ('A' for Active; 'I' for Inactive)
REMARK    1  A    between atoms: C3_3  and  C7_7 
REMARK    2  A    between atoms: C3_3  and  C10_10 
ROOT
HETATM    1  C1  UNL     1     -32.592  10.309   0.593  1.00 20.00     0.012 C 
HETATM    2  C2  UNL     1     -32.388   9.244   1.110  1.00 20.00    -0.110 C 
HETATM    3  C10 UNL     1     -32.138   7.939   1.732  1.00 20.00     0.171 C 
ENDROOT
BRANCH   3   4
HETATM    4  C3  UNL     1     -32.231   7.990   3.244  1.00 20.00     0.144 C 
HETATM    5  O11 UNL     1     -31.321   8.404   3.960  1.00 20.00    -0.297 OA
BRANCH   4   6
HETATM    6  C7  UNL     1     -33.515   7.502   3.840  1.00 20.00     0.087 C 
HETATM    7  C6  UNL     1     -33.325   7.113   5.310  1.00 20.00     0.046 C 
HETATM    8  C8  UNL     1     -33.716   5.636   5.299  1.00 20.00     0.122 C 
HETATM    9  C4  UNL     1     -35.220   5.470   5.081  1.00 20.00     0.034 C 
HETATM   10  O12 UNL     1     -33.198   5.219   4.016  1.00 20.00    -0.380 OA
HETATM   11  C5  UNL     1     -35.372   5.827   3.601  1.00 20.00     0.035 C 
HETATM   12  C9  UNL     1     -33.935   6.169   3.208  1.00 20.00     0.133 C 
ENDBRANCH   4   6
ENDBRANCH   3   4
TORSDOF 2
ENDMDL
MODEL 4
REMARK VINA RESULT:      -4.8     10.874     11.536
REMARK  2 active torsions:
REMARK  status: ('A' for Active; 'I' for Inactive)
REMARK    1  A    between atoms: C3_3  and  C7_7 
REMARK    2  A    between atoms: C3_3  and  C10_10 
ROOT
HETATM    1  C1  UNL     1     -33.655  18.064  -0.633  1.00 20.00     0.012 C 
HETATM    2  C2  UNL     1     -33.695  17.374  -1.614  1.00 20.00    -0.110 C 
HETATM    3  C10 UNL     1     -33.735  16.532  -2.815  1.00 20.00     0.171 C 
ENDROOT
BRANCH   3   4
HETATM    4  C3  UNL     1     -35.150  16.237  -3.270  1.00 20.00     0.144 C 
HETATM    5  O11 UNL     1     -36.141  16.461  -2.576  1.00 20.00    -0.297 OA
BRANCH   4   6
HETATM    6  C7  UNL     1     -35.290  15.646  -4.639  1.00 20.00     0.087 C 
HETATM    7  C6  UNL     1     -36.559  14.790  -4.740  1.00 20.00     0.046 C 
HETATM    8  C8  UNL     1     -35.986  13.418  -5.095  1.00 20.00     0.122 C 
HETATM    9  C4  UNL     1     -35.437  13.408  -6.521  1.00 20.00     0.034 C 
HETATM   10  O12 UNL     1     -34.764  13.417  -4.324  1.00 20.00    -0.380 OA
HETATM   11  C5  UNL     1     -34.158  14.235  -6.381  1.00 20.00     0.035 C 
HETATM   12  C9  UNL     1     -34.187  14.614  -4.900  1.00 20.00     0.133 C 
ENDBRANCH   4   6
ENDBRANCH   3   4
TORSDOF 2
ENDMDL
MODEL 5
REMARK VINA RESULT:      -4.5     10.988     11.677
REMARK  2 active torsions:
REMARK  status: ('A' for Active; 'I' for Inactive)
REMARK    1  A    between atoms: C3_3  and  C7_7 
REMARK    2  A    between atoms: C3_3  and  C10_10 
ROOT
HETATM    1  C1  UNL     1     -34.934  17.763   0.184  1.00 20.00     0.012 C 
HETATM    2  C2  UNL     1     -35.221  17.249  -0.862  1.00 20.00    -0.110 C 
HETATM    3  C10 UNL     1     -35.581  16.619  -2.137  1.00 20.00     0.171 C 
ENDROOT
BRANCH   3   4
HETATM    4  C3  UNL     1     -34.368  16.277  -2.978  1.00 20.00     0.144 C 
HETATM    5  O11 UNL     1     -33.344  16.958  -2.991  1.00 20.00    -0.297 OA
BRANCH   4   6
HETATM    6  C7  UNL     1     -34.476  15.039  -3.814  1.00 20.00     0.087 C 
HETATM    7  C6  UNL     1     -33.422  15.034  -4.926  1.00 20.00     0.046 C 
HETATM    8  C8  UNL     1     -34.290  14.975  -6.183  1.00 20.00     0.122 C 
HETATM    9  C4  UNL     1     -34.958  13.607  -6.322  1.00 20.00     0.034 C 
HETATM   10  O12 UNL     1     -35.411  15.797  -5.788  1.00 20.00    -0.380 OA
HETATM   11  C5  UNL     1     -36.025  13.657  -5.228  1.00 20.00     0.035 C 
HETATM   12  C9  UNL     1     -35.785  15.035  -4.613  1.00 20.00     0.133 C 
ENDBRANCH   4   6
ENDBRANCH   3   4
TORSDOF 2
ENDMDL
MODEL 6
REMARK VINA RESULT:      -4.5     10.741     12.126
REMARK  2 active torsions:
REMARK  status: ('A' for Active; 'I' for Inactive)
REMARK    1  A    between atoms: C3_3  and  C7_7 
REMARK    2  A    between atoms: C3_3  and  C10_10 
ROOT
HETATM    1  C1  UNL     1     -35.213  16.952  -1.366  1.00 20.00     0.012 C 
HETATM    2  C2  UNL     1     -34.562  16.506  -2.270  1.00 20.00    -0.110 C 
HETATM    3  C10 UNL     1     -33.760  15.970  -3.375  1.00 20.00     0.171 C 
ENDROOT
BRANCH   3   4
HETATM    4  C3  UNL     1     -34.420  14.785  -4.050  1.00 20.00     0.144 C 
HETATM    5  O11 UNL     1     -33.870  13.693  -4.183  1.00 20.00    -0.297 OA
BRANCH   4   6
HETATM    6  C7  UNL     1     -35.811  15.010  -4.558  1.00 20.00     0.087 C 
HETATM    7  C6  UNL     1     -36.348  13.757  -5.260  1.00 20.00     0.046 C 
HETATM    8  C8  UNL     1     -36.623  14.279  -6.670  1.00 20.00     0.122 C 
HETATM    9  C4  UNL     1     -37.820  15.229  -6.677  1.00 20.00     0.034 C 
HETATM   10  O12 UNL     1     -35.528  15.205  -6.844  1.00 20.00    -0.380 OA
HETATM   11  C5  UNL     1     -37.244  16.478  -6.007  1.00 20.00     0.035 C 
HETATM   12  C9  UNL     1     -35.814  16.039  -5.695  1.00 20.00     0.133 C 
ENDBRANCH   4   6
ENDBRANCH   3   4
TORSDOF 2
ENDMDL
MODEL 7
REMARK VINA RESULT:      -4.5     11.221     12.391
REMARK  2 active torsions:
REMARK  status: ('A' for Active; 'I' for Inactive)
REMARK    1  A    between atoms: C3_3  and  C7_7 
REMARK    2  A    between atoms: C3_3  and  C10_10 
ROOT
HETATM    1  C1  UNL     1     -34.456  17.389  -0.809  1.00 20.00     0.012 C 
HETATM    2  C2  UNL     1     -34.090  17.024  -1.893  1.00 20.00    -0.110 C 
HETATM    3  C10 UNL     1     -33.637  16.585  -3.217  1.00 20.00     0.171 C 
ENDROOT
BRANCH   3   4
HETATM    4  C3  UNL     1     -34.625  15.654  -3.890  1.00 20.00     0.144 C 
HETATM    5  O11 UNL     1     -35.791  15.528  -3.518  1.00 20.00    -0.297 OA
BRANCH   4   6
HETATM    6  C7  UNL     1     -34.104  14.876  -5.058  1.00 20.00     0.087 C 
HETATM    7  C6  UNL     1     -33.240  15.760  -5.965  1.00 20.00     0.046 C 
HETATM    8  C8  UNL     1     -33.995  15.683  -7.292  1.00 20.00     0.122 C 
HETATM    9  C4  UNL     1     -33.860  14.295  -7.918  1.00 20.00     0.034 C 
HETATM   10  O12 UNL     1     -35.365  15.653  -6.833  1.00 20.00    -0.380 OA
HETATM   11  C5  UNL     1     -34.759  13.447  -7.017  1.00 20.00     0.035 C 
HETATM   12  C9  UNL     1     -35.248  14.475  -5.997  1.00 20.00     0.133 C 
ENDBRANCH   4   6
ENDBRANCH   3   4
TORSDOF 2
ENDMDL
MODEL 8
REMARK VINA RESULT:      -4.4     10.755     12.084
REMARK  2 active torsions:
REMARK  status: ('A' for Active; 'I' for Inactive)
REMARK    1  A    between atoms: C3_3  and  C7_7 
REMARK    2  A    between atoms: C3_3  and  C10_10 
ROOT
HETATM    1  C1  UNL     1     -32.596  18.941  -0.292  1.00 20.00     0.012 C 
HETATM    2  C2  UNL     1     -33.060  18.134  -1.050  1.00 20.00    -0.110 C 
HETATM    3  C10 UNL     1     -33.627  17.142  -1.970  1.00 20.00     0.171 C 
ENDROOT
BRANCH   3   4
HETATM    4  C3  UNL     1     -33.584  17.598  -3.414  1.00 20.00     0.144 C 
HETATM    5  O11 UNL     1     -33.063  18.653  -3.771  1.00 20.00    -0.297 OA
BRANCH   4   6
HETATM    6  C7  UNL     1     -34.222  16.682  -4.412  1.00 20.00     0.087 C 
HETATM    7  C6  UNL     1     -34.905  15.500  -3.713  1.00 20.00     0.046 C 
HETATM    8  C8  UNL     1     -34.160  14.307  -4.313  1.00 20.00     0.122 C 
HETATM    9  C4  UNL     1     -34.533  14.113  -5.782  1.00 20.00     0.034 C 
HETATM   10  O12 UNL     1     -32.823  14.841  -4.430  1.00 20.00    -0.380 OA
HETATM   11  C5  UNL     1     -33.810  15.281  -6.455  1.00 20.00     0.035 C 
HETATM   12  C9  UNL     1     -33.157  15.979  -5.263  1.00 20.00     0.133 C 
ENDBRANCH   4   6
ENDBRANCH   3   4
TORSDOF 2
ENDMDL
MODEL 9
REMARK VINA RESULT:      -4.4     11.196     11.924
REMARK  2 active torsions:
REMARK  status: ('A' for Active; 'I' for Inactive)
REMARK    1  A    between atoms: C3_3  and  C7_7 
REMARK    2  A    between atoms: C3_3  and  C10_10 
ROOT
HETATM    1  C1  UNL     1     -35.666  13.601  -5.077  1.00 20.00     0.012 C 
HETATM    2  C2  UNL     1     -35.645  14.649  -4.493  1.00 20.00    -0.110 C 
HETATM    3  C10 UNL     1     -35.630  15.932  -3.780  1.00 20.00     0.171 C 
ENDROOT
BRANCH   3   4
HETATM    4  C3  UNL     1     -34.231  16.495  -3.630  1.00 20.00     0.144 C 
HETATM    5  O11 UNL     1     -33.481  16.696  -4.583  1.00 20.00    -0.297 OA
BRANCH   4   6
HETATM    6  C7  UNL     1     -33.794  16.805  -2.231  1.00 20.00     0.087 C 
HETATM    7  C6  UNL     1     -35.002  16.952  -1.299  1.00 20.00     0.046 C 
HETATM    8  C8  UNL     1     -34.840  18.387  -0.797  1.00 20.00     0.122 C 
HETATM    9  C4  UNL     1     -33.646  18.502   0.150  1.00 20.00     0.034 C 
HETATM   10  O12 UNL     1     -34.326  19.040  -1.978  1.00 20.00    -0.380 OA
HETATM   11  C5  UNL     1     -32.461  18.389  -0.811  1.00 20.00     0.035 C 
HETATM   12  C9  UNL     1     -33.160  18.199  -2.156  1.00 20.00     0.133 C 
ENDBRANCH   4   6
ENDBRANCH   3   4
TORSDOF 2
ENDMDL
