MODEL 1
REMARK VINA RESULT:      -6.3      0.000      0.000
REMARK  3 active torsions:
REMARK  status: ('A' for Active; 'I' for Inactive)
REMARK    1  A    between atoms: C1_1  and  C7_7 
REMARK    2  A    between atoms: C1_1  and  C9_9 
REMARK    3  A    between atoms: C8_8  and  C9_9 
ROOT
HETATM    1  C1  UNL     1     -32.582   7.773   3.379  1.00 20.00     0.141 C 
HETATM    2  O10 UNL     1     -31.649   8.224   4.043  1.00 20.00    -0.297 OA
ENDROOT
BRANCH   1   3
HETATM    3  C7  UNL     1     -33.779   7.188   4.040  1.00 20.00     0.116 C 
HETATM    4  C3  UNL     1     -33.620   6.999   5.546  1.00 20.00     0.024 C 
HETATM    5  C2  UNL     1     -34.657   5.964   5.957  1.00 20.00     0.012 C 
HETATM    6  C6  UNL     1     -34.480   4.782   5.019  1.00 20.00     0.075 C 
HETATM    7  S11 UNL     1     -34.106   5.516   3.401  1.00 20.00    -0.157 SA
ENDBRANCH   1   3
BRANCH   1   8
HETATM    8  C9  UNL     1     -32.589   7.775   1.862  1.00 20.00     0.084 C 
BRANCH   8   9
HETATM    9  C8  UNL     1     -32.034   9.061   1.276  1.00 20.00    -0.007 A 
HETATM   10  C4  UNL     1     -32.511   9.551  -0.064  1.00 20.00     0.005 A 
HETATM   11  C5  UNL     1     -32.900  10.288   1.188  1.00 20.00     0.005 A 
ENDBRANCH   8   9
ENDBRANCH   1   8
TORSDOF 3
ENDMDL
MODEL 2
REMARK VINA RESULT:      -5.9      1.216      1.410
REMARK  3 active torsions:
REMARK  status: ('A' for Active; 'I' for Inactive)
REMARK    1  A    between atoms: C1_1  and  C7_7 
REMARK    2  A    between atoms: C1_1  and  C9_9 
REMARK    3  A    between atoms: C8_8  and  C9_9 
ROOT
HETATM    1  C1  UNL     1     -32.793   6.952   2.706  1.00 20.00     0.141 C 
HETATM    2  O10 UNL     1     -32.606   5.832   2.232  1.00 20.00    -0.297 OA
ENDROOT
BRANCH   1   3
HETATM    3  C7  UNL     1     -33.755   7.161   3.822  1.00 20.00     0.116 C 
HETATM    4  C3  UNL     1     -33.086   7.438   5.166  1.00 20.00     0.024 C 
HETATM    5  C2  UNL     1     -34.124   7.116   6.231  1.00 20.00     0.012 C 
HETATM    6  C6  UNL     1     -34.647   5.724   5.915  1.00 20.00     0.075 C 
HETATM    7  S11 UNL     1     -34.740   5.657   4.103  1.00 20.00    -0.157 SA
ENDBRANCH   1   3
BRANCH   1   8
HETATM    8  C9  UNL     1     -32.075   8.190   2.202  1.00 20.00     0.084 C 
BRANCH   8   9
HETATM    9  C8  UNL     1     -32.995   9.134   1.449  1.00 20.00    -0.007 A 
HETATM   10  C4  UNL     1     -32.509  10.496   1.037  1.00 20.00     0.005 A 
HETATM   11  C5  UNL     1     -32.745   9.437  -0.003  1.00 20.00     0.005 A 
ENDBRANCH   8   9
ENDBRANCH   1   8
TORSDOF 3
ENDMDL
MODEL 3
REMARK VINA RESULT:      -4.5     10.901     11.408
REMARK  3 active torsions:
REMARK  status: ('A' for Active; 'I' for Inactive)
REMARK    1  A    between atoms: C1_1  and  C7_7 
REMARK    2  A    between atoms: C1_1  and  C9_9 
REMARK    3  A    between atoms: C8_8  and  C9_9 
ROOT
HETATM    1  C1  UNL     1     -32.192  18.628  -0.208  1.00 20.00     0.141 C 
HETATM    2  O10 UNL     1     -31.058  18.225  -0.467  1.00 20.00    -0.297 OA
ENDROOT
BRANCH   1   3
HETATM    3  C7  UNL     1     -32.512  19.209   1.123  1.00 20.00     0.116 C 
HETATM    4  C3  UNL     1     -31.539  18.797   2.224  1.00 20.00     0.024 C 
HETATM    5  C2  UNL     1     -32.267  19.026   3.542  1.00 20.00     0.012 C 
HETATM    6  C6  UNL     1     -33.613  18.331   3.416  1.00 20.00     0.075 C 
HETATM    7  S11 UNL     1     -34.134  18.622   1.701  1.00 20.00    -0.157 SA
ENDBRANCH   1   3
BRANCH   1   8
HETATM    8  C9  UNL     1     -33.335  18.566  -1.204  1.00 20.00     0.084 C 
BRANCH   8   9
HETATM    9  C8  UNL     1     -33.675  17.146  -1.616  1.00 20.00    -0.007 A 
HETATM   10  C4  UNL     1     -35.103  16.754  -1.881  1.00 20.00     0.005 A 
HETATM   11  C5  UNL     1     -34.127  16.852  -3.021  1.00 20.00     0.005 A 
ENDBRANCH   8   9
ENDBRANCH   1   8
TORSDOF 3
ENDMDL
MODEL 4
REMARK VINA RESULT:      -4.4      1.645      4.762
REMARK  3 active torsions:
REMARK  status: ('A' for Active; 'I' for Inactive)
REMARK    1  A    between atoms: C1_1  and  C7_7 
REMARK    2  A    between atoms: C1_1  and  C9_9 
REMARK    3  A    between atoms: C8_8  and  C9_9 
ROOT
HETATM    1  C1  UNL     1     -31.942   8.104   3.177  1.00 20.00     0.141 C 
HETATM    2  O10 UNL     1     -31.358   8.334   4.235  1.00 20.00    -0.297 OA
ENDROOT
BRANCH   1   3
HETATM    3  C7  UNL     1     -31.812   9.024   2.015  1.00 20.00     0.116 C 
HETATM    4  C3  UNL     1     -33.029   9.920   1.802  1.00 20.00     0.024 C 
HETATM    5  C2  UNL     1     -32.965  10.387   0.355  1.00 20.00     0.012 C 
HETATM    6  C6  UNL     1     -32.782   9.139  -0.493  1.00 20.00     0.075 C 
HETATM    7  S11 UNL     1     -31.664   8.079   0.467  1.00 20.00    -0.157 SA
ENDBRANCH   1   3
BRANCH   1   8
HETATM    8  C9  UNL     1     -32.824   6.886   2.971  1.00 20.00     0.084 C 
BRANCH   8   9
HETATM    9  C8  UNL     1     -34.104   6.949   3.785  1.00 20.00    -0.007 A 
HETATM   10  C4  UNL     1     -34.930   5.709   3.993  1.00 20.00     0.005 A 
HETATM   11  C5  UNL     1     -34.169   6.307   5.144  1.00 20.00     0.005 A 
ENDBRANCH   8   9
ENDBRANCH   1   8
TORSDOF 3
ENDMDL
MODEL 5
REMARK VINA RESULT:      -4.4     11.008     11.738
REMARK  3 active torsions:
REMARK  status: ('A' for Active; 'I' for Inactive)
REMARK    1  A    between atoms: C1_1  and  C7_7 
REMARK    2  A    between atoms: C1_1  and  C9_9 
REMARK    3  A    between atoms: C8_8  and  C9_9 
ROOT
HETATM    1  C1  UNL     1     -33.582  16.120  -4.806  1.00 20.00     0.141 C 
HETATM    2  O10 UNL     1     -32.524  15.753  -5.316  1.00 20.00    -0.297 OA
ENDROOT
BRANCH   1   3
HETATM    3  C7  UNL     1     -34.869  15.460  -5.153  1.00 20.00     0.116 C 
HETATM    4  C3  UNL     1     -35.049  14.086  -4.512  1.00 20.00     0.024 C 
HETATM    5  C2  UNL     1     -36.101  13.364  -5.341  1.00 20.00     0.012 C 
HETATM    6  C6  UNL     1     -35.659  13.477  -6.791  1.00 20.00     0.075 C 
HETATM    7  S11 UNL     1     -34.962  15.145  -6.943  1.00 20.00    -0.157 SA
ENDBRANCH   1   3
BRANCH   1   8
HETATM    8  C9  UNL     1     -33.661  17.253  -3.801  1.00 20.00     0.084 C 
BRANCH   8   9
HETATM    9  C8  UNL     1     -33.696  16.760  -2.366  1.00 20.00    -0.007 A 
HETATM   10  C4  UNL     1     -33.700  17.742  -1.227  1.00 20.00     0.005 A 
HETATM   11  C5  UNL     1     -34.935  16.941  -1.532  1.00 20.00     0.005 A 
ENDBRANCH   8   9
ENDBRANCH   1   8
TORSDOF 3
ENDMDL
MODEL 6
REMARK VINA RESULT:      -4.4      1.800      5.025
REMARK  3 active torsions:
REMARK  status: ('A' for Active; 'I' for Inactive)
REMARK    1  A    between atoms: C1_1  and  C7_7 
REMARK    2  A    between atoms: C1_1  and  C9_9 
REMARK    3  A    between atoms: C8_8  and  C9_9 
ROOT
HETATM    1  C1  UNL     1     -32.689   7.182   2.972  1.00 20.00     0.141 C 
HETATM    2  O10 UNL     1     -32.617   6.159   2.292  1.00 20.00    -0.297 OA
ENDROOT
BRANCH   1   3
HETATM    3  C7  UNL     1     -32.241   8.494   2.431  1.00 20.00     0.116 C 
HETATM    4  C3  UNL     1     -33.370   9.507   2.262  1.00 20.00     0.024 C 
HETATM    5  C2  UNL     1     -32.868  10.540   1.262  1.00 20.00     0.012 C 
HETATM    6  C6  UNL     1     -32.356   9.762   0.061  1.00 20.00     0.075 C 
HETATM    7  S11 UNL     1     -31.553   8.292   0.759  1.00 20.00    -0.157 SA
ENDBRANCH   1   3
BRANCH   1   8
HETATM    8  C9  UNL     1     -33.228   7.193   4.390  1.00 20.00     0.084 C 
BRANCH   8   9
HETATM    9  C8  UNL     1     -34.484   6.354   4.543  1.00 20.00    -0.007 A 
HETATM   10  C4  UNL     1     -34.417   4.858   4.410  1.00 20.00     0.005 A 
HETATM   11  C5  UNL     1     -34.670   5.482   5.754  1.00 20.00     0.005 A 
ENDBRANCH   8   9
ENDBRANCH   1   8
TORSDOF 3
ENDMDL
MODEL 7
REMARK VINA RESULT:      -4.3     10.829     12.232
REMARK  3 active torsions:
REMARK  status: ('A' for Active; 'I' for Inactive)
REMARK    1  A    between atoms: C1_1  and  C7_7 
REMARK    2  A    between atoms: C1_1  and  C9_9 
REMARK    3  A    between atoms: C8_8  and  C9_9 
ROOT
HETATM    1  C1  UNL     1     -35.695  13.999  -4.899  1.00 20.00     0.141 C 
HETATM    2  O10 UNL     1     -35.879  12.816  -5.181  1.00 20.00    -0.297 OA
ENDROOT
BRANCH   1   3
HETATM    3  C7  UNL     1     -36.581  15.063  -5.443  1.00 20.00     0.116 C 
HETATM    4  C3  UNL     1     -38.057  14.676  -5.479  1.00 20.00     0.024 C 
HETATM    5  C2  UNL     1     -38.715  15.601  -6.493  1.00 20.00     0.012 C 
HETATM    6  C6  UNL     1     -37.875  15.520  -7.757  1.00 20.00     0.075 C 
HETATM    7  S11 UNL     1     -36.159  15.417  -7.177  1.00 20.00    -0.157 SA
ENDBRANCH   1   3
BRANCH   1   8
HETATM    8  C9  UNL     1     -34.573  14.464  -3.990  1.00 20.00     0.084 C 
BRANCH   8   9
HETATM    9  C8  UNL     1     -34.649  15.948  -3.679  1.00 20.00    -0.007 A 
HETATM   10  C4  UNL     1     -35.061  16.415  -2.310  1.00 20.00     0.005 A 
HETATM   11  C5  UNL     1     -33.638  16.583  -2.765  1.00 20.00     0.005 A 
ENDBRANCH   8   9
ENDBRANCH   1   8
TORSDOF 3
ENDMDL
MODEL 8
REMARK VINA RESULT:      -4.3     10.993     12.033
REMARK  3 active torsions:
REMARK  status: ('A' for Active; 'I' for Inactive)
REMARK    1  A    between atoms: C1_1  and  C7_7 
REMARK    2  A    between atoms: C1_1  and  C9_9 
REMARK    3  A    between atoms: C8_8  and  C9_9 
ROOT
HETATM    1  C1  UNL     1     -35.787  13.837  -5.179  1.00 20.00     0.141 C 
HETATM    2  O10 UNL     1     -35.878  12.610  -5.216  1.00 20.00    -0.297 OA
ENDROOT
BRANCH   1   3
HETATM    3  C7  UNL     1     -34.624  14.499  -4.531  1.00 20.00     0.116 C 
HETATM    4  C3  UNL     1     -35.012  15.525  -3.469  1.00 20.00     0.024 C 
HETATM    5  C2  UNL     1     -33.806  16.437  -3.298  1.00 20.00     0.012 C 
HETATM    6  C6  UNL     1     -33.411  16.896  -4.692  1.00 20.00     0.075 C 
HETATM    7  S11 UNL     1     -33.667  15.446  -5.754  1.00 20.00    -0.157 SA
ENDBRANCH   1   3
BRANCH   1   8
HETATM    8  C9  UNL     1     -36.833  14.758  -5.778  1.00 20.00     0.084 C 
BRANCH   8   9
HETATM    9  C8  UNL     1     -38.218  14.524  -5.202  1.00 20.00    -0.007 A 
HETATM   10  C4  UNL     1     -38.866  15.570  -4.337  1.00 20.00     0.005 A 
HETATM   11  C5  UNL     1     -39.396  15.304  -5.718  1.00 20.00     0.005 A 
ENDBRANCH   8   9
ENDBRANCH   1   8
TORSDOF 3
ENDMDL
MODEL 9
REMARK VINA RESULT:      -4.3     11.008     12.067
REMARK  3 active torsions:
REMARK  status: ('A' for Active; 'I' for Inactive)
REMARK    1  A    between atoms: C1_1  and  C7_7 
REMARK    2  A    between atoms: C1_1  and  C9_9 
REMARK    3  A    between atoms: C8_8  and  C9_9 
ROOT
HETATM    1  C1  UNL     1     -33.593  16.181  -4.666  1.00 20.00     0.141 C 
HETATM    2  O10 UNL     1     -33.423  17.284  -5.182  1.00 20.00    -0.297 OA
ENDROOT
BRANCH   1   3
HETATM    3  C7  UNL     1     -33.685  14.952  -5.499  1.00 20.00     0.116 C 
HETATM    4  C3  UNL     1     -33.765  15.229  -6.998  1.00 20.00     0.024 C 
HETATM    5  C2  UNL     1     -34.357  13.978  -7.632  1.00 20.00     0.012 C 
HETATM    6  C6  UNL     1     -35.619  13.656  -6.849  1.00 20.00     0.075 C 
HETATM    7  S11 UNL     1     -35.212  14.038  -5.122  1.00 20.00    -0.157 SA
ENDBRANCH   1   3
BRANCH   1   8
HETATM    8  C9  UNL     1     -33.722  15.983  -3.167  1.00 20.00     0.084 C 
BRANCH   8   9
HETATM    9  C8  UNL     1     -34.408  17.151  -2.481  1.00 20.00    -0.007 A 
HETATM   10  C4  UNL     1     -35.341  16.909  -1.327  1.00 20.00     0.005 A 
HETATM   11  C5  UNL     1     -34.004  17.555  -1.090  1.00 20.00     0.005 A 
ENDBRANCH   8   9
ENDBRANCH   1   8
TORSDOF 3
ENDMDL
