MODEL 1
REMARK VINA RESULT:      -6.3      0.000      0.000
REMARK  3 active torsions:
REMARK  status: ('A' for Active; 'I' for Inactive)
REMARK    1  A    between atoms: C1_1  and  C7_7 
REMARK    2  A    between atoms: C1_1  and  C9_9 
REMARK    3  A    between atoms: C8_8  and  C9_9 
ROOT
HETATM    1  C1  UNL     1     -32.423   7.851   3.202  1.00 20.00     0.141 C 
HETATM    2  O10 UNL     1     -31.543   8.276   3.951  1.00 20.00    -0.297 OA
ENDROOT
BRANCH   1   3
HETATM    3  C7  UNL     1     -33.739   7.404   3.740  1.00 20.00     0.116 C 
HETATM    4  C3  UNL     1     -34.110   6.001   3.282  1.00 20.00     0.024 C 
HETATM    5  C2  UNL     1     -35.053   5.437   4.334  1.00 20.00     0.012 C 
HETATM    6  C6  UNL     1     -34.383   5.660   5.679  1.00 20.00     0.075 C 
HETATM    7  S11 UNL     1     -33.617   7.299   5.548  1.00 20.00    -0.157 SA
ENDBRANCH   1   3
BRANCH   1   8
HETATM    8  C9  UNL     1     -32.245   7.745   1.700  1.00 20.00     0.084 C 
BRANCH   8   9
HETATM    9  C8  UNL     1     -31.977   9.090   1.047  1.00 20.00    -0.007 A 
HETATM   10  C4  UNL     1     -32.855   9.577  -0.071  1.00 20.00     0.005 A 
HETATM   11  C5  UNL     1     -32.915  10.242   1.276  1.00 20.00     0.005 A 
ENDBRANCH   8   9
ENDBRANCH   1   8
TORSDOF 3
ENDMDL
MODEL 2
REMARK VINA RESULT:      -5.9      1.140      1.412
REMARK  3 active torsions:
REMARK  status: ('A' for Active; 'I' for Inactive)
REMARK    1  A    between atoms: C1_1  and  C7_7 
REMARK    2  A    between atoms: C1_1  and  C9_9 
REMARK    3  A    between atoms: C8_8  and  C9_9 
ROOT
HETATM    1  C1  UNL     1     -32.223   7.808   3.249  1.00 20.00     0.141 C 
HETATM    2  O10 UNL     1     -31.261   8.479   3.620  1.00 20.00    -0.297 OA
ENDROOT
BRANCH   1   3
HETATM    3  C7  UNL     1     -32.746   6.689   4.081  1.00 20.00     0.116 C 
HETATM    4  C3  UNL     1     -33.637   7.172   5.216  1.00 20.00     0.024 C 
HETATM    5  C2  UNL     1     -34.573   6.022   5.554  1.00 20.00     0.012 C 
HETATM    6  C6  UNL     1     -35.177   5.557   4.240  1.00 20.00     0.075 C 
HETATM    7  S11 UNL     1     -33.815   5.650   3.046  1.00 20.00    -0.157 SA
ENDBRANCH   1   3
BRANCH   1   8
HETATM    8  C9  UNL     1     -32.944   8.058   1.937  1.00 20.00     0.084 C 
BRANCH   8   9
HETATM    9  C8  UNL     1     -32.226   9.067   1.059  1.00 20.00    -0.007 A 
HETATM   10  C4  UNL     1     -32.897   9.614  -0.170  1.00 20.00     0.005 A 
HETATM   11  C5  UNL     1     -32.680  10.499   1.026  1.00 20.00     0.005 A 
ENDBRANCH   8   9
ENDBRANCH   1   8
TORSDOF 3
ENDMDL
MODEL 3
REMARK VINA RESULT:      -4.7      1.684      1.958
REMARK  3 active torsions:
REMARK  status: ('A' for Active; 'I' for Inactive)
REMARK    1  A    between atoms: C1_1  and  C7_7 
REMARK    2  A    between atoms: C1_1  and  C9_9 
REMARK    3  A    between atoms: C8_8  and  C9_9 
ROOT
HETATM    1  C1  UNL     1     -33.167   6.944   2.476  1.00 20.00     0.141 C 
HETATM    2  O10 UNL     1     -33.927   6.416   1.664  1.00 20.00    -0.297 OA
ENDROOT
BRANCH   1   3
HETATM    3  C7  UNL     1     -33.058   6.432   3.871  1.00 20.00     0.116 C 
HETATM    4  C3  UNL     1     -33.758   7.332   4.878  1.00 20.00     0.024 C 
HETATM    5  C2  UNL     1     -34.134   6.451   6.060  1.00 20.00     0.012 C 
HETATM    6  C6  UNL     1     -34.842   5.237   5.485  1.00 20.00     0.075 C 
HETATM    7  S11 UNL     1     -33.925   4.841   3.971  1.00 20.00    -0.157 SA
ENDBRANCH   1   3
BRANCH   1   8
HETATM    8  C9  UNL     1     -32.296   8.137   2.132  1.00 20.00     0.084 C 
BRANCH   8   9
HETATM    9  C8  UNL     1     -33.058   9.224   1.395  1.00 20.00    -0.007 A 
HETATM   10  C4  UNL     1     -32.344  10.455   0.912  1.00 20.00     0.005 A 
HETATM   11  C5  UNL     1     -32.839   9.437  -0.077  1.00 20.00     0.005 A 
ENDBRANCH   8   9
ENDBRANCH   1   8
TORSDOF 3
ENDMDL
MODEL 4
REMARK VINA RESULT:      -4.4     10.665     11.145
REMARK  3 active torsions:
REMARK  status: ('A' for Active; 'I' for Inactive)
REMARK    1  A    between atoms: C1_1  and  C7_7 
REMARK    2  A    between atoms: C1_1  and  C9_9 
REMARK    3  A    between atoms: C8_8  and  C9_9 
ROOT
HETATM    1  C1  UNL     1     -32.282  18.598  -0.366  1.00 20.00     0.141 C 
HETATM    2  O10 UNL     1     -31.107  18.239  -0.308  1.00 20.00    -0.297 OA
ENDROOT
BRANCH   1   3
HETATM    3  C7  UNL     1     -32.976  19.152   0.830  1.00 20.00     0.116 C 
HETATM    4  C3  UNL     1     -34.290  18.442   1.124  1.00 20.00     0.024 C 
HETATM    5  C2  UNL     1     -34.553  18.613   2.612  1.00 20.00     0.012 C 
HETATM    6  C6  UNL     1     -33.277  18.205   3.326  1.00 20.00     0.075 C 
HETATM    7  S11 UNL     1     -31.937  18.854   2.289  1.00 20.00    -0.157 SA
ENDBRANCH   1   3
BRANCH   1   8
HETATM    8  C9  UNL     1     -33.109  18.506  -1.635  1.00 20.00     0.084 C 
BRANCH   8   9
HETATM    9  C8  UNL     1     -33.457  17.075  -2.003  1.00 20.00    -0.007 A 
HETATM   10  C4  UNL     1     -34.893  16.634  -2.059  1.00 20.00     0.005 A 
HETATM   11  C5  UNL     1     -34.098  16.768  -3.327  1.00 20.00     0.005 A 
ENDBRANCH   8   9
ENDBRANCH   1   8
TORSDOF 3
ENDMDL
MODEL 5
REMARK VINA RESULT:      -4.2      1.755      4.605
REMARK  3 active torsions:
REMARK  status: ('A' for Active; 'I' for Inactive)
REMARK    1  A    between atoms: C1_1  and  C7_7 
REMARK    2  A    between atoms: C1_1  and  C9_9 
REMARK    3  A    between atoms: C8_8  and  C9_9 
ROOT
HETATM    1  C1  UNL     1     -31.910   8.152   2.960  1.00 20.00     0.141 C 
HETATM    2  O10 UNL     1     -31.378   8.574   3.986  1.00 20.00    -0.297 OA
ENDROOT
BRANCH   1   3
HETATM    3  C7  UNL     1     -31.702   8.833   1.651  1.00 20.00     0.116 C 
HETATM    4  C3  UNL     1     -32.136   7.975   0.472  1.00 20.00     0.024 C 
HETATM    5  C2  UNL     1     -32.483   8.932  -0.657  1.00 20.00     0.012 C 
HETATM    6  C6  UNL     1     -33.422   9.971  -0.070  1.00 20.00     0.075 C 
HETATM    7  S11 UNL     1     -32.767  10.302   1.589  1.00 20.00    -0.157 SA
ENDBRANCH   1   3
BRANCH   1   8
HETATM    8  C9  UNL     1     -32.808   6.929   2.942  1.00 20.00     0.084 C 
BRANCH   8   9
HETATM    9  C8  UNL     1     -34.031   7.089   3.827  1.00 20.00    -0.007 A 
HETATM   10  C4  UNL     1     -34.788   5.878   4.299  1.00 20.00     0.005 A 
HETATM   11  C5  UNL     1     -33.976   6.685   5.274  1.00 20.00     0.005 A 
ENDBRANCH   8   9
ENDBRANCH   1   8
TORSDOF 3
ENDMDL
MODEL 6
REMARK VINA RESULT:      -4.2     10.645     11.817
REMARK  3 active torsions:
REMARK  status: ('A' for Active; 'I' for Inactive)
REMARK    1  A    between atoms: C1_1  and  C7_7 
REMARK    2  A    between atoms: C1_1  and  C9_9 
REMARK    3  A    between atoms: C8_8  and  C9_9 
ROOT
HETATM    1  C1  UNL     1     -34.651  14.789  -4.197  1.00 20.00     0.141 C 
HETATM    2  O10 UNL     1     -34.245  13.668  -3.893  1.00 20.00    -0.297 OA
ENDROOT
BRANCH   1   3
HETATM    3  C7  UNL     1     -34.914  15.152  -5.617  1.00 20.00     0.116 C 
HETATM    4  C3  UNL     1     -33.648  15.548  -6.363  1.00 20.00     0.024 C 
HETATM    5  C2  UNL     1     -33.905  15.267  -7.835  1.00 20.00     0.012 C 
HETATM    6  C6  UNL     1     -34.439  13.847  -7.917  1.00 20.00     0.075 C 
HETATM    7  S11 UNL     1     -35.536  13.682  -6.482  1.00 20.00    -0.157 SA
ENDBRANCH   1   3
BRANCH   1   8
HETATM    8  C9  UNL     1     -34.909  15.877  -3.171  1.00 20.00     0.084 C 
BRANCH   8   9
HETATM    9  C8  UNL     1     -33.634  16.554  -2.703  1.00 20.00    -0.007 A 
HETATM   10  C4  UNL     1     -33.450  18.035  -2.889  1.00 20.00     0.005 A 
HETATM   11  C5  UNL     1     -33.656  17.470  -1.511  1.00 20.00     0.005 A 
ENDBRANCH   8   9
ENDBRANCH   1   8
TORSDOF 3
ENDMDL
MODEL 7
REMARK VINA RESULT:      -4.1     10.713     11.858
REMARK  3 active torsions:
REMARK  status: ('A' for Active; 'I' for Inactive)
REMARK    1  A    between atoms: C1_1  and  C7_7 
REMARK    2  A    between atoms: C1_1  and  C9_9 
REMARK    3  A    between atoms: C8_8  and  C9_9 
ROOT
HETATM    1  C1  UNL     1     -35.965  13.795  -5.414  1.00 20.00     0.141 C 
HETATM    2  O10 UNL     1     -35.883  12.572  -5.305  1.00 20.00    -0.297 OA
ENDROOT
BRANCH   1   3
HETATM    3  C7  UNL     1     -35.541  14.694  -4.304  1.00 20.00     0.116 C 
HETATM    4  C3  UNL     1     -34.028  14.796  -4.182  1.00 20.00     0.024 C 
HETATM    5  C2  UNL     1     -33.734  16.136  -3.526  1.00 20.00     0.012 C 
HETATM    6  C6  UNL     1     -34.518  17.179  -4.304  1.00 20.00     0.075 C 
HETATM    7  S11 UNL     1     -36.102  16.379  -4.682  1.00 20.00    -0.157 SA
ENDBRANCH   1   3
BRANCH   1   8
HETATM    8  C9  UNL     1     -36.495  14.476  -6.661  1.00 20.00     0.084 C 
BRANCH   8   9
HETATM    9  C8  UNL     1     -35.526  14.398  -7.827  1.00 20.00    -0.007 A 
HETATM   10  C4  UNL     1     -34.370  15.354  -7.917  1.00 20.00     0.005 A 
HETATM   11  C5  UNL     1     -34.123  13.903  -7.612  1.00 20.00     0.005 A 
ENDBRANCH   8   9
ENDBRANCH   1   8
TORSDOF 3
ENDMDL
MODEL 8
REMARK VINA RESULT:      -4.1     10.891     11.556
REMARK  3 active torsions:
REMARK  status: ('A' for Active; 'I' for Inactive)
REMARK    1  A    between atoms: C1_1  and  C7_7 
REMARK    2  A    between atoms: C1_1  and  C9_9 
REMARK    3  A    between atoms: C8_8  and  C9_9 
ROOT
HETATM    1  C1  UNL     1     -33.736  16.292  -4.579  1.00 20.00     0.141 C 
HETATM    2  O10 UNL     1     -33.351  17.307  -5.158  1.00 20.00    -0.297 OA
ENDROOT
BRANCH   1   3
HETATM    3  C7  UNL     1     -34.283  15.134  -5.341  1.00 20.00     0.116 C 
HETATM    4  C3  UNL     1     -34.977  14.121  -4.443  1.00 20.00     0.024 C 
HETATM    5  C2  UNL     1     -35.992  13.394  -5.312  1.00 20.00     0.012 C 
HETATM    6  C6  UNL     1     -36.793  14.467  -6.029  1.00 20.00     0.075 C 
HETATM    7  S11 UNL     1     -35.576  15.741  -6.462  1.00 20.00    -0.157 SA
ENDBRANCH   1   3
BRANCH   1   8
HETATM    8  C9  UNL     1     -33.690  16.137  -3.071  1.00 20.00     0.084 C 
BRANCH   8   9
HETATM    9  C8  UNL     1     -34.419  17.255  -2.346  1.00 20.00    -0.007 A 
HETATM   10  C4  UNL     1     -35.382  16.937  -1.237  1.00 20.00     0.005 A 
HETATM   11  C5  UNL     1     -34.065  17.592  -0.925  1.00 20.00     0.005 A 
ENDBRANCH   8   9
ENDBRANCH   1   8
TORSDOF 3
ENDMDL
MODEL 9
REMARK VINA RESULT:      -4.1      1.529      4.660
REMARK  3 active torsions:
REMARK  status: ('A' for Active; 'I' for Inactive)
REMARK    1  A    between atoms: C1_1  and  C7_7 
REMARK    2  A    between atoms: C1_1  and  C9_9 
REMARK    3  A    between atoms: C8_8  and  C9_9 
ROOT
HETATM    1  C1  UNL     1     -32.462   7.454   3.271  1.00 20.00     0.141 C 
HETATM    2  O10 UNL     1     -32.235   7.869   4.407  1.00 20.00    -0.297 OA
ENDROOT
BRANCH   1   3
HETATM    3  C7  UNL     1     -31.993   8.203   2.072  1.00 20.00     0.116 C 
HETATM    4  C3  UNL     1     -32.930   8.047   0.883  1.00 20.00     0.024 C 
HETATM    5  C2  UNL     1     -32.735   9.279   0.012  1.00 20.00     0.012 C 
HETATM    6  C6  UNL     1     -32.848  10.481   0.933  1.00 20.00     0.075 C 
HETATM    7  S11 UNL     1     -32.004   9.977   2.458  1.00 20.00    -0.157 SA
ENDBRANCH   1   3
BRANCH   1   8
HETATM    8  C9  UNL     1     -33.227   6.172   3.001  1.00 20.00     0.084 C 
BRANCH   8   9
HETATM    9  C8  UNL     1     -34.494   6.062   3.830  1.00 20.00    -0.007 A 
HETATM   10  C4  UNL     1     -34.875   4.752   4.461  1.00 20.00     0.005 A 
HETATM   11  C5  UNL     1     -34.410   5.894   5.321  1.00 20.00     0.005 A 
ENDBRANCH   8   9
ENDBRANCH   1   8
TORSDOF 3
ENDMDL
