MODEL 1
REMARK VINA RESULT:      -4.6      0.000      0.000
REMARK  1 active torsions:
REMARK  status: ('A' for Active; 'I' for Inactive)
REMARK    1  A    between atoms: C4_4  and  C5_5 
ROOT
HETATM    1  C1  UNL     1     -34.600   4.857   4.517  1.00 20.00     0.011 C 
HETATM    2  C2  UNL     1     -34.916   5.965   3.523  1.00 20.00     0.016 C 
HETATM    3  C3  UNL     1     -34.522   5.511   5.885  1.00 20.00     0.074 C 
HETATM    4  C4  UNL     1     -33.944   7.112   3.791  1.00 20.00     0.057 C 
HETATM    5  S6  UNL     1     -33.729   7.118   5.601  1.00 20.00    -0.164 SA
ENDROOT
BRANCH   4   6
HETATM    6  C5  UNL     1     -32.595   6.921   3.108  1.00 20.00     0.100 C 
HETATM    7 BR7  UNL     1     -32.168   8.494   2.051  1.00 20.00    -0.095 Br
ENDBRANCH   4   6
TORSDOF 1
ENDMDL
MODEL 2
REMARK VINA RESULT:      -4.1      1.063      1.213
REMARK  1 active torsions:
REMARK  status: ('A' for Active; 'I' for Inactive)
REMARK    1  A    between atoms: C4_4  and  C5_5 
ROOT
HETATM    1  C1  UNL     1     -33.619   4.633   3.228  1.00 20.00     0.011 C 
HETATM    2  C2  UNL     1     -34.099   5.982   2.712  1.00 20.00     0.016 C 
HETATM    3  C3  UNL     1     -34.344   4.387   4.539  1.00 20.00     0.074 C 
HETATM    4  C4  UNL     1     -33.995   6.977   3.865  1.00 20.00     0.057 C 
HETATM    5  S6  UNL     1     -34.431   6.009   5.347  1.00 20.00    -0.164 SA
ENDROOT
BRANCH   4   6
HETATM    6  C5  UNL     1     -32.597   7.565   4.020  1.00 20.00     0.100 C 
HETATM    7 BR7  UNL     1     -32.013   8.319   2.329  1.00 20.00    -0.095 Br
ENDBRANCH   4   6
TORSDOF 1
ENDMDL
MODEL 3
REMARK VINA RESULT:      -3.5      1.553      1.872
REMARK  1 active torsions:
REMARK  status: ('A' for Active; 'I' for Inactive)
REMARK    1  A    between atoms: C4_4  and  C5_5 
ROOT
HETATM    1  C1  UNL     1     -34.828   6.025   4.718  1.00 20.00     0.011 C 
HETATM    2  C2  UNL     1     -33.613   6.934   4.831  1.00 20.00     0.016 C 
HETATM    3  C3  UNL     1     -34.332   4.707   4.150  1.00 20.00     0.074 C 
HETATM    4  C4  UNL     1     -32.876   6.883   3.494  1.00 20.00     0.057 C 
HETATM    5  S6  UNL     1     -33.066   5.159   2.931  1.00 20.00    -0.164 SA
ENDROOT
BRANCH   4   6
HETATM    6  C5  UNL     1     -33.460   7.836   2.457  1.00 20.00     0.100 C 
HETATM    7 BR7  UNL     1     -32.022   8.776   1.551  1.00 20.00    -0.095 Br
ENDBRANCH   4   6
TORSDOF 1
ENDMDL
MODEL 4
REMARK VINA RESULT:      -3.3      2.296      3.082
REMARK  1 active torsions:
REMARK  status: ('A' for Active; 'I' for Inactive)
REMARK    1  A    between atoms: C4_4  and  C5_5 
ROOT
HETATM    1  C1  UNL     1     -33.106   6.233   2.987  1.00 20.00     0.011 C 
HETATM    2  C2  UNL     1     -34.539   6.493   3.430  1.00 20.00     0.016 C 
HETATM    3  C3  UNL     1     -33.009   4.750   2.678  1.00 20.00     0.074 C 
HETATM    4  C4  UNL     1     -34.888   5.447   4.486  1.00 20.00     0.057 C 
HETATM    5  S6  UNL     1     -34.033   3.934   3.934  1.00 20.00    -0.164 SA
ENDROOT
BRANCH   4   6
HETATM    6  C5  UNL     1     -34.415   5.832   5.883  1.00 20.00     0.100 C 
HETATM    7 BR7  UNL     1     -33.578   7.583   5.831  1.00 20.00    -0.095 Br
ENDBRANCH   4   6
TORSDOF 1
ENDMDL
MODEL 5
REMARK VINA RESULT:      -3.2      2.760      3.239
REMARK  1 active torsions:
REMARK  status: ('A' for Active; 'I' for Inactive)
REMARK    1  A    between atoms: C4_4  and  C5_5 
ROOT
HETATM    1  C1  UNL     1     -33.064   7.501   5.098  1.00 20.00     0.011 C 
HETATM    2  C2  UNL     1     -34.244   7.115   4.218  1.00 20.00     0.016 C 
HETATM    3  C3  UNL     1     -32.129   8.327   4.231  1.00 20.00     0.074 C 
HETATM    4  C4  UNL     1     -33.681   6.554   2.915  1.00 20.00     0.057 C 
HETATM    5  S6  UNL     1     -32.189   7.552   2.592  1.00 20.00    -0.164 SA
ENDROOT
BRANCH   4   6
HETATM    6  C5  UNL     1     -33.307   5.079   3.015  1.00 20.00     0.100 C 
HETATM    7 BR7  UNL     1     -34.329   4.241   4.438  1.00 20.00    -0.095 Br
ENDBRANCH   4   6
TORSDOF 1
ENDMDL
MODEL 6
REMARK VINA RESULT:      -3.1      2.088      2.844
REMARK  1 active torsions:
REMARK  status: ('A' for Active; 'I' for Inactive)
REMARK    1  A    between atoms: C4_4  and  C5_5 
ROOT
HETATM    1  C1  UNL     1     -33.470   6.756   6.006  1.00 20.00     0.011 C 
HETATM    2  C2  UNL     1     -34.797   6.032   5.837  1.00 20.00     0.016 C 
HETATM    3  C3  UNL     1     -33.366   7.745   4.859  1.00 20.00     0.074 C 
HETATM    4  C4  UNL     1     -34.883   5.564   4.386  1.00 20.00     0.057 C 
HETATM    5  S6  UNL     1     -34.083   6.893   3.427  1.00 20.00    -0.164 SA
ENDROOT
BRANCH   4   6
HETATM    6  C5  UNL     1     -34.162   4.243   4.144  1.00 20.00     0.100 C 
HETATM    7 BR7  UNL     1     -32.960   4.421   2.630  1.00 20.00    -0.095 Br
ENDBRANCH   4   6
TORSDOF 1
ENDMDL
MODEL 7
REMARK VINA RESULT:      -3.0     12.335     12.867
REMARK  1 active torsions:
REMARK  status: ('A' for Active; 'I' for Inactive)
REMARK    1  A    between atoms: C4_4  and  C5_5 
ROOT
HETATM    1  C1  UNL     1     -33.193  14.902  -4.348  1.00 20.00     0.011 C 
HETATM    2  C2  UNL     1     -34.608  15.012  -3.799  1.00 20.00     0.016 C 
HETATM    3  C3  UNL     1     -33.098  15.884  -5.502  1.00 20.00     0.074 C 
HETATM    4  C4  UNL     1     -35.567  14.925  -4.984  1.00 20.00     0.057 C 
HETATM    5  S6  UNL     1     -34.709  15.799  -6.334  1.00 20.00    -0.164 SA
ENDROOT
BRANCH   4   6
HETATM    6  C5  UNL     1     -35.869  13.491  -5.401  1.00 20.00     0.100 C 
HETATM    7 BR7  UNL     1     -35.207  13.181  -7.201  1.00 20.00    -0.095 Br
ENDBRANCH   4   6
TORSDOF 1
ENDMDL
MODEL 8
REMARK VINA RESULT:      -3.0     12.100     12.794
REMARK  1 active torsions:
REMARK  status: ('A' for Active; 'I' for Inactive)
REMARK    1  A    between atoms: C4_4  and  C5_5 
ROOT
HETATM    1  C1  UNL     1     -35.079  14.121  -4.685  1.00 20.00     0.011 C 
HETATM    2  C2  UNL     1     -33.684  14.456  -4.175  1.00 20.00     0.016 C 
HETATM    3  C3  UNL     1     -34.979  14.041  -6.198  1.00 20.00     0.074 C 
HETATM    4  C4  UNL     1     -33.169  15.639  -4.992  1.00 20.00     0.057 C 
HETATM    5  S6  UNL     1     -33.822  15.356  -6.671  1.00 20.00    -0.164 SA
ENDROOT
BRANCH   4   6
HETATM    6  C5  UNL     1     -33.656  16.983  -4.464  1.00 20.00     0.100 C 
HETATM    7 BR7  UNL     1     -33.748  16.930  -2.525  1.00 20.00    -0.095 Br
ENDBRANCH   4   6
TORSDOF 1
ENDMDL
MODEL 9
REMARK VINA RESULT:      -2.9     11.765     12.577
REMARK  1 active torsions:
REMARK  status: ('A' for Active; 'I' for Inactive)
REMARK    1  A    between atoms: C4_4  and  C5_5 
ROOT
HETATM    1  C1  UNL     1     -33.096  15.745  -5.292  1.00 20.00     0.011 C 
HETATM    2  C2  UNL     1     -33.202  14.434  -4.526  1.00 20.00     0.016 C 
HETATM    3  C3  UNL     1     -33.746  16.808  -4.425  1.00 20.00     0.074 C 
HETATM    4  C4  UNL     1     -34.649  14.290  -4.062  1.00 20.00     0.057 C 
HETATM    5  S6  UNL     1     -35.172  15.989  -3.657  1.00 20.00    -0.164 SA
ENDROOT
BRANCH   4   6
HETATM    6  C5  UNL     1     -35.562  13.707  -5.134  1.00 20.00     0.100 C 
HETATM    7 BR7  UNL     1     -37.310  14.548  -5.033  1.00 20.00    -0.095 Br
ENDBRANCH   4   6
TORSDOF 1
ENDMDL
