MODEL 1
REMARK VINA RESULT:      -4.2      0.000      0.000
REMARK  1 active torsions:
REMARK  status: ('A' for Active; 'I' for Inactive)
REMARK    1  A    between atoms: C4_4  and  C5_5 
ROOT
HETATM    1  C1  UNL     1     -33.165   7.346   5.025  1.00 20.00     0.016 C 
HETATM    2  C2  UNL     1     -34.380   6.529   5.431  1.00 20.00     0.074 C 
HETATM    3  C3  UNL     1     -33.339   5.972   3.019  1.00 20.00     0.079 C 
HETATM    4  C4  UNL     1     -33.174   7.412   3.498  1.00 20.00     0.005 C 
HETATM    5  S6  UNL     1     -34.490   5.207   4.194  1.00 20.00    -0.169 SA
ENDROOT
BRANCH   4   6
HETATM    6  C5  UNL     1     -31.928   8.047   2.952  1.00 20.00     0.090 C 
HETATM    7 BR7  UNL     1     -32.386   9.144   1.421  1.00 20.00    -0.096 Br
ENDBRANCH   4   6
TORSDOF 1
ENDMDL
MODEL 2
REMARK VINA RESULT:      -3.7      1.420      2.015
REMARK  1 active torsions:
REMARK  status: ('A' for Active; 'I' for Inactive)
REMARK    1  A    between atoms: C4_4  and  C5_5 
ROOT
HETATM    1  C1  UNL     1     -33.989   5.202   3.092  1.00 20.00     0.016 C 
HETATM    2  C2  UNL     1     -34.231   4.297   4.287  1.00 20.00     0.074 C 
HETATM    3  C3  UNL     1     -33.992   6.917   4.825  1.00 20.00     0.079 C 
HETATM    4  C4  UNL     1     -33.215   6.413   3.611  1.00 20.00     0.005 C 
HETATM    5  S6  UNL     1     -34.587   5.422   5.664  1.00 20.00    -0.169 SA
ENDROOT
BRANCH   4   6
HETATM    6  C5  UNL     1     -33.058   7.476   2.563  1.00 20.00     0.090 C 
HETATM    7 BR7  UNL     1     -31.459   8.507   2.929  1.00 20.00    -0.096 Br
ENDBRANCH   4   6
TORSDOF 1
ENDMDL
MODEL 3
REMARK VINA RESULT:      -3.7      0.912      1.705
REMARK  1 active torsions:
REMARK  status: ('A' for Active; 'I' for Inactive)
REMARK    1  A    between atoms: C4_4  and  C5_5 
ROOT
HETATM    1  C1  UNL     1     -33.373   6.703   2.602  1.00 20.00     0.016 C 
HETATM    2  C2  UNL     1     -34.148   5.579   3.268  1.00 20.00     0.074 C 
HETATM    3  C3  UNL     1     -33.204   7.487   4.905  1.00 20.00     0.079 C 
HETATM    4  C4  UNL     1     -32.385   7.227   3.643  1.00 20.00     0.005 C 
HETATM    5  S6  UNL     1     -34.415   6.138   4.972  1.00 20.00    -0.169 SA
ENDROOT
BRANCH   4   6
HETATM    6  C5  UNL     1     -31.670   8.461   3.173  1.00 20.00     0.090 C 
HETATM    7 BR7  UNL     1     -32.279   8.916   1.391  1.00 20.00    -0.096 Br
ENDBRANCH   4   6
TORSDOF 1
ENDMDL
MODEL 4
REMARK VINA RESULT:      -3.6      2.896      3.756
REMARK  1 active torsions:
REMARK  status: ('A' for Active; 'I' for Inactive)
REMARK    1  A    between atoms: C4_4  and  C5_5 
ROOT
HETATM    1  C1  UNL     1     -33.441   6.320   2.918  1.00 20.00     0.016 C 
HETATM    2  C2  UNL     1     -32.651   7.371   2.158  1.00 20.00     0.074 C 
HETATM    3  C3  UNL     1     -32.756   7.679   4.824  1.00 20.00     0.079 C 
HETATM    4  C4  UNL     1     -33.964   6.999   4.184  1.00 20.00     0.005 C 
HETATM    5  S6  UNL     1     -31.777   8.317   3.435  1.00 20.00    -0.169 SA
ENDROOT
BRANCH   4   6
HETATM    6  C5  UNL     1     -34.621   6.025   5.118  1.00 20.00     0.090 C 
HETATM    7 BR7  UNL     1     -34.303   4.220   4.491  1.00 20.00    -0.096 Br
ENDBRANCH   4   6
TORSDOF 1
ENDMDL
MODEL 5
REMARK VINA RESULT:      -3.5      3.055      3.547
REMARK  1 active torsions:
REMARK  status: ('A' for Active; 'I' for Inactive)
REMARK    1  A    between atoms: C4_4  and  C5_5 
ROOT
HETATM    1  C1  UNL     1     -32.985   7.539   4.431  1.00 20.00     0.016 C 
HETATM    2  C2  UNL     1     -31.724   8.196   3.898  1.00 20.00     0.074 C 
HETATM    3  C3  UNL     1     -33.423   7.240   2.052  1.00 20.00     0.079 C 
HETATM    4  C4  UNL     1     -33.412   6.505   3.390  1.00 20.00     0.005 C 
HETATM    5  S6  UNL     1     -32.001   8.365   2.114  1.00 20.00    -0.169 SA
ENDROOT
BRANCH   4   6
HETATM    6  C5  UNL     1     -34.748   5.899   3.709  1.00 20.00     0.090 C 
HETATM    7 BR7  UNL     1     -34.642   4.972   5.408  1.00 20.00    -0.096 Br
ENDBRANCH   4   6
TORSDOF 1
ENDMDL
MODEL 6
REMARK VINA RESULT:      -2.9     11.380     12.035
REMARK  1 active torsions:
REMARK  status: ('A' for Active; 'I' for Inactive)
REMARK    1  A    between atoms: C4_4  and  C5_5 
ROOT
HETATM    1  C1  UNL     1     -34.954  14.137  -4.482  1.00 20.00     0.016 C 
HETATM    2  C2  UNL     1     -35.965  13.387  -5.332  1.00 20.00     0.074 C 
HETATM    3  C3  UNL     1     -34.073  14.741  -6.674  1.00 20.00     0.079 C 
HETATM    4  C4  UNL     1     -34.472  15.321  -5.319  1.00 20.00     0.005 C 
HETATM    5  S6  UNL     1     -35.297  13.446  -7.017  1.00 20.00    -0.169 SA
ENDROOT
BRANCH   4   6
HETATM    6  C5  UNL     1     -33.337  16.053  -4.665  1.00 20.00     0.090 C 
HETATM    7 BR7  UNL     1     -33.884  16.639  -2.900  1.00 20.00    -0.096 Br
ENDBRANCH   4   6
TORSDOF 1
ENDMDL
MODEL 7
REMARK VINA RESULT:      -2.9     11.451     12.109
REMARK  1 active torsions:
REMARK  status: ('A' for Active; 'I' for Inactive)
REMARK    1  A    between atoms: C4_4  and  C5_5 
ROOT
HETATM    1  C1  UNL     1     -33.575  16.760  -4.681  1.00 20.00     0.016 C 
HETATM    2  C2  UNL     1     -33.153  15.855  -5.824  1.00 20.00     0.074 C 
HETATM    3  C3  UNL     1     -34.891  14.801  -4.070  1.00 20.00     0.079 C 
HETATM    4  C4  UNL     1     -33.930  15.846  -3.509  1.00 20.00     0.005 C 
HETATM    5  S6  UNL     1     -34.275  14.433  -5.736  1.00 20.00    -0.169 SA
ENDROOT
BRANCH   4   6
HETATM    6  C5  UNL     1     -34.532  16.605  -2.362  1.00 20.00     0.090 C 
HETATM    7 BR7  UNL     1     -33.201  17.797  -1.612  1.00 20.00    -0.096 Br
ENDBRANCH   4   6
TORSDOF 1
ENDMDL
MODEL 8
REMARK VINA RESULT:      -2.9     11.395     11.687
REMARK  1 active torsions:
REMARK  status: ('A' for Active; 'I' for Inactive)
REMARK    1  A    between atoms: C4_4  and  C5_5 
ROOT
HETATM    1  C1  UNL     1     -34.632  14.300  -5.085  1.00 20.00     0.016 C 
HETATM    2  C2  UNL     1     -35.910  13.518  -5.333  1.00 20.00     0.074 C 
HETATM    3  C3  UNL     1     -36.187  15.835  -4.003  1.00 20.00     0.079 C 
HETATM    4  C4  UNL     1     -34.856  15.111  -3.810  1.00 20.00     0.005 C 
HETATM    5  S6  UNL     1     -37.250  14.652  -4.877  1.00 20.00    -0.169 SA
ENDROOT
BRANCH   4   6
HETATM    6  C5  UNL     1     -33.730  16.067  -3.541  1.00 20.00     0.090 C 
HETATM    7 BR7  UNL     1     -34.117  17.078  -1.934  1.00 20.00    -0.096 Br
ENDBRANCH   4   6
TORSDOF 1
ENDMDL
MODEL 9
REMARK VINA RESULT:      -2.9     11.390     11.698
REMARK  1 active torsions:
REMARK  status: ('A' for Active; 'I' for Inactive)
REMARK    1  A    between atoms: C4_4  and  C5_5 
ROOT
HETATM    1  C1  UNL     1     -35.370  16.868  -1.880  1.00 20.00     0.016 C 
HETATM    2  C2  UNL     1     -35.315  17.278  -0.419  1.00 20.00     0.074 C 
HETATM    3  C3  UNL     1     -33.164  17.907  -1.899  1.00 20.00     0.079 C 
HETATM    4  C4  UNL     1     -33.924  16.654  -2.328  1.00 20.00     0.005 C 
HETATM    5  S6  UNL     1     -33.868  18.364  -0.290  1.00 20.00    -0.169 SA
ENDROOT
BRANCH   4   6
HETATM    6  C5  UNL     1     -33.820  16.412  -3.805  1.00 20.00     0.090 C 
HETATM    7 BR7  UNL     1     -34.305  14.576  -4.190  1.00 20.00    -0.096 Br
ENDBRANCH   4   6
TORSDOF 1
ENDMDL
