MODEL 1
REMARK VINA RESULT:      -5.4      0.000      0.000
REMARK  4 active torsions:
REMARK  status: ('A' for Active; 'I' for Inactive)
REMARK    1  A    between atoms: C1_1  and  C3_3 
REMARK    2  A    between atoms: C1_1  and  C7_7 
REMARK    3  A    between atoms: C7_7  and  C8_8 
REMARK    4  A    between atoms: C8_8  and  S10_10 
ROOT
HETATM    1  C1  UNL     1     -33.601   6.003   3.090  1.00 20.00     0.132 C 
HETATM    2  O9  UNL     1     -32.795   5.167   2.680  1.00 20.00    -0.298 OA
ENDROOT
BRANCH   1   3
HETATM    3  C3  UNL     1     -34.719   5.617   4.023  1.00 20.00     0.059 A 
HETATM    4  C2  UNL     1     -34.403   4.704   5.156  1.00 20.00     0.017 A 
HETATM    5  C4  UNL     1     -34.734   6.147   5.415  1.00 20.00    -0.007 A 
HETATM    6  C5  UNL     1     -33.691   7.065   5.956  1.00 20.00     0.011 C 
ENDBRANCH   1   3
BRANCH   1   7
HETATM    7  C7  UNL     1     -33.512   7.456   2.663  1.00 20.00     0.088 C 
BRANCH   7   8
HETATM    8  C8  UNL     1     -32.088   7.994   2.627  1.00 20.00     0.081 C 
BRANCH   8   9
HETATM    9  S10 UNL     1     -31.687   8.758   1.026  1.00 20.00    -0.173 SA
HETATM   10  C6  UNL     1     -32.776  10.194   1.144  1.00 20.00     0.089 C 
ENDBRANCH   8   9
ENDBRANCH   7   8
ENDBRANCH   1   7
TORSDOF 4
ENDMDL
MODEL 2
REMARK VINA RESULT:      -5.2      1.614      1.954
REMARK  4 active torsions:
REMARK  status: ('A' for Active; 'I' for Inactive)
REMARK    1  A    between atoms: C1_1  and  C3_3 
REMARK    2  A    between atoms: C1_1  and  C7_7 
REMARK    3  A    between atoms: C7_7  and  C8_8 
REMARK    4  A    between atoms: C8_8  and  S10_10 
ROOT
HETATM    1  C1  UNL     1     -33.096   7.366   4.163  1.00 20.00     0.132 C 
HETATM    2  O9  UNL     1     -33.218   7.562   5.373  1.00 20.00    -0.298 OA
ENDROOT
BRANCH   1   3
HETATM    3  C3  UNL     1     -34.064   6.488   3.414  1.00 20.00     0.059 A 
HETATM    4  C2  UNL     1     -33.671   5.075   3.155  1.00 20.00     0.017 A 
HETATM    5  C4  UNL     1     -34.770   5.389   4.131  1.00 20.00    -0.007 A 
HETATM    6  C5  UNL     1     -34.582   5.102   5.582  1.00 20.00     0.011 C 
ENDBRANCH   1   3
BRANCH   1   7
HETATM    7  C7  UNL     1     -31.958   7.988   3.375  1.00 20.00     0.088 C 
BRANCH   7   8
HETATM    8  C8  UNL     1     -32.231   8.075   1.879  1.00 20.00     0.081 C 
BRANCH   8   9
HETATM    9  S10 UNL     1     -32.499   9.788   1.331  1.00 20.00    -0.173 SA
HETATM   10  C6  UNL     1     -33.065   9.438  -0.348  1.00 20.00     0.089 C 
ENDBRANCH   8   9
ENDBRANCH   7   8
ENDBRANCH   1   7
TORSDOF 4
ENDMDL
MODEL 3
REMARK VINA RESULT:      -5.0      2.261      4.880
REMARK  4 active torsions:
REMARK  status: ('A' for Active; 'I' for Inactive)
REMARK    1  A    between atoms: C1_1  and  C3_3 
REMARK    2  A    between atoms: C1_1  and  C7_7 
REMARK    3  A    between atoms: C7_7  and  C8_8 
REMARK    4  A    between atoms: C8_8  and  S10_10 
ROOT
HETATM    1  C1  UNL     1     -32.130   8.103   2.339  1.00 20.00     0.132 C 
HETATM    2  O9  UNL     1     -31.398   8.228   3.321  1.00 20.00    -0.298 OA
ENDROOT
BRANCH   1   3
HETATM    3  C3  UNL     1     -31.780   8.738   1.018  1.00 20.00     0.059 A 
HETATM    4  C2  UNL     1     -32.886   9.011   0.058  1.00 20.00     0.017 A 
HETATM    5  C4  UNL     1     -32.183  10.147   0.749  1.00 20.00    -0.007 A 
HETATM    6  C5  UNL     1     -32.920  10.993   1.730  1.00 20.00     0.011 C 
ENDBRANCH   1   3
BRANCH   1   7
HETATM    7  C7  UNL     1     -33.425   7.314   2.418  1.00 20.00     0.088 C 
BRANCH   7   8
HETATM    8  C8  UNL     1     -33.284   5.987   3.151  1.00 20.00     0.081 C 
BRANCH   8   9
HETATM    9  S10 UNL     1     -34.581   5.760   4.406  1.00 20.00    -0.173 SA
HETATM   10  C6  UNL     1     -33.960   6.930   5.634  1.00 20.00     0.089 C 
ENDBRANCH   8   9
ENDBRANCH   7   8
ENDBRANCH   1   7
TORSDOF 4
ENDMDL
MODEL 4
REMARK VINA RESULT:      -4.4      2.328      5.232
REMARK  4 active torsions:
REMARK  status: ('A' for Active; 'I' for Inactive)
REMARK    1  A    between atoms: C1_1  and  C3_3 
REMARK    2  A    between atoms: C1_1  and  C7_7 
REMARK    3  A    between atoms: C7_7  and  C8_8 
REMARK    4  A    between atoms: C8_8  and  S10_10 
ROOT
HETATM    1  C1  UNL     1     -32.280   8.339   2.308  1.00 20.00     0.132 C 
HETATM    2  O9  UNL     1     -31.072   8.470   2.509  1.00 20.00    -0.298 OA
ENDROOT
BRANCH   1   3
HETATM    3  C3  UNL     1     -33.109   9.475   1.768  1.00 20.00     0.059 A 
HETATM    4  C2  UNL     1     -32.400  10.616   1.125  1.00 20.00     0.017 A 
HETATM    5  C4  UNL     1     -33.222   9.670   0.296  1.00 20.00    -0.007 A 
HETATM    6  C5  UNL     1     -32.559   8.785  -0.703  1.00 20.00     0.011 C 
ENDBRANCH   1   3
BRANCH   1   7
HETATM    7  C7  UNL     1     -32.991   7.033   2.610  1.00 20.00     0.088 C 
BRANCH   7   8
HETATM    8  C8  UNL     1     -33.690   7.020   3.963  1.00 20.00     0.081 C 
BRANCH   8   9
HETATM    9  S10 UNL     1     -35.016   5.777   4.035  1.00 20.00    -0.173 SA
HETATM   10  C6  UNL     1     -34.537   4.977   5.582  1.00 20.00     0.089 C 
ENDBRANCH   8   9
ENDBRANCH   7   8
ENDBRANCH   1   7
TORSDOF 4
ENDMDL
MODEL 5
REMARK VINA RESULT:      -4.2      2.337      4.842
REMARK  4 active torsions:
REMARK  status: ('A' for Active; 'I' for Inactive)
REMARK    1  A    between atoms: C1_1  and  C3_3 
REMARK    2  A    between atoms: C1_1  and  C7_7 
REMARK    3  A    between atoms: C7_7  and  C8_8 
REMARK    4  A    between atoms: C8_8  and  S10_10 
ROOT
HETATM    1  C1  UNL     1     -32.742   7.463   2.762  1.00 20.00     0.132 C 
HETATM    2  O9  UNL     1     -33.333   6.719   1.979  1.00 20.00    -0.298 OA
ENDROOT
BRANCH   1   3
HETATM    3  C3  UNL     1     -31.711   8.448   2.276  1.00 20.00     0.059 A 
HETATM    4  C2  UNL     1     -31.476   8.548   0.808  1.00 20.00     0.017 A 
HETATM    5  C4  UNL     1     -32.147   9.672   1.548  1.00 20.00    -0.007 A 
HETATM    6  C5  UNL     1     -33.575   9.999   1.271  1.00 20.00     0.011 C 
ENDBRANCH   1   3
BRANCH   1   7
HETATM    7  C7  UNL     1     -33.015   7.411   4.254  1.00 20.00     0.088 C 
BRANCH   7   8
HETATM    8  C8  UNL     1     -34.430   6.966   4.599  1.00 20.00     0.081 C 
BRANCH   8   9
HETATM    9  S10 UNL     1     -34.442   5.494   5.667  1.00 20.00    -0.173 SA
HETATM   10  C6  UNL     1     -34.320   4.237   4.375  1.00 20.00     0.089 C 
ENDBRANCH   8   9
ENDBRANCH   7   8
ENDBRANCH   1   7
TORSDOF 4
ENDMDL
MODEL 6
REMARK VINA RESULT:      -3.9     10.945     11.801
REMARK  4 active torsions:
REMARK  status: ('A' for Active; 'I' for Inactive)
REMARK    1  A    between atoms: C1_1  and  C3_3 
REMARK    2  A    between atoms: C1_1  and  C7_7 
REMARK    3  A    between atoms: C7_7  and  C8_8 
REMARK    4  A    between atoms: C8_8  and  S10_10 
ROOT
HETATM    1  C1  UNL     1     -34.629  14.169  -4.308  1.00 20.00     0.132 C 
HETATM    2  O9  UNL     1     -33.536  13.622  -4.158  1.00 20.00    -0.298 OA
ENDROOT
BRANCH   1   3
HETATM    3  C3  UNL     1     -35.731  13.509  -5.095  1.00 20.00     0.059 A 
HETATM    4  C2  UNL     1     -36.564  14.363  -5.986  1.00 20.00     0.017 A 
HETATM    5  C4  UNL     1     -35.600  13.370  -6.573  1.00 20.00    -0.007 A 
HETATM    6  C5  UNL     1     -34.415  13.847  -7.341  1.00 20.00     0.011 C 
ENDBRANCH   1   3
BRANCH   1   7
HETATM    7  C7  UNL     1     -34.911  15.540  -3.720  1.00 20.00     0.088 C 
BRANCH   7   8
HETATM    8  C8  UNL     1     -33.663  16.394  -3.543  1.00 20.00     0.081 C 
BRANCH   8   9
HETATM    9  S10 UNL     1     -33.676  17.304  -1.968  1.00 20.00    -0.173 SA
HETATM   10  C6  UNL     1     -35.345  16.870  -1.431  1.00 20.00     0.089 C 
ENDBRANCH   8   9
ENDBRANCH   7   8
ENDBRANCH   1   7
TORSDOF 4
ENDMDL
MODEL 7
REMARK VINA RESULT:      -3.8     11.251     12.121
REMARK  4 active torsions:
REMARK  status: ('A' for Active; 'I' for Inactive)
REMARK    1  A    between atoms: C1_1  and  C3_3 
REMARK    2  A    between atoms: C1_1  and  C7_7 
REMARK    3  A    between atoms: C7_7  and  C8_8 
REMARK    4  A    between atoms: C8_8  and  S10_10 
ROOT
HETATM    1  C1  UNL     1     -34.785  15.605  -4.107  1.00 20.00     0.132 C 
HETATM    2  O9  UNL     1     -35.674  16.280  -4.626  1.00 20.00    -0.298 OA
ENDROOT
BRANCH   1   3
HETATM    3  C3  UNL     1     -33.687  16.248  -3.299  1.00 20.00     0.059 A 
HETATM    4  C2  UNL     1     -33.685  17.732  -3.178  1.00 20.00     0.017 A 
HETATM    5  C4  UNL     1     -34.008  16.874  -1.986  1.00 20.00    -0.007 A 
HETATM    6  C5  UNL     1     -35.379  16.898  -1.401  1.00 20.00     0.011 C 
ENDBRANCH   1   3
BRANCH   1   7
HETATM    7  C7  UNL     1     -34.745  14.096  -4.270  1.00 20.00     0.088 C 
BRANCH   7   8
HETATM    8  C8  UNL     1     -35.826  13.557  -5.197  1.00 20.00     0.081 C 
BRANCH   8   9
HETATM    9  S10 UNL     1     -35.239  13.402  -6.912  1.00 20.00    -0.173 SA
HETATM   10  C6  UNL     1     -36.504  14.415  -7.710  1.00 20.00     0.089 C 
ENDBRANCH   8   9
ENDBRANCH   7   8
ENDBRANCH   1   7
TORSDOF 4
ENDMDL
MODEL 8
REMARK VINA RESULT:      -3.7     11.208     12.302
REMARK  4 active torsions:
REMARK  status: ('A' for Active; 'I' for Inactive)
REMARK    1  A    between atoms: C1_1  and  C3_3 
REMARK    2  A    between atoms: C1_1  and  C7_7 
REMARK    3  A    between atoms: C7_7  and  C8_8 
REMARK    4  A    between atoms: C8_8  and  S10_10 
ROOT
HETATM    1  C1  UNL     1     -34.692  14.189  -4.337  1.00 20.00     0.132 C 
HETATM    2  O9  UNL     1     -33.609  13.620  -4.200  1.00 20.00    -0.298 OA
ENDROOT
BRANCH   1   3
HETATM    3  C3  UNL     1     -34.944  15.543  -3.727  1.00 20.00     0.059 A 
HETATM    4  C2  UNL     1     -33.781  16.287  -3.167  1.00 20.00     0.017 A 
HETATM    5  C4  UNL     1     -34.456  16.767  -4.422  1.00 20.00    -0.007 A 
HETATM    6  C5  UNL     1     -33.723  16.738  -5.720  1.00 20.00     0.011 C 
ENDBRANCH   1   3
BRANCH   1   7
HETATM    7  C7  UNL     1     -35.826  13.546  -5.113  1.00 20.00     0.088 C 
BRANCH   7   8
HETATM    8  C8  UNL     1     -37.124  14.342  -5.065  1.00 20.00     0.081 C 
BRANCH   8   9
HETATM    9  S10 UNL     1     -37.446  15.219  -6.626  1.00 20.00    -0.173 SA
HETATM   10  C6  UNL     1     -36.368  14.243  -7.697  1.00 20.00     0.089 C 
ENDBRANCH   8   9
ENDBRANCH   7   8
ENDBRANCH   1   7
TORSDOF 4
ENDMDL
MODEL 9
REMARK VINA RESULT:      -3.7     11.552     12.340
REMARK  4 active torsions:
REMARK  status: ('A' for Active; 'I' for Inactive)
REMARK    1  A    between atoms: C1_1  and  C3_3 
REMARK    2  A    between atoms: C1_1  and  C7_7 
REMARK    3  A    between atoms: C7_7  and  C8_8 
REMARK    4  A    between atoms: C8_8  and  S10_10 
ROOT
HETATM    1  C1  UNL     1     -34.888  13.858  -5.496  1.00 20.00     0.132 C 
HETATM    2  O9  UNL     1     -35.543  12.909  -5.065  1.00 20.00    -0.298 OA
ENDROOT
BRANCH   1   3
HETATM    3  C3  UNL     1     -33.725  14.419  -4.720  1.00 20.00     0.059 A 
HETATM    4  C2  UNL     1     -33.304  15.820  -5.003  1.00 20.00     0.017 A 
HETATM    5  C4  UNL     1     -33.962  15.476  -3.696  1.00 20.00    -0.007 A 
HETATM    6  C5  UNL     1     -35.312  16.020  -3.375  1.00 20.00     0.011 C 
ENDBRANCH   1   3
BRANCH   1   7
HETATM    7  C7  UNL     1     -35.231  14.515  -6.820  1.00 20.00     0.088 C 
BRANCH   7   8
HETATM    8  C8  UNL     1     -36.708  14.421  -7.181  1.00 20.00     0.081 C 
BRANCH   8   9
HETATM    9  S10 UNL     1     -37.691  15.726  -6.382  1.00 20.00    -0.173 SA
HETATM   10  C6  UNL     1     -38.564  14.696  -5.182  1.00 20.00     0.089 C 
ENDBRANCH   8   9
ENDBRANCH   7   8
ENDBRANCH   1   7
TORSDOF 4
ENDMDL
