MODEL 1
REMARK VINA RESULT:      -4.2      0.000      0.000
REMARK  0 active torsions:
REMARK  status: ('A' for Active; 'I' for Inactive)
ROOT
HETATM    1  C1  UNL     1     -36.968  14.171  -5.242  1.00 20.00     0.087 C 
HETATM    2  C2  UNL     1     -33.227  14.530  -4.520  1.00 20.00     0.029 C 
HETATM    3  C3  UNL     1     -34.681  14.117  -4.304  1.00 20.00     0.045 C 
HETATM    4  C4  UNL     1     -33.150  15.932  -5.108  1.00 20.00     0.167 C 
HETATM    5  C5  UNL     1     -35.295  15.767  -6.109  1.00 20.00     0.208 C 
HETATM    6  C6  UNL     1     -35.543  14.362  -5.551  1.00 20.00     0.146 C 
HETATM    7  N7  UNL     1     -38.093  14.020  -4.998  1.00 20.00    -0.195 NA
HETATM    8  O8  UNL     1     -33.902  16.015  -6.317  1.00 20.00    -0.388 OA
HETATM    9 CL9  UNL     1     -35.137  13.147  -6.815  1.00 20.00    -0.101 Cl
ENDROOT
TORSDOF 0
ENDMDL
MODEL 2
REMARK VINA RESULT:      -4.1      2.047      2.242
REMARK  0 active torsions:
REMARK  status: ('A' for Active; 'I' for Inactive)
ROOT
HETATM    1  C1  UNL     1     -35.189  13.785  -4.936  1.00 20.00     0.087 C 
HETATM    2  C2  UNL     1     -33.922  16.846  -3.019  1.00 20.00     0.029 C 
HETATM    3  C3  UNL     1     -34.740  15.588  -3.305  1.00 20.00     0.045 C 
HETATM    4  C4  UNL     1     -33.794  17.699  -4.273  1.00 20.00     0.167 C 
HETATM    5  C5  UNL     1     -34.057  15.836  -5.719  1.00 20.00     0.208 C 
HETATM    6  C6  UNL     1     -34.250  14.852  -4.560  1.00 20.00     0.146 C 
HETATM    7  N7  UNL     1     -35.931  12.943  -5.233  1.00 20.00    -0.195 NA
HETATM    8  O8  UNL     1     -33.233  16.942  -5.343  1.00 20.00    -0.388 OA
HETATM    9 CL9  UNL     1     -32.682  14.041  -4.212  1.00 20.00    -0.101 Cl
ENDROOT
TORSDOF 0
ENDMDL
MODEL 3
REMARK VINA RESULT:      -4.1     12.426     13.255
REMARK  0 active torsions:
REMARK  status: ('A' for Active; 'I' for Inactive)
ROOT
HETATM    1  C1  UNL     1     -32.909   7.190   2.776  1.00 20.00     0.087 C 
HETATM    2  C2  UNL     1     -34.745   5.708   5.790  1.00 20.00     0.029 C 
HETATM    3  C3  UNL     1     -33.958   6.726   4.967  1.00 20.00     0.045 C 
HETATM    4  C4  UNL     1     -34.234   4.298   5.531  1.00 20.00     0.167 C 
HETATM    5  C5  UNL     1     -33.438   4.850   3.364  1.00 20.00     0.208 C 
HETATM    6  C6  UNL     1     -33.855   6.319   3.490  1.00 20.00     0.146 C 
HETATM    7  N7  UNL     1     -32.162   7.877   2.213  1.00 20.00    -0.195 NA
HETATM    8  O8  UNL     1     -34.281   3.993   4.138  1.00 20.00    -0.388 OA
HETATM    9 CL9  UNL     1     -35.450   6.547   2.687  1.00 20.00    -0.101 Cl
ENDROOT
TORSDOF 0
ENDMDL
MODEL 4
REMARK VINA RESULT:      -4.0      2.381      2.977
REMARK  0 active torsions:
REMARK  status: ('A' for Active; 'I' for Inactive)
ROOT
HETATM    1  C1  UNL     1     -35.834  15.610  -4.119  1.00 20.00     0.087 C 
HETATM    2  C2  UNL     1     -34.270  14.390  -7.392  1.00 20.00     0.029 C 
HETATM    3  C3  UNL     1     -34.804  15.375  -6.355  1.00 20.00     0.045 C 
HETATM    4  C4  UNL     1     -35.162  13.160  -7.473  1.00 20.00     0.167 C 
HETATM    5  C5  UNL     1     -35.924  13.410  -5.239  1.00 20.00     0.208 C 
HETATM    6  C6  UNL     1     -35.115  14.692  -5.015  1.00 20.00     0.146 C 
HETATM    7  N7  UNL     1     -36.403  16.334  -3.412  1.00 20.00    -0.195 NA
HETATM    8  O8  UNL     1     -35.296  12.548  -6.192  1.00 20.00    -0.388 OA
HETATM    9 CL9  UNL     1     -33.577  14.276  -4.177  1.00 20.00    -0.101 Cl
ENDROOT
TORSDOF 0
ENDMDL
MODEL 5
REMARK VINA RESULT:      -3.9      2.658      2.804
REMARK  0 active torsions:
REMARK  status: ('A' for Active; 'I' for Inactive)
ROOT
HETATM    1  C1  UNL     1     -35.695  13.849  -5.020  1.00 20.00     0.087 C 
HETATM    2  C2  UNL     1     -34.181  16.579  -2.805  1.00 20.00     0.029 C 
HETATM    3  C3  UNL     1     -34.290  15.244  -3.538  1.00 20.00     0.045 C 
HETATM    4  C4  UNL     1     -35.523  16.972  -2.205  1.00 20.00     0.167 C 
HETATM    5  C5  UNL     1     -36.748  15.731  -3.814  1.00 20.00     0.208 C 
HETATM    6  C6  UNL     1     -35.483  15.210  -4.504  1.00 20.00     0.146 C 
HETATM    7  N7  UNL     1     -35.863  12.775  -5.426  1.00 20.00    -0.195 NA
HETATM    8  O8  UNL     1     -36.534  17.009  -3.211  1.00 20.00    -0.388 OA
HETATM    9 CL9  UNL     1     -35.129  16.240  -5.938  1.00 20.00    -0.101 Cl
ENDROOT
TORSDOF 0
ENDMDL
MODEL 6
REMARK VINA RESULT:      -3.8      1.983      2.414
REMARK  0 active torsions:
REMARK  status: ('A' for Active; 'I' for Inactive)
ROOT
HETATM    1  C1  UNL     1     -37.011  14.570  -4.781  1.00 20.00     0.087 C 
HETATM    2  C2  UNL     1     -33.946  16.713  -5.593  1.00 20.00     0.029 C 
HETATM    3  C3  UNL     1     -35.370  16.173  -5.704  1.00 20.00     0.045 C 
HETATM    4  C4  UNL     1     -32.963  15.583  -5.320  1.00 20.00     0.167 C 
HETATM    5  C5  UNL     1     -34.615  14.227  -4.289  1.00 20.00     0.208 C 
HETATM    6  C6  UNL     1     -35.731  15.249  -4.532  1.00 20.00     0.146 C 
HETATM    7  N7  UNL     1     -38.022  14.034  -4.979  1.00 20.00    -0.195 NA
HETATM    8  O8  UNL     1     -33.340  14.859  -4.151  1.00 20.00    -0.388 OA
HETATM    9 CL9  UNL     1     -35.964  16.229  -3.040  1.00 20.00    -0.101 Cl
ENDROOT
TORSDOF 0
ENDMDL
MODEL 7
REMARK VINA RESULT:      -3.7      2.133      2.245
REMARK  0 active torsions:
REMARK  status: ('A' for Active; 'I' for Inactive)
ROOT
HETATM    1  C1  UNL     1     -35.426  13.901  -5.136  1.00 20.00     0.087 C 
HETATM    2  C2  UNL     1     -33.814  16.783  -3.200  1.00 20.00     0.029 C 
HETATM    3  C3  UNL     1     -34.227  15.350  -3.530  1.00 20.00     0.045 C 
HETATM    4  C4  UNL     1     -34.945  17.752  -3.511  1.00 20.00     0.167 C 
HETATM    5  C5  UNL     1     -35.880  16.329  -5.163  1.00 20.00     0.208 C 
HETATM    6  C6  UNL     1     -34.834  15.232  -4.935  1.00 20.00     0.146 C 
HETATM    7  N7  UNL     1     -35.894  12.851  -5.293  1.00 20.00    -0.195 NA
HETATM    8  O8  UNL     1     -35.358  17.627  -4.870  1.00 20.00    -0.388 OA
HETATM    9 CL9  UNL     1     -33.535  15.395  -6.171  1.00 20.00    -0.101 Cl
ENDROOT
TORSDOF 0
ENDMDL
MODEL 8
REMARK VINA RESULT:      -3.5      2.896      3.686
REMARK  0 active torsions:
REMARK  status: ('A' for Active; 'I' for Inactive)
ROOT
HETATM    1  C1  UNL     1     -34.074  16.427  -2.909  1.00 20.00     0.087 C 
HETATM    2  C2  UNL     1     -36.703  14.714  -5.100  1.00 20.00     0.029 C 
HETATM    3  C3  UNL     1     -36.136  15.613  -4.004  1.00 20.00     0.045 C 
HETATM    4  C4  UNL     1     -35.929  13.405  -5.173  1.00 20.00     0.167 C 
HETATM    5  C5  UNL     1     -33.957  14.375  -4.278  1.00 20.00     0.208 C 
HETATM    6  C6  UNL     1     -34.610  15.750  -4.099  1.00 20.00     0.146 C 
HETATM    7  N7  UNL     1     -33.651  16.962  -1.969  1.00 20.00    -0.195 NA
HETATM    8  O8  UNL     1     -34.538  13.651  -5.366  1.00 20.00    -0.388 OA
HETATM    9 CL9  UNL     1     -34.182  16.790  -5.504  1.00 20.00    -0.101 Cl
ENDROOT
TORSDOF 0
ENDMDL
MODEL 9
REMARK VINA RESULT:      -3.5      2.532      3.714
REMARK  0 active torsions:
REMARK  status: ('A' for Active; 'I' for Inactive)
ROOT
HETATM    1  C1  UNL     1     -33.685  15.192  -5.687  1.00 20.00     0.087 C 
HETATM    2  C2  UNL     1     -37.350  15.111  -6.787  1.00 20.00     0.029 C 
HETATM    3  C3  UNL     1     -35.931  15.649  -6.616  1.00 20.00     0.045 C 
HETATM    4  C4  UNL     1     -37.816  14.414  -5.517  1.00 20.00     0.167 C 
HETATM    5  C5  UNL     1     -35.603  13.883  -4.845  1.00 20.00     0.208 C 
HETATM    6  C6  UNL     1     -34.975  14.588  -6.053  1.00 20.00     0.146 C 
HETATM    7  N7  UNL     1     -32.667  15.670  -5.399  1.00 20.00    -0.195 NA
HETATM    8  O8  UNL     1     -36.907  13.380  -5.146  1.00 20.00    -0.388 OA
HETATM    9 CL9  UNL     1     -34.613  13.365  -7.323  1.00 20.00    -0.101 Cl
ENDROOT
TORSDOF 0
ENDMDL
