MODEL 1
REMARK VINA RESULT:      -4.3      0.000      0.000
REMARK  1 active torsions:
REMARK  status: ('A' for Active; 'I' for Inactive)
REMARK    1  A    between atoms: C1_1  and  C5_5 
ROOT
HETATM    1  C2  UNL     1     -33.492   7.098   5.134  1.00 20.00     0.022 C 
HETATM    2  C3  UNL     1     -34.491   6.144   5.767  1.00 20.00     0.075 C 
HETATM    3  C4  UNL     1     -33.737   5.558   3.256  1.00 20.00     0.085 C 
HETATM    4  C5  UNL     1     -33.727   7.034   3.630  1.00 20.00     0.057 C 
HETATM    5  S7  UNL     1     -34.554   4.722   4.644  1.00 20.00    -0.168 SA
ENDROOT
BRANCH   4   6
HETATM    6  C1  UNL     1     -32.646   7.751   2.886  1.00 20.00     0.236 C 
HETATM    7  O6  UNL     1     -31.612   8.148   3.413  1.00 20.00    -0.306 OA
ENDBRANCH   4   6
TORSDOF 1
ENDMDL
MODEL 2
REMARK VINA RESULT:      -3.9      1.033      1.725
REMARK  1 active torsions:
REMARK  status: ('A' for Active; 'I' for Inactive)
REMARK    1  A    between atoms: C1_1  and  C5_5 
ROOT
HETATM    1  C2  UNL     1     -34.026   5.788   2.979  1.00 20.00     0.022 C 
HETATM    2  C3  UNL     1     -34.383   4.840   4.110  1.00 20.00     0.075 C 
HETATM    3  C4  UNL     1     -33.604   7.303   4.846  1.00 20.00     0.085 C 
HETATM    4  C5  UNL     1     -33.013   6.775   3.546  1.00 20.00     0.057 C 
HETATM    5  S7  UNL     1     -34.458   5.884   5.590  1.00 20.00    -0.168 SA
ENDROOT
BRANCH   4   6
HETATM    6  C1  UNL     1     -32.767   7.901   2.594  1.00 20.00     0.236 C 
HETATM    7  O6  UNL     1     -31.651   8.346   2.346  1.00 20.00    -0.306 OA
ENDBRANCH   4   6
TORSDOF 1
ENDMDL
MODEL 3
REMARK VINA RESULT:      -3.8      2.622      3.533
REMARK  1 active torsions:
REMARK  status: ('A' for Active; 'I' for Inactive)
REMARK    1  A    between atoms: C1_1  and  C5_5 
ROOT
HETATM    1  C2  UNL     1     -33.372   5.929   2.900  1.00 20.00     0.022 C 
HETATM    2  C3  UNL     1     -32.666   7.209   2.487  1.00 20.00     0.075 C 
HETATM    3  C4  UNL     1     -33.487   7.094   5.042  1.00 20.00     0.085 C 
HETATM    4  C5  UNL     1     -34.314   6.304   4.038  1.00 20.00     0.057 C 
HETATM    5  S7  UNL     1     -32.346   8.088   4.040  1.00 20.00    -0.168 SA
ENDROOT
BRANCH   4   6
HETATM    6  C1  UNL     1     -34.888   5.084   4.684  1.00 20.00     0.236 C 
HETATM    7  O6  UNL     1     -34.530   3.942   4.412  1.00 20.00    -0.306 OA
ENDBRANCH   4   6
TORSDOF 1
ENDMDL
MODEL 4
REMARK VINA RESULT:      -3.4      2.795      3.243
REMARK  1 active torsions:
REMARK  status: ('A' for Active; 'I' for Inactive)
REMARK    1  A    between atoms: C1_1  and  C5_5 
ROOT
HETATM    1  C2  UNL     1     -33.509   7.305   4.931  1.00 20.00     0.022 C 
HETATM    2  C3  UNL     1     -32.359   8.113   4.356  1.00 20.00     0.075 C 
HETATM    3  C4  UNL     1     -33.552   6.402   2.663  1.00 20.00     0.085 C 
HETATM    4  C5  UNL     1     -33.566   6.007   4.134  1.00 20.00     0.057 C 
HETATM    5  S7  UNL     1     -32.439   7.832   2.567  1.00 20.00    -0.168 SA
ENDROOT
BRANCH   4   6
HETATM    6  C1  UNL     1     -34.807   5.235   4.452  1.00 20.00     0.236 C 
HETATM    7  O6  UNL     1     -34.841   4.011   4.524  1.00 20.00    -0.306 OA
ENDBRANCH   4   6
TORSDOF 1
ENDMDL
MODEL 5
REMARK VINA RESULT:      -3.3      1.713      2.418
REMARK  1 active torsions:
REMARK  status: ('A' for Active; 'I' for Inactive)
REMARK    1  A    between atoms: C1_1  and  C5_5 
ROOT
HETATM    1  C2  UNL     1     -34.189   4.900   5.399  1.00 20.00     0.022 C 
HETATM    2  C3  UNL     1     -34.341   4.017   4.172  1.00 20.00     0.075 C 
HETATM    3  C4  UNL     1     -33.431   6.504   3.722  1.00 20.00     0.085 C 
HETATM    4  C5  UNL     1     -34.356   6.337   4.920  1.00 20.00     0.057 C 
HETATM    5  S7  UNL     1     -33.505   4.919   2.841  1.00 20.00    -0.168 SA
ENDROOT
BRANCH   4   6
HETATM    6  C1  UNL     1     -33.992   7.308   5.997  1.00 20.00     0.236 C 
HETATM    7  O6  UNL     1     -32.928   7.918   6.025  1.00 20.00    -0.306 OA
ENDBRANCH   4   6
TORSDOF 1
ENDMDL
MODEL 6
REMARK VINA RESULT:      -3.2     11.853     12.282
REMARK  1 active torsions:
REMARK  status: ('A' for Active; 'I' for Inactive)
REMARK    1  A    between atoms: C1_1  and  C5_5 
ROOT
HETATM    1  C2  UNL     1     -34.331  14.659  -4.110  1.00 20.00     0.022 C 
HETATM    2  C3  UNL     1     -33.820  15.936  -3.466  1.00 20.00     0.075 C 
HETATM    3  C4  UNL     1     -36.483  15.762  -3.772  1.00 20.00     0.085 C 
HETATM    4  C5  UNL     1     -35.642  15.019  -4.801  1.00 20.00     0.057 C 
HETATM    5  S7  UNL     1     -35.300  16.762  -2.825  1.00 20.00    -0.168 SA
ENDROOT
BRANCH   4   6
HETATM    6  C1  UNL     1     -36.357  13.793  -5.269  1.00 20.00     0.236 C 
HETATM    7  O6  UNL     1     -35.865  12.670  -5.238  1.00 20.00    -0.306 OA
ENDBRANCH   4   6
TORSDOF 1
ENDMDL
MODEL 7
REMARK VINA RESULT:      -3.1     12.217     12.650
REMARK  1 active torsions:
REMARK  status: ('A' for Active; 'I' for Inactive)
REMARK    1  A    between atoms: C1_1  and  C5_5 
ROOT
HETATM    1  C2  UNL     1     -33.948  14.595  -5.560  1.00 20.00     0.022 C 
HETATM    2  C3  UNL     1     -33.077  15.797  -5.243  1.00 20.00     0.075 C 
HETATM    3  C4  UNL     1     -35.313  15.550  -3.776  1.00 20.00     0.085 C 
HETATM    4  C5  UNL     1     -35.374  14.984  -5.188  1.00 20.00     0.057 C 
HETATM    5  S7  UNL     1     -33.749  16.468  -3.699  1.00 20.00    -0.168 SA
ENDROOT
BRANCH   4   6
HETATM    6  C1  UNL     1     -36.284  13.799  -5.233  1.00 20.00     0.236 C 
HETATM    7  O6  UNL     1     -35.884  12.640  -5.254  1.00 20.00    -0.306 OA
ENDBRANCH   4   6
TORSDOF 1
ENDMDL
MODEL 8
REMARK VINA RESULT:      -3.1     12.275     12.636
REMARK  1 active torsions:
REMARK  status: ('A' for Active; 'I' for Inactive)
REMARK    1  A    between atoms: C1_1  and  C5_5 
ROOT
HETATM    1  C2  UNL     1     -35.138  15.599  -3.485  1.00 20.00     0.022 C 
HETATM    2  C3  UNL     1     -33.981  16.580  -3.397  1.00 20.00     0.075 C 
HETATM    3  C4  UNL     1     -34.404  15.477  -5.810  1.00 20.00     0.085 C 
HETATM    4  C5  UNL     1     -34.796  14.628  -4.609  1.00 20.00     0.057 C 
HETATM    5  S7  UNL     1     -33.501  16.891  -5.117  1.00 20.00    -0.168 SA
ENDROOT
BRANCH   4   6
HETATM    6  C1  UNL     1     -35.967  13.762  -4.946  1.00 20.00     0.236 C 
HETATM    7  O6  UNL     1     -35.862  12.606  -5.342  1.00 20.00    -0.306 OA
ENDBRANCH   4   6
TORSDOF 1
ENDMDL
MODEL 9
REMARK VINA RESULT:      -3.1     12.250     12.512
REMARK  1 active torsions:
REMARK  status: ('A' for Active; 'I' for Inactive)
REMARK    1  A    between atoms: C1_1  and  C5_5 
ROOT
HETATM    1  C2  UNL     1     -35.381  15.313  -3.931  1.00 20.00     0.022 C 
HETATM    2  C3  UNL     1     -33.986  15.828  -3.624  1.00 20.00     0.075 C 
HETATM    3  C4  UNL     1     -34.265  14.506  -5.946  1.00 20.00     0.085 C 
HETATM    4  C5  UNL     1     -35.204  14.090  -4.823  1.00 20.00     0.057 C 
HETATM    5  S7  UNL     1     -33.061  15.622  -5.170  1.00 20.00    -0.168 SA
ENDROOT
BRANCH   4   6
HETATM    6  C1  UNL     1     -36.514  13.638  -5.383  1.00 20.00     0.236 C 
HETATM    7  O6  UNL     1     -37.593  13.859  -4.842  1.00 20.00    -0.306 OA
ENDBRANCH   4   6
TORSDOF 1
ENDMDL
