MODEL 1
REMARK VINA RESULT:      -3.9      0.000      0.000
REMARK  1 active torsions:
REMARK  status: ('A' for Active; 'I' for Inactive)
REMARK    1  A    between atoms: C1_1  and  C5_5 
ROOT
HETATM    1  C2  UNL     1     -34.216   6.888   5.653  1.00 20.00     0.022 C 
HETATM    2  C3  UNL     1     -32.942   7.290   4.927  1.00 20.00     0.075 C 
HETATM    3  C4  UNL     1     -34.847   6.168   3.393  1.00 20.00     0.085 C 
HETATM    4  C5  UNL     1     -34.877   5.766   4.860  1.00 20.00     0.057 C 
HETATM    5  S7  UNL     1     -33.324   7.134   3.163  1.00 20.00    -0.168 SA
ENDROOT
BRANCH   4   6
HETATM    6  C1  UNL     1     -34.196   4.446   5.077  1.00 20.00     0.236 C 
HETATM    7  O6  UNL     1     -34.176   3.549   4.240  1.00 20.00    -0.306 OA
ENDBRANCH   4   6
TORSDOF 1
ENDMDL
MODEL 2
REMARK VINA RESULT:      -3.9      1.709      2.284
REMARK  1 active torsions:
REMARK  status: ('A' for Active; 'I' for Inactive)
REMARK    1  A    between atoms: C1_1  and  C5_5 
ROOT
HETATM    1  C2  UNL     1     -35.082   5.495   4.250  1.00 20.00     0.022 C 
HETATM    2  C3  UNL     1     -34.489   5.580   5.648  1.00 20.00     0.075 C 
HETATM    3  C4  UNL     1     -33.731   7.522   3.946  1.00 20.00     0.085 C 
HETATM    4  C5  UNL     1     -34.135   6.208   3.292  1.00 20.00     0.057 C 
HETATM    5  S7  UNL     1     -33.697   7.207   5.736  1.00 20.00    -0.168 SA
ENDROOT
BRANCH   4   6
HETATM    6  C1  UNL     1     -32.932   5.372   2.961  1.00 20.00     0.236 C 
HETATM    7  O6  UNL     1     -32.988   4.332   2.314  1.00 20.00    -0.306 OA
ENDBRANCH   4   6
TORSDOF 1
ENDMDL
MODEL 3
REMARK VINA RESULT:      -3.7      2.321      2.997
REMARK  1 active torsions:
REMARK  status: ('A' for Active; 'I' for Inactive)
REMARK    1  A    between atoms: C1_1  and  C5_5 
ROOT
HETATM    1  C2  UNL     1     -33.697   6.176   2.602  1.00 20.00     0.022 C 
HETATM    2  C3  UNL     1     -33.040   4.849   2.950  1.00 20.00     0.075 C 
HETATM    3  C4  UNL     1     -35.040   5.618   4.579  1.00 20.00     0.085 C 
HETATM    4  C5  UNL     1     -34.305   6.751   3.876  1.00 20.00     0.057 C 
HETATM    5  S7  UNL     1     -34.106   4.103   4.211  1.00 20.00    -0.168 SA
ENDROOT
BRANCH   4   6
HETATM    6  C1  UNL     1     -33.266   7.364   4.770  1.00 20.00     0.236 C 
HETATM    7  O6  UNL     1     -33.361   7.397   5.993  1.00 20.00    -0.306 OA
ENDBRANCH   4   6
TORSDOF 1
ENDMDL
MODEL 4
REMARK VINA RESULT:      -3.7      2.024      2.497
REMARK  1 active torsions:
REMARK  status: ('A' for Active; 'I' for Inactive)
REMARK    1  A    between atoms: C1_1  and  C5_5 
ROOT
HETATM    1  C2  UNL     1     -35.120   6.235   3.556  1.00 20.00     0.022 C 
HETATM    2  C3  UNL     1     -33.806   6.309   2.794  1.00 20.00     0.075 C 
HETATM    3  C4  UNL     1     -34.158   4.099   4.288  1.00 20.00     0.085 C 
HETATM    4  C5  UNL     1     -34.914   5.331   4.766  1.00 20.00     0.057 C 
HETATM    5  S7  UNL     1     -33.069   4.661   2.946  1.00 20.00    -0.168 SA
ENDROOT
BRANCH   4   6
HETATM    6  C1  UNL     1     -34.175   6.029   5.871  1.00 20.00     0.236 C 
HETATM    7  O6  UNL     1     -34.067   7.248   5.949  1.00 20.00    -0.306 OA
ENDBRANCH   4   6
TORSDOF 1
ENDMDL
MODEL 5
REMARK VINA RESULT:      -3.6      2.479      3.260
REMARK  1 active torsions:
REMARK  status: ('A' for Active; 'I' for Inactive)
REMARK    1  A    between atoms: C1_1  and  C5_5 
ROOT
HETATM    1  C2  UNL     1     -34.907   6.081   3.392  1.00 20.00     0.022 C 
HETATM    2  C3  UNL     1     -34.617   4.822   4.194  1.00 20.00     0.075 C 
HETATM    3  C4  UNL     1     -33.982   7.139   5.404  1.00 20.00     0.085 C 
HETATM    4  C5  UNL     1     -33.970   7.179   3.883  1.00 20.00     0.057 C 
HETATM    5  S7  UNL     1     -34.217   5.397   5.864  1.00 20.00    -0.168 SA
ENDROOT
BRANCH   4   6
HETATM    6  C1  UNL     1     -32.578   7.014   3.344  1.00 20.00     0.236 C 
HETATM    7  O6  UNL     1     -31.759   7.926   3.298  1.00 20.00    -0.306 OA
ENDBRANCH   4   6
TORSDOF 1
ENDMDL
MODEL 6
REMARK VINA RESULT:      -3.5     12.378     12.868
REMARK  1 active torsions:
REMARK  status: ('A' for Active; 'I' for Inactive)
REMARK    1  A    between atoms: C1_1  and  C5_5 
ROOT
HETATM    1  C2  UNL     1     -33.182  14.412  -4.545  1.00 20.00     0.022 C 
HETATM    2  C3  UNL     1     -33.039  15.644  -5.426  1.00 20.00     0.075 C 
HETATM    3  C4  UNL     1     -34.960  15.778  -3.547  1.00 20.00     0.085 C 
HETATM    4  C5  UNL     1     -34.611  14.373  -4.017  1.00 20.00     0.057 C 
HETATM    5  S7  UNL     1     -34.061  16.917  -4.641  1.00 20.00    -0.168 SA
ENDROOT
BRANCH   4   6
HETATM    6  C1  UNL     1     -35.582  13.889  -5.055  1.00 20.00     0.236 C 
HETATM    7  O6  UNL     1     -35.865  12.706  -5.217  1.00 20.00    -0.306 OA
ENDBRANCH   4   6
TORSDOF 1
ENDMDL
MODEL 7
REMARK VINA RESULT:      -3.4      1.120      1.267
REMARK  1 active torsions:
REMARK  status: ('A' for Active; 'I' for Inactive)
REMARK    1  A    between atoms: C1_1  and  C5_5 
ROOT
HETATM    1  C2  UNL     1     -34.615   6.752   4.606  1.00 20.00     0.022 C 
HETATM    2  C3  UNL     1     -33.293   7.289   5.134  1.00 20.00     0.075 C 
HETATM    3  C4  UNL     1     -33.354   6.741   2.500  1.00 20.00     0.085 C 
HETATM    4  C5  UNL     1     -34.326   5.936   3.352  1.00 20.00     0.057 C 
HETATM    5  S7  UNL     1     -32.305   7.663   3.663  1.00 20.00    -0.168 SA
ENDROOT
BRANCH   4   6
HETATM    6  C1  UNL     1     -33.769   4.580   3.678  1.00 20.00     0.236 C 
HETATM    7  O6  UNL     1     -34.341   3.770   4.400  1.00 20.00    -0.306 OA
ENDBRANCH   4   6
TORSDOF 1
ENDMDL
MODEL 8
REMARK VINA RESULT:      -3.2      2.956      3.556
REMARK  1 active torsions:
REMARK  status: ('A' for Active; 'I' for Inactive)
REMARK    1  A    between atoms: C1_1  and  C5_5 
ROOT
HETATM    1  C2  UNL     1     -32.763   7.482   4.563  1.00 20.00     0.022 C 
HETATM    2  C3  UNL     1     -34.246   7.249   4.808  1.00 20.00     0.075 C 
HETATM    3  C4  UNL     1     -33.159   5.809   2.811  1.00 20.00     0.085 C 
HETATM    4  C5  UNL     1     -32.463   7.129   3.111  1.00 20.00     0.057 C 
HETATM    5  S7  UNL     1     -34.675   5.796   3.815  1.00 20.00    -0.168 SA
ENDROOT
BRANCH   4   6
HETATM    6  C1  UNL     1     -32.909   8.207   2.165  1.00 20.00     0.236 C 
HETATM    7  O6  UNL     1     -32.145   9.029   1.669  1.00 20.00    -0.306 OA
ENDBRANCH   4   6
TORSDOF 1
ENDMDL
MODEL 9
REMARK VINA RESULT:      -3.1     12.438     13.270
REMARK  1 active torsions:
REMARK  status: ('A' for Active; 'I' for Inactive)
REMARK    1  A    between atoms: C1_1  and  C5_5 
ROOT
HETATM    1  C2  UNL     1     -35.028  13.751  -6.548  1.00 20.00     0.022 C 
HETATM    2  C3  UNL     1     -34.381  15.120  -6.698  1.00 20.00     0.075 C 
HETATM    3  C4  UNL     1     -34.584  14.201  -4.177  1.00 20.00     0.085 C 
HETATM    4  C5  UNL     1     -35.624  13.661  -5.148  1.00 20.00     0.057 C 
HETATM    5  S7  UNL     1     -33.681  15.500  -5.071  1.00 20.00    -0.168 SA
ENDROOT
BRANCH   4   6
HETATM    6  C1  UNL     1     -36.918  14.415  -5.037  1.00 20.00     0.236 C 
HETATM    7  O6  UNL     1     -38.013  13.870  -4.947  1.00 20.00    -0.306 OA
ENDBRANCH   4   6
TORSDOF 1
ENDMDL
