MODEL 1
REMARK VINA RESULT:      -5.1      0.000      0.000
REMARK  4 active torsions:
REMARK  status: ('A' for Active; 'I' for Inactive)
REMARK    1  A    between atoms: C4_4  and  C6_6 
REMARK    2  A    between atoms: C4_4  and  O8_8 
REMARK    3  A    between atoms: C5_5  and  C6_6 
REMARK    4  A    between atoms: C7_7  and  O8_8 
ROOT
HETATM    1  C4  UNL     1     -32.621   7.601   3.469  1.00 20.00     0.173 C 
ENDROOT
BRANCH   1   2
HETATM    2  C6  UNL     1     -33.858   7.147   4.254  1.00 20.00     0.019 C 
HETATM    3  C1  UNL     1     -33.619   7.293   5.758  1.00 20.00     0.013 C 
BRANCH   2   4
HETATM    4  C5  UNL     1     -34.324   5.732   3.873  1.00 20.00     0.121 C 
HETATM    5 CL9  UNL     1     -34.581   4.664   5.273  1.00 20.00    -0.130 Cl
ENDBRANCH   2   4
ENDBRANCH   1   2
BRANCH   1   6
HETATM    6  O8  UNL     1     -32.981   8.047   2.168  1.00 20.00    -0.386 OA
BRANCH   6   7
HETATM    7  C7  UNL     1     -32.132   9.098   1.724  1.00 20.00     0.113 C 
HETATM    8  C2  UNL     1     -31.276   8.598   0.571  1.00 20.00     0.039 C 
HETATM    9  C3  UNL     1     -32.984  10.292   1.321  1.00 20.00     0.039 C 
ENDBRANCH   6   7
ENDBRANCH   1   6
TORSDOF 4
ENDMDL
MODEL 2
REMARK VINA RESULT:      -5.0      1.140      1.613
REMARK  4 active torsions:
REMARK  status: ('A' for Active; 'I' for Inactive)
REMARK    1  A    between atoms: C4_4  and  C6_6 
REMARK    2  A    between atoms: C4_4  and  O8_8 
REMARK    3  A    between atoms: C5_5  and  C6_6 
REMARK    4  A    between atoms: C7_7  and  O8_8 
ROOT
HETATM    1  C4  UNL     1     -33.581   6.518   3.522  1.00 20.00     0.173 C 
ENDROOT
BRANCH   1   2
HETATM    2  C6  UNL     1     -34.349   6.537   4.850  1.00 20.00     0.019 C 
HETATM    3  C1  UNL     1     -33.611   7.393   5.881  1.00 20.00     0.013 C 
BRANCH   2   4
HETATM    4  C5  UNL     1     -34.666   5.129   5.380  1.00 20.00     0.121 C 
HETATM    5 CL9  UNL     1     -34.163   3.824   4.279  1.00 20.00    -0.130 Cl
ENDBRANCH   2   4
ENDBRANCH   1   2
BRANCH   1   6
HETATM    6  O8  UNL     1     -33.566   7.809   2.926  1.00 20.00    -0.386 OA
BRANCH   6   7
HETATM    7  C7  UNL     1     -32.323   8.074   2.289  1.00 20.00     0.113 C 
HETATM    8  C2  UNL     1     -32.487   9.251   1.339  1.00 20.00     0.039 C 
HETATM    9  C3  UNL     1     -31.266   8.344   3.348  1.00 20.00     0.039 C 
ENDBRANCH   6   7
ENDBRANCH   1   6
TORSDOF 4
ENDMDL
MODEL 3
REMARK VINA RESULT:      -5.0      2.712      4.685
REMARK  4 active torsions:
REMARK  status: ('A' for Active; 'I' for Inactive)
REMARK    1  A    between atoms: C4_4  and  C6_6 
REMARK    2  A    between atoms: C4_4  and  O8_8 
REMARK    3  A    between atoms: C5_5  and  C6_6 
REMARK    4  A    between atoms: C7_7  and  O8_8 
ROOT
HETATM    1  C4  UNL     1     -33.541   7.420   2.616  1.00 20.00     0.173 C 
ENDROOT
BRANCH   1   2
HETATM    2  C6  UNL     1     -32.229   8.119   2.231  1.00 20.00     0.019 C 
HETATM    3  C1  UNL     1     -31.347   8.312   3.466  1.00 20.00     0.013 C 
BRANCH   2   4
HETATM    4  C5  UNL     1     -32.452   9.431   1.462  1.00 20.00     0.121 C 
HETATM    5 CL9  UNL     1     -32.932   9.189  -0.235  1.00 20.00    -0.130 Cl
ENDBRANCH   2   4
ENDBRANCH   1   2
BRANCH   1   6
HETATM    6  O8  UNL     1     -33.299   6.342   3.510  1.00 20.00    -0.386 OA
BRANCH   6   7
HETATM    7  C7  UNL     1     -34.336   6.222   4.475  1.00 20.00     0.113 C 
HETATM    8  C2  UNL     1     -34.603   4.750   4.743  1.00 20.00     0.039 C 
HETATM    9  C3  UNL     1     -33.932   6.965   5.739  1.00 20.00     0.039 C 
ENDBRANCH   6   7
ENDBRANCH   1   6
TORSDOF 4
ENDMDL
MODEL 4
REMARK VINA RESULT:      -4.8      1.167      1.707
REMARK  4 active torsions:
REMARK  status: ('A' for Active; 'I' for Inactive)
REMARK    1  A    between atoms: C4_4  and  C6_6 
REMARK    2  A    between atoms: C4_4  and  O8_8 
REMARK    3  A    between atoms: C5_5  and  C6_6 
REMARK    4  A    between atoms: C7_7  and  O8_8 
ROOT
HETATM    1  C4  UNL     1     -32.261   8.064   2.776  1.00 20.00     0.173 C 
ENDROOT
BRANCH   1   2
HETATM    2  C6  UNL     1     -32.846   6.897   3.581  1.00 20.00     0.019 C 
HETATM    3  C1  UNL     1     -33.762   6.047   2.698  1.00 20.00     0.013 C 
BRANCH   2   4
HETATM    4  C5  UNL     1     -33.540   7.350   4.876  1.00 20.00     0.121 C 
HETATM    5 CL9  UNL     1     -34.333   6.025   5.761  1.00 20.00    -0.130 Cl
ENDBRANCH   2   4
ENDBRANCH   1   2
BRANCH   1   6
HETATM    6  O8  UNL     1     -33.014   8.292   1.592  1.00 20.00    -0.386 OA
BRANCH   6   7
HETATM    7  C7  UNL     1     -32.435   9.319   0.796  1.00 20.00     0.113 C 
HETATM    8  C2  UNL     1     -33.029   9.264  -0.603  1.00 20.00     0.039 C 
HETATM    9  C3  UNL     1     -32.679  10.664   1.462  1.00 20.00     0.039 C 
ENDBRANCH   6   7
ENDBRANCH   1   6
TORSDOF 4
ENDMDL
MODEL 5
REMARK VINA RESULT:      -4.8      2.699      4.665
REMARK  4 active torsions:
REMARK  status: ('A' for Active; 'I' for Inactive)
REMARK    1  A    between atoms: C4_4  and  C6_6 
REMARK    2  A    between atoms: C4_4  and  O8_8 
REMARK    3  A    between atoms: C5_5  and  C6_6 
REMARK    4  A    between atoms: C7_7  and  O8_8 
ROOT
HETATM    1  C4  UNL     1     -33.210   7.259   2.344  1.00 20.00     0.173 C 
ENDROOT
BRANCH   1   2
HETATM    2  C6  UNL     1     -32.050   8.216   2.036  1.00 20.00     0.019 C 
HETATM    3  C1  UNL     1     -31.224   8.475   3.296  1.00 20.00     0.013 C 
BRANCH   2   4
HETATM    4  C5  UNL     1     -32.512   9.520   1.363  1.00 20.00     0.121 C 
HETATM    5 CL9  UNL     1     -33.010   9.308  -0.333  1.00 20.00    -0.130 Cl
ENDBRANCH   2   4
ENDBRANCH   1   2
BRANCH   1   6
HETATM    6  O8  UNL     1     -33.837   7.601   3.573  1.00 20.00    -0.386 OA
BRANCH   6   7
HETATM    7  C7  UNL     1     -33.870   6.496   4.466  1.00 20.00     0.113 C 
HETATM    8  C2  UNL     1     -33.926   7.008   5.897  1.00 20.00     0.039 C 
HETATM    9  C3  UNL     1     -35.066   5.618   4.131  1.00 20.00     0.039 C 
ENDBRANCH   6   7
ENDBRANCH   1   6
TORSDOF 4
ENDMDL
MODEL 6
REMARK VINA RESULT:      -4.4      1.538      2.153
REMARK  4 active torsions:
REMARK  status: ('A' for Active; 'I' for Inactive)
REMARK    1  A    between atoms: C4_4  and  C6_6 
REMARK    2  A    between atoms: C4_4  and  O8_8 
REMARK    3  A    between atoms: C5_5  and  C6_6 
REMARK    4  A    between atoms: C7_7  and  O8_8 
ROOT
HETATM    1  C4  UNL     1     -33.013   6.092   3.325  1.00 20.00     0.173 C 
ENDROOT
BRANCH   1   2
HETATM    2  C6  UNL     1     -34.269   5.521   3.997  1.00 20.00     0.019 C 
HETATM    3  C1  UNL     1     -35.528   6.144   3.389  1.00 20.00     0.013 C 
BRANCH   2   4
HETATM    4  C5  UNL     1     -34.238   5.644   5.529  1.00 20.00     0.121 C 
HETATM    5 CL9  UNL     1     -33.897   7.293   6.105  1.00 20.00    -0.130 Cl
ENDBRANCH   2   4
ENDBRANCH   1   2
BRANCH   1   6
HETATM    6  O8  UNL     1     -33.359   7.046   2.329  1.00 20.00    -0.386 OA
BRANCH   6   7
HETATM    7  C7  UNL     1     -32.644   8.262   2.502  1.00 20.00     0.113 C 
HETATM    8  C2  UNL     1     -31.528   8.049   3.512  1.00 20.00     0.039 C 
HETATM    9  C3  UNL     1     -32.109   8.724   1.155  1.00 20.00     0.039 C 
ENDBRANCH   6   7
ENDBRANCH   1   6
TORSDOF 4
ENDMDL
MODEL 7
REMARK VINA RESULT:      -4.3      2.682      4.692
REMARK  4 active torsions:
REMARK  status: ('A' for Active; 'I' for Inactive)
REMARK    1  A    between atoms: C4_4  and  C6_6 
REMARK    2  A    between atoms: C4_4  and  O8_8 
REMARK    3  A    between atoms: C5_5  and  C6_6 
REMARK    4  A    between atoms: C7_7  and  O8_8 
ROOT
HETATM    1  C4  UNL     1     -32.641   7.643   2.366  1.00 20.00     0.173 C 
ENDROOT
BRANCH   1   2
HETATM    2  C6  UNL     1     -32.013   8.925   1.803  1.00 20.00     0.019 C 
HETATM    3  C1  UNL     1     -32.917  10.128   2.080  1.00 20.00     0.013 C 
BRANCH   2   4
HETATM    4  C5  UNL     1     -31.638   8.807   0.317  1.00 20.00     0.121 C 
HETATM    5 CL9  UNL     1     -32.984   9.171  -0.789  1.00 20.00    -0.130 Cl
ENDBRANCH   2   4
ENDBRANCH   1   2
BRANCH   1   6
HETATM    6  O8  UNL     1     -32.603   7.641   3.787  1.00 20.00    -0.386 OA
BRANCH   6   7
HETATM    7  C7  UNL     1     -33.841   7.213   4.341  1.00 20.00     0.113 C 
HETATM    8  C2  UNL     1     -34.182   5.834   3.799  1.00 20.00     0.039 C 
HETATM    9  C3  UNL     1     -33.737   7.216   5.858  1.00 20.00     0.039 C 
ENDBRANCH   6   7
ENDBRANCH   1   6
TORSDOF 4
ENDMDL
MODEL 8
REMARK VINA RESULT:      -4.0      2.109      4.412
REMARK  4 active torsions:
REMARK  status: ('A' for Active; 'I' for Inactive)
REMARK    1  A    between atoms: C4_4  and  C6_6 
REMARK    2  A    between atoms: C4_4  and  O8_8 
REMARK    3  A    between atoms: C5_5  and  C6_6 
REMARK    4  A    between atoms: C7_7  and  O8_8 
ROOT
HETATM    1  C4  UNL     1     -33.489   6.226   2.950  1.00 20.00     0.173 C 
ENDROOT
BRANCH   1   2
HETATM    2  C6  UNL     1     -33.035   7.691   3.002  1.00 20.00     0.019 C 
HETATM    3  C1  UNL     1     -32.356   8.086   1.688  1.00 20.00     0.013 C 
BRANCH   2   4
HETATM    4  C5  UNL     1     -32.161   8.005   4.227  1.00 20.00     0.121 C 
HETATM    5 CL9  UNL     1     -33.023   7.847   5.776  1.00 20.00    -0.130 Cl
ENDBRANCH   2   4
ENDBRANCH   1   2
BRANCH   1   6
HETATM    6  O8  UNL     1     -34.779   6.074   3.527  1.00 20.00    -0.386 OA
BRANCH   6   7
HETATM    7  C7  UNL     1     -34.863   4.892   4.312  1.00 20.00     0.113 C 
HETATM    8  C2  UNL     1     -33.807   3.903   3.842  1.00 20.00     0.039 C 
HETATM    9  C3  UNL     1     -34.689   5.252   5.779  1.00 20.00     0.039 C 
ENDBRANCH   6   7
ENDBRANCH   1   6
TORSDOF 4
ENDMDL
MODEL 9
REMARK VINA RESULT:      -3.9      2.825      4.574
REMARK  4 active torsions:
REMARK  status: ('A' for Active; 'I' for Inactive)
REMARK    1  A    between atoms: C4_4  and  C6_6 
REMARK    2  A    between atoms: C4_4  and  O8_8 
REMARK    3  A    between atoms: C5_5  and  C6_6 
REMARK    4  A    between atoms: C7_7  and  O8_8 
ROOT
HETATM    1  C4  UNL     1     -34.716   5.832   3.409  1.00 20.00     0.173 C 
ENDROOT
BRANCH   1   2
HETATM    2  C6  UNL     1     -33.504   5.917   2.471  1.00 20.00     0.019 C 
HETATM    3  C1  UNL     1     -32.805   4.560   2.380  1.00 20.00     0.013 C 
BRANCH   2   4
HETATM    4  C5  UNL     1     -32.534   7.050   2.845  1.00 20.00     0.121 C 
HETATM    5 CL9  UNL     1     -32.535   8.401   1.688  1.00 20.00    -0.130 Cl
ENDBRANCH   2   4
ENDBRANCH   1   2
BRANCH   1   6
HETATM    6  O8  UNL     1     -34.760   6.953   4.283  1.00 20.00    -0.386 OA
BRANCH   6   7
HETATM    7  C7  UNL     1     -34.613   6.560   5.642  1.00 20.00     0.113 C 
HETATM    8  C2  UNL     1     -34.456   5.050   5.713  1.00 20.00     0.039 C 
HETATM    9  C3  UNL     1     -33.419   7.284   6.245  1.00 20.00     0.039 C 
ENDBRANCH   6   7
ENDBRANCH   1   6
TORSDOF 4
ENDMDL
