MODEL 1
REMARK VINA RESULT:      -4.1      0.000      0.000
REMARK  0 active torsions:
REMARK  status: ('A' for Active; 'I' for Inactive)
ROOT
HETATM    1  C1  UNL     1     -36.996  14.140  -5.267  1.00 20.00     0.087 C 
HETATM    2  C2  UNL     1     -33.708  15.834  -6.255  1.00 20.00     0.029 C 
HETATM    3  C3  UNL     1     -35.216  15.628  -6.124  1.00 20.00     0.045 C 
HETATM    4  C4  UNL     1     -32.998  15.417  -4.975  1.00 20.00     0.167 C 
HETATM    5  C5  UNL     1     -34.706  13.882  -4.377  1.00 20.00     0.208 C 
HETATM    6  C6  UNL     1     -35.566  14.229  -5.597  1.00 20.00     0.146 C 
HETATM    7  N7  UNL     1     -38.125  14.070  -5.007  1.00 20.00    -0.195 NA
HETATM    8  O8  UNL     1     -33.314  14.067  -4.639  1.00 20.00    -0.388 OA
HETATM    9 CL9  UNL     1     -35.272  13.007  -6.886  1.00 20.00    -0.101 Cl
ENDROOT
TORSDOF 0
ENDMDL
MODEL 2
REMARK VINA RESULT:      -4.0      2.058      2.465
REMARK  0 active torsions:
REMARK  status: ('A' for Active; 'I' for Inactive)
ROOT
HETATM    1  C1  UNL     1     -37.048  14.560  -4.789  1.00 20.00     0.087 C 
HETATM    2  C2  UNL     1     -33.258  14.800  -4.313  1.00 20.00     0.029 C 
HETATM    3  C3  UNL     1     -34.650  14.172  -4.326  1.00 20.00     0.045 C 
HETATM    4  C4  UNL     1     -33.067  15.705  -5.522  1.00 20.00     0.167 C 
HETATM    5  C5  UNL     1     -35.391  16.135  -5.726  1.00 20.00     0.208 C 
HETATM    6  C6  UNL     1     -35.753  15.216  -4.554  1.00 20.00     0.146 C 
HETATM    7  N7  UNL     1     -38.071  14.043  -4.975  1.00 20.00    -0.195 NA
HETATM    8  O8  UNL     1     -34.088  16.700  -5.574  1.00 20.00    -0.388 OA
HETATM    9 CL9  UNL     1     -35.959  16.213  -3.070  1.00 20.00    -0.101 Cl
ENDROOT
TORSDOF 0
ENDMDL
MODEL 3
REMARK VINA RESULT:      -4.0     11.965     13.069
REMARK  0 active torsions:
REMARK  status: ('A' for Active; 'I' for Inactive)
ROOT
HETATM    1  C1  UNL     1     -32.814   7.233   2.760  1.00 20.00     0.087 C 
HETATM    2  C2  UNL     1     -34.213   4.042   4.345  1.00 20.00     0.029 C 
HETATM    3  C3  UNL     1     -33.358   4.915   3.429  1.00 20.00     0.045 C 
HETATM    4  C4  UNL     1     -34.318   4.661   5.731  1.00 20.00     0.167 C 
HETATM    5  C5  UNL     1     -33.968   6.861   4.913  1.00 20.00     0.208 C 
HETATM    6  C6  UNL     1     -33.789   6.388   3.466  1.00 20.00     0.146 C 
HETATM    7  N7  UNL     1     -32.045   7.900   2.203  1.00 20.00    -0.195 NA
HETATM    8  O8  UNL     1     -34.827   5.991   5.652  1.00 20.00    -0.388 OA
HETATM    9 CL9  UNL     1     -35.349   6.584   2.589  1.00 20.00    -0.101 Cl
ENDROOT
TORSDOF 0
ENDMDL
MODEL 4
REMARK VINA RESULT:      -3.8      2.508      2.866
REMARK  0 active torsions:
REMARK  status: ('A' for Active; 'I' for Inactive)
ROOT
HETATM    1  C1  UNL     1     -35.648  13.858  -5.002  1.00 20.00     0.087 C 
HETATM    2  C2  UNL     1     -33.741  16.728  -3.336  1.00 20.00     0.029 C 
HETATM    3  C3  UNL     1     -34.202  15.297  -3.604  1.00 20.00     0.045 C 
HETATM    4  C4  UNL     1     -33.537  17.479  -4.644  1.00 20.00     0.167 C 
HETATM    5  C5  UNL     1     -35.098  16.126  -5.811  1.00 20.00     0.208 C 
HETATM    6  C6  UNL     1     -35.378  15.243  -4.590  1.00 20.00     0.146 C 
HETATM    7  N7  UNL     1     -35.860  12.764  -5.328  1.00 20.00    -0.195 NA
HETATM    8  O8  UNL     1     -34.725  17.453  -5.431  1.00 20.00    -0.388 OA
HETATM    9 CL9  UNL     1     -36.875  15.825  -3.778  1.00 20.00    -0.101 Cl
ENDROOT
TORSDOF 0
ENDMDL
MODEL 5
REMARK VINA RESULT:      -3.8      1.891      2.265
REMARK  0 active torsions:
REMARK  status: ('A' for Active; 'I' for Inactive)
ROOT
HETATM    1  C1  UNL     1     -37.174  14.255  -5.280  1.00 20.00     0.087 C 
HETATM    2  C2  UNL     1     -34.144  13.827  -7.581  1.00 20.00     0.029 C 
HETATM    3  C3  UNL     1     -35.480  13.499  -6.916  1.00 20.00     0.045 C 
HETATM    4  C4  UNL     1     -34.054  15.313  -7.897  1.00 20.00     0.167 C 
HETATM    5  C5  UNL     1     -35.557  15.904  -6.159  1.00 20.00     0.208 C 
HETATM    6  C6  UNL     1     -35.793  14.446  -5.748  1.00 20.00     0.146 C 
HETATM    7  N7  UNL     1     -38.264  14.105  -4.911  1.00 20.00    -0.195 NA
HETATM    8  O8  UNL     1     -34.256  16.092  -6.720  1.00 20.00    -0.388 OA
HETATM    9 CL9  UNL     1     -34.731  14.052  -4.349  1.00 20.00    -0.101 Cl
ENDROOT
TORSDOF 0
ENDMDL
MODEL 6
REMARK VINA RESULT:      -3.7      2.330      2.433
REMARK  0 active torsions:
REMARK  status: ('A' for Active; 'I' for Inactive)
ROOT
HETATM    1  C1  UNL     1     -35.274  13.808  -4.982  1.00 20.00     0.087 C 
HETATM    2  C2  UNL     1     -33.636  17.243  -5.400  1.00 20.00     0.029 C 
HETATM    3  C3  UNL     1     -34.322  15.938  -5.802  1.00 20.00     0.045 C 
HETATM    4  C4  UNL     1     -34.245  17.795  -4.119  1.00 20.00     0.167 C 
HETATM    5  C5  UNL     1     -34.935  15.651  -3.373  1.00 20.00     0.208 C 
HETATM    6  C6  UNL     1     -34.415  14.949  -4.632  1.00 20.00     0.146 C 
HETATM    7  N7  UNL     1     -35.952  12.908  -5.259  1.00 20.00    -0.195 NA
HETATM    8  O8  UNL     1     -34.182  16.828  -3.073  1.00 20.00    -0.388 OA
HETATM    9 CL9  UNL     1     -32.787  14.262  -4.288  1.00 20.00    -0.101 Cl
ENDROOT
TORSDOF 0
ENDMDL
MODEL 7
REMARK VINA RESULT:      -3.7      2.577      2.809
REMARK  0 active torsions:
REMARK  status: ('A' for Active; 'I' for Inactive)
ROOT
HETATM    1  C1  UNL     1     -35.517  13.879  -4.907  1.00 20.00     0.087 C 
HETATM    2  C2  UNL     1     -35.524  16.961  -2.636  1.00 20.00     0.029 C 
HETATM    3  C3  UNL     1     -36.025  15.668  -3.277  1.00 20.00     0.045 C 
HETATM    4  C4  UNL     1     -34.031  16.875  -2.354  1.00 20.00     0.167 C 
HETATM    5  C5  UNL     1     -33.666  15.294  -4.085  1.00 20.00     0.208 C 
HETATM    6  C6  UNL     1     -35.150  15.232  -4.460  1.00 20.00     0.146 C 
HETATM    7  N7  UNL     1     -35.806  12.812  -5.259  1.00 20.00    -0.195 NA
HETATM    8  O8  UNL     1     -33.309  16.568  -3.544  1.00 20.00    -0.388 OA
HETATM    9 CL9  UNL     1     -35.445  16.319  -5.864  1.00 20.00    -0.101 Cl
ENDROOT
TORSDOF 0
ENDMDL
MODEL 8
REMARK VINA RESULT:      -3.6      2.708      3.544
REMARK  0 active torsions:
REMARK  status: ('A' for Active; 'I' for Inactive)
ROOT
HETATM    1  C1  UNL     1     -33.680  16.613  -5.034  1.00 20.00     0.087 C 
HETATM    2  C2  UNL     1     -35.871  13.474  -5.048  1.00 20.00     0.029 C 
HETATM    3  C3  UNL     1     -35.408  14.881  -4.674  1.00 20.00     0.045 C 
HETATM    4  C4  UNL     1     -35.661  13.218  -6.534  1.00 20.00     0.167 C 
HETATM    5  C5  UNL     1     -33.886  14.785  -6.683  1.00 20.00     0.208 C 
HETATM    6  C6  UNL     1     -34.002  15.189  -5.209  1.00 20.00     0.146 C 
HETATM    7  N7  UNL     1     -33.426  17.738  -4.897  1.00 20.00    -0.195 NA
HETATM    8  O8  UNL     1     -34.299  13.434  -6.896  1.00 20.00    -0.388 OA
HETATM    9 CL9  UNL     1     -32.779  14.278  -4.253  1.00 20.00    -0.101 Cl
ENDROOT
TORSDOF 0
ENDMDL
MODEL 9
REMARK VINA RESULT:      -3.5      3.155      3.801
REMARK  0 active torsions:
REMARK  status: ('A' for Active; 'I' for Inactive)
ROOT
HETATM    1  C1  UNL     1     -33.863  17.392  -4.418  1.00 20.00     0.087 C 
HETATM    2  C2  UNL     1     -36.604  14.736  -4.717  1.00 20.00     0.029 C 
HETATM    3  C3  UNL     1     -35.918  16.093  -4.869  1.00 20.00     0.045 C 
HETATM    4  C4  UNL     1     -35.615  13.606  -4.964  1.00 20.00     0.167 C 
HETATM    5  C5  UNL     1     -33.751  14.926  -4.321  1.00 20.00     0.208 C 
HETATM    6  C6  UNL     1     -34.608  16.172  -4.073  1.00 20.00     0.146 C 
HETATM    7  N7  UNL     1     -33.275  18.355  -4.691  1.00 20.00    -0.195 NA
HETATM    8  O8  UNL     1     -34.488  13.722  -4.097  1.00 20.00    -0.388 OA
HETATM    9 CL9  UNL     1     -34.975  16.290  -2.315  1.00 20.00    -0.101 Cl
ENDROOT
TORSDOF 0
ENDMDL
