MODEL 1
REMARK VINA RESULT:      -4.7      0.000      0.000
REMARK  4 active torsions:
REMARK  status: ('A' for Active; 'I' for Inactive)
REMARK    1  A    between atoms: C5_5  and  C7_7 
REMARK    2  A    between atoms: C5_5  and  S9_9 
REMARK    3  A    between atoms: C6_6  and  C7_7 
REMARK    4  A    between atoms: C8_8  and  S9_9 
ROOT
HETATM    1  C5  UNL     1     -33.503   7.354   2.243  1.00 20.00     0.080 C 
ENDROOT
BRANCH   1   2
HETATM    2  C7  UNL     1     -32.505   8.526   2.292  1.00 20.00     0.004 C 
HETATM    3  C1  UNL     1     -31.433   8.237   3.352  1.00 20.00     0.012 C 
BRANCH   2   4
HETATM    4  C6  UNL     1     -31.864   8.883   0.939  1.00 20.00     0.119 C 
HETATM    5 CL10 UNL     1     -33.010   9.580  -0.232  1.00 20.00    -0.130 Cl
ENDBRANCH   2   4
ENDBRANCH   1   2
BRANCH   1   6
HETATM    6  S9  UNL     1     -32.934   5.882   3.145  1.00 20.00    -0.160 SA
BRANCH   6   7
HETATM    7  C8  UNL     1     -34.296   5.757   4.325  1.00 20.00    -0.003 C 
HETATM    8  C2  UNL     1     -34.366   4.318   4.844  1.00 20.00     0.026 C 
HETATM    9  C3  UNL     1     -34.024   6.725   5.481  1.00 20.00     0.026 C 
HETATM   10  C4  UNL     1     -35.600   6.131   3.613  1.00 20.00     0.026 C 
ENDBRANCH   6   7
ENDBRANCH   1   6
TORSDOF 4
ENDMDL
MODEL 2
REMARK VINA RESULT:      -4.7      0.029      1.373
REMARK  4 active torsions:
REMARK  status: ('A' for Active; 'I' for Inactive)
REMARK    1  A    between atoms: C5_5  and  C7_7 
REMARK    2  A    between atoms: C5_5  and  S9_9 
REMARK    3  A    between atoms: C6_6  and  C7_7 
REMARK    4  A    between atoms: C8_8  and  S9_9 
ROOT
HETATM    1  C5  UNL     1     -33.505   7.338   2.268  1.00 20.00     0.080 C 
ENDROOT
BRANCH   1   2
HETATM    2  C7  UNL     1     -32.507   8.511   2.306  1.00 20.00     0.004 C 
HETATM    3  C1  UNL     1     -31.435   8.233   3.369  1.00 20.00     0.012 C 
BRANCH   2   4
HETATM    4  C6  UNL     1     -31.866   8.857   0.950  1.00 20.00     0.119 C 
HETATM    5 CL10 UNL     1     -33.007   9.571  -0.216  1.00 20.00    -0.130 Cl
ENDBRANCH   2   4
ENDBRANCH   1   2
BRANCH   1   6
HETATM    6  S9  UNL     1     -32.931   5.872   3.177  1.00 20.00    -0.160 SA
BRANCH   6   7
HETATM    7  C8  UNL     1     -34.300   5.741   4.349  1.00 20.00    -0.003 C 
HETATM    8  C2  UNL     1     -34.038   6.694   5.518  1.00 20.00     0.026 C 
HETATM    9  C3  UNL     1     -35.593   6.130   3.626  1.00 20.00     0.026 C 
HETATM   10  C4  UNL     1     -34.383   4.295   4.848  1.00 20.00     0.026 C 
ENDBRANCH   6   7
ENDBRANCH   1   6
TORSDOF 4
ENDMDL
MODEL 3
REMARK VINA RESULT:      -4.7      0.030      1.384
REMARK  4 active torsions:
REMARK  status: ('A' for Active; 'I' for Inactive)
REMARK    1  A    between atoms: C5_5  and  C7_7 
REMARK    2  A    between atoms: C5_5  and  S9_9 
REMARK    3  A    between atoms: C6_6  and  C7_7 
REMARK    4  A    between atoms: C8_8  and  S9_9 
ROOT
HETATM    1  C5  UNL     1     -33.505   7.337   2.255  1.00 20.00     0.080 C 
ENDROOT
BRANCH   1   2
HETATM    2  C7  UNL     1     -32.510   8.512   2.306  1.00 20.00     0.004 C 
HETATM    3  C1  UNL     1     -31.436   8.224   3.364  1.00 20.00     0.012 C 
BRANCH   2   4
HETATM    4  C6  UNL     1     -31.872   8.877   0.954  1.00 20.00     0.119 C 
HETATM    5 CL10 UNL     1     -33.014   9.610  -0.199  1.00 20.00    -0.130 Cl
ENDBRANCH   2   4
ENDBRANCH   1   2
BRANCH   1   6
HETATM    6  S9  UNL     1     -32.933   5.867   3.158  1.00 20.00    -0.160 SA
BRANCH   6   7
HETATM    7  C8  UNL     1     -34.300   5.735   4.332  1.00 20.00    -0.003 C 
HETATM    8  C2  UNL     1     -35.598   6.128   3.619  1.00 20.00     0.026 C 
HETATM    9  C3  UNL     1     -34.380   4.286   4.820  1.00 20.00     0.026 C 
HETATM   10  C4  UNL     1     -34.032   6.679   5.508  1.00 20.00     0.026 C 
ENDBRANCH   6   7
ENDBRANCH   1   6
TORSDOF 4
ENDMDL
MODEL 4
REMARK VINA RESULT:      -3.9      2.293      4.586
REMARK  4 active torsions:
REMARK  status: ('A' for Active; 'I' for Inactive)
REMARK    1  A    between atoms: C5_5  and  C7_7 
REMARK    2  A    between atoms: C5_5  and  S9_9 
REMARK    3  A    between atoms: C6_6  and  C7_7 
REMARK    4  A    between atoms: C8_8  and  S9_9 
ROOT
HETATM    1  C5  UNL     1     -34.495   6.397   3.400  1.00 20.00     0.080 C 
ENDROOT
BRANCH   1   2
HETATM    2  C7  UNL     1     -34.814   5.309   4.442  1.00 20.00     0.004 C 
HETATM    3  C1  UNL     1     -34.066   4.019   4.076  1.00 20.00     0.012 C 
BRANCH   2   4
HETATM    4  C6  UNL     1     -34.539   5.713   5.901  1.00 20.00     0.119 C 
HETATM    5 CL10 UNL     1     -33.847   7.344   6.072  1.00 20.00    -0.130 Cl
ENDBRANCH   2   4
ENDBRANCH   1   2
BRANCH   1   6
HETATM    6  S9  UNL     1     -32.856   6.208   2.636  1.00 20.00    -0.160 SA
BRANCH   6   7
HETATM    7  C8  UNL     1     -32.397   7.955   2.569  1.00 20.00    -0.003 C 
HETATM    8  C2  UNL     1     -33.663   8.800   2.738  1.00 20.00     0.026 C 
HETATM    9  C3  UNL     1     -31.413   8.239   3.708  1.00 20.00     0.026 C 
HETATM   10  C4  UNL     1     -31.742   8.239   1.215  1.00 20.00     0.026 C 
ENDBRANCH   6   7
ENDBRANCH   1   6
TORSDOF 4
ENDMDL
MODEL 5
REMARK VINA RESULT:      -3.9      2.285      4.657
REMARK  4 active torsions:
REMARK  status: ('A' for Active; 'I' for Inactive)
REMARK    1  A    between atoms: C5_5  and  C7_7 
REMARK    2  A    between atoms: C5_5  and  S9_9 
REMARK    3  A    between atoms: C6_6  and  C7_7 
REMARK    4  A    between atoms: C8_8  and  S9_9 
ROOT
HETATM    1  C5  UNL     1     -34.484   6.433   3.389  1.00 20.00     0.080 C 
ENDROOT
BRANCH   1   2
HETATM    2  C7  UNL     1     -34.805   5.346   4.432  1.00 20.00     0.004 C 
HETATM    3  C1  UNL     1     -34.060   4.055   4.067  1.00 20.00     0.012 C 
BRANCH   2   4
HETATM    4  C6  UNL     1     -34.530   5.751   5.891  1.00 20.00     0.119 C 
HETATM    5 CL10 UNL     1     -33.803   7.368   6.058  1.00 20.00    -0.130 Cl
ENDBRANCH   2   4
ENDBRANCH   1   2
BRANCH   1   6
HETATM    6  S9  UNL     1     -32.852   6.231   2.615  1.00 20.00    -0.160 SA
BRANCH   6   7
HETATM    7  C8  UNL     1     -32.376   7.973   2.552  1.00 20.00    -0.003 C 
HETATM    8  C2  UNL     1     -31.716   8.253   1.198  1.00 20.00     0.026 C 
HETATM    9  C3  UNL     1     -33.639   8.825   2.712  1.00 20.00     0.026 C 
HETATM   10  C4  UNL     1     -31.395   8.257   3.692  1.00 20.00     0.026 C 
ENDBRANCH   6   7
ENDBRANCH   1   6
TORSDOF 4
ENDMDL
MODEL 6
REMARK VINA RESULT:      -3.9      2.287      4.587
REMARK  4 active torsions:
REMARK  status: ('A' for Active; 'I' for Inactive)
REMARK    1  A    between atoms: C5_5  and  C7_7 
REMARK    2  A    between atoms: C5_5  and  S9_9 
REMARK    3  A    between atoms: C6_6  and  C7_7 
REMARK    4  A    between atoms: C8_8  and  S9_9 
ROOT
HETATM    1  C5  UNL     1     -34.484   6.420   3.390  1.00 20.00     0.080 C 
ENDROOT
BRANCH   1   2
HETATM    2  C7  UNL     1     -34.805   5.334   4.434  1.00 20.00     0.004 C 
HETATM    3  C1  UNL     1     -34.053   4.045   4.075  1.00 20.00     0.012 C 
BRANCH   2   4
HETATM    4  C6  UNL     1     -34.539   5.744   5.893  1.00 20.00     0.119 C 
HETATM    5 CL10 UNL     1     -33.812   7.361   6.059  1.00 20.00    -0.130 Cl
ENDBRANCH   2   4
ENDBRANCH   1   2
BRANCH   1   6
HETATM    6  S9  UNL     1     -32.847   6.223   2.624  1.00 20.00    -0.160 SA
BRANCH   6   7
HETATM    7  C8  UNL     1     -32.379   7.967   2.558  1.00 20.00    -0.003 C 
HETATM    8  C2  UNL     1     -31.393   8.253   3.695  1.00 20.00     0.026 C 
HETATM    9  C3  UNL     1     -31.720   8.240   1.203  1.00 20.00     0.026 C 
HETATM   10  C4  UNL     1     -33.640   8.821   2.719  1.00 20.00     0.026 C 
ENDBRANCH   6   7
ENDBRANCH   1   6
TORSDOF 4
ENDMDL
MODEL 7
REMARK VINA RESULT:      -3.8      2.683      4.973
REMARK  4 active torsions:
REMARK  status: ('A' for Active; 'I' for Inactive)
REMARK    1  A    between atoms: C5_5  and  C7_7 
REMARK    2  A    between atoms: C5_5  and  S9_9 
REMARK    3  A    between atoms: C6_6  and  C7_7 
REMARK    4  A    between atoms: C8_8  and  S9_9 
ROOT
HETATM    1  C5  UNL     1     -32.663   7.840   3.282  1.00 20.00     0.080 C 
ENDROOT
BRANCH   1   2
HETATM    2  C7  UNL     1     -33.225   6.820   4.291  1.00 20.00     0.004 C 
HETATM    3  C1  UNL     1     -33.536   7.533   5.614  1.00 20.00     0.012 C 
BRANCH   2   4
HETATM    4  C6  UNL     1     -34.442   6.023   3.791  1.00 20.00     0.119 C 
HETATM    5 CL10 UNL     1     -34.594   4.411   4.534  1.00 20.00    -0.130 Cl
ENDBRANCH   2   4
ENDBRANCH   1   2
BRANCH   1   6
HETATM    6  S9  UNL     1     -33.502   7.799   1.670  1.00 20.00    -0.160 SA
BRANCH   6   7
HETATM    7  C8  UNL     1     -32.595   9.141   0.870  1.00 20.00    -0.003 C 
HETATM    8  C2  UNL     1     -31.111   8.764   0.813  1.00 20.00     0.026 C 
HETATM    9  C3  UNL     1     -33.151   9.325  -0.545  1.00 20.00     0.026 C 
HETATM   10  C4  UNL     1     -32.788  10.421   1.689  1.00 20.00     0.026 C 
ENDBRANCH   6   7
ENDBRANCH   1   6
TORSDOF 4
ENDMDL
MODEL 8
REMARK VINA RESULT:      -3.8      2.881      5.140
REMARK  4 active torsions:
REMARK  status: ('A' for Active; 'I' for Inactive)
REMARK    1  A    between atoms: C5_5  and  C7_7 
REMARK    2  A    between atoms: C5_5  and  S9_9 
REMARK    3  A    between atoms: C6_6  and  C7_7 
REMARK    4  A    between atoms: C8_8  and  S9_9 
ROOT
HETATM    1  C5  UNL     1     -32.779   7.261   2.663  1.00 20.00     0.080 C 
ENDROOT
BRANCH   1   2
HETATM    2  C7  UNL     1     -33.738   6.066   2.819  1.00 20.00     0.004 C 
HETATM    3  C1  UNL     1     -32.953   4.758   2.649  1.00 20.00     0.012 C 
BRANCH   2   4
HETATM    4  C6  UNL     1     -34.552   6.059   4.125  1.00 20.00     0.119 C 
HETATM    5 CL10 UNL     1     -34.597   4.471   4.929  1.00 20.00    -0.130 Cl
ENDBRANCH   2   4
ENDBRANCH   1   2
BRANCH   1   6
HETATM    6  S9  UNL     1     -33.630   8.831   2.320  1.00 20.00    -0.160 SA
BRANCH   6   7
HETATM    7  C8  UNL     1     -32.555   9.425   0.994  1.00 20.00    -0.003 C 
HETATM    8  C2  UNL     1     -33.291   9.268  -0.340  1.00 20.00     0.026 C 
HETATM    9  C3  UNL     1     -32.238  10.900   1.255  1.00 20.00     0.026 C 
HETATM   10  C4  UNL     1     -31.269   8.595   0.995  1.00 20.00     0.026 C 
ENDBRANCH   6   7
ENDBRANCH   1   6
TORSDOF 4
ENDMDL
MODEL 9
REMARK VINA RESULT:      -3.6     10.931     11.736
REMARK  4 active torsions:
REMARK  status: ('A' for Active; 'I' for Inactive)
REMARK    1  A    between atoms: C5_5  and  C7_7 
REMARK    2  A    between atoms: C5_5  and  S9_9 
REMARK    3  A    between atoms: C6_6  and  C7_7 
REMARK    4  A    between atoms: C8_8  and  S9_9 
ROOT
HETATM    1  C5  UNL     1     -33.631  16.528  -3.996  1.00 20.00     0.080 C 
ENDROOT
BRANCH   1   2
HETATM    2  C7  UNL     1     -33.830  16.636  -2.472  1.00 20.00     0.004 C 
HETATM    3  C1  UNL     1     -33.069  17.860  -1.945  1.00 20.00     0.012 C 
BRANCH   2   4
HETATM    4  C6  UNL     1     -35.299  16.656  -2.014  1.00 20.00     0.119 C 
HETATM    5 CL10 UNL     1     -35.521  17.267  -0.356  1.00 20.00    -0.130 Cl
ENDBRANCH   2   4
ENDBRANCH   1   2
BRANCH   1   6
HETATM    6  S9  UNL     1     -33.291  14.834  -4.562  1.00 20.00    -0.160 SA
BRANCH   6   7
HETATM    7  C8  UNL     1     -34.737  14.620  -5.625  1.00 20.00    -0.003 C 
HETATM    8  C2  UNL     1     -35.725  13.682  -4.925  1.00 20.00     0.026 C 
HETATM    9  C3  UNL     1     -35.377  15.993  -5.851  1.00 20.00     0.026 C 
HETATM   10  C4  UNL     1     -34.282  14.018  -6.957  1.00 20.00     0.026 C 
ENDBRANCH   6   7
ENDBRANCH   1   6
TORSDOF 4
ENDMDL
