MODEL 1
REMARK VINA RESULT:      -5.5      0.000      0.000
REMARK  0 active torsions:
REMARK  status: ('A' for Active; 'I' for Inactive)
ROOT
HETATM    1  C1  UNL     1     -32.013   8.129   2.656  1.00 20.00     0.088 C 
HETATM    2  C2  UNL     1     -33.533   6.944   4.102  1.00 20.00    -0.046 C 
HETATM    3  C3  UNL     1     -32.610   7.899   3.921  1.00 20.00     0.098 C 
HETATM    4  C4  UNL     1     -34.181   6.679   5.433  1.00 20.00     0.039 C 
HETATM    5  C5  UNL     1     -33.984   6.030   2.997  1.00 20.00     0.202 C 
HETATM    6  C6  UNL     1     -34.119   5.186   5.751  1.00 20.00     0.030 C 
HETATM    7  C7  UNL     1     -34.601   4.354   4.565  1.00 20.00     0.168 C 
HETATM    8  N8  UNL     1     -31.520   8.323   1.623  1.00 20.00    -0.192 NA
HETATM    9  O9  UNL     1     -33.838   4.663   3.396  1.00 20.00    -0.387 OA
ENDROOT
TORSDOF 0
ENDMDL
MODEL 2
REMARK VINA RESULT:      -5.1      1.513      2.029
REMARK  0 active torsions:
REMARK  status: ('A' for Active; 'I' for Inactive)
ROOT
HETATM    1  C1  UNL     1     -32.549   8.517   1.934  1.00 20.00     0.088 C 
HETATM    2  C2  UNL     1     -33.203   6.636   3.289  1.00 20.00    -0.046 C 
HETATM    3  C3  UNL     1     -33.030   7.193   2.082  1.00 20.00     0.098 C 
HETATM    4  C4  UNL     1     -33.713   5.233   3.474  1.00 20.00     0.039 C 
HETATM    5  C5  UNL     1     -32.933   7.374   4.571  1.00 20.00     0.202 C 
HETATM    6  C6  UNL     1     -34.855   5.227   4.488  1.00 20.00     0.030 C 
HETATM    7  C7  UNL     1     -34.472   5.999   5.748  1.00 20.00     0.168 C 
HETATM    8  N8  UNL     1     -32.156   9.602   1.805  1.00 20.00    -0.192 NA
HETATM    9  O9  UNL     1     -34.086   7.335   5.417  1.00 20.00    -0.387 OA
ENDROOT
TORSDOF 0
ENDMDL
MODEL 3
REMARK VINA RESULT:      -4.3     11.650     12.288
REMARK  0 active torsions:
REMARK  status: ('A' for Active; 'I' for Inactive)
ROOT
HETATM    1  C1  UNL     1     -35.233  13.628  -4.730  1.00 20.00     0.088 C 
HETATM    2  C2  UNL     1     -34.614  15.668  -3.608  1.00 20.00    -0.046 C 
HETATM    3  C3  UNL     1     -34.304  14.431  -4.023  1.00 20.00     0.098 C 
HETATM    4  C4  UNL     1     -33.647  16.540  -2.855  1.00 20.00     0.039 C 
HETATM    5  C5  UNL     1     -35.966  16.285  -3.830  1.00 20.00     0.202 C 
HETATM    6  C6  UNL     1     -34.323  17.106  -1.607  1.00 20.00     0.030 C 
HETATM    7  C7  UNL     1     -35.684  17.708  -1.948  1.00 20.00     0.168 C 
HETATM    8  N8  UNL     1     -35.989  12.965  -5.309  1.00 20.00    -0.192 NA
HETATM    9  O9  UNL     1     -36.514  16.736  -2.587  1.00 20.00    -0.387 OA
ENDROOT
TORSDOF 0
ENDMDL
MODEL 4
REMARK VINA RESULT:      -4.2     11.931     12.496
REMARK  0 active torsions:
REMARK  status: ('A' for Active; 'I' for Inactive)
ROOT
HETATM    1  C1  UNL     1     -33.139  17.778  -1.687  1.00 20.00     0.088 C 
HETATM    2  C2  UNL     1     -34.318  16.372  -3.249  1.00 20.00    -0.046 C 
HETATM    3  C3  UNL     1     -34.155  16.841  -2.004  1.00 20.00     0.098 C 
HETATM    4  C4  UNL     1     -35.387  15.377  -3.610  1.00 20.00     0.039 C 
HETATM    5  C5  UNL     1     -33.430  16.775  -4.392  1.00 20.00     0.202 C 
HETATM    6  C6  UNL     1     -34.773  14.223  -4.402  1.00 20.00     0.030 C 
HETATM    7  C7  UNL     1     -33.894  14.744  -5.537  1.00 20.00     0.168 C 
HETATM    8  N8  UNL     1     -32.310  18.545  -1.421  1.00 20.00    -0.192 NA
HETATM    9  O9  UNL     1     -32.882  15.614  -5.025  1.00 20.00    -0.387 OA
ENDROOT
TORSDOF 0
ENDMDL
MODEL 5
REMARK VINA RESULT:      -4.1      2.635      4.217
REMARK  0 active torsions:
REMARK  status: ('A' for Active; 'I' for Inactive)
ROOT
HETATM    1  C1  UNL     1     -34.088   4.567   3.924  1.00 20.00     0.088 C 
HETATM    2  C2  UNL     1     -33.339   6.642   2.955  1.00 20.00    -0.046 C 
HETATM    3  C3  UNL     1     -33.665   5.348   2.820  1.00 20.00     0.098 C 
HETATM    4  C4  UNL     1     -32.886   7.492   1.800  1.00 20.00     0.039 C 
HETATM    5  C5  UNL     1     -33.368   7.354   4.278  1.00 20.00     0.202 C 
HETATM    6  C6  UNL     1     -31.604   8.233   2.174  1.00 20.00     0.030 C 
HETATM    7  C7  UNL     1     -31.744   8.920   3.530  1.00 20.00     0.168 C 
HETATM    8  N8  UNL     1     -34.435   3.922   4.824  1.00 20.00    -0.192 NA
HETATM    9  O9  UNL     1     -32.102   7.969   4.536  1.00 20.00    -0.387 OA
ENDROOT
TORSDOF 0
ENDMDL
MODEL 6
REMARK VINA RESULT:      -3.9     12.097     12.562
REMARK  0 active torsions:
REMARK  status: ('A' for Active; 'I' for Inactive)
ROOT
HETATM    1  C1  UNL     1     -31.739  18.862   1.145  1.00 20.00     0.088 C 
HETATM    2  C2  UNL     1     -33.692  18.423  -0.197  1.00 20.00    -0.046 C 
HETATM    3  C3  UNL     1     -33.140  18.709   0.991  1.00 20.00     0.098 C 
HETATM    4  C4  UNL     1     -35.174  18.256  -0.386  1.00 20.00     0.039 C 
HETATM    5  C5  UNL     1     -32.877  18.216  -1.443  1.00 20.00     0.202 C 
HETATM    6  C6  UNL     1     -35.455  16.960  -1.145  1.00 20.00     0.030 C 
HETATM    7  C7  UNL     1     -34.578  16.853  -2.390  1.00 20.00     0.168 C 
HETATM    8  N8  UNL     1     -30.593  18.989   1.278  1.00 20.00    -0.192 NA
HETATM    9  O9  UNL     1     -33.197  16.953  -2.037  1.00 20.00    -0.387 OA
ENDROOT
TORSDOF 0
ENDMDL
MODEL 7
REMARK VINA RESULT:      -3.9     11.760     12.501
REMARK  0 active torsions:
REMARK  status: ('A' for Active; 'I' for Inactive)
ROOT
HETATM    1  C1  UNL     1     -37.837  14.781  -4.650  1.00 20.00     0.088 C 
HETATM    2  C2  UNL     1     -35.578  15.232  -3.942  1.00 20.00    -0.046 C 
HETATM    3  C3  UNL     1     -36.856  15.620  -4.066  1.00 20.00     0.098 C 
HETATM    4  C4  UNL     1     -34.518  16.103  -3.327  1.00 20.00     0.039 C 
HETATM    5  C5  UNL     1     -35.082  13.901  -4.434  1.00 20.00     0.202 C 
HETATM    6  C6  UNL     1     -33.296  16.156  -4.243  1.00 20.00     0.030 C 
HETATM    7  C7  UNL     1     -32.878  14.755  -4.679  1.00 20.00     0.168 C 
HETATM    8  N8  UNL     1     -38.646  14.099  -5.127  1.00 20.00    -0.192 NA
HETATM    9  O9  UNL     1     -33.969  14.083  -5.314  1.00 20.00    -0.387 OA
ENDROOT
TORSDOF 0
ENDMDL
MODEL 8
REMARK VINA RESULT:      -3.8      2.515      3.989
REMARK  0 active torsions:
REMARK  status: ('A' for Active; 'I' for Inactive)
ROOT
HETATM    1  C1  UNL     1     -34.208   6.271   5.480  1.00 20.00     0.088 C 
HETATM    2  C2  UNL     1     -32.641   7.458   4.087  1.00 20.00    -0.046 C 
HETATM    3  C3  UNL     1     -33.278   7.318   5.258  1.00 20.00     0.098 C 
HETATM    4  C4  UNL     1     -31.651   8.561   3.826  1.00 20.00     0.039 C 
HETATM    5  C5  UNL     1     -32.879   6.545   2.917  1.00 20.00     0.202 C 
HETATM    6  C6  UNL     1     -31.987   9.257   2.508  1.00 20.00     0.030 C 
HETATM    7  C7  UNL     1     -32.206   8.239   1.391  1.00 20.00     0.168 C 
HETATM    8  N8  UNL     1     -34.970   5.416   5.668  1.00 20.00    -0.192 NA
HETATM    9  O9  UNL     1     -33.227   7.308   1.758  1.00 20.00    -0.387 OA
ENDROOT
TORSDOF 0
ENDMDL
MODEL 9
REMARK VINA RESULT:      -3.7     11.928     13.124
REMARK  0 active torsions:
REMARK  status: ('A' for Active; 'I' for Inactive)
ROOT
HETATM    1  C1  UNL     1     -35.241  13.704  -4.846  1.00 20.00     0.088 C 
HETATM    2  C2  UNL     1     -34.090  15.642  -3.996  1.00 20.00    -0.046 C 
HETATM    3  C3  UNL     1     -34.881  14.580  -3.791  1.00 20.00     0.098 C 
HETATM    4  C4  UNL     1     -33.694  16.587  -2.894  1.00 20.00     0.039 C 
HETATM    5  C5  UNL     1     -33.549  16.004  -5.351  1.00 20.00     0.202 C 
HETATM    6  C6  UNL     1     -33.941  18.029  -3.336  1.00 20.00     0.030 C 
HETATM    7  C7  UNL     1     -33.350  18.287  -4.720  1.00 20.00     0.168 C 
HETATM    8  N8  UNL     1     -35.539  12.983  -5.705  1.00 20.00    -0.192 NA
HETATM    9  O9  UNL     1     -33.880  17.359  -5.670  1.00 20.00    -0.387 OA
ENDROOT
TORSDOF 0
ENDMDL
