MODEL 1
REMARK VINA RESULT:      -4.4      0.000      0.000
REMARK  3 active torsions:
REMARK  status: ('A' for Active; 'I' for Inactive)
REMARK    1  A    between atoms: C3_3  and  C5_5 
REMARK    2  A    between atoms: C3_3  and  O6_6 
REMARK    3  A    between atoms: C4_4  and  C5_5 
ROOT
HETATM    1  C1  UNL     1     -33.652   7.230   5.471  1.00 20.00     0.013 C 
HETATM    2  C5  UNL     1     -34.111   6.917   4.045  1.00 20.00     0.019 C 
ENDROOT
BRANCH   2   3
HETATM    3  C3  UNL     1     -32.899   6.743   3.120  1.00 20.00     0.172 C 
BRANCH   3   4
HETATM    4  O6  UNL     1     -32.037   7.871   3.194  1.00 20.00    -0.396 OA
HETATM    5  C2  UNL     1     -32.049   8.617   1.985  1.00 20.00     0.201 C 
ENDBRANCH   3   4
ENDBRANCH   2   3
BRANCH   2   6
HETATM    6  C4  UNL     1     -35.081   5.725   3.993  1.00 20.00     0.121 C 
HETATM    7 CL7  UNL     1     -34.380   4.206   4.602  1.00 20.00    -0.130 Cl
ENDBRANCH   2   6
TORSDOF 3
ENDMDL
MODEL 2
REMARK VINA RESULT:      -4.1      1.134      1.134
REMARK  3 active torsions:
REMARK  status: ('A' for Active; 'I' for Inactive)
REMARK    1  A    between atoms: C3_3  and  C5_5 
REMARK    2  A    between atoms: C3_3  and  O6_6 
REMARK    3  A    between atoms: C4_4  and  C5_5 
ROOT
HETATM    1  C1  UNL     1     -33.713   7.238   5.702  1.00 20.00     0.013 C 
HETATM    2  C5  UNL     1     -33.868   7.063   4.190  1.00 20.00     0.019 C 
ENDROOT
BRANCH   2   3
HETATM    3  C3  UNL     1     -32.594   7.517   3.466  1.00 20.00     0.172 C 
BRANCH   3   4
HETATM    4  O6  UNL     1     -32.911   8.282   2.311  1.00 20.00    -0.396 OA
HETATM    5  C2  UNL     1     -31.750   8.583   1.550  1.00 20.00     0.201 C 
ENDBRANCH   3   4
ENDBRANCH   2   3
BRANCH   2   6
HETATM    6  C4  UNL     1     -34.299   5.636   3.809  1.00 20.00     0.121 C 
HETATM    7 CL7  UNL     1     -33.153   4.809   2.727  1.00 20.00    -0.130 Cl
ENDBRANCH   2   6
TORSDOF 3
ENDMDL
MODEL 3
REMARK VINA RESULT:      -4.0      2.899      3.981
REMARK  3 active torsions:
REMARK  status: ('A' for Active; 'I' for Inactive)
REMARK    1  A    between atoms: C3_3  and  C5_5 
REMARK    2  A    between atoms: C3_3  and  O6_6 
REMARK    3  A    between atoms: C4_4  and  C5_5 
ROOT
HETATM    1  C1  UNL     1     -32.976   4.872   2.581  1.00 20.00     0.013 C 
HETATM    2  C5  UNL     1     -33.730   6.179   2.835  1.00 20.00     0.019 C 
ENDROOT
BRANCH   2   3
HETATM    3  C3  UNL     1     -34.968   5.921   3.703  1.00 20.00     0.172 C 
BRANCH   3   4
HETATM    4  O6  UNL     1     -34.811   4.740   4.476  1.00 20.00    -0.396 OA
HETATM    5  C2  UNL     1     -34.584   5.039   5.847  1.00 20.00     0.201 C 
ENDBRANCH   3   4
ENDBRANCH   2   3
BRANCH   2   6
HETATM    6  C4  UNL     1     -32.817   7.278   3.402  1.00 20.00     0.121 C 
HETATM    7 CL7  UNL     1     -31.987   8.234   2.150  1.00 20.00    -0.130 Cl
ENDBRANCH   2   6
TORSDOF 3
ENDMDL
MODEL 4
REMARK VINA RESULT:      -3.9      2.745      3.629
REMARK  3 active torsions:
REMARK  status: ('A' for Active; 'I' for Inactive)
REMARK    1  A    between atoms: C3_3  and  C5_5 
REMARK    2  A    between atoms: C3_3  and  O6_6 
REMARK    3  A    between atoms: C4_4  and  C5_5 
ROOT
HETATM    1  C1  UNL     1     -33.757   7.286   5.691  1.00 20.00     0.013 C 
HETATM    2  C5  UNL     1     -33.741   6.531   4.360  1.00 20.00     0.019 C 
ENDROOT
BRANCH   2   3
HETATM    3  C3  UNL     1     -35.101   5.868   4.105  1.00 20.00     0.172 C 
BRANCH   3   4
HETATM    4  O6  UNL     1     -35.122   4.540   4.609  1.00 20.00    -0.396 OA
HETATM    5  C2  UNL     1     -33.946   3.826   4.252  1.00 20.00     0.201 C 
ENDBRANCH   3   4
ENDBRANCH   2   3
BRANCH   2   6
HETATM    6  C4  UNL     1     -33.276   7.416   3.192  1.00 20.00     0.121 C 
HETATM    7 CL7  UNL     1     -31.658   8.119   3.428  1.00 20.00    -0.130 Cl
ENDBRANCH   2   6
TORSDOF 3
ENDMDL
MODEL 5
REMARK VINA RESULT:      -3.8      1.325      1.908
REMARK  3 active torsions:
REMARK  status: ('A' for Active; 'I' for Inactive)
REMARK    1  A    between atoms: C3_3  and  C5_5 
REMARK    2  A    between atoms: C3_3  and  O6_6 
REMARK    3  A    between atoms: C4_4  and  C5_5 
ROOT
HETATM    1  C1  UNL     1     -33.454   5.530   2.850  1.00 20.00     0.013 C 
HETATM    2  C5  UNL     1     -32.945   6.841   3.452  1.00 20.00     0.019 C 
ENDROOT
BRANCH   2   3
HETATM    3  C3  UNL     1     -33.008   7.967   2.411  1.00 20.00     0.172 C 
BRANCH   3   4
HETATM    4  O6  UNL     1     -31.711   8.282   1.924  1.00 20.00    -0.396 OA
HETATM    5  C2  UNL     1     -31.774   9.073   0.746  1.00 20.00     0.201 C 
ENDBRANCH   3   4
ENDBRANCH   2   3
BRANCH   2   6
HETATM    6  C4  UNL     1     -33.662   7.198   4.765  1.00 20.00     0.121 C 
HETATM    7 CL7  UNL     1     -34.467   5.811   5.539  1.00 20.00    -0.130 Cl
ENDBRANCH   2   6
TORSDOF 3
ENDMDL
MODEL 6
REMARK VINA RESULT:      -3.7      2.154      3.401
REMARK  3 active torsions:
REMARK  status: ('A' for Active; 'I' for Inactive)
REMARK    1  A    between atoms: C3_3  and  C5_5 
REMARK    2  A    between atoms: C3_3  and  O6_6 
REMARK    3  A    between atoms: C4_4  and  C5_5 
ROOT
HETATM    1  C1  UNL     1     -32.520   8.085   2.147  1.00 20.00     0.013 C 
HETATM    2  C5  UNL     1     -33.295   7.396   3.271  1.00 20.00     0.019 C 
ENDROOT
BRANCH   2   3
HETATM    3  C3  UNL     1     -33.419   5.893   2.992  1.00 20.00     0.172 C 
BRANCH   3   4
HETATM    4  O6  UNL     1     -34.625   5.373   3.535  1.00 20.00    -0.396 OA
HETATM    5  C2  UNL     1     -34.376   4.276   4.403  1.00 20.00     0.201 C 
ENDBRANCH   3   4
ENDBRANCH   2   3
BRANCH   2   6
HETATM    6  C4  UNL     1     -32.706   7.702   4.659  1.00 20.00     0.121 C 
HETATM    7 CL7  UNL     1     -33.827   7.366   6.000  1.00 20.00    -0.130 Cl
ENDBRANCH   2   6
TORSDOF 3
ENDMDL
MODEL 7
REMARK VINA RESULT:      -3.6      2.002      2.360
REMARK  3 active torsions:
REMARK  status: ('A' for Active; 'I' for Inactive)
REMARK    1  A    between atoms: C3_3  and  C5_5 
REMARK    2  A    between atoms: C3_3  and  O6_6 
REMARK    3  A    between atoms: C4_4  and  C5_5 
ROOT
HETATM    1  C1  UNL     1     -34.330   3.949   4.378  1.00 20.00     0.013 C 
HETATM    2  C5  UNL     1     -33.844   5.396   4.476  1.00 20.00     0.019 C 
ENDROOT
BRANCH   2   3
HETATM    3  C3  UNL     1     -34.045   6.120   3.138  1.00 20.00     0.172 C 
BRANCH   3   4
HETATM    4  O6  UNL     1     -32.797   6.441   2.541  1.00 20.00    -0.396 OA
HETATM    5  C2  UNL     1     -32.495   7.823   2.673  1.00 20.00     0.201 C 
ENDBRANCH   3   4
ENDBRANCH   2   3
BRANCH   2   6
HETATM    6  C4  UNL     1     -34.474   6.144   5.663  1.00 20.00     0.121 C 
HETATM    7 CL7  UNL     1     -33.596   7.624   6.121  1.00 20.00    -0.130 Cl
ENDBRANCH   2   6
TORSDOF 3
ENDMDL
MODEL 8
REMARK VINA RESULT:      -3.5      2.955      4.074
REMARK  3 active torsions:
REMARK  status: ('A' for Active; 'I' for Inactive)
REMARK    1  A    between atoms: C3_3  and  C5_5 
REMARK    2  A    between atoms: C3_3  and  O6_6 
REMARK    3  A    between atoms: C4_4  and  C5_5 
ROOT
HETATM    1  C1  UNL     1     -31.427   8.303   3.605  1.00 20.00     0.013 C 
HETATM    2  C5  UNL     1     -32.130   8.069   2.267  1.00 20.00     0.019 C 
ENDROOT
BRANCH   2   3
HETATM    3  C3  UNL     1     -33.305   7.098   2.444  1.00 20.00     0.172 C 
BRANCH   3   4
HETATM    4  O6  UNL     1     -33.707   7.029   3.805  1.00 20.00    -0.396 OA
HETATM    5  C2  UNL     1     -34.622   5.964   4.026  1.00 20.00     0.201 C 
ENDBRANCH   3   4
ENDBRANCH   2   3
BRANCH   2   6
HETATM    6  C4  UNL     1     -32.537   9.384   1.583  1.00 20.00     0.121 C 
HETATM    7 CL7  UNL     1     -32.857   9.213  -0.160  1.00 20.00    -0.130 Cl
ENDBRANCH   2   6
TORSDOF 3
ENDMDL
MODEL 9
REMARK VINA RESULT:      -3.5      1.613      2.389
REMARK  3 active torsions:
REMARK  status: ('A' for Active; 'I' for Inactive)
REMARK    1  A    between atoms: C3_3  and  C5_5 
REMARK    2  A    between atoms: C3_3  and  O6_6 
REMARK    3  A    between atoms: C4_4  and  C5_5 
ROOT
HETATM    1  C1  UNL     1     -32.285   7.886   4.039  1.00 20.00     0.013 C 
HETATM    2  C5  UNL     1     -33.716   7.413   4.306  1.00 20.00     0.019 C 
ENDROOT
BRANCH   2   3
HETATM    3  C3  UNL     1     -34.129   6.354   3.276  1.00 20.00     0.172 C 
BRANCH   3   4
HETATM    4  O6  UNL     1     -32.993   5.820   2.611  1.00 20.00    -0.396 OA
HETATM    5  C2  UNL     1     -32.984   4.400   2.651  1.00 20.00     0.201 C 
ENDBRANCH   3   4
ENDBRANCH   2   3
BRANCH   2   6
HETATM    6  C4  UNL     1     -33.915   6.947   5.758  1.00 20.00     0.121 C 
HETATM    7 CL7  UNL     1     -34.569   5.296   5.895  1.00 20.00    -0.130 Cl
ENDBRANCH   2   6
TORSDOF 3
ENDMDL
