MODEL 1
REMARK VINA RESULT:      -4.2      0.000      0.000
REMARK  1 active torsions:
REMARK  status: ('A' for Active; 'I' for Inactive)
REMARK    1  A    between atoms: C4_4  and  C6_6 
ROOT
HETATM    1  C1  UNL     1     -34.785   5.642   5.374  1.00 20.00     0.135 A 
HETATM    2  C2  UNL     1     -34.068   6.747   5.780  1.00 20.00     0.136 A 
HETATM    3  C3  UNL     1     -33.864   5.810   3.288  1.00 20.00     0.144 A 
HETATM    4  C4  UNL     1     -33.147   6.915   3.693  1.00 20.00     0.069 A 
HETATM    5  N7  UNL     1     -34.695   5.154   4.122  1.00 20.00    -0.270 NA
HETATM    6  N8  UNL     1     -33.236   7.403   4.947  1.00 20.00    -0.261 NA
ENDROOT
BRANCH   4   7
HETATM    7  C6  UNL     1     -32.238   7.615   2.745  1.00 20.00     0.131 C 
HETATM    8  C5  UNL     1     -31.163   8.482   3.416  1.00 20.00     0.033 C 
HETATM    9 CL9  UNL     1     -33.187   8.632   1.607  1.00 20.00    -0.119 Cl
ENDBRANCH   4   7
TORSDOF 1
ENDMDL
MODEL 2
REMARK VINA RESULT:      -4.2      0.903      1.591
REMARK  1 active torsions:
REMARK  status: ('A' for Active; 'I' for Inactive)
REMARK    1  A    between atoms: C4_4  and  C6_6 
ROOT
HETATM    1  C1  UNL     1     -34.818   5.696   5.458  1.00 20.00     0.135 A 
HETATM    2  C2  UNL     1     -34.686   5.251   4.160  1.00 20.00     0.136 A 
HETATM    3  C3  UNL     1     -33.318   7.370   5.037  1.00 20.00     0.144 A 
HETATM    4  C4  UNL     1     -33.185   6.925   3.740  1.00 20.00     0.069 A 
HETATM    5  N7  UNL     1     -34.137   6.763   5.919  1.00 20.00    -0.270 NA
HETATM    6  N8  UNL     1     -33.867   5.858   3.278  1.00 20.00    -0.261 NA
ENDROOT
BRANCH   4   7
HETATM    7  C6  UNL     1     -32.271   7.620   2.793  1.00 20.00     0.131 C 
HETATM    8  C5  UNL     1     -31.166   8.449   3.464  1.00 20.00     0.033 C 
HETATM    9 CL9  UNL     1     -33.209   8.680   1.685  1.00 20.00    -0.119 Cl
ENDBRANCH   4   7
TORSDOF 1
ENDMDL
MODEL 3
REMARK VINA RESULT:      -4.1      2.171      3.587
REMARK  1 active torsions:
REMARK  status: ('A' for Active; 'I' for Inactive)
REMARK    1  A    between atoms: C4_4  and  C6_6 
ROOT
HETATM    1  C1  UNL     1     -31.739   8.325   2.844  1.00 20.00     0.135 A 
HETATM    2  C2  UNL     1     -31.966   8.315   4.203  1.00 20.00     0.136 A 
HETATM    3  C3  UNL     1     -33.332   6.709   2.565  1.00 20.00     0.144 A 
HETATM    4  C4  UNL     1     -33.559   6.697   3.924  1.00 20.00     0.069 A 
HETATM    5  N7  UNL     1     -32.418   7.522   2.001  1.00 20.00    -0.270 NA
HETATM    6  N8  UNL     1     -32.880   7.501   4.768  1.00 20.00    -0.261 NA
ENDROOT
BRANCH   4   7
HETATM    7  C6  UNL     1     -34.576   5.785   4.513  1.00 20.00     0.131 C 
HETATM    8  C5  UNL     1     -34.738   5.908   6.035  1.00 20.00     0.033 C 
HETATM    9 CL9  UNL     1     -34.197   4.077   4.100  1.00 20.00    -0.119 Cl
ENDBRANCH   4   7
TORSDOF 1
ENDMDL
MODEL 4
REMARK VINA RESULT:      -4.1      2.164      3.897
REMARK  1 active torsions:
REMARK  status: ('A' for Active; 'I' for Inactive)
REMARK    1  A    between atoms: C4_4  and  C6_6 
ROOT
HETATM    1  C1  UNL     1     -31.763   8.328   2.878  1.00 20.00     0.135 A 
HETATM    2  C2  UNL     1     -32.495   7.486   2.069  1.00 20.00     0.136 A 
HETATM    3  C3  UNL     1     -32.851   7.511   4.715  1.00 20.00     0.144 A 
HETATM    4  C4  UNL     1     -33.584   6.670   3.908  1.00 20.00     0.069 A 
HETATM    5  N7  UNL     1     -31.927   8.355   4.215  1.00 20.00    -0.270 NA
HETATM    6  N8  UNL     1     -33.419   6.642   2.570  1.00 20.00    -0.261 NA
ENDROOT
BRANCH   4   7
HETATM    7  C6  UNL     1     -34.597   5.751   4.495  1.00 20.00     0.131 C 
HETATM    8  C5  UNL     1     -34.770   5.880   6.015  1.00 20.00     0.033 C 
HETATM    9 CL9  UNL     1     -34.198   4.045   4.093  1.00 20.00    -0.119 Cl
ENDBRANCH   4   7
TORSDOF 1
ENDMDL
MODEL 5
REMARK VINA RESULT:      -3.8     11.612     12.410
REMARK  1 active torsions:
REMARK  status: ('A' for Active; 'I' for Inactive)
REMARK    1  A    between atoms: C4_4  and  C6_6 
ROOT
HETATM    1  C1  UNL     1     -35.259  13.073  -6.787  1.00 20.00     0.135 A 
HETATM    2  C2  UNL     1     -34.408  14.070  -7.213  1.00 20.00     0.136 A 
HETATM    3  C3  UNL     1     -35.133  13.877  -4.651  1.00 20.00     0.144 A 
HETATM    4  C4  UNL     1     -34.281  14.873  -5.075  1.00 20.00     0.069 A 
HETATM    5  N7  UNL     1     -35.636  12.959  -5.499  1.00 20.00    -0.270 NA
HETATM    6  N8  UNL     1     -33.904  14.988  -6.365  1.00 20.00    -0.261 NA
ENDROOT
BRANCH   4   7
HETATM    7  C6  UNL     1     -33.744  15.871  -4.110  1.00 20.00     0.131 C 
HETATM    8  C5  UNL     1     -34.653  16.145  -2.903  1.00 20.00     0.033 C 
HETATM    9 CL9  UNL     1     -33.394  17.422  -4.946  1.00 20.00    -0.119 Cl
ENDBRANCH   4   7
TORSDOF 1
ENDMDL
MODEL 6
REMARK VINA RESULT:      -3.6     11.393     11.871
REMARK  1 active torsions:
REMARK  status: ('A' for Active; 'I' for Inactive)
REMARK    1  A    between atoms: C4_4  and  C6_6 
ROOT
HETATM    1  C1  UNL     1     -36.400  13.710  -5.270  1.00 20.00     0.135 A 
HETATM    2  C2  UNL     1     -36.985  14.859  -4.785  1.00 20.00     0.136 A 
HETATM    3  C3  UNL     1     -34.452  14.248  -4.201  1.00 20.00     0.144 A 
HETATM    4  C4  UNL     1     -35.035  15.398  -3.715  1.00 20.00     0.069 A 
HETATM    5  N7  UNL     1     -35.124  13.384  -4.987  1.00 20.00    -0.270 NA
HETATM    6  N8  UNL     1     -36.313  15.724  -3.999  1.00 20.00    -0.261 NA
ENDROOT
BRANCH   4   7
HETATM    7  C6  UNL     1     -34.263  16.330  -2.850  1.00 20.00     0.131 C 
HETATM    8  C5  UNL     1     -35.021  16.822  -1.608  1.00 20.00     0.033 C 
HETATM    9 CL9  UNL     1     -33.710  17.751  -3.801  1.00 20.00    -0.119 Cl
ENDBRANCH   4   7
TORSDOF 1
ENDMDL
MODEL 7
REMARK VINA RESULT:      -3.5     11.814     12.272
REMARK  1 active torsions:
REMARK  status: ('A' for Active; 'I' for Inactive)
REMARK    1  A    between atoms: C4_4  and  C6_6 
ROOT
HETATM    1  C1  UNL     1     -31.185  18.731   0.974  1.00 20.00     0.135 A 
HETATM    2  C2  UNL     1     -32.272  18.810   1.817  1.00 20.00     0.136 A 
HETATM    3  C3  UNL     1     -32.574  18.234  -0.772  1.00 20.00     0.144 A 
HETATM    4  C4  UNL     1     -33.662  18.312   0.070  1.00 20.00     0.069 A 
HETATM    5  N7  UNL     1     -31.316  18.442  -0.335  1.00 20.00    -0.270 NA
HETATM    6  N8  UNL     1     -33.530  18.602   1.381  1.00 20.00    -0.261 NA
ENDROOT
BRANCH   4   7
HETATM    7  C6  UNL     1     -35.037  18.075  -0.447  1.00 20.00     0.131 C 
HETATM    8  C5  UNL     1     -36.085  17.786   0.638  1.00 20.00     0.033 C 
HETATM    9 CL9  UNL     1     -35.034  16.726  -1.634  1.00 20.00    -0.119 Cl
ENDBRANCH   4   7
TORSDOF 1
ENDMDL
MODEL 8
REMARK VINA RESULT:      -3.5     12.230     12.546
REMARK  1 active torsions:
REMARK  status: ('A' for Active; 'I' for Inactive)
REMARK    1  A    between atoms: C4_4  and  C6_6 
ROOT
HETATM    1  C1  UNL     1     -37.995  15.083  -4.531  1.00 20.00     0.135 A 
HETATM    2  C2  UNL     1     -37.066  16.099  -4.485  1.00 20.00     0.136 A 
HETATM    3  C3  UNL     1     -36.427  13.690  -5.442  1.00 20.00     0.144 A 
HETATM    4  C4  UNL     1     -35.498  14.706  -5.396  1.00 20.00     0.069 A 
HETATM    5  N7  UNL     1     -37.692  13.860  -5.010  1.00 20.00    -0.270 NA
HETATM    6  N8  UNL     1     -35.800  15.929  -4.916  1.00 20.00    -0.261 NA
ENDROOT
BRANCH   4   7
HETATM    7  C6  UNL     1     -34.109  14.482  -5.882  1.00 20.00     0.131 C 
HETATM    8  C5  UNL     1     -33.159  15.669  -5.667  1.00 20.00     0.033 C 
HETATM    9 CL9  UNL     1     -34.120  14.048  -7.626  1.00 20.00    -0.119 Cl
ENDBRANCH   4   7
TORSDOF 1
ENDMDL
MODEL 9
REMARK VINA RESULT:      -3.4     11.706     12.719
REMARK  1 active torsions:
REMARK  status: ('A' for Active; 'I' for Inactive)
REMARK    1  A    between atoms: C4_4  and  C6_6 
ROOT
HETATM    1  C1  UNL     1     -36.107  14.171  -7.907  1.00 20.00     0.135 A 
HETATM    2  C2  UNL     1     -35.236  13.197  -7.469  1.00 20.00     0.136 A 
HETATM    3  C3  UNL     1     -35.875  15.275  -5.918  1.00 20.00     0.144 A 
HETATM    4  C4  UNL     1     -35.004  14.302  -5.479  1.00 20.00     0.069 A 
HETATM    5  N7  UNL     1     -36.442  15.227  -7.140  1.00 20.00    -0.270 NA
HETATM    6  N8  UNL     1     -34.669  13.245  -6.248  1.00 20.00    -0.261 NA
ENDROOT
BRANCH   4   7
HETATM    7  C6  UNL     1     -34.396  14.387  -4.124  1.00 20.00     0.131 C 
HETATM    8  C5  UNL     1     -34.695  15.692  -3.371  1.00 20.00     0.033 C 
HETATM    9 CL9  UNL     1     -32.616  14.161  -4.223  1.00 20.00    -0.119 Cl
ENDBRANCH   4   7
TORSDOF 1
ENDMDL
