MODEL 1
REMARK VINA RESULT:      -5.0      0.000      0.000
REMARK  4 active torsions:
REMARK  status: ('A' for Active; 'I' for Inactive)
REMARK    1  A    between atoms: C5_5  and  C7_7 
REMARK    2  A    between atoms: C5_5  and  O9_9 
REMARK    3  A    between atoms: C6_6  and  C7_7 
REMARK    4  A    between atoms: C8_8  and  O9_9 
ROOT
HETATM    1  C5  UNL     1     -33.503   7.255   2.614  1.00 20.00     0.174 C 
ENDROOT
BRANCH   1   2
HETATM    2  C7  UNL     1     -32.227   8.045   2.288  1.00 20.00     0.019 C 
HETATM    3  C1  UNL     1     -31.385   8.240   3.550  1.00 20.00     0.013 C 
BRANCH   2   4
HETATM    4  C6  UNL     1     -32.513   9.372   1.565  1.00 20.00     0.121 C 
HETATM    5 CL10 UNL     1     -32.889   9.173  -0.164  1.00 20.00    -0.130 Cl
ENDBRANCH   2   4
ENDBRANCH   1   2
BRANCH   1   6
HETATM    6  O9  UNL     1     -33.201   6.099   3.384  1.00 20.00    -0.381 OA
BRANCH   6   7
HETATM    7  C8  UNL     1     -34.266   5.767   4.264  1.00 20.00     0.050 C 
HETATM    8  C2  UNL     1     -34.092   6.558   5.560  1.00 20.00     0.045 C 
HETATM    9  C3  UNL     1     -35.572   6.151   3.572  1.00 20.00     0.045 C 
HETATM   10  C4  UNL     1     -34.224   4.264   4.534  1.00 20.00     0.045 C 
ENDBRANCH   6   7
ENDBRANCH   1   6
TORSDOF 4
ENDMDL
MODEL 2
REMARK VINA RESULT:      -5.0      0.051      1.381
REMARK  4 active torsions:
REMARK  status: ('A' for Active; 'I' for Inactive)
REMARK    1  A    between atoms: C5_5  and  C7_7 
REMARK    2  A    between atoms: C5_5  and  O9_9 
REMARK    3  A    between atoms: C6_6  and  C7_7 
REMARK    4  A    between atoms: C8_8  and  O9_9 
ROOT
HETATM    1  C5  UNL     1     -33.448   7.180   2.549  1.00 20.00     0.174 C 
ENDROOT
BRANCH   1   2
HETATM    2  C7  UNL     1     -32.201   8.035   2.285  1.00 20.00     0.019 C 
HETATM    3  C1  UNL     1     -31.414   8.244   3.580  1.00 20.00     0.013 C 
BRANCH   2   4
HETATM    4  C6  UNL     1     -32.525   9.362   1.578  1.00 20.00     0.121 C 
HETATM    5 CL10 UNL     1     -32.914   9.170  -0.149  1.00 20.00    -0.130 Cl
ENDBRANCH   2   4
ENDBRANCH   1   2
BRANCH   1   6
HETATM    6  O9  UNL     1     -33.147   6.101   3.425  1.00 20.00    -0.381 OA
BRANCH   6   7
HETATM    7  C8  UNL     1     -34.256   5.778   4.253  1.00 20.00     0.050 C 
HETATM    8  C2  UNL     1     -34.241   4.273   4.520  1.00 20.00     0.045 C 
HETATM    9  C3  UNL     1     -34.099   6.555   5.558  1.00 20.00     0.045 C 
HETATM   10  C4  UNL     1     -35.538   6.190   3.533  1.00 20.00     0.045 C 
ENDBRANCH   6   7
ENDBRANCH   1   6
TORSDOF 4
ENDMDL
MODEL 3
REMARK VINA RESULT:      -4.9      2.726      4.906
REMARK  4 active torsions:
REMARK  status: ('A' for Active; 'I' for Inactive)
REMARK    1  A    between atoms: C5_5  and  C7_7 
REMARK    2  A    between atoms: C5_5  and  O9_9 
REMARK    3  A    between atoms: C6_6  and  C7_7 
REMARK    4  A    between atoms: C8_8  and  O9_9 
ROOT
HETATM    1  C5  UNL     1     -32.364   8.043   2.820  1.00 20.00     0.174 C 
ENDROOT
BRANCH   1   2
HETATM    2  C7  UNL     1     -32.946   6.838   3.573  1.00 20.00     0.019 C 
HETATM    3  C1  UNL     1     -33.837   6.010   2.645  1.00 20.00     0.013 C 
BRANCH   2   4
HETATM    4  C6  UNL     1     -33.666   7.236   4.872  1.00 20.00     0.121 C 
HETATM    5 CL10 UNL     1     -34.436   5.866   5.708  1.00 20.00    -0.130 Cl
ENDBRANCH   2   4
ENDBRANCH   1   2
BRANCH   1   6
HETATM    6  O9  UNL     1     -33.194   8.406   1.725  1.00 20.00    -0.381 OA
BRANCH   6   7
HETATM    7  C8  UNL     1     -32.520   9.279   0.828  1.00 20.00     0.050 C 
HETATM    8  C2  UNL     1     -31.087   8.780   0.648  1.00 20.00     0.045 C 
HETATM    9  C3  UNL     1     -33.272   9.245  -0.500  1.00 20.00     0.045 C 
HETATM   10  C4  UNL     1     -32.535  10.689   1.417  1.00 20.00     0.045 C 
ENDBRANCH   6   7
ENDBRANCH   1   6
TORSDOF 4
ENDMDL
MODEL 4
REMARK VINA RESULT:      -4.8      2.618      4.825
REMARK  4 active torsions:
REMARK  status: ('A' for Active; 'I' for Inactive)
REMARK    1  A    between atoms: C5_5  and  C7_7 
REMARK    2  A    between atoms: C5_5  and  O9_9 
REMARK    3  A    between atoms: C6_6  and  C7_7 
REMARK    4  A    between atoms: C8_8  and  O9_9 
ROOT
HETATM    1  C5  UNL     1     -32.199   7.753   2.567  1.00 20.00     0.174 C 
ENDROOT
BRANCH   1   2
HETATM    2  C7  UNL     1     -32.874   6.671   3.421  1.00 20.00     0.019 C 
HETATM    3  C1  UNL     1     -33.251   5.467   2.556  1.00 20.00     0.013 C 
BRANCH   2   4
HETATM    4  C6  UNL     1     -34.069   7.206   4.229  1.00 20.00     0.121 C 
HETATM    5 CL10 UNL     1     -33.761   7.292   5.980  1.00 20.00    -0.130 Cl
ENDBRANCH   2   4
ENDBRANCH   1   2
BRANCH   1   6
HETATM    6  O9  UNL     1     -33.157   8.457   1.789  1.00 20.00    -0.381 OA
BRANCH   6   7
HETATM    7  C8  UNL     1     -32.533   9.314   0.842  1.00 20.00     0.050 C 
HETATM    8  C2  UNL     1     -32.516  10.734   1.408  1.00 20.00     0.045 C 
HETATM    9  C3  UNL     1     -31.109   8.805   0.629  1.00 20.00     0.045 C 
HETATM   10  C4  UNL     1     -33.325   9.258  -0.463  1.00 20.00     0.045 C 
ENDBRANCH   6   7
ENDBRANCH   1   6
TORSDOF 4
ENDMDL
MODEL 5
REMARK VINA RESULT:      -4.8      2.501      4.621
REMARK  4 active torsions:
REMARK  status: ('A' for Active; 'I' for Inactive)
REMARK    1  A    between atoms: C5_5  and  C7_7 
REMARK    2  A    between atoms: C5_5  and  O9_9 
REMARK    3  A    between atoms: C6_6  and  C7_7 
REMARK    4  A    between atoms: C8_8  and  O9_9 
ROOT
HETATM    1  C5  UNL     1     -32.968   6.972   3.126  1.00 20.00     0.174 C 
ENDROOT
BRANCH   1   2
HETATM    2  C7  UNL     1     -34.175   6.993   4.075  1.00 20.00     0.019 C 
HETATM    3  C1  UNL     1     -33.715   7.201   5.518  1.00 20.00     0.013 C 
BRANCH   2   4
HETATM    4  C6  UNL     1     -35.077   5.757   3.921  1.00 20.00     0.121 C 
HETATM    5 CL10 UNL     1     -34.410   4.291   4.680  1.00 20.00    -0.130 Cl
ENDBRANCH   2   4
ENDBRANCH   1   2
BRANCH   1   6
HETATM    6  O9  UNL     1     -33.202   7.792   1.988  1.00 20.00    -0.381 OA
BRANCH   6   7
HETATM    7  C8  UNL     1     -32.179   8.765   1.828  1.00 20.00     0.050 C 
HETATM    8  C2  UNL     1     -32.833  10.142   1.710  1.00 20.00     0.045 C 
HETATM    9  C3  UNL     1     -31.284   8.701   3.063  1.00 20.00     0.045 C 
HETATM   10  C4  UNL     1     -31.382   8.431   0.568  1.00 20.00     0.045 C 
ENDBRANCH   6   7
ENDBRANCH   1   6
TORSDOF 4
ENDMDL
MODEL 6
REMARK VINA RESULT:      -4.8      2.478      4.572
REMARK  4 active torsions:
REMARK  status: ('A' for Active; 'I' for Inactive)
REMARK    1  A    between atoms: C5_5  and  C7_7 
REMARK    2  A    between atoms: C5_5  and  O9_9 
REMARK    3  A    between atoms: C6_6  and  C7_7 
REMARK    4  A    between atoms: C8_8  and  O9_9 
ROOT
HETATM    1  C5  UNL     1     -32.979   6.914   3.135  1.00 20.00     0.174 C 
ENDROOT
BRANCH   1   2
HETATM    2  C7  UNL     1     -34.188   6.953   4.081  1.00 20.00     0.019 C 
HETATM    3  C1  UNL     1     -33.730   7.181   5.522  1.00 20.00     0.013 C 
BRANCH   2   4
HETATM    4  C6  UNL     1     -35.094   5.717   3.944  1.00 20.00     0.121 C 
HETATM    5 CL10 UNL     1     -34.342   4.215   4.534  1.00 20.00    -0.130 Cl
ENDBRANCH   2   4
ENDBRANCH   1   2
BRANCH   1   6
HETATM    6  O9  UNL     1     -33.196   7.740   1.999  1.00 20.00    -0.381 OA
BRANCH   6   7
HETATM    7  C8  UNL     1     -32.174   8.718   1.864  1.00 20.00     0.050 C 
HETATM    8  C2  UNL     1     -31.378   8.416   0.594  1.00 20.00     0.045 C 
HETATM    9  C3  UNL     1     -32.852  10.083   1.760  1.00 20.00     0.045 C 
HETATM   10  C4  UNL     1     -31.275   8.657   3.097  1.00 20.00     0.045 C 
ENDBRANCH   6   7
ENDBRANCH   1   6
TORSDOF 4
ENDMDL
MODEL 7
REMARK VINA RESULT:      -4.6      2.466      4.396
REMARK  4 active torsions:
REMARK  status: ('A' for Active; 'I' for Inactive)
REMARK    1  A    between atoms: C5_5  and  C7_7 
REMARK    2  A    between atoms: C5_5  and  O9_9 
REMARK    3  A    between atoms: C6_6  and  C7_7 
REMARK    4  A    between atoms: C8_8  and  O9_9 
ROOT
HETATM    1  C5  UNL     1     -34.343   6.595   3.765  1.00 20.00     0.174 C 
ENDROOT
BRANCH   1   2
HETATM    2  C7  UNL     1     -34.621   6.352   5.255  1.00 20.00     0.019 C 
HETATM    3  C1  UNL     1     -33.735   7.253   6.116  1.00 20.00     0.013 C 
BRANCH   2   4
HETATM    4  C6  UNL     1     -34.506   4.870   5.651  1.00 20.00     0.121 C 
HETATM    5 CL10 UNL     1     -34.132   3.795   4.282  1.00 20.00    -0.130 Cl
ENDBRANCH   2   4
ENDBRANCH   1   2
BRANCH   1   6
HETATM    6  O9  UNL     1     -33.733   7.863   3.563  1.00 20.00    -0.381 OA
BRANCH   6   7
HETATM    7  C8  UNL     1     -32.567   7.757   2.757  1.00 20.00     0.050 C 
HETATM    8  C2  UNL     1     -32.735   8.664   1.538  1.00 20.00     0.045 C 
HETATM    9  C3  UNL     1     -31.379   8.210   3.602  1.00 20.00     0.045 C 
HETATM   10  C4  UNL     1     -32.399   6.300   2.332  1.00 20.00     0.045 C 
ENDBRANCH   6   7
ENDBRANCH   1   6
TORSDOF 4
ENDMDL
MODEL 8
REMARK VINA RESULT:      -4.0      1.223      2.082
REMARK  4 active torsions:
REMARK  status: ('A' for Active; 'I' for Inactive)
REMARK    1  A    between atoms: C5_5  and  C7_7 
REMARK    2  A    between atoms: C5_5  and  O9_9 
REMARK    3  A    between atoms: C6_6  and  C7_7 
REMARK    4  A    between atoms: C8_8  and  O9_9 
ROOT
HETATM    1  C5  UNL     1     -32.213   8.062   2.698  1.00 20.00     0.174 C 
ENDROOT
BRANCH   1   2
HETATM    2  C7  UNL     1     -31.981   9.243   1.744  1.00 20.00     0.019 C 
HETATM    3  C1  UNL     1     -33.115  10.261   1.871  1.00 20.00     0.013 C 
BRANCH   2   4
HETATM    4  C6  UNL     1     -31.753   8.800   0.289  1.00 20.00     0.121 C 
HETATM    5 CL10 UNL     1     -33.114   9.185  -0.793  1.00 20.00    -0.130 Cl
ENDBRANCH   2   4
ENDBRANCH   1   2
BRANCH   1   6
HETATM    6  O9  UNL     1     -33.602   7.831   2.890  1.00 20.00    -0.381 OA
BRANCH   6   7
HETATM    7  C8  UNL     1     -33.834   6.644   3.637  1.00 20.00     0.050 C 
HETATM    8  C2  UNL     1     -35.294   6.232   3.454  1.00 20.00     0.045 C 
HETATM    9  C3  UNL     1     -32.900   5.566   3.090  1.00 20.00     0.045 C 
HETATM   10  C4  UNL     1     -33.527   6.925   5.107  1.00 20.00     0.045 C 
ENDBRANCH   6   7
ENDBRANCH   1   6
TORSDOF 4
ENDMDL
MODEL 9
REMARK VINA RESULT:      -3.9      1.758      2.473
REMARK  4 active torsions:
REMARK  status: ('A' for Active; 'I' for Inactive)
REMARK    1  A    between atoms: C5_5  and  C7_7 
REMARK    2  A    between atoms: C5_5  and  O9_9 
REMARK    3  A    between atoms: C6_6  and  C7_7 
REMARK    4  A    between atoms: C8_8  and  O9_9 
ROOT
HETATM    1  C5  UNL     1     -33.362   6.767   2.506  1.00 20.00     0.174 C 
ENDROOT
BRANCH   1   2
HETATM    2  C7  UNL     1     -32.690   8.147   2.536  1.00 20.00     0.019 C 
HETATM    3  C1  UNL     1     -32.325   8.593   1.120  1.00 20.00     0.013 C 
BRANCH   2   4
HETATM    4  C6  UNL     1     -31.489   8.206   3.496  1.00 20.00     0.121 C 
HETATM    5 CL10 UNL     1     -31.911   8.771   5.130  1.00 20.00    -0.130 Cl
ENDBRANCH   2   4
ENDBRANCH   1   2
BRANCH   1   6
HETATM    6  O9  UNL     1     -33.086   6.042   3.696  1.00 20.00    -0.381 OA
BRANCH   6   7
HETATM    7  C8  UNL     1     -34.281   5.635   4.349  1.00 20.00     0.050 C 
HETATM    8  C2  UNL     1     -35.474   6.117   3.523  1.00 20.00     0.045 C 
HETATM    9  C3  UNL     1     -34.267   4.111   4.431  1.00 20.00     0.045 C 
HETATM   10  C4  UNL     1     -34.305   6.248   5.748  1.00 20.00     0.045 C 
ENDBRANCH   6   7
ENDBRANCH   1   6
TORSDOF 4
ENDMDL
