MODEL 1
REMARK VINA RESULT:      -5.9      0.000      0.000
REMARK  3 active torsions:
REMARK  status: ('A' for Active; 'I' for Inactive)
REMARK    1  A    between atoms: C1_1  and  C3_3 
REMARK       I    between atoms: C1_1  and  N9_9 
REMARK    2  A    between atoms: C7_7  and  C8_8 
REMARK    3  A    between atoms: C8_8  and  N9_9 
ROOT
HETATM    1  C1  UNL     1     -32.731   7.368   3.399  1.00 20.00     0.222 C 
HETATM    2  N9  UNL     1     -32.676   7.796   2.086  1.00 20.00    -0.361 N 
HETATM    3  O10 UNL     1     -32.206   7.911   4.365  1.00 20.00    -0.273 OA
HETATM    4  H25 UNL     1     -33.157   7.249   1.379  1.00 20.00     0.162 HD
ENDROOT
BRANCH   1   5
HETATM    5  C3  UNL     1     -33.507   6.138   3.594  1.00 20.00     0.082 A 
HETATM    6  C2  UNL     1     -34.993   6.159   3.353  1.00 20.00     0.019 A 
HETATM    7  C4  UNL     1     -34.471   6.055   4.761  1.00 20.00    -0.005 A 
HETATM    8  C5  UNL     1     -34.615   4.782   5.523  1.00 20.00     0.011 C 
ENDBRANCH   1   5
BRANCH   2   9
HETATM    9  C8  UNL     1     -31.966   8.985   1.672  1.00 20.00     0.122 C 
BRANCH   9  10
HETATM   10  C7  UNL     1     -32.854   9.951   0.897  1.00 20.00     0.015 C 
HETATM   11  C6  UNL     1     -33.178   9.456  -0.506  1.00 20.00     0.006 C 
ENDBRANCH   9  10
ENDBRANCH   2   9
TORSDOF 3
ENDMDL
MODEL 2
REMARK VINA RESULT:      -5.8      1.175      4.770
REMARK  3 active torsions:
REMARK  status: ('A' for Active; 'I' for Inactive)
REMARK    1  A    between atoms: C1_1  and  C3_3 
REMARK       I    between atoms: C1_1  and  N9_9 
REMARK    2  A    between atoms: C7_7  and  C8_8 
REMARK    3  A    between atoms: C8_8  and  N9_9 
ROOT
HETATM    1  C1  UNL     1     -32.352   7.954   3.165  1.00 20.00     0.222 C 
HETATM    2  N9  UNL     1     -33.491   7.412   3.731  1.00 20.00    -0.361 N 
HETATM    3  O10 UNL     1     -31.359   8.349   3.764  1.00 20.00    -0.273 OA
HETATM    4  H25 UNL     1     -34.246   7.124   3.117  1.00 20.00     0.162 HD
ENDROOT
BRANCH   1   5
HETATM    5  C3  UNL     1     -32.396   8.039   1.701  1.00 20.00     0.082 A 
HETATM    6  C2  UNL     1     -31.216   8.610   0.961  1.00 20.00     0.019 A 
HETATM    7  C4  UNL     1     -32.492   9.403   1.047  1.00 20.00    -0.005 A 
HETATM    8  C5  UNL     1     -33.340   9.594  -0.164  1.00 20.00     0.011 C 
ENDBRANCH   1   5
BRANCH   2   9
HETATM    9  C8  UNL     1     -33.658   7.235   5.156  1.00 20.00     0.122 C 
BRANCH   9  10
HETATM   10  C7  UNL     1     -34.432   5.967   5.497  1.00 20.00     0.015 C 
HETATM   11  C6  UNL     1     -34.724   5.110   4.274  1.00 20.00     0.006 C 
ENDBRANCH   9  10
ENDBRANCH   2   9
TORSDOF 3
ENDMDL
MODEL 3
REMARK VINA RESULT:      -5.7      0.845      1.075
REMARK  3 active torsions:
REMARK  status: ('A' for Active; 'I' for Inactive)
REMARK    1  A    between atoms: C1_1  and  C3_3 
REMARK       I    between atoms: C1_1  and  N9_9 
REMARK    2  A    between atoms: C7_7  and  C8_8 
REMARK    3  A    between atoms: C8_8  and  N9_9 
ROOT
HETATM    1  C1  UNL     1     -32.704   7.788   3.577  1.00 20.00     0.222 C 
HETATM    2  N9  UNL     1     -32.807   7.941   2.208  1.00 20.00    -0.361 N 
HETATM    3  O10 UNL     1     -31.751   8.111   4.277  1.00 20.00    -0.273 OA
HETATM    4  H25 UNL     1     -33.656   7.627   1.749  1.00 20.00     0.162 HD
ENDROOT
BRANCH   1   5
HETATM    5  C3  UNL     1     -33.882   7.172   4.199  1.00 20.00     0.082 A 
HETATM    6  C2  UNL     1     -33.946   7.051   5.699  1.00 20.00     0.019 A 
HETATM    7  C4  UNL     1     -33.739   5.817   4.863  1.00 20.00    -0.005 A 
HETATM    8  C5  UNL     1     -34.826   4.805   4.739  1.00 20.00     0.011 C 
ENDBRANCH   1   5
BRANCH   2   9
HETATM    9  C8  UNL     1     -31.763   8.525   1.398  1.00 20.00     0.122 C 
BRANCH   9  10
HETATM   10  C7  UNL     1     -32.236   9.763   0.644  1.00 20.00     0.015 C 
HETATM   11  C6  UNL     1     -33.195   9.429  -0.490  1.00 20.00     0.006 C 
ENDBRANCH   9  10
ENDBRANCH   2   9
TORSDOF 3
ENDMDL
MODEL 4
REMARK VINA RESULT:      -5.4      1.122      4.942
REMARK  3 active torsions:
REMARK  status: ('A' for Active; 'I' for Inactive)
REMARK    1  A    between atoms: C1_1  and  C3_3 
REMARK       I    between atoms: C1_1  and  N9_9 
REMARK    2  A    between atoms: C7_7  and  C8_8 
REMARK    3  A    between atoms: C8_8  and  N9_9 
ROOT
HETATM    1  C1  UNL     1     -33.213   7.182   3.366  1.00 20.00     0.222 C 
HETATM    2  N9  UNL     1     -34.200   6.334   2.902  1.00 20.00    -0.361 N 
HETATM    3  O10 UNL     1     -33.046   7.539   4.527  1.00 20.00    -0.273 OA
HETATM    4  H25 UNL     1     -34.226   6.121   1.909  1.00 20.00     0.162 HD
ENDROOT
BRANCH   1   5
HETATM    5  C3  UNL     1     -32.306   7.671   2.322  1.00 20.00     0.082 A 
HETATM    6  C2  UNL     1     -31.324   8.764   2.651  1.00 20.00     0.019 A 
HETATM    7  C4  UNL     1     -32.505   9.068   1.769  1.00 20.00    -0.005 A 
HETATM    8  C5  UNL     1     -32.308   9.333   0.316  1.00 20.00     0.011 C 
ENDBRANCH   1   5
BRANCH   2   9
HETATM    9  C8  UNL     1     -35.198   5.738   3.760  1.00 20.00     0.122 C 
BRANCH   9  10
HETATM   10  C7  UNL     1     -34.646   4.571   4.570  1.00 20.00     0.015 C 
HETATM   11  C6  UNL     1     -34.539   4.885   6.055  1.00 20.00     0.006 C 
ENDBRANCH   9  10
ENDBRANCH   2   9
TORSDOF 3
ENDMDL
MODEL 5
REMARK VINA RESULT:      -4.1     10.547     11.486
REMARK  3 active torsions:
REMARK  status: ('A' for Active; 'I' for Inactive)
REMARK    1  A    between atoms: C1_1  and  C3_3 
REMARK       I    between atoms: C1_1  and  N9_9 
REMARK    2  A    between atoms: C7_7  and  C8_8 
REMARK    3  A    between atoms: C8_8  and  N9_9 
ROOT
HETATM    1  C1  UNL     1     -34.321  14.439  -4.474  1.00 20.00     0.222 C 
HETATM    2  N9  UNL     1     -35.016  14.518  -5.666  1.00 20.00    -0.361 N 
HETATM    3  O10 UNL     1     -33.458  13.616  -4.188  1.00 20.00    -0.273 OA
HETATM    4  H25 UNL     1     -35.710  15.252  -5.773  1.00 20.00     0.162 HD
ENDROOT
BRANCH   1   5
HETATM    5  C3  UNL     1     -34.694  15.466  -3.496  1.00 20.00     0.082 A 
HETATM    6  C2  UNL     1     -35.069  16.842  -3.978  1.00 20.00     0.019 A 
HETATM    7  C4  UNL     1     -33.758  16.637  -3.266  1.00 20.00    -0.005 A 
HETATM    8  C5  UNL     1     -33.558  17.177  -1.892  1.00 20.00     0.011 C 
ENDBRANCH   1   5
BRANCH   2   9
HETATM    9  C8  UNL     1     -34.805  13.606  -6.766  1.00 20.00     0.122 C 
BRANCH   9  10
HETATM   10  C7  UNL     1     -34.041  14.251  -7.917  1.00 20.00     0.015 C 
HETATM   11  C6  UNL     1     -34.120  15.771  -7.896  1.00 20.00     0.006 C 
ENDBRANCH   9  10
ENDBRANCH   2   9
TORSDOF 3
ENDMDL
MODEL 6
REMARK VINA RESULT:      -4.0     11.043     11.802
REMARK  3 active torsions:
REMARK  status: ('A' for Active; 'I' for Inactive)
REMARK    1  A    between atoms: C1_1  and  C3_3 
REMARK       I    between atoms: C1_1  and  N9_9 
REMARK    2  A    between atoms: C7_7  and  C8_8 
REMARK    3  A    between atoms: C8_8  and  N9_9 
ROOT
HETATM    1  C1  UNL     1     -32.215  18.469  -0.297  1.00 20.00     0.222 C 
HETATM    2  N9  UNL     1     -32.818  18.951   0.850  1.00 20.00    -0.361 N 
HETATM    3  O10 UNL     1     -31.041  18.138  -0.419  1.00 20.00    -0.273 OA
HETATM    4  H25 UNL     1     -33.804  19.191   0.814  1.00 20.00     0.162 HD
ENDROOT
BRANCH   1   5
HETATM    5  C3  UNL     1     -33.119  18.366  -1.448  1.00 20.00     0.082 A 
HETATM    6  C2  UNL     1     -34.580  18.088  -1.215  1.00 20.00     0.019 A 
HETATM    7  C4  UNL     1     -33.705  17.014  -1.804  1.00 20.00    -0.005 A 
HETATM    8  C5  UNL     1     -33.860  16.618  -3.232  1.00 20.00     0.011 C 
ENDBRANCH   1   5
BRANCH   2   9
HETATM    9  C8  UNL     1     -32.112  19.130   2.098  1.00 20.00     0.122 C 
BRANCH   9  10
HETATM   10  C7  UNL     1     -32.948  18.717   3.303  1.00 20.00     0.015 C 
HETATM   11  C6  UNL     1     -34.416  18.511   2.957  1.00 20.00     0.006 C 
ENDBRANCH   9  10
ENDBRANCH   2   9
TORSDOF 3
ENDMDL
MODEL 7
REMARK VINA RESULT:      -4.0     10.596     11.127
REMARK  3 active torsions:
REMARK  status: ('A' for Active; 'I' for Inactive)
REMARK    1  A    between atoms: C1_1  and  C3_3 
REMARK       I    between atoms: C1_1  and  N9_9 
REMARK    2  A    between atoms: C7_7  and  C8_8 
REMARK    3  A    between atoms: C8_8  and  N9_9 
ROOT
HETATM    1  C1  UNL     1     -34.480  15.408  -3.876  1.00 20.00     0.222 C 
HETATM    2  N9  UNL     1     -35.672  14.862  -4.313  1.00 20.00    -0.361 N 
HETATM    3  O10 UNL     1     -33.359  14.943  -4.048  1.00 20.00    -0.273 OA
HETATM    4  H25 UNL     1     -36.535  15.352  -4.101  1.00 20.00     0.162 HD
ENDROOT
BRANCH   1   5
HETATM    5  C3  UNL     1     -34.635  16.669  -3.142  1.00 20.00     0.082 A 
HETATM    6  C2  UNL     1     -33.576  17.082  -2.155  1.00 20.00     0.019 A 
HETATM    7  C4  UNL     1     -34.918  16.623  -1.653  1.00 20.00    -0.005 A 
HETATM    8  C5  UNL     1     -35.864  17.598  -1.041  1.00 20.00     0.011 C 
ENDBRANCH   1   5
BRANCH   2   9
HETATM    9  C8  UNL     1     -35.749  13.625  -5.056  1.00 20.00     0.122 C 
BRANCH   9  10
HETATM   10  C7  UNL     1     -35.832  13.856  -6.561  1.00 20.00     0.015 C 
HETATM   11  C6  UNL     1     -34.535  13.516  -7.280  1.00 20.00     0.006 C 
ENDBRANCH   9  10
ENDBRANCH   2   9
TORSDOF 3
ENDMDL
MODEL 8
REMARK VINA RESULT:      -3.9     10.810     11.537
REMARK  3 active torsions:
REMARK  status: ('A' for Active; 'I' for Inactive)
REMARK    1  A    between atoms: C1_1  and  C3_3 
REMARK       I    between atoms: C1_1  and  N9_9 
REMARK    2  A    between atoms: C7_7  and  C8_8 
REMARK    3  A    between atoms: C8_8  and  N9_9 
ROOT
HETATM    1  C1  UNL     1     -33.495  15.077  -5.023  1.00 20.00     0.222 C 
HETATM    2  N9  UNL     1     -34.375  14.157  -5.561  1.00 20.00    -0.361 N 
HETATM    3  O10 UNL     1     -32.575  15.635  -5.611  1.00 20.00    -0.273 OA
HETATM    4  H25 UNL     1     -35.094  13.768  -4.959  1.00 20.00     0.162 HD
ENDROOT
BRANCH   1   5
HETATM    5  C3  UNL     1     -33.734  15.375  -3.606  1.00 20.00     0.082 A 
HETATM    6  C2  UNL     1     -35.101  15.829  -3.169  1.00 20.00     0.019 A 
HETATM    7  C4  UNL     1     -33.962  16.814  -3.186  1.00 20.00    -0.005 A 
HETATM    8  C5  UNL     1     -33.388  17.319  -1.907  1.00 20.00     0.011 C 
ENDBRANCH   1   5
BRANCH   2   9
HETATM    9  C8  UNL     1     -34.320  13.722  -6.937  1.00 20.00     0.122 C 
BRANCH   9  10
HETATM   10  C7  UNL     1     -35.678  13.796  -7.625  1.00 20.00     0.015 C 
HETATM   11  C6  UNL     1     -36.772  14.326  -6.709  1.00 20.00     0.006 C 
ENDBRANCH   9  10
ENDBRANCH   2   9
TORSDOF 3
ENDMDL
MODEL 9
REMARK VINA RESULT:      -3.8     10.530     11.279
REMARK  3 active torsions:
REMARK  status: ('A' for Active; 'I' for Inactive)
REMARK    1  A    between atoms: C1_1  and  C3_3 
REMARK       I    between atoms: C1_1  and  N9_9 
REMARK    2  A    between atoms: C7_7  and  C8_8 
REMARK    3  A    between atoms: C8_8  and  N9_9 
ROOT
HETATM    1  C1  UNL     1     -34.668  14.748  -4.112  1.00 20.00     0.222 C 
HETATM    2  N9  UNL     1     -34.703  15.985  -3.497  1.00 20.00    -0.361 N 
HETATM    3  O10 UNL     1     -33.703  13.996  -4.181  1.00 20.00    -0.273 OA
HETATM    4  H25 UNL     1     -35.572  16.509  -3.513  1.00 20.00     0.162 HD
ENDROOT
BRANCH   1   5
HETATM    5  C3  UNL     1     -35.942  14.349  -4.722  1.00 20.00     0.082 A 
HETATM    6  C2  UNL     1     -35.942  13.316  -5.817  1.00 20.00     0.019 A 
HETATM    7  C4  UNL     1     -36.229  14.755  -6.154  1.00 20.00    -0.005 A 
HETATM    8  C5  UNL     1     -37.604  15.173  -6.552  1.00 20.00     0.011 C 
ENDBRANCH   1   5
BRANCH   2   9
HETATM    9  C8  UNL     1     -33.560  16.570  -2.833  1.00 20.00     0.122 C 
BRANCH   9  10
HETATM   10  C7  UNL     1     -33.942  17.289  -1.544  1.00 20.00     0.015 C 
HETATM   11  C6  UNL     1     -35.374  17.004  -1.115  1.00 20.00     0.006 C 
ENDBRANCH   9  10
ENDBRANCH   2   9
TORSDOF 3
ENDMDL
