MODEL 1
REMARK VINA RESULT:      -5.2      0.000      0.000
REMARK  3 active torsions:
REMARK  status: ('A' for Active; 'I' for Inactive)
REMARK    1  A    between atoms: C2_2  and  C5_5 
REMARK    2  A    between atoms: C5_5  and  N7_7 
REMARK    3  A    between atoms: C6_6  and  N7_7 
ROOT
HETATM    1  C1  UNL     1     -34.972   6.332   3.374  1.00 20.00     0.052 A 
HETATM    2  C2  UNL     1     -33.490   6.094   3.295  1.00 20.00     0.055 A 
HETATM    3  C3  UNL     1     -34.216   5.903   4.608  1.00 20.00     0.119 A 
HETATM    4 CL8  UNL     1     -34.030   7.069   5.910  1.00 20.00    -0.101 Cl
HETATM    5 CL9  UNL     1     -34.449   4.251   5.181  1.00 20.00    -0.101 Cl
ENDROOT
BRANCH   2   6
HETATM    6  C5  UNL     1     -32.566   7.237   3.043  1.00 20.00     0.277 C 
BRANCH   6   7
HETATM    7  N7  UNL     1     -32.976   7.991   1.891  1.00 20.00     0.083 N 
HETATM    8  H20 UNL     1     -33.881   8.443   2.066  1.00 20.00     0.315 HD
BRANCH   7   9
HETATM    9  C6  UNL     1     -32.002   9.029   1.548  1.00 20.00     0.265 C 
HETATM   10  C4  UNL     1     -32.679  10.248   1.022  1.00 20.00     0.037 C 
ENDBRANCH   7   9
ENDBRANCH   6   7
ENDBRANCH   2   6
TORSDOF 3
ENDMDL
MODEL 2
REMARK VINA RESULT:      -4.8      1.632      2.124
REMARK  3 active torsions:
REMARK  status: ('A' for Active; 'I' for Inactive)
REMARK    1  A    between atoms: C2_2  and  C5_5 
REMARK    2  A    between atoms: C5_5  and  N7_7 
REMARK    3  A    between atoms: C6_6  and  N7_7 
ROOT
HETATM    1  C1  UNL     1     -33.014   7.169   4.346  1.00 20.00     0.052 A 
HETATM    2  C2  UNL     1     -33.448   7.671   2.997  1.00 20.00     0.055 A 
HETATM    3  C3  UNL     1     -33.782   6.258   3.419  1.00 20.00     0.119 A 
HETATM    4 CL8  UNL     1     -32.932   4.890   2.714  1.00 20.00    -0.101 Cl
HETATM    5 CL9  UNL     1     -35.461   5.900   3.824  1.00 20.00    -0.101 Cl
ENDROOT
BRANCH   2   6
HETATM    6  C5  UNL     1     -32.427   7.982   1.955  1.00 20.00     0.277 C 
BRANCH   6   7
HETATM    7  N7  UNL     1     -32.042   9.366   2.004  1.00 20.00     0.083 N 
HETATM    8  H20 UNL     1     -31.040   9.462   1.800  1.00 20.00     0.315 HD
BRANCH   7   9
HETATM    9  C6  UNL     1     -32.788  10.171   1.037  1.00 20.00     0.265 C 
HETATM   10  C4  UNL     1     -32.971   9.436  -0.246  1.00 20.00     0.037 C 
ENDBRANCH   7   9
ENDBRANCH   6   7
ENDBRANCH   2   6
TORSDOF 3
ENDMDL
MODEL 3
REMARK VINA RESULT:      -4.7      3.432      4.895
REMARK  3 active torsions:
REMARK  status: ('A' for Active; 'I' for Inactive)
REMARK    1  A    between atoms: C2_2  and  C5_5 
REMARK    2  A    between atoms: C5_5  and  N7_7 
REMARK    3  A    between atoms: C6_6  and  N7_7 
ROOT
HETATM    1  C1  UNL     1     -31.194   8.768   0.839  1.00 20.00     0.052 A 
HETATM    2  C2  UNL     1     -32.382   8.151   1.522  1.00 20.00     0.055 A 
HETATM    3  C3  UNL     1     -32.527   9.474   0.804  1.00 20.00     0.119 A 
HETATM    4 CL8  UNL     1     -32.693  10.970   1.713  1.00 20.00    -0.101 Cl
HETATM    5 CL9  UNL     1     -33.412   9.485  -0.721  1.00 20.00    -0.101 Cl
ENDROOT
BRANCH   2   6
HETATM    6  C5  UNL     1     -32.407   8.032   3.008  1.00 20.00     0.277 C 
BRANCH   6   7
HETATM    7  N7  UNL     1     -32.911   6.750   3.418  1.00 20.00     0.083 N 
HETATM    8  H20 UNL     1     -32.185   6.229   3.923  1.00 20.00     0.315 HD
BRANCH   7   9
HETATM    9  C6  UNL     1     -34.076   6.881   4.294  1.00 20.00     0.265 C 
HETATM   10  C4  UNL     1     -33.671   7.281   5.671  1.00 20.00     0.037 C 
ENDBRANCH   7   9
ENDBRANCH   6   7
ENDBRANCH   2   6
TORSDOF 3
ENDMDL
MODEL 4
REMARK VINA RESULT:      -4.7      3.190      4.632
REMARK  3 active torsions:
REMARK  status: ('A' for Active; 'I' for Inactive)
REMARK    1  A    between atoms: C2_2  and  C5_5 
REMARK    2  A    between atoms: C5_5  and  N7_7 
REMARK    3  A    between atoms: C6_6  and  N7_7 
ROOT
HETATM    1  C1  UNL     1     -31.461   8.407   3.152  1.00 20.00     0.052 A 
HETATM    2  C2  UNL     1     -32.500   7.472   2.597  1.00 20.00     0.055 A 
HETATM    3  C3  UNL     1     -32.108   8.712   1.824  1.00 20.00     0.119 A 
HETATM    4 CL8  UNL     1     -33.197  10.089   1.731  1.00 20.00    -0.101 Cl
HETATM    5 CL9  UNL     1     -31.137   8.494   0.367  1.00 20.00    -0.101 Cl
ENDROOT
BRANCH   2   6
HETATM    6  C5  UNL     1     -33.816   7.332   3.283  1.00 20.00     0.277 C 
BRANCH   6   7
HETATM    7  N7  UNL     1     -33.994   6.002   3.796  1.00 20.00     0.083 N 
HETATM    8  H20 UNL     1     -33.111   5.481   3.747  1.00 20.00     0.315 HD
BRANCH   7   9
HETATM    9  C6  UNL     1     -34.444   6.014   5.189  1.00 20.00     0.265 C 
HETATM   10  C4  UNL     1     -33.857   7.165   5.932  1.00 20.00     0.037 C 
ENDBRANCH   7   9
ENDBRANCH   6   7
ENDBRANCH   2   6
TORSDOF 3
ENDMDL
MODEL 5
REMARK VINA RESULT:      -4.6      1.258      1.452
REMARK  3 active torsions:
REMARK  status: ('A' for Active; 'I' for Inactive)
REMARK    1  A    between atoms: C2_2  and  C5_5 
REMARK    2  A    between atoms: C5_5  and  N7_7 
REMARK    3  A    between atoms: C6_6  and  N7_7 
ROOT
HETATM    1  C1  UNL     1     -33.331   5.162   2.948  1.00 20.00     0.052 A 
HETATM    2  C2  UNL     1     -33.075   6.534   3.507  1.00 20.00     0.055 A 
HETATM    3  C3  UNL     1     -34.281   5.745   3.965  1.00 20.00     0.119 A 
HETATM    4 CL8  UNL     1     -35.895   6.188   3.429  1.00 20.00    -0.101 Cl
HETATM    5 CL9  UNL     1     -34.249   5.077   5.598  1.00 20.00    -0.101 Cl
ENDROOT
BRANCH   2   6
HETATM    6  C5  UNL     1     -33.182   7.729   2.621  1.00 20.00     0.277 C 
BRANCH   6   7
HETATM    7  N7  UNL     1     -31.888   8.294   2.354  1.00 20.00     0.083 N 
HETATM    8  H20 UNL     1     -31.170   7.560   2.371  1.00 20.00     0.315 HD
BRANCH   7   9
HETATM    9  C6  UNL     1     -31.843   8.950   1.046  1.00 20.00     0.265 C 
HETATM   10  C4  UNL     1     -32.661  10.195   1.042  1.00 20.00     0.037 C 
ENDBRANCH   7   9
ENDBRANCH   6   7
ENDBRANCH   2   6
TORSDOF 3
ENDMDL
MODEL 6
REMARK VINA RESULT:      -4.4      3.020      4.590
REMARK  3 active torsions:
REMARK  status: ('A' for Active; 'I' for Inactive)
REMARK    1  A    between atoms: C2_2  and  C5_5 
REMARK    2  A    between atoms: C5_5  and  N7_7 
REMARK    3  A    between atoms: C6_6  and  N7_7 
ROOT
HETATM    1  C1  UNL     1     -32.788   6.516   2.588  1.00 20.00     0.052 A 
HETATM    2  C2  UNL     1     -33.655   7.373   3.468  1.00 20.00     0.055 A 
HETATM    3  C3  UNL     1     -32.445   7.972   2.787  1.00 20.00     0.119 A 
HETATM    4 CL8  UNL     1     -31.001   8.361   3.712  1.00 20.00    -0.101 Cl
HETATM    5 CL9  UNL     1     -32.726   9.074   1.439  1.00 20.00    -0.101 Cl
ENDROOT
BRANCH   2   6
HETATM    6  C5  UNL     1     -33.711   7.115   4.935  1.00 20.00     0.277 C 
BRANCH   6   7
HETATM    7  N7  UNL     1     -34.815   6.259   5.269  1.00 20.00     0.083 N 
HETATM    8  H20 UNL     1     -35.450   6.168   4.467  1.00 20.00     0.315 HD
BRANCH   7   9
HETATM    9  C6  UNL     1     -34.366   4.920   5.654  1.00 20.00     0.265 C 
HETATM   10  C4  UNL     1     -34.351   4.001   4.482  1.00 20.00     0.037 C 
ENDBRANCH   7   9
ENDBRANCH   6   7
ENDBRANCH   2   6
TORSDOF 3
ENDMDL
MODEL 7
REMARK VINA RESULT:      -3.7     11.214     12.197
REMARK  3 active torsions:
REMARK  status: ('A' for Active; 'I' for Inactive)
REMARK    1  A    between atoms: C2_2  and  C5_5 
REMARK    2  A    between atoms: C5_5  and  N7_7 
REMARK    3  A    between atoms: C6_6  and  N7_7 
ROOT
HETATM    1  C1  UNL     1     -33.184  14.654  -4.230  1.00 20.00     0.052 A 
HETATM    2  C2  UNL     1     -33.290  15.942  -4.999  1.00 20.00     0.055 A 
HETATM    3  C3  UNL     1     -34.241  15.664  -3.856  1.00 20.00     0.119 A 
HETATM    4 CL8  UNL     1     -35.922  15.257  -4.172  1.00 20.00    -0.101 Cl
HETATM    5 CL9  UNL     1     -34.014  16.576  -2.363  1.00 20.00    -0.101 Cl
ENDROOT
BRANCH   2   6
HETATM    6  C5  UNL     1     -33.717  15.923  -6.427  1.00 20.00     0.277 C 
BRANCH   6   7
HETATM    7  N7  UNL     1     -33.274  14.725  -7.085  1.00 20.00     0.083 N 
HETATM    8  H20 UNL     1     -32.987  14.025  -6.391  1.00 20.00     0.315 HD
BRANCH   7   9
HETATM    9  C6  UNL     1     -34.327  14.142  -7.918  1.00 20.00     0.265 C 
HETATM   10  C4  UNL     1     -35.096  13.110  -7.167  1.00 20.00     0.037 C 
ENDBRANCH   7   9
ENDBRANCH   6   7
ENDBRANCH   2   6
TORSDOF 3
ENDMDL
MODEL 8
REMARK VINA RESULT:      -3.6     11.297     12.181
REMARK  3 active torsions:
REMARK  status: ('A' for Active; 'I' for Inactive)
REMARK    1  A    between atoms: C2_2  and  C5_5 
REMARK    2  A    between atoms: C5_5  and  N7_7 
REMARK    3  A    between atoms: C6_6  and  N7_7 
ROOT
HETATM    1  C1  UNL     1     -34.966  16.019  -3.545  1.00 20.00     0.052 A 
HETATM    2  C2  UNL     1     -33.573  15.493  -3.750  1.00 20.00     0.055 A 
HETATM    3  C3  UNL     1     -33.783  16.927  -3.320  1.00 20.00     0.119 A 
HETATM    4 CL8  UNL     1     -33.526  18.247  -4.452  1.00 20.00    -0.101 Cl
HETATM    5 CL9  UNL     1     -33.377  17.350  -1.656  1.00 20.00    -0.101 Cl
ENDROOT
BRANCH   2   6
HETATM    6  C5  UNL     1     -33.112  15.120  -5.118  1.00 20.00     0.277 C 
BRANCH   6   7
HETATM    7  N7  UNL     1     -33.681  13.868  -5.534  1.00 20.00     0.083 N 
HETATM    8  H20 UNL     1     -34.352  13.532  -4.832  1.00 20.00     0.315 HD
BRANCH   7   9
HETATM    9  C6  UNL     1     -34.378  13.988  -6.815  1.00 20.00     0.265 C 
HETATM   10  C4  UNL     1     -33.960  15.221  -7.540  1.00 20.00     0.037 C 
ENDBRANCH   7   9
ENDBRANCH   6   7
ENDBRANCH   2   6
TORSDOF 3
ENDMDL
MODEL 9
REMARK VINA RESULT:      -3.6     10.866     11.443
REMARK  3 active torsions:
REMARK  status: ('A' for Active; 'I' for Inactive)
REMARK    1  A    between atoms: C2_2  and  C5_5 
REMARK    2  A    between atoms: C5_5  and  N7_7 
REMARK    3  A    between atoms: C6_6  and  N7_7 
ROOT
HETATM    1  C1  UNL     1     -35.344  17.330  -3.336  1.00 20.00     0.052 A 
HETATM    2  C2  UNL     1     -34.983  15.905  -3.023  1.00 20.00     0.055 A 
HETATM    3  C3  UNL     1     -34.631  17.005  -2.047  1.00 20.00     0.119 A 
HETATM    4 CL8  UNL     1     -32.966  17.539  -1.866  1.00 20.00    -0.101 Cl
HETATM    5 CL9  UNL     1     -35.558  17.097  -0.549  1.00 20.00    -0.101 Cl
ENDROOT
BRANCH   2   6
HETATM    6  C5  UNL     1     -33.961  15.198  -3.846  1.00 20.00     0.277 C 
BRANCH   6   7
HETATM    7  N7  UNL     1     -34.392  13.868  -4.179  1.00 20.00     0.083 N 
HETATM    8  H20 UNL     1     -34.470  13.297  -3.329  1.00 20.00     0.315 HD
BRANCH   7   9
HETATM    9  C6  UNL     1     -35.691  13.872  -4.853  1.00 20.00     0.265 C 
HETATM   10  C4  UNL     1     -35.559  13.457  -6.278  1.00 20.00     0.037 C 
ENDBRANCH   7   9
ENDBRANCH   6   7
ENDBRANCH   2   6
TORSDOF 3
ENDMDL
