MODEL 1
REMARK VINA RESULT:      -5.0      0.000      0.000
REMARK  3 active torsions:
REMARK  status: ('A' for Active; 'I' for Inactive)
REMARK    1  A    between atoms: C2_2  and  C5_5 
REMARK    2  A    between atoms: C5_5  and  N7_7 
REMARK    3  A    between atoms: C6_6  and  N7_7 
ROOT
HETATM    1  C1  UNL     1     -32.809   5.771   3.084  1.00 20.00     0.052 A 
HETATM    2  C2  UNL     1     -33.197   7.148   2.622  1.00 20.00     0.055 A 
HETATM    3  C3  UNL     1     -33.868   6.542   3.834  1.00 20.00     0.119 A 
HETATM    4 CL8  UNL     1     -35.543   6.015   3.664  1.00 20.00    -0.101 Cl
HETATM    5 CL9  UNL     1     -33.484   7.117   5.451  1.00 20.00    -0.101 Cl
ENDROOT
BRANCH   2   6
HETATM    6  C5  UNL     1     -32.218   8.269   2.718  1.00 20.00     0.277 C 
BRANCH   6   7
HETATM    7  N7  UNL     1     -31.728   8.640   1.419  1.00 20.00     0.083 N 
HETATM    8  H20 UNL     1     -30.735   8.896   1.474  1.00 20.00     0.315 HD
BRANCH   7   9
HETATM    9  C6  UNL     1     -32.466   9.778   0.868  1.00 20.00     0.265 C 
HETATM   10  C4  UNL     1     -33.135   9.416  -0.414  1.00 20.00     0.037 C 
ENDBRANCH   7   9
ENDBRANCH   6   7
ENDBRANCH   2   6
TORSDOF 3
ENDMDL
MODEL 2
REMARK VINA RESULT:      -4.8      1.664      2.051
REMARK  3 active torsions:
REMARK  status: ('A' for Active; 'I' for Inactive)
REMARK    1  A    between atoms: C2_2  and  C5_5 
REMARK    2  A    between atoms: C5_5  and  N7_7 
REMARK    3  A    between atoms: C6_6  and  N7_7 
ROOT
HETATM    1  C1  UNL     1     -34.882   6.403   3.269  1.00 20.00     0.052 A 
HETATM    2  C2  UNL     1     -33.666   6.798   4.060  1.00 20.00     0.055 A 
HETATM    3  C3  UNL     1     -33.941   5.338   3.776  1.00 20.00     0.119 A 
HETATM    4 CL8  UNL     1     -34.486   4.332   5.119  1.00 20.00    -0.101 Cl
HETATM    5 CL9  UNL     1     -32.975   4.459   2.599  1.00 20.00    -0.101 Cl
ENDROOT
BRANCH   2   6
HETATM    6  C5  UNL     1     -32.563   7.554   3.402  1.00 20.00     0.277 C 
BRANCH   6   7
HETATM    7  N7  UNL     1     -32.967   8.041   2.112  1.00 20.00     0.083 N 
HETATM    8  H20 UNL     1     -33.055   7.261   1.449  1.00 20.00     0.315 HD
BRANCH   7   9
HETATM    9  C6  UNL     1     -32.001   8.998   1.569  1.00 20.00     0.265 C 
HETATM   10  C4  UNL     1     -32.687  10.213   1.042  1.00 20.00     0.037 C 
ENDBRANCH   7   9
ENDBRANCH   6   7
ENDBRANCH   2   6
TORSDOF 3
ENDMDL
MODEL 3
REMARK VINA RESULT:      -4.7      1.339      1.994
REMARK  3 active torsions:
REMARK  status: ('A' for Active; 'I' for Inactive)
REMARK    1  A    between atoms: C2_2  and  C5_5 
REMARK    2  A    between atoms: C5_5  and  N7_7 
REMARK    3  A    between atoms: C6_6  and  N7_7 
ROOT
HETATM    1  C1  UNL     1     -33.825   7.350   5.043  1.00 20.00     0.052 A 
HETATM    2  C2  UNL     1     -33.082   6.582   3.985  1.00 20.00     0.055 A 
HETATM    3  C3  UNL     1     -34.390   6.050   4.525  1.00 20.00     0.119 A 
HETATM    4 CL8  UNL     1     -34.324   4.643   5.588  1.00 20.00    -0.101 Cl
HETATM    5 CL9  UNL     1     -35.852   6.113   3.551  1.00 20.00    -0.101 Cl
ENDROOT
BRANCH   2   6
HETATM    6  C5  UNL     1     -32.947   7.149   2.612  1.00 20.00     0.277 C 
BRANCH   6   7
HETATM    7  N7  UNL     1     -32.105   8.314   2.614  1.00 20.00     0.083 N 
HETATM    8  H20 UNL     1     -32.510   9.044   3.212  1.00 20.00     0.315 HD
BRANCH   7   9
HETATM    9  C6  UNL     1     -31.941   8.863   1.266  1.00 20.00     0.265 C 
HETATM   10  C4  UNL     1     -32.644  10.172   1.130  1.00 20.00     0.037 C 
ENDBRANCH   7   9
ENDBRANCH   6   7
ENDBRANCH   2   6
TORSDOF 3
ENDMDL
MODEL 4
REMARK VINA RESULT:      -4.6      3.073      4.574
REMARK  3 active torsions:
REMARK  status: ('A' for Active; 'I' for Inactive)
REMARK    1  A    between atoms: C2_2  and  C5_5 
REMARK    2  A    between atoms: C5_5  and  N7_7 
REMARK    3  A    between atoms: C6_6  and  N7_7 
ROOT
HETATM    1  C1  UNL     1     -31.574   8.616   3.195  1.00 20.00     0.052 A 
HETATM    2  C2  UNL     1     -32.847   7.935   2.773  1.00 20.00     0.055 A 
HETATM    3  C3  UNL     1     -32.139   8.869   1.818  1.00 20.00     0.119 A 
HETATM    4 CL8  UNL     1     -32.880  10.440   1.510  1.00 20.00    -0.101 Cl
HETATM    5 CL9  UNL     1     -31.259   8.235   0.434  1.00 20.00    -0.101 Cl
ENDROOT
BRANCH   2   6
HETATM    6  C5  UNL     1     -32.872   6.456   2.585  1.00 20.00     0.277 C 
BRANCH   6   7
HETATM    7  N7  UNL     1     -34.041   5.878   3.189  1.00 20.00     0.083 N 
HETATM    8  H20 UNL     1     -34.880   6.131   2.653  1.00 20.00     0.315 HD
BRANCH   7   9
HETATM    9  C6  UNL     1     -34.222   6.339   4.567  1.00 20.00     0.265 C 
HETATM   10  C4  UNL     1     -34.669   5.225   5.452  1.00 20.00     0.037 C 
ENDBRANCH   7   9
ENDBRANCH   6   7
ENDBRANCH   2   6
TORSDOF 3
ENDMDL
MODEL 5
REMARK VINA RESULT:      -4.0      2.832      4.364
REMARK  3 active torsions:
REMARK  status: ('A' for Active; 'I' for Inactive)
REMARK    1  A    between atoms: C2_2  and  C5_5 
REMARK    2  A    between atoms: C5_5  and  N7_7 
REMARK    3  A    between atoms: C6_6  and  N7_7 
ROOT
HETATM    1  C1  UNL     1     -33.659   8.284   2.479  1.00 20.00     0.052 A 
HETATM    2  C2  UNL     1     -33.128   6.899   2.230  1.00 20.00     0.055 A 
HETATM    3  C3  UNL     1     -32.171   8.064   2.354  1.00 20.00     0.119 A 
HETATM    4 CL8  UNL     1     -31.379   8.630   0.883  1.00 20.00    -0.101 Cl
HETATM    5 CL9  UNL     1     -31.182   8.260   3.793  1.00 20.00    -0.101 Cl
ENDROOT
BRANCH   2   6
HETATM    6  C5  UNL     1     -33.263   5.851   3.281  1.00 20.00     0.277 C 
BRANCH   6   7
HETATM    7  N7  UNL     1     -34.576   5.868   3.864  1.00 20.00     0.083 N 
HETATM    8  H20 UNL     1     -35.070   6.729   3.602  1.00 20.00     0.315 HD
BRANCH   7   9
HETATM    9  C6  UNL     1     -34.520   5.798   5.325  1.00 20.00     0.265 C 
HETATM   10  C4  UNL     1     -33.915   7.035   5.900  1.00 20.00     0.037 C 
ENDBRANCH   7   9
ENDBRANCH   6   7
ENDBRANCH   2   6
TORSDOF 3
ENDMDL
MODEL 6
REMARK VINA RESULT:      -3.8     10.182     11.145
REMARK  3 active torsions:
REMARK  status: ('A' for Active; 'I' for Inactive)
REMARK    1  A    between atoms: C2_2  and  C5_5 
REMARK    2  A    between atoms: C5_5  and  N7_7 
REMARK    3  A    between atoms: C6_6  and  N7_7 
ROOT
HETATM    1  C1  UNL     1     -33.153  14.476  -4.242  1.00 20.00     0.052 A 
HETATM    2  C2  UNL     1     -34.643  14.656  -4.137  1.00 20.00     0.055 A 
HETATM    3  C3  UNL     1     -33.732  15.863  -4.104  1.00 20.00     0.119 A 
HETATM    4 CL8  UNL     1     -33.526  16.689  -2.559  1.00 20.00    -0.101 Cl
HETATM    5 CL9  UNL     1     -33.630  16.944  -5.486  1.00 20.00    -0.101 Cl
ENDROOT
BRANCH   2   6
HETATM    6  C5  UNL     1     -35.515  14.335  -5.302  1.00 20.00     0.277 C 
BRANCH   6   7
HETATM    7  N7  UNL     1     -35.152  13.074  -5.889  1.00 20.00     0.083 N 
HETATM    8  H20 UNL     1     -34.210  12.799  -5.585  1.00 20.00     0.315 HD
BRANCH   7   9
HETATM    9  C6  UNL     1     -35.162  13.136  -7.352  1.00 20.00     0.265 C 
HETATM   10  C4  UNL     1     -34.147  14.105  -7.856  1.00 20.00     0.037 C 
ENDBRANCH   7   9
ENDBRANCH   6   7
ENDBRANCH   2   6
TORSDOF 3
ENDMDL
MODEL 7
REMARK VINA RESULT:      -3.7     10.189     11.039
REMARK  3 active torsions:
REMARK  status: ('A' for Active; 'I' for Inactive)
REMARK    1  A    between atoms: C2_2  and  C5_5 
REMARK    2  A    between atoms: C5_5  and  N7_7 
REMARK    3  A    between atoms: C6_6  and  N7_7 
ROOT
HETATM    1  C1  UNL     1     -33.737  16.880  -4.443  1.00 20.00     0.052 A 
HETATM    2  C2  UNL     1     -33.527  15.515  -3.850  1.00 20.00     0.055 A 
HETATM    3  C3  UNL     1     -34.199  16.597  -3.035  1.00 20.00     0.119 A 
HETATM    4 CL8  UNL     1     -33.281  17.312  -1.709  1.00 20.00    -0.101 Cl
HETATM    5 CL9  UNL     1     -35.929  16.540  -2.727  1.00 20.00    -0.101 Cl
ENDROOT
BRANCH   2   6
HETATM    6  C5  UNL     1     -34.265  14.342  -4.400  1.00 20.00     0.277 C 
BRANCH   6   7
HETATM    7  N7  UNL     1     -33.627  13.838  -5.584  1.00 20.00     0.083 N 
HETATM    8  H20 UNL     1     -32.824  14.428  -5.834  1.00 20.00     0.315 HD
BRANCH   7   9
HETATM    9  C6  UNL     1     -34.547  13.809  -6.723  1.00 20.00     0.265 C 
HETATM   10  C4  UNL     1     -33.944  14.467  -7.918  1.00 20.00     0.037 C 
ENDBRANCH   7   9
ENDBRANCH   6   7
ENDBRANCH   2   6
TORSDOF 3
ENDMDL
MODEL 8
REMARK VINA RESULT:      -3.6      3.039      4.519
REMARK  3 active torsions:
REMARK  status: ('A' for Active; 'I' for Inactive)
REMARK    1  A    between atoms: C2_2  and  C5_5 
REMARK    2  A    between atoms: C5_5  and  N7_7 
REMARK    3  A    between atoms: C6_6  and  N7_7 
ROOT
HETATM    1  C1  UNL     1     -33.060   7.207   1.879  1.00 20.00     0.052 A 
HETATM    2  C2  UNL     1     -32.096   7.613   2.960  1.00 20.00     0.055 A 
HETATM    3  C3  UNL     1     -32.306   8.509   1.760  1.00 20.00     0.119 A 
HETATM    4 CL8  UNL     1     -31.006   8.599   0.570  1.00 20.00    -0.101 Cl
HETATM    5 CL9  UNL     1     -33.213  10.007   1.909  1.00 20.00    -0.101 Cl
ENDROOT
BRANCH   2   6
HETATM    6  C5  UNL     1     -32.604   7.955   4.320  1.00 20.00     0.277 C 
BRANCH   6   7
HETATM    7  N7  UNL     1     -33.918   7.413   4.532  1.00 20.00     0.083 N 
HETATM    8  H20 UNL     1     -34.617   8.165   4.533  1.00 20.00     0.315 HD
BRANCH   7   9
HETATM    9  C6  UNL     1     -34.008   6.701   5.809  1.00 20.00     0.265 C 
HETATM   10  C4  UNL     1     -34.576   5.335   5.625  1.00 20.00     0.037 C 
ENDBRANCH   7   9
ENDBRANCH   6   7
ENDBRANCH   2   6
TORSDOF 3
ENDMDL
MODEL 9
REMARK VINA RESULT:      -3.5      2.921      4.474
REMARK  3 active torsions:
REMARK  status: ('A' for Active; 'I' for Inactive)
REMARK    1  A    between atoms: C2_2  and  C5_5 
REMARK    2  A    between atoms: C5_5  and  N7_7 
REMARK    3  A    between atoms: C6_6  and  N7_7 
ROOT
HETATM    1  C1  UNL     1     -31.411   8.104   3.701  1.00 20.00     0.052 A 
HETATM    2  C2  UNL     1     -32.831   8.132   4.196  1.00 20.00     0.055 A 
HETATM    3  C3  UNL     1     -32.525   7.608   2.811  1.00 20.00     0.119 A 
HETATM    4 CL8  UNL     1     -32.986   8.613   1.436  1.00 20.00    -0.101 Cl
HETATM    5 CL9  UNL     1     -32.605   5.886   2.468  1.00 20.00    -0.101 Cl
ENDROOT
BRANCH   2   6
HETATM    6  C5  UNL     1     -33.245   7.246   5.321  1.00 20.00     0.277 C 
BRANCH   6   7
HETATM    7  N7  UNL     1     -34.532   6.658   5.070  1.00 20.00     0.083 N 
HETATM    8  H20 UNL     1     -35.275   7.247   5.464  1.00 20.00     0.315 HD
BRANCH   7   9
HETATM    9  C6  UNL     1     -34.641   5.323   5.662  1.00 20.00     0.265 C 
HETATM   10  C4  UNL     1     -34.472   4.261   4.630  1.00 20.00     0.037 C 
ENDBRANCH   7   9
ENDBRANCH   6   7
ENDBRANCH   2   6
TORSDOF 3
ENDMDL
