MODEL 1
REMARK VINA RESULT:      -5.1      0.000      0.000
REMARK  6 active torsions:
REMARK  status: ('A' for Active; 'I' for Inactive)
REMARK    1  A    between atoms: C5_5  and  C8_8 
REMARK    2  A    between atoms: C6_6  and  C9_9 
REMARK    3  A    between atoms: C7_7  and  C10_10 
REMARK    4  A    between atoms: C8_8  and  N11_11 
REMARK    5  A    between atoms: C9_9  and  N11_11 
REMARK    6  A    between atoms: C10_10  and  N11_11 
ROOT
HETATM    1  C1  UNL     1     -32.727  10.624   1.011  1.00 20.00     0.012 C 
HETATM    2  C2  UNL     1     -32.331   9.536   1.329  1.00 20.00    -0.116 C 
HETATM    3  C5  UNL     1     -31.844   8.203   1.716  1.00 20.00     0.123 C 
ENDROOT
BRANCH   3   4
HETATM    4  C8  UNL     1     -31.732   8.051   3.229  1.00 20.00     0.284 C 
BRANCH   4   5
HETATM    5  N11 UNL     1     -32.698   7.073   3.728  1.00 20.00     0.089 N 
BRANCH   5   6
HETATM    6  C9  UNL     1     -33.301   6.337   2.617  1.00 20.00     0.272 C 
BRANCH   6   7
HETATM    7  C6  UNL     1     -32.978   4.848   2.665  1.00 20.00     0.026 C 
HETATM    8  C3  UNL     1     -33.880   4.081   3.621  1.00 20.00     0.007 C 
ENDBRANCH   6   7
ENDBRANCH   5   6
BRANCH   5   9
HETATM    9  C10 UNL     1     -33.732   7.734   4.522  1.00 20.00     0.272 C 
BRANCH   9  10
HETATM   10  C7  UNL     1     -33.823   7.177   5.938  1.00 20.00     0.026 C 
HETATM   11  C4  UNL     1     -34.661   5.908   6.018  1.00 20.00     0.007 C 
ENDBRANCH   9  10
ENDBRANCH   5   9
ENDBRANCH   4   5
ENDBRANCH   3   4
TORSDOF 6
ENDMDL
MODEL 2
REMARK VINA RESULT:      -5.0      0.874      4.622
REMARK  6 active torsions:
REMARK  status: ('A' for Active; 'I' for Inactive)
REMARK    1  A    between atoms: C5_5  and  C8_8 
REMARK    2  A    between atoms: C6_6  and  C9_9 
REMARK    3  A    between atoms: C7_7  and  C10_10 
REMARK    4  A    between atoms: C8_8  and  N11_11 
REMARK    5  A    between atoms: C9_9  and  N11_11 
REMARK    6  A    between atoms: C10_10  and  N11_11 
ROOT
HETATM    1  C1  UNL     1     -34.411   4.112   4.580  1.00 20.00     0.012 C 
HETATM    2  C2  UNL     1     -33.826   4.594   3.649  1.00 20.00    -0.116 C 
HETATM    3  C5  UNL     1     -33.109   5.181   2.506  1.00 20.00     0.123 C 
ENDROOT
BRANCH   3   4
HETATM    4  C8  UNL     1     -33.279   6.695   2.442  1.00 20.00     0.284 C 
BRANCH   4   5
HETATM    5  N11 UNL     1     -32.046   7.375   2.839  1.00 20.00     0.089 N 
BRANCH   5   6
HETATM    6  C9  UNL     1     -32.217   8.028   4.136  1.00 20.00     0.272 C 
BRANCH   6   7
HETATM    7  C6  UNL     1     -33.631   7.872   4.682  1.00 20.00     0.026 C 
HETATM    8  C3  UNL     1     -33.658   7.322   6.101  1.00 20.00     0.007 C 
ENDBRANCH   6   7
ENDBRANCH   5   6
BRANCH   5   9
HETATM    9  C10 UNL     1     -31.651   8.351   1.824  1.00 20.00     0.272 C 
BRANCH   9  10
HETATM   10  C7  UNL     1     -32.786   9.300   1.459  1.00 20.00     0.026 C 
HETATM   11  C4  UNL     1     -32.887   9.547  -0.041  1.00 20.00     0.007 C 
ENDBRANCH   9  10
ENDBRANCH   5   9
ENDBRANCH   4   5
ENDBRANCH   3   4
TORSDOF 6
ENDMDL
MODEL 3
REMARK VINA RESULT:      -4.9      0.716      4.585
REMARK  6 active torsions:
REMARK  status: ('A' for Active; 'I' for Inactive)
REMARK    1  A    between atoms: C5_5  and  C8_8 
REMARK    2  A    between atoms: C6_6  and  C9_9 
REMARK    3  A    between atoms: C7_7  and  C10_10 
REMARK    4  A    between atoms: C8_8  and  N11_11 
REMARK    5  A    between atoms: C9_9  and  N11_11 
REMARK    6  A    between atoms: C10_10  and  N11_11 
ROOT
HETATM    1  C1  UNL     1     -34.703   5.011   5.962  1.00 20.00     0.012 C 
HETATM    2  C2  UNL     1     -34.175   6.073   5.772  1.00 20.00    -0.116 C 
HETATM    3  C5  UNL     1     -33.527   7.374   5.543  1.00 20.00     0.123 C 
ENDROOT
BRANCH   3   4
HETATM    4  C8  UNL     1     -33.693   7.850   4.104  1.00 20.00     0.284 C 
BRANCH   4   5
HETATM    5  N11 UNL     1     -32.526   7.492   3.298  1.00 20.00     0.089 N 
BRANCH   5   6
HETATM    6  C9  UNL     1     -31.786   8.691   2.910  1.00 20.00     0.272 C 
BRANCH   6   7
HETATM    7  C6  UNL     1     -31.921   9.000   1.423  1.00 20.00     0.026 C 
HETATM    8  C3  UNL     1     -32.661  10.303   1.157  1.00 20.00     0.007 C 
ENDBRANCH   6   7
ENDBRANCH   5   6
BRANCH   5   9
HETATM    9  C10 UNL     1     -32.934   6.737   2.114  1.00 20.00     0.272 C 
BRANCH   9  10
HETATM   10  C7  UNL     1     -33.802   5.534   2.463  1.00 20.00     0.026 C 
HETATM   11  C4  UNL     1     -32.990   4.263   2.672  1.00 20.00     0.007 C 
ENDBRANCH   9  10
ENDBRANCH   5   9
ENDBRANCH   4   5
ENDBRANCH   3   4
TORSDOF 6
ENDMDL
MODEL 4
REMARK VINA RESULT:      -4.9      0.986      2.506
REMARK  6 active torsions:
REMARK  status: ('A' for Active; 'I' for Inactive)
REMARK    1  A    between atoms: C5_5  and  C8_8 
REMARK    2  A    between atoms: C6_6  and  C9_9 
REMARK    3  A    between atoms: C7_7  and  C10_10 
REMARK    4  A    between atoms: C8_8  and  N11_11 
REMARK    5  A    between atoms: C9_9  and  N11_11 
REMARK    6  A    between atoms: C10_10  and  N11_11 
ROOT
HETATM    1  C1  UNL     1     -33.008   9.347  -0.529  1.00 20.00     0.012 C 
HETATM    2  C2  UNL     1     -32.586   9.345   0.595  1.00 20.00    -0.116 C 
HETATM    3  C5  UNL     1     -32.069   9.345   1.973  1.00 20.00     0.123 C 
ENDROOT
BRANCH   3   4
HETATM    4  C8  UNL     1     -31.776   7.935   2.473  1.00 20.00     0.284 C 
BRANCH   4   5
HETATM    5  N11 UNL     1     -33.014   7.172   2.637  1.00 20.00     0.089 N 
BRANCH   5   6
HETATM    6  C9  UNL     1     -33.817   7.728   3.725  1.00 20.00     0.272 C 
BRANCH   6   7
HETATM    7  C6  UNL     1     -33.095   7.673   5.066  1.00 20.00     0.026 C 
HETATM    8  C3  UNL     1     -33.960   7.093   6.177  1.00 20.00     0.007 C 
ENDBRANCH   6   7
ENDBRANCH   5   6
BRANCH   5   9
HETATM    9  C10 UNL     1     -32.716   5.763   2.890  1.00 20.00     0.272 C 
BRANCH   9  10
HETATM   10  C7  UNL     1     -33.972   4.901   2.921  1.00 20.00     0.026 C 
HETATM   11  C4  UNL     1     -34.156   4.177   4.248  1.00 20.00     0.007 C 
ENDBRANCH   9  10
ENDBRANCH   5   9
ENDBRANCH   4   5
ENDBRANCH   3   4
TORSDOF 6
ENDMDL
MODEL 5
REMARK VINA RESULT:      -4.9      0.911      4.220
REMARK  6 active torsions:
REMARK  status: ('A' for Active; 'I' for Inactive)
REMARK    1  A    between atoms: C5_5  and  C8_8 
REMARK    2  A    between atoms: C6_6  and  C9_9 
REMARK    3  A    between atoms: C7_7  and  C10_10 
REMARK    4  A    between atoms: C8_8  and  N11_11 
REMARK    5  A    between atoms: C9_9  and  N11_11 
REMARK    6  A    between atoms: C10_10  and  N11_11 
ROOT
HETATM    1  C1  UNL     1     -34.419   4.092   4.861  1.00 20.00     0.012 C 
HETATM    2  C2  UNL     1     -34.053   4.567   3.820  1.00 20.00    -0.116 C 
HETATM    3  C5  UNL     1     -33.609   5.149   2.544  1.00 20.00     0.123 C 
ENDROOT
BRANCH   3   4
HETATM    4  C8  UNL     1     -32.467   6.141   2.735  1.00 20.00     0.284 C 
BRANCH   4   5
HETATM    5  N11 UNL     1     -32.925   7.512   2.514  1.00 20.00     0.089 N 
BRANCH   5   6
HETATM    6  C9  UNL     1     -31.788   8.395   2.256  1.00 20.00     0.272 C 
BRANCH   6   7
HETATM    7  C6  UNL     1     -31.860   9.049   0.881  1.00 20.00     0.026 C 
HETATM    8  C3  UNL     1     -32.707  10.314   0.875  1.00 20.00     0.007 C 
ENDBRANCH   6   7
ENDBRANCH   5   6
BRANCH   5   9
HETATM    9  C10 UNL     1     -33.690   7.988   3.665  1.00 20.00     0.272 C 
BRANCH   9  10
HETATM   10  C7  UNL     1     -32.916   7.857   4.971  1.00 20.00     0.026 C 
HETATM   11  C4  UNL     1     -33.775   7.335   6.115  1.00 20.00     0.007 C 
ENDBRANCH   9  10
ENDBRANCH   5   9
ENDBRANCH   4   5
ENDBRANCH   3   4
TORSDOF 6
ENDMDL
MODEL 6
REMARK VINA RESULT:      -4.9      0.774      4.305
REMARK  6 active torsions:
REMARK  status: ('A' for Active; 'I' for Inactive)
REMARK    1  A    between atoms: C5_5  and  C8_8 
REMARK    2  A    between atoms: C6_6  and  C9_9 
REMARK    3  A    between atoms: C7_7  and  C10_10 
REMARK    4  A    between atoms: C8_8  and  N11_11 
REMARK    5  A    between atoms: C9_9  and  N11_11 
REMARK    6  A    between atoms: C10_10  and  N11_11 
ROOT
HETATM    1  C1  UNL     1     -34.657   5.010   5.918  1.00 20.00     0.012 C 
HETATM    2  C2  UNL     1     -34.292   6.138   5.728  1.00 20.00    -0.116 C 
HETATM    3  C5  UNL     1     -33.847   7.521   5.498  1.00 20.00     0.123 C 
ENDROOT
BRANCH   3   4
HETATM    4  C8  UNL     1     -32.619   7.584   4.597  1.00 20.00     0.284 C 
BRANCH   4   5
HETATM    5  N11 UNL     1     -32.991   7.954   3.232  1.00 20.00     0.089 N 
BRANCH   5   6
HETATM    6  C9  UNL     1     -33.570   6.808   2.532  1.00 20.00     0.272 C 
BRANCH   6   7
HETATM    7  C6  UNL     1     -32.641   5.600   2.527  1.00 20.00     0.026 C 
HETATM    8  C3  UNL     1     -33.389   4.280   2.649  1.00 20.00     0.007 C 
ENDBRANCH   6   7
ENDBRANCH   5   6
BRANCH   5   9
HETATM    9  C10 UNL     1     -31.829   8.462   2.505  1.00 20.00     0.272 C 
BRANCH   9  10
HETATM   10  C7  UNL     1     -32.190   8.968   1.113  1.00 20.00     0.026 C 
HETATM   11  C4  UNL     1     -32.771  10.376   1.131  1.00 20.00     0.007 C 
ENDBRANCH   9  10
ENDBRANCH   5   9
ENDBRANCH   4   5
ENDBRANCH   3   4
TORSDOF 6
ENDMDL
MODEL 7
REMARK VINA RESULT:      -4.2     10.536     12.106
REMARK  6 active torsions:
REMARK  status: ('A' for Active; 'I' for Inactive)
REMARK    1  A    between atoms: C5_5  and  C8_8 
REMARK    2  A    between atoms: C6_6  and  C9_9 
REMARK    3  A    between atoms: C7_7  and  C10_10 
REMARK    4  A    between atoms: C8_8  and  N11_11 
REMARK    5  A    between atoms: C9_9  and  N11_11 
REMARK    6  A    between atoms: C10_10  and  N11_11 
ROOT
HETATM    1  C1  UNL     1     -32.854  17.964  -1.396  1.00 20.00     0.012 C 
HETATM    2  C2  UNL     1     -33.824  17.337  -1.726  1.00 20.00    -0.116 C 
HETATM    3  C5  UNL     1     -35.014  16.570  -2.128  1.00 20.00     0.123 C 
ENDROOT
BRANCH   3   4
HETATM    4  C8  UNL     1     -34.985  16.203  -3.607  1.00 20.00     0.284 C 
BRANCH   4   5
HETATM    5  N11 UNL     1     -33.885  15.282  -3.894  1.00 20.00     0.089 N 
BRANCH   5   6
HETATM    6  C9  UNL     1     -33.083  15.776  -5.012  1.00 20.00     0.272 C 
BRANCH   6   7
HETATM    7  C6  UNL     1     -33.711  16.992  -5.684  1.00 20.00     0.026 C 
HETATM    8  C3  UNL     1     -33.924  16.794  -7.178  1.00 20.00     0.007 C 
ENDBRANCH   6   7
ENDBRANCH   5   6
BRANCH   5   9
HETATM    9  C10 UNL     1     -34.400  13.945  -4.187  1.00 20.00     0.272 C 
BRANCH   9  10
HETATM   10  C7  UNL     1     -35.763  13.985  -4.869  1.00 20.00     0.026 C 
HETATM   11  C4  UNL     1     -35.724  13.445  -6.292  1.00 20.00     0.007 C 
ENDBRANCH   9  10
ENDBRANCH   5   9
ENDBRANCH   4   5
ENDBRANCH   3   4
TORSDOF 6
ENDMDL
MODEL 8
REMARK VINA RESULT:      -4.0     10.804     12.396
REMARK  6 active torsions:
REMARK  status: ('A' for Active; 'I' for Inactive)
REMARK    1  A    between atoms: C5_5  and  C8_8 
REMARK    2  A    between atoms: C6_6  and  C9_9 
REMARK    3  A    between atoms: C7_7  and  C10_10 
REMARK    4  A    between atoms: C8_8  and  N11_11 
REMARK    5  A    between atoms: C9_9  and  N11_11 
REMARK    6  A    between atoms: C10_10  and  N11_11 
ROOT
HETATM    1  C1  UNL     1     -35.463  16.757  -2.080  1.00 20.00     0.012 C 
HETATM    2  C2  UNL     1     -34.683  16.236  -2.830  1.00 20.00    -0.116 C 
HETATM    3  C5  UNL     1     -33.725  15.600  -3.748  1.00 20.00     0.123 C 
ENDROOT
BRANCH   3   4
HETATM    4  C8  UNL     1     -34.223  14.249  -4.248  1.00 20.00     0.284 C 
BRANCH   4   5
HETATM    5  N11 UNL     1     -35.052  14.408  -5.442  1.00 20.00     0.089 N 
BRANCH   5   6
HETATM    6  C9  UNL     1     -36.271  13.609  -5.328  1.00 20.00     0.272 C 
BRANCH   6   7
HETATM    7  C6  UNL     1     -37.504  14.465  -5.068  1.00 20.00     0.026 C 
HETATM    8  C3  UNL     1     -37.304  15.921  -5.465  1.00 20.00     0.007 C 
ENDBRANCH   6   7
ENDBRANCH   5   6
BRANCH   5   9
HETATM    9  C10 UNL     1     -34.303  14.029  -6.639  1.00 20.00     0.272 C 
BRANCH   9  10
HETATM   10  C7  UNL     1     -34.418  15.066  -7.750  1.00 20.00     0.026 C 
HETATM   11  C4  UNL     1     -33.980  16.455  -7.306  1.00 20.00     0.007 C 
ENDBRANCH   9  10
ENDBRANCH   5   9
ENDBRANCH   4   5
ENDBRANCH   3   4
TORSDOF 6
ENDMDL
MODEL 9
REMARK VINA RESULT:      -3.9     10.865     12.593
REMARK  6 active torsions:
REMARK  status: ('A' for Active; 'I' for Inactive)
REMARK    1  A    between atoms: C5_5  and  C8_8 
REMARK    2  A    between atoms: C6_6  and  C9_9 
REMARK    3  A    between atoms: C7_7  and  C10_10 
REMARK    4  A    between atoms: C8_8  and  N11_11 
REMARK    5  A    between atoms: C9_9  and  N11_11 
REMARK    6  A    between atoms: C10_10  and  N11_11 
ROOT
HETATM    1  C1  UNL     1     -32.875  17.906  -1.472  1.00 20.00     0.012 C 
HETATM    2  C2  UNL     1     -33.963  17.400  -1.453  1.00 20.00    -0.116 C 
HETATM    3  C5  UNL     1     -35.297  16.778  -1.427  1.00 20.00     0.123 C 
ENDROOT
BRANCH   3   4
HETATM    4  C8  UNL     1     -36.109  17.113  -2.673  1.00 20.00     0.284 C 
BRANCH   4   5
HETATM    5  N11 UNL     1     -35.405  16.691  -3.883  1.00 20.00     0.089 N 
BRANCH   5   6
HETATM    6  C9  UNL     1     -35.727  17.580  -4.998  1.00 20.00     0.272 C 
BRANCH   6   7
HETATM    7  C6  UNL     1     -35.001  18.917  -4.903  1.00 20.00     0.026 C 
HETATM    8  C3  UNL     1     -33.487  18.771  -4.971  1.00 20.00     0.007 C 
ENDBRANCH   6   7
ENDBRANCH   5   6
BRANCH   5   9
HETATM    9  C10 UNL     1     -35.745  15.309  -4.217  1.00 20.00     0.272 C 
BRANCH   9  10
HETATM   10  C7  UNL     1     -34.548  14.373  -4.108  1.00 20.00     0.026 C 
HETATM   11  C4  UNL     1     -33.221  15.088  -4.323  1.00 20.00     0.007 C 
ENDBRANCH   9  10
ENDBRANCH   5   9
ENDBRANCH   4   5
ENDBRANCH   3   4
TORSDOF 6
ENDMDL
