MODEL 1
REMARK VINA RESULT:      -4.2      0.000      0.000
REMARK  0 active torsions:
REMARK  status: ('A' for Active; 'I' for Inactive)
ROOT
HETATM    1  C1  UNL     1     -31.703   8.532   2.500  1.00 20.00     0.003 C 
HETATM    2  C2  UNL     1     -32.591   7.410   1.945  1.00 20.00     0.037 C 
HETATM    3  C3  UNL     1     -31.916   8.541   4.022  1.00 20.00     0.017 C 
HETATM    4  C4  UNL     1     -35.203   5.670   4.083  1.00 20.00     0.280 C 
HETATM    5  C5  UNL     1     -34.567   5.696   5.476  1.00 20.00     0.104 C 
HETATM    6  C6  UNL     1     -33.583   7.136   3.072  1.00 20.00     0.234 C 
HETATM    7  C7  UNL     1     -32.682   7.254   4.298  1.00 20.00     0.080 C 
HETATM    8  N8  UNL     1     -34.242   5.839   2.985  1.00 20.00     0.089 N 
HETATM    9  S9  UNL     1     -33.671   7.249   5.811  1.00 20.00    -0.160 SA
HETATM   10  H22 UNL     1     -33.545   5.096   3.031  1.00 20.00     0.316 HD
ENDROOT
TORSDOF 0
ENDMDL
MODEL 2
REMARK VINA RESULT:      -3.9     11.701     12.205
REMARK  0 active torsions:
REMARK  status: ('A' for Active; 'I' for Inactive)
ROOT
HETATM    1  C1  UNL     1     -34.627  16.118  -3.020  1.00 20.00     0.003 C 
HETATM    2  C2  UNL     1     -33.542  15.416  -3.848  1.00 20.00     0.037 C 
HETATM    3  C3  UNL     1     -35.974  15.720  -3.645  1.00 20.00     0.017 C 
HETATM    4  C4  UNL     1     -34.324  13.696  -7.142  1.00 20.00     0.280 C 
HETATM    5  C5  UNL     1     -35.749  13.179  -6.920  1.00 20.00     0.104 C 
HETATM    6  C6  UNL     1     -34.258  15.031  -5.140  1.00 20.00     0.234 C 
HETATM    7  C7  UNL     1     -35.620  14.594  -4.608  1.00 20.00     0.080 C 
HETATM    8  N8  UNL     1     -33.592  13.981  -5.901  1.00 20.00     0.089 N 
HETATM    9  S9  UNL     1     -36.780  14.346  -5.971  1.00 20.00    -0.160 SA
HETATM   10  H22 UNL     1     -33.539  13.131  -5.340  1.00 20.00     0.316 HD
ENDROOT
TORSDOF 0
ENDMDL
MODEL 3
REMARK VINA RESULT:      -3.8      1.952      3.856
REMARK  0 active torsions:
REMARK  status: ('A' for Active; 'I' for Inactive)
ROOT
HETATM    1  C1  UNL     1     -35.203   5.276   4.471  1.00 20.00     0.003 C 
HETATM    2  C2  UNL     1     -34.454   6.036   5.574  1.00 20.00     0.037 C 
HETATM    3  C3  UNL     1     -34.555   5.693   3.141  1.00 20.00     0.017 C 
HETATM    4  C4  UNL     1     -32.021   8.843   4.785  1.00 20.00     0.280 C 
HETATM    5  C5  UNL     1     -31.425   8.402   3.444  1.00 20.00     0.104 C 
HETATM    6  C6  UNL     1     -33.741   7.160   4.826  1.00 20.00     0.234 C 
HETATM    7  C7  UNL     1     -33.294   6.438   3.558  1.00 20.00     0.080 C 
HETATM    8  N8  UNL     1     -32.626   7.750   5.556  1.00 20.00     0.089 N 
HETATM    9  S9  UNL     1     -32.656   7.621   2.350  1.00 20.00    -0.160 SA
HETATM   10  H22 UNL     1     -31.921   7.037   5.740  1.00 20.00     0.316 HD
ENDROOT
TORSDOF 0
ENDMDL
MODEL 4
REMARK VINA RESULT:      -3.8      1.277      3.317
REMARK  0 active torsions:
REMARK  status: ('A' for Active; 'I' for Inactive)
ROOT
HETATM    1  C1  UNL     1     -34.748   5.685   5.938  1.00 20.00     0.003 C 
HETATM    2  C2  UNL     1     -34.927   5.323   4.457  1.00 20.00     0.037 C 
HETATM    3  C3  UNL     1     -33.780   6.879   5.979  1.00 20.00     0.017 C 
HETATM    4  C4  UNL     1     -32.724   6.810   1.744  1.00 20.00     0.280 C 
HETATM    5  C5  UNL     1     -32.420   8.209   2.289  1.00 20.00     0.104 C 
HETATM    6  C6  UNL     1     -33.745   6.001   3.769  1.00 20.00     0.234 C 
HETATM    7  C7  UNL     1     -33.676   7.324   4.526  1.00 20.00     0.080 C 
HETATM    8  N8  UNL     1     -33.916   6.187   2.333  1.00 20.00     0.089 N 
HETATM    9  S9  UNL     1     -32.168   8.221   4.094  1.00 20.00    -0.160 SA
HETATM   10  H22 UNL     1     -34.727   6.780   2.158  1.00 20.00     0.316 HD
ENDROOT
TORSDOF 0
ENDMDL
MODEL 5
REMARK VINA RESULT:      -3.7      1.561      2.179
REMARK  0 active torsions:
REMARK  status: ('A' for Active; 'I' for Inactive)
ROOT
HETATM    1  C1  UNL     1     -31.513   8.602   3.061  1.00 20.00     0.003 C 
HETATM    2  C2  UNL     1     -32.117   8.638   4.471  1.00 20.00     0.037 C 
HETATM    3  C3  UNL     1     -32.236   7.474   2.308  1.00 20.00     0.017 C 
HETATM    4  C4  UNL     1     -34.406   5.890   5.747  1.00 20.00     0.280 C 
HETATM    5  C5  UNL     1     -35.137   5.446   4.476  1.00 20.00     0.104 C 
HETATM    6  C6  UNL     1     -32.808   7.283   4.608  1.00 20.00     0.234 C 
HETATM    7  C7  UNL     1     -33.405   7.110   3.214  1.00 20.00     0.080 C 
HETATM    8  N8  UNL     1     -33.817   7.232   5.659  1.00 20.00     0.089 N 
HETATM    9  S9  UNL     1     -34.055   5.437   3.009  1.00 20.00    -0.160 SA
HETATM   10  H22 UNL     1     -34.553   7.910   5.461  1.00 20.00     0.316 HD
ENDROOT
TORSDOF 0
ENDMDL
MODEL 6
REMARK VINA RESULT:      -3.7     11.737     12.158
REMARK  0 active torsions:
REMARK  status: ('A' for Active; 'I' for Inactive)
ROOT
HETATM    1  C1  UNL     1     -34.095  17.723  -0.660  1.00 20.00     0.003 C 
HETATM    2  C2  UNL     1     -35.518  17.286  -1.031  1.00 20.00     0.037 C 
HETATM    3  C3  UNL     1     -33.233  17.505  -1.914  1.00 20.00     0.017 C 
HETATM    4  C4  UNL     1     -36.271  15.418  -4.251  1.00 20.00     0.280 C 
HETATM    5  C5  UNL     1     -35.233  15.992  -5.221  1.00 20.00     0.104 C 
HETATM    6  C6  UNL     1     -35.325  16.439  -2.287  1.00 20.00     0.234 C 
HETATM    7  C7  UNL     1     -34.245  17.230  -3.018  1.00 20.00     0.080 C 
HETATM    8  N8  UNL     1     -36.533  16.272  -3.086  1.00 20.00     0.089 N 
HETATM    9  S9  UNL     1     -33.618  16.290  -4.428  1.00 20.00    -0.160 SA
HETATM   10  H22 UNL     1     -36.863  17.183  -3.403  1.00 20.00     0.316 HD
ENDROOT
TORSDOF 0
ENDMDL
MODEL 7
REMARK VINA RESULT:      -3.5     11.789     12.429
REMARK  0 active torsions:
REMARK  status: ('A' for Active; 'I' for Inactive)
ROOT
HETATM    1  C1  UNL     1     -34.182  17.584  -0.823  1.00 20.00     0.003 C 
HETATM    2  C2  UNL     1     -33.193  17.551  -1.996  1.00 20.00     0.037 C 
HETATM    3  C3  UNL     1     -35.479  16.934  -1.331  1.00 20.00     0.017 C 
HETATM    4  C4  UNL     1     -34.282  16.634  -5.517  1.00 20.00     0.280 C 
HETATM    5  C5  UNL     1     -35.402  15.619  -5.267  1.00 20.00     0.104 C 
HETATM    6  C6  UNL     1     -34.080  17.311  -3.216  1.00 20.00     0.234 C 
HETATM    7  C7  UNL     1     -35.085  16.306  -2.661  1.00 20.00     0.080 C 
HETATM    8  N8  UNL     1     -33.367  16.803  -4.381  1.00 20.00     0.089 N 
HETATM    9  S9  UNL     1     -36.438  16.055  -3.832  1.00 20.00    -0.160 SA
HETATM   10  H22 UNL     1     -32.939  15.905  -4.157  1.00 20.00     0.316 HD
ENDROOT
TORSDOF 0
ENDMDL
MODEL 8
REMARK VINA RESULT:      -3.4     11.780     12.190
REMARK  0 active torsions:
REMARK  status: ('A' for Active; 'I' for Inactive)
ROOT
HETATM    1  C1  UNL     1     -33.899  16.595  -2.552  1.00 20.00     0.003 C 
HETATM    2  C2  UNL     1     -35.426  16.638  -2.405  1.00 20.00     0.037 C 
HETATM    3  C3  UNL     1     -33.611  15.913  -3.899  1.00 20.00     0.017 C 
HETATM    4  C4  UNL     1     -37.724  14.718  -4.741  1.00 20.00     0.280 C 
HETATM    5  C5  UNL     1     -36.955  14.747  -6.065  1.00 20.00     0.104 C 
HETATM    6  C6  UNL     1     -35.920  15.609  -3.419  1.00 20.00     0.234 C 
HETATM    7  C7  UNL     1     -34.970  15.858  -4.586  1.00 20.00     0.080 C 
HETATM    8  N8  UNL     1     -37.320  15.766  -3.794  1.00 20.00     0.089 N 
HETATM    9  S9  UNL     1     -35.155  14.568  -5.838  1.00 20.00    -0.160 SA
HETATM   10  H22 UNL     1     -37.460  16.680  -4.224  1.00 20.00     0.316 HD
ENDROOT
TORSDOF 0
ENDMDL
MODEL 9
REMARK VINA RESULT:      -3.4     11.669     12.771
REMARK  0 active torsions:
REMARK  status: ('A' for Active; 'I' for Inactive)
ROOT
HETATM    1  C1  UNL     1     -35.914  13.625  -7.918  1.00 20.00     0.003 C 
HETATM    2  C2  UNL     1     -34.435  13.664  -7.508  1.00 20.00     0.037 C 
HETATM    3  C3  UNL     1     -36.672  14.479  -6.889  1.00 20.00     0.017 C 
HETATM    4  C4  UNL     1     -33.313  15.081  -4.168  1.00 20.00     0.280 C 
HETATM    5  C5  UNL     1     -34.338  16.191  -3.914  1.00 20.00     0.104 C 
HETATM    6  C6  UNL     1     -34.470  14.140  -6.058  1.00 20.00     0.234 C 
HETATM    7  C7  UNL     1     -35.572  15.194  -6.115  1.00 20.00     0.080 C 
HETATM    8  N8  UNL     1     -33.205  14.681  -5.576  1.00 20.00     0.089 N 
HETATM    9  S9  UNL     1     -36.019  15.732  -4.449  1.00 20.00    -0.160 SA
HETATM   10  H22 UNL     1     -32.942  15.491  -6.137  1.00 20.00     0.316 HD
ENDROOT
TORSDOF 0
ENDMDL
