MODEL 1
REMARK VINA RESULT:      -5.1      0.000      0.000
REMARK  1 active torsions:
REMARK  status: ('A' for Active; 'I' for Inactive)
REMARK       I    between atoms: C1_1  and  N9_9 
REMARK    1  A    between atoms: C6_6  and  N9_9 
ROOT
HETATM    1  C2  UNL     1     -33.841   5.557   2.729  1.00 20.00     0.002 C 
HETATM    2  C3  UNL     1     -34.644   6.363   3.749  1.00 20.00     0.002 C 
HETATM    3  C4  UNL     1     -32.436   6.158   2.722  1.00 20.00     0.031 C 
HETATM    4  C5  UNL     1     -33.685   7.410   4.311  1.00 20.00     0.031 C 
HETATM    5  C6  UNL     1     -32.626   7.595   3.218  1.00 20.00     0.029 C 
HETATM    6  C8  UNL     1     -31.333   8.195   3.762  1.00 20.00     0.038 C 
ENDROOT
BRANCH   5   7
HETATM    7  N9  UNL     1     -33.135   8.440   2.153  1.00 20.00    -0.353 N 
HETATM    8  C1  UNL     1     -32.364   8.842   1.084  1.00 20.00     0.214 C 
HETATM    9  C7  UNL     1     -33.092   9.706   0.108  1.00 20.00     0.117 C 
HETATM   10  O10 UNL     1     -31.189   8.559   0.882  1.00 20.00    -0.274 OA
HETATM   11  H25 UNL     1     -34.098   8.748   2.198  1.00 20.00     0.163 HD
ENDBRANCH   5   7
TORSDOF 1
ENDMDL
MODEL 2
REMARK VINA RESULT:      -4.4      1.702      3.822
REMARK  1 active torsions:
REMARK  status: ('A' for Active; 'I' for Inactive)
REMARK       I    between atoms: C1_1  and  N9_9 
REMARK    1  A    between atoms: C6_6  and  N9_9 
ROOT
HETATM    1  C2  UNL     1     -33.220  10.112   0.803  1.00 20.00     0.002 C 
HETATM    2  C3  UNL     1     -32.410   9.172  -0.091  1.00 20.00     0.002 C 
HETATM    3  C4  UNL     1     -32.677   9.925   2.219  1.00 20.00     0.031 C 
HETATM    4  C5  UNL     1     -31.416   8.466   0.829  1.00 20.00     0.031 C 
HETATM    5  C6  UNL     1     -32.063   8.522   2.218  1.00 20.00     0.029 C 
HETATM    6  C8  UNL     1     -31.043   8.336   3.337  1.00 20.00     0.038 C 
ENDROOT
BRANCH   5   7
HETATM    7  N9  UNL     1     -33.097   7.511   2.340  1.00 20.00    -0.353 N 
HETATM    8  C1  UNL     1     -33.575   7.073   3.555  1.00 20.00     0.214 C 
HETATM    9  C7  UNL     1     -34.638   6.030   3.443  1.00 20.00     0.117 C 
HETATM   10  O10 UNL     1     -33.216   7.453   4.663  1.00 20.00    -0.274 OA
HETATM   11  H25 UNL     1     -33.484   7.110   1.495  1.00 20.00     0.163 HD
ENDBRANCH   5   7
TORSDOF 1
ENDMDL
MODEL 3
REMARK VINA RESULT:      -4.4     10.389     11.449
REMARK  1 active torsions:
REMARK  status: ('A' for Active; 'I' for Inactive)
REMARK       I    between atoms: C1_1  and  N9_9 
REMARK    1  A    between atoms: C6_6  and  N9_9 
ROOT
HETATM    1  C2  UNL     1     -33.415  15.677  -3.947  1.00 20.00     0.002 C 
HETATM    2  C3  UNL     1     -33.534  16.902  -4.853  1.00 20.00     0.002 C 
HETATM    3  C4  UNL     1     -33.529  14.458  -4.862  1.00 20.00     0.031 C 
HETATM    4  C5  UNL     1     -33.712  16.364  -6.271  1.00 20.00     0.031 C 
HETATM    5  C6  UNL     1     -34.302  14.962  -6.085  1.00 20.00     0.029 C 
HETATM    6  C8  UNL     1     -34.087  14.077  -7.309  1.00 20.00     0.038 C 
ENDROOT
BRANCH   5   7
HETATM    7  N9  UNL     1     -35.722  15.041  -5.795  1.00 20.00    -0.353 N 
HETATM    8  C1  UNL     1     -36.466  13.951  -5.398  1.00 20.00     0.214 C 
HETATM    9  C7  UNL     1     -37.906  14.263  -5.152  1.00 20.00     0.117 C 
HETATM   10  O10 UNL     1     -36.060  12.807  -5.238  1.00 20.00    -0.274 OA
HETATM   11  H25 UNL     1     -36.186  15.935  -5.888  1.00 20.00     0.163 HD
ENDBRANCH   5   7
TORSDOF 1
ENDMDL
MODEL 4
REMARK VINA RESULT:      -4.1     10.013     11.740
REMARK  1 active torsions:
REMARK  status: ('A' for Active; 'I' for Inactive)
REMARK       I    between atoms: C1_1  and  N9_9 
REMARK    1  A    between atoms: C6_6  and  N9_9 
ROOT
HETATM    1  C2  UNL     1     -33.955  16.626  -7.313  1.00 20.00     0.002 C 
HETATM    2  C3  UNL     1     -34.189  15.241  -7.917  1.00 20.00     0.002 C 
HETATM    3  C4  UNL     1     -33.630  16.397  -5.838  1.00 20.00     0.031 C 
HETATM    4  C5  UNL     1     -33.992  14.244  -6.778  1.00 20.00     0.031 C 
HETATM    5  C6  UNL     1     -34.274  15.048  -5.503  1.00 20.00     0.029 C 
HETATM    6  C8  UNL     1     -33.656  14.404  -4.266  1.00 20.00     0.038 C 
ENDROOT
BRANCH   5   7
HETATM    7  N9  UNL     1     -35.703  15.198  -5.300  1.00 20.00    -0.353 N 
HETATM    8  C1  UNL     1     -36.559  14.125  -5.184  1.00 20.00     0.214 C 
HETATM    9  C7  UNL     1     -37.987  14.514  -4.979  1.00 20.00     0.117 C 
HETATM   10  O10 UNL     1     -36.257  12.939  -5.232  1.00 20.00    -0.274 OA
HETATM   11  H25 UNL     1     -36.088  16.133  -5.242  1.00 20.00     0.163 HD
ENDBRANCH   5   7
TORSDOF 1
ENDMDL
MODEL 5
REMARK VINA RESULT:      -4.1     10.188     11.326
REMARK  1 active torsions:
REMARK  status: ('A' for Active; 'I' for Inactive)
REMARK       I    between atoms: C1_1  and  N9_9 
REMARK    1  A    between atoms: C6_6  and  N9_9 
ROOT
HETATM    1  C2  UNL     1     -33.709  17.040  -4.787  1.00 20.00     0.002 C 
HETATM    2  C3  UNL     1     -33.342  15.767  -4.025  1.00 20.00     0.002 C 
HETATM    3  C4  UNL     1     -35.235  17.064  -4.868  1.00 20.00     0.031 C 
HETATM    4  C5  UNL     1     -34.664  15.084  -3.681  1.00 20.00     0.031 C 
HETATM    5  C6  UNL     1     -35.653  15.596  -4.735  1.00 20.00     0.029 C 
HETATM    6  C8  UNL     1     -37.103  15.447  -4.286  1.00 20.00     0.038 C 
ENDROOT
BRANCH   5   7
HETATM    7  N9  UNL     1     -35.466  14.894  -5.992  1.00 20.00    -0.353 N 
HETATM    8  C1  UNL     1     -35.607  13.529  -6.114  1.00 20.00     0.214 C 
HETATM    9  C7  UNL     1     -35.370  13.022  -7.499  1.00 20.00     0.117 C 
HETATM   10  O10 UNL     1     -35.897  12.740  -5.223  1.00 20.00    -0.274 OA
HETATM   11  H25 UNL     1     -35.222  15.432  -6.814  1.00 20.00     0.163 HD
ENDBRANCH   5   7
TORSDOF 1
ENDMDL
MODEL 6
REMARK VINA RESULT:      -4.0      1.882      3.007
REMARK  1 active torsions:
REMARK  status: ('A' for Active; 'I' for Inactive)
REMARK       I    between atoms: C1_1  and  N9_9 
REMARK    1  A    between atoms: C6_6  and  N9_9 
ROOT
HETATM    1  C2  UNL     1     -34.883   5.507   5.390  1.00 20.00     0.002 C 
HETATM    2  C3  UNL     1     -34.029   4.275   5.090  1.00 20.00     0.002 C 
HETATM    3  C4  UNL     1     -35.127   6.192   4.045  1.00 20.00     0.031 C 
HETATM    4  C5  UNL     1     -33.803   4.273   3.580  1.00 20.00     0.031 C 
HETATM    5  C6  UNL     1     -33.961   5.740   3.161  1.00 20.00     0.029 C 
HETATM    6  C8  UNL     1     -34.272   5.885   1.675  1.00 20.00     0.038 C 
ENDROOT
BRANCH   5   7
HETATM    7  N9  UNL     1     -32.760   6.492   3.474  1.00 20.00    -0.353 N 
HETATM    8  C1  UNL     1     -32.508   7.746   2.963  1.00 20.00     0.214 C 
HETATM    9  C7  UNL     1     -31.214   8.334   3.420  1.00 20.00     0.117 C 
HETATM   10  O10 UNL     1     -33.227   8.385   2.204  1.00 20.00    -0.274 OA
HETATM   11  H25 UNL     1     -32.077   6.077   4.095  1.00 20.00     0.163 HD
ENDBRANCH   5   7
TORSDOF 1
ENDMDL
MODEL 7
REMARK VINA RESULT:      -3.9     10.228     11.516
REMARK  1 active torsions:
REMARK  status: ('A' for Active; 'I' for Inactive)
REMARK       I    between atoms: C1_1  and  N9_9 
REMARK    1  A    between atoms: C6_6  and  N9_9 
ROOT
HETATM    1  C2  UNL     1     -33.957  15.432  -3.831  1.00 20.00     0.002 C 
HETATM    2  C3  UNL     1     -33.431  16.279  -4.991  1.00 20.00     0.002 C 
HETATM    3  C4  UNL     1     -34.540  14.166  -4.459  1.00 20.00     0.031 C 
HETATM    4  C5  UNL     1     -33.718  15.482  -6.261  1.00 20.00     0.031 C 
HETATM    5  C6  UNL     1     -34.896  14.572  -5.892  1.00 20.00     0.029 C 
HETATM    6  C8  UNL     1     -35.009  13.368  -6.822  1.00 20.00     0.038 C 
ENDROOT
BRANCH   5   7
HETATM    7  N9  UNL     1     -36.143  15.316  -5.918  1.00 20.00    -0.353 N 
HETATM    8  C1  UNL     1     -37.335  14.793  -5.469  1.00 20.00     0.214 C 
HETATM    9  C7  UNL     1     -38.488  15.734  -5.589  1.00 20.00     0.117 C 
HETATM   10  O10 UNL     1     -37.514  13.674  -5.003  1.00 20.00    -0.274 OA
HETATM   11  H25 UNL     1     -36.135  16.260  -6.282  1.00 20.00     0.163 HD
ENDBRANCH   5   7
TORSDOF 1
ENDMDL
MODEL 8
REMARK VINA RESULT:      -3.9     10.125     11.053
REMARK  1 active torsions:
REMARK  status: ('A' for Active; 'I' for Inactive)
REMARK       I    between atoms: C1_1  and  N9_9 
REMARK    1  A    between atoms: C6_6  and  N9_9 
ROOT
HETATM    1  C2  UNL     1     -35.332  16.734  -1.766  1.00 20.00     0.002 C 
HETATM    2  C3  UNL     1     -36.183  17.739  -2.542  1.00 20.00     0.002 C 
HETATM    3  C4  UNL     1     -34.130  16.418  -2.656  1.00 20.00     0.031 C 
HETATM    4  C5  UNL     1     -35.453  17.984  -3.860  1.00 20.00     0.031 C 
HETATM    5  C6  UNL     1     -34.610  16.722  -4.079  1.00 20.00     0.029 C 
HETATM    6  C8  UNL     1     -33.451  16.962  -5.041  1.00 20.00     0.038 C 
ENDROOT
BRANCH   5   7
HETATM    7  N9  UNL     1     -35.434  15.639  -4.584  1.00 20.00    -0.353 N 
HETATM    8  C1  UNL     1     -35.004  14.331  -4.630  1.00 20.00     0.214 C 
HETATM    9  C7  UNL     1     -36.017  13.384  -5.184  1.00 20.00     0.117 C 
HETATM   10  O10 UNL     1     -33.914  13.906  -4.269  1.00 20.00    -0.274 OA
HETATM   11  H25 UNL     1     -36.366  15.855  -4.916  1.00 20.00     0.163 HD
ENDBRANCH   5   7
TORSDOF 1
ENDMDL
MODEL 9
REMARK VINA RESULT:      -3.9     10.233     11.103
REMARK  1 active torsions:
REMARK  status: ('A' for Active; 'I' for Inactive)
REMARK       I    between atoms: C1_1  and  N9_9 
REMARK    1  A    between atoms: C6_6  and  N9_9 
ROOT
HETATM    1  C2  UNL     1     -36.153  13.443  -5.343  1.00 20.00     0.002 C 
HETATM    2  C3  UNL     1     -37.374  14.321  -5.069  1.00 20.00     0.002 C 
HETATM    3  C4  UNL     1     -35.016  14.022  -4.501  1.00 20.00     0.031 C 
HETATM    4  C5  UNL     1     -36.916  15.385  -4.074  1.00 20.00     0.031 C 
HETATM    5  C6  UNL     1     -35.401  15.489  -4.284  1.00 20.00     0.029 C 
HETATM    6  C8  UNL     1     -34.692  16.100  -3.080  1.00 20.00     0.038 C 
ENDROOT
BRANCH   5   7
HETATM    7  N9  UNL     1     -35.103  16.276  -5.467  1.00 20.00    -0.353 N 
HETATM    8  C1  UNL     1     -33.853  16.312  -6.046  1.00 20.00     0.214 C 
HETATM    9  C7  UNL     1     -33.775  17.186  -7.254  1.00 20.00     0.117 C 
HETATM   10  O10 UNL     1     -32.854  15.713  -5.668  1.00 20.00    -0.274 OA
HETATM   11  H25 UNL     1     -35.846  16.823  -5.884  1.00 20.00     0.163 HD
ENDBRANCH   5   7
TORSDOF 1
ENDMDL
