MODEL 1
REMARK VINA RESULT:      -5.8      0.000      0.000
REMARK  4 active torsions:
REMARK  status: ('A' for Active; 'I' for Inactive)
REMARK    1  A    between atoms: C1_1  and  C7_7 
REMARK    2  A    between atoms: C1_1  and  O10_10 
REMARK    3  A    between atoms: C4_4  and  C7_7 
REMARK    4  A    between atoms: C8_8  and  O10_10 
ROOT
HETATM    1  C1  UNL     1     -32.237   7.691   3.159  1.00 20.00     0.259 C 
HETATM    2  O9  UNL     1     -31.317   8.345   3.628  1.00 20.00    -0.265 OA
ENDROOT
BRANCH   1   3
HETATM    3  C7  UNL     1     -32.920   7.968   1.840  1.00 20.00     0.115 C 
BRANCH   3   4
HETATM    4  C4  UNL     1     -32.203   9.044   1.041  1.00 20.00    -0.005 A 
HETATM    5  C2  UNL     1     -32.874   9.680  -0.145  1.00 20.00     0.005 A 
HETATM    6  C3  UNL     1     -32.663  10.473   1.115  1.00 20.00     0.005 A 
ENDBRANCH   3   4
ENDBRANCH   1   3
BRANCH   1   7
HETATM    7  O10 UNL     1     -32.816   6.594   3.733  1.00 20.00    -0.317 OA
BRANCH   7   8
HETATM    8  C8  UNL     1     -34.058   6.833   4.404  1.00 20.00     0.123 C 
HETATM    9  C5  UNL     1     -34.923   5.586   4.317  1.00 20.00     0.040 C 
HETATM   10  C6  UNL     1     -33.778   7.231   5.846  1.00 20.00     0.040 C 
ENDBRANCH   7   8
ENDBRANCH   1   7
TORSDOF 4
ENDMDL
MODEL 2
REMARK VINA RESULT:      -5.7      1.026      4.515
REMARK  4 active torsions:
REMARK  status: ('A' for Active; 'I' for Inactive)
REMARK    1  A    between atoms: C1_1  and  C7_7 
REMARK    2  A    between atoms: C1_1  and  O10_10 
REMARK    3  A    between atoms: C4_4  and  C7_7 
REMARK    4  A    between atoms: C8_8  and  O10_10 
ROOT
HETATM    1  C1  UNL     1     -32.387   7.817   2.810  1.00 20.00     0.259 C 
HETATM    2  O9  UNL     1     -31.325   8.170   3.302  1.00 20.00    -0.265 OA
ENDROOT
BRANCH   1   3
HETATM    3  C7  UNL     1     -33.076   6.500   3.077  1.00 20.00     0.115 C 
BRANCH   3   4
HETATM    4  C4  UNL     1     -34.246   6.652   4.035  1.00 20.00    -0.005 A 
HETATM    5  C2  UNL     1     -34.586   5.546   4.997  1.00 20.00     0.005 A 
HETATM    6  C3  UNL     1     -33.999   6.833   5.507  1.00 20.00     0.005 A 
ENDBRANCH   3   4
ENDBRANCH   1   3
BRANCH   1   7
HETATM    7  O10 UNL     1     -33.143   8.540   1.932  1.00 20.00    -0.317 OA
BRANCH   7   8
HETATM    8  C8  UNL     1     -32.411   9.371   1.025  1.00 20.00     0.123 C 
HETATM    9  C5  UNL     1     -32.915   9.135  -0.390  1.00 20.00     0.040 C 
HETATM   10  C6  UNL     1     -32.561  10.825   1.447  1.00 20.00     0.040 C 
ENDBRANCH   7   8
ENDBRANCH   1   7
TORSDOF 4
ENDMDL
MODEL 3
REMARK VINA RESULT:      -5.7      0.531      1.240
REMARK  4 active torsions:
REMARK  status: ('A' for Active; 'I' for Inactive)
REMARK    1  A    between atoms: C1_1  and  C7_7 
REMARK    2  A    between atoms: C1_1  and  O10_10 
REMARK    3  A    between atoms: C4_4  and  C7_7 
REMARK    4  A    between atoms: C8_8  and  O10_10 
ROOT
HETATM    1  C1  UNL     1     -32.388   7.963   3.106  1.00 20.00     0.259 C 
HETATM    2  O9  UNL     1     -31.417   8.271   3.782  1.00 20.00    -0.265 OA
ENDROOT
BRANCH   1   3
HETATM    3  C7  UNL     1     -32.388   7.799   1.604  1.00 20.00     0.115 C 
BRANCH   3   4
HETATM    4  C4  UNL     1     -32.018   9.088   0.889  1.00 20.00    -0.005 A 
HETATM    5  C2  UNL     1     -32.919   9.648  -0.177  1.00 20.00     0.005 A 
HETATM    6  C3  UNL     1     -32.797  10.347   1.148  1.00 20.00     0.005 A 
ENDBRANCH   3   4
ENDBRANCH   1   3
BRANCH   1   7
HETATM    7  O10 UNL     1     -33.646   7.713   3.577  1.00 20.00    -0.317 OA
BRANCH   7   8
HETATM    8  C8  UNL     1     -33.757   6.609   4.482  1.00 20.00     0.123 C 
HETATM    9  C5  UNL     1     -33.880   7.136   5.902  1.00 20.00     0.040 C 
HETATM   10  C6  UNL     1     -34.953   5.756   4.086  1.00 20.00     0.040 C 
ENDBRANCH   7   8
ENDBRANCH   1   7
TORSDOF 4
ENDMDL
MODEL 4
REMARK VINA RESULT:      -5.2      1.282      1.878
REMARK  4 active torsions:
REMARK  status: ('A' for Active; 'I' for Inactive)
REMARK    1  A    between atoms: C1_1  and  C7_7 
REMARK    2  A    between atoms: C1_1  and  O10_10 
REMARK    3  A    between atoms: C4_4  and  C7_7 
REMARK    4  A    between atoms: C8_8  and  O10_10 
ROOT
HETATM    1  C1  UNL     1     -32.984   6.671   2.951  1.00 20.00     0.259 C 
HETATM    2  O9  UNL     1     -32.744   5.589   2.433  1.00 20.00    -0.265 OA
ENDROOT
BRANCH   1   3
HETATM    3  C7  UNL     1     -32.235   7.953   2.678  1.00 20.00     0.115 C 
BRANCH   3   4
HETATM    4  C4  UNL     1     -32.741   8.656   1.429  1.00 20.00    -0.005 A 
HETATM    5  C2  UNL     1     -32.603  10.147   1.290  1.00 20.00     0.005 A 
HETATM    6  C3  UNL     1     -31.767   9.231   0.439  1.00 20.00     0.005 A 
ENDBRANCH   3   4
ENDBRANCH   1   3
BRANCH   1   7
HETATM    7  O10 UNL     1     -33.968   6.920   3.866  1.00 20.00    -0.317 OA
BRANCH   7   8
HETATM    8  C8  UNL     1     -33.758   6.358   5.165  1.00 20.00     0.123 C 
HETATM    9  C5  UNL     1     -33.881   7.454   6.212  1.00 20.00     0.040 C 
HETATM   10  C6  UNL     1     -34.763   5.239   5.394  1.00 20.00     0.040 C 
ENDBRANCH   7   8
ENDBRANCH   1   7
TORSDOF 4
ENDMDL
MODEL 5
REMARK VINA RESULT:      -5.1      1.082      1.592
REMARK  4 active torsions:
REMARK  status: ('A' for Active; 'I' for Inactive)
REMARK    1  A    between atoms: C1_1  and  C7_7 
REMARK    2  A    between atoms: C1_1  and  O10_10 
REMARK    3  A    between atoms: C4_4  and  C7_7 
REMARK    4  A    between atoms: C8_8  and  O10_10 
ROOT
HETATM    1  C1  UNL     1     -32.361   7.850   3.238  1.00 20.00     0.259 C 
HETATM    2  O9  UNL     1     -31.730   8.031   4.269  1.00 20.00    -0.265 OA
ENDROOT
BRANCH   1   3
HETATM    3  C7  UNL     1     -31.918   8.277   1.858  1.00 20.00     0.115 C 
BRANCH   3   4
HETATM    4  C4  UNL     1     -32.920   9.213   1.202  1.00 20.00    -0.005 A 
HETATM    5  C2  UNL     1     -32.466  10.528   0.630  1.00 20.00     0.005 A 
HETATM    6  C3  UNL     1     -32.898   9.418  -0.288  1.00 20.00     0.005 A 
ENDBRANCH   3   4
ENDBRANCH   1   3
BRANCH   1   7
HETATM    7  O10 UNL     1     -33.575   7.231   3.139  1.00 20.00    -0.317 OA
BRANCH   7   8
HETATM    8  C8  UNL     1     -33.656   5.933   3.738  1.00 20.00     0.123 C 
HETATM    9  C5  UNL     1     -35.082   5.685   4.204  1.00 20.00     0.040 C 
HETATM   10  C6  UNL     1     -33.198   4.889   2.731  1.00 20.00     0.040 C 
ENDBRANCH   7   8
ENDBRANCH   1   7
TORSDOF 4
ENDMDL
MODEL 6
REMARK VINA RESULT:      -5.0      1.507      1.803
REMARK  4 active torsions:
REMARK  status: ('A' for Active; 'I' for Inactive)
REMARK    1  A    between atoms: C1_1  and  C7_7 
REMARK    2  A    between atoms: C1_1  and  O10_10 
REMARK    3  A    between atoms: C4_4  and  C7_7 
REMARK    4  A    between atoms: C8_8  and  O10_10 
ROOT
HETATM    1  C1  UNL     1     -33.263   6.257   2.979  1.00 20.00     0.259 C 
HETATM    2  O9  UNL     1     -32.775   5.186   2.650  1.00 20.00    -0.265 OA
ENDROOT
BRANCH   1   3
HETATM    3  C7  UNL     1     -32.549   7.587   2.947  1.00 20.00     0.115 C 
BRANCH   3   4
HETATM    4  C4  UNL     1     -32.695   8.283   1.604  1.00 20.00    -0.005 A 
HETATM    5  C2  UNL     1     -32.422   9.757   1.480  1.00 20.00     0.005 A 
HETATM    6  C3  UNL     1     -31.477   8.762   0.864  1.00 20.00     0.005 A 
ENDBRANCH   3   4
ENDBRANCH   1   3
BRANCH   1   7
HETATM    7  O10 UNL     1     -34.537   6.452   3.434  1.00 20.00    -0.317 OA
BRANCH   7   8
HETATM    8  C8  UNL     1     -34.800   5.971   4.756  1.00 20.00     0.123 C 
HETATM    9  C5  UNL     1     -34.486   4.485   4.821  1.00 20.00     0.040 C 
HETATM   10  C6  UNL     1     -33.972   6.771   5.752  1.00 20.00     0.040 C 
ENDBRANCH   7   8
ENDBRANCH   1   7
TORSDOF 4
ENDMDL
MODEL 7
REMARK VINA RESULT:      -4.9      1.227      4.932
REMARK  4 active torsions:
REMARK  status: ('A' for Active; 'I' for Inactive)
REMARK    1  A    between atoms: C1_1  and  C7_7 
REMARK    2  A    between atoms: C1_1  and  O10_10 
REMARK    3  A    between atoms: C4_4  and  C7_7 
REMARK    4  A    between atoms: C8_8  and  O10_10 
ROOT
HETATM    1  C1  UNL     1     -33.202   7.159   2.855  1.00 20.00     0.259 C 
HETATM    2  O9  UNL     1     -33.542   6.379   1.977  1.00 20.00    -0.265 OA
ENDROOT
BRANCH   1   3
HETATM    3  C7  UNL     1     -33.498   6.998   4.327  1.00 20.00     0.115 C 
BRANCH   3   4
HETATM    4  C4  UNL     1     -34.631   6.018   4.578  1.00 20.00    -0.005 A 
HETATM    5  C2  UNL     1     -34.368   4.537   4.570  1.00 20.00     0.005 A 
HETATM    6  C3  UNL     1     -34.685   5.237   5.862  1.00 20.00     0.005 A 
ENDBRANCH   3   4
ENDBRANCH   1   3
BRANCH   1   7
HETATM    7  O10 UNL     1     -32.496   8.315   2.671  1.00 20.00    -0.317 OA
BRANCH   7   8
HETATM    8  C8  UNL     1     -32.585   8.889   1.362  1.00 20.00     0.123 C 
HETATM    9  C5  UNL     1     -32.907  10.370   1.486  1.00 20.00     0.040 C 
HETATM   10  C6  UNL     1     -31.276   8.652   0.623  1.00 20.00     0.040 C 
ENDBRANCH   7   8
ENDBRANCH   1   7
TORSDOF 4
ENDMDL
MODEL 8
REMARK VINA RESULT:      -4.0      9.958     11.324
REMARK  4 active torsions:
REMARK  status: ('A' for Active; 'I' for Inactive)
REMARK    1  A    between atoms: C1_1  and  C7_7 
REMARK    2  A    between atoms: C1_1  and  O10_10 
REMARK    3  A    between atoms: C4_4  and  C7_7 
REMARK    4  A    between atoms: C8_8  and  O10_10 
ROOT
HETATM    1  C1  UNL     1     -35.623  13.827  -5.018  1.00 20.00     0.259 C 
HETATM    2  O9  UNL     1     -35.864  12.648  -5.235  1.00 20.00    -0.265 OA
ENDROOT
BRANCH   1   3
HETATM    3  C7  UNL     1     -34.595  14.341  -4.038  1.00 20.00     0.115 C 
BRANCH   3   4
HETATM    4  C4  UNL     1     -34.729  15.837  -3.801  1.00 20.00    -0.005 A 
HETATM    5  C2  UNL     1     -35.126  16.357  -2.447  1.00 20.00     0.005 A 
HETATM    6  C3  UNL     1     -33.723  16.560  -2.950  1.00 20.00     0.005 A 
ENDBRANCH   3   4
ENDBRANCH   1   3
BRANCH   1   7
HETATM    7  O10 UNL     1     -36.232  14.893  -5.617  1.00 20.00    -0.317 OA
BRANCH   7   8
HETATM    8  C8  UNL     1     -37.633  14.740  -5.871  1.00 20.00     0.123 C 
HETATM    9  C5  UNL     1     -38.410  15.059  -4.604  1.00 20.00     0.040 C 
HETATM   10  C6  UNL     1     -38.033  15.645  -7.027  1.00 20.00     0.040 C 
ENDBRANCH   7   8
ENDBRANCH   1   7
TORSDOF 4
ENDMDL
MODEL 9
REMARK VINA RESULT:      -3.9      9.794     10.611
REMARK  4 active torsions:
REMARK  status: ('A' for Active; 'I' for Inactive)
REMARK    1  A    between atoms: C1_1  and  C7_7 
REMARK    2  A    between atoms: C1_1  and  O10_10 
REMARK    3  A    between atoms: C4_4  and  C7_7 
REMARK    4  A    between atoms: C8_8  and  O10_10 
ROOT
HETATM    1  C1  UNL     1     -33.546  14.289  -4.282  1.00 20.00     0.259 C 
HETATM    2  O9  UNL     1     -32.477  13.702  -4.192  1.00 20.00    -0.265 OA
ENDROOT
BRANCH   1   3
HETATM    3  C7  UNL     1     -33.723  15.788  -4.245  1.00 20.00     0.115 C 
BRANCH   3   4
HETATM    4  C4  UNL     1     -33.831  16.316  -2.824  1.00 20.00    -0.005 A 
HETATM    5  C2  UNL     1     -34.284  17.728  -2.573  1.00 20.00     0.005 A 
HETATM    6  C3  UNL     1     -35.180  16.575  -2.215  1.00 20.00     0.005 A 
ENDBRANCH   3   4
ENDBRANCH   1   3
BRANCH   1   7
HETATM    7  O10 UNL     1     -34.771  13.704  -4.431  1.00 20.00    -0.317 OA
BRANCH   7   8
HETATM    8  C8  UNL     1     -35.566  14.204  -5.511  1.00 20.00     0.123 C 
HETATM    9  C5  UNL     1     -35.346  13.336  -6.740  1.00 20.00     0.040 C 
HETATM   10  C6  UNL     1     -37.027  14.228  -5.087  1.00 20.00     0.040 C 
ENDBRANCH   7   8
ENDBRANCH   1   7
TORSDOF 4
ENDMDL
