MODEL 1
REMARK VINA RESULT:      -5.7      0.000      0.000
REMARK  4 active torsions:
REMARK  status: ('A' for Active; 'I' for Inactive)
REMARK    1  A    between atoms: C1_1  and  C6_6 
REMARK       I    between atoms: C1_1  and  N10_10 
REMARK    2  A    between atoms: C7_7  and  C8_8 
REMARK    3  A    between atoms: C7_7  and  C9_9 
REMARK    4  A    between atoms: C8_8  and  N10_10 
ROOT
HETATM    1  C1  UNL     1     -33.808   6.938   4.593  1.00 20.00     0.218 C 
HETATM    2  C5  UNL     1     -33.281   6.121   2.268  1.00 20.00     0.152 C 
HETATM    3  N10 UNL     1     -33.060   7.032   3.397  1.00 20.00    -0.356 N 
HETATM    4  O11 UNL     1     -33.656   7.680   5.567  1.00 20.00    -0.273 OA
ENDROOT
BRANCH   3   5
HETATM    5  C8  UNL     1     -32.038   8.026   3.216  1.00 20.00     0.125 C 
BRANCH   5   6
HETATM    6  C7  UNL     1     -31.850   8.409   1.751  1.00 20.00     0.024 C 
BRANCH   6   7
HETATM    7  C9  UNL     1     -32.859   9.444   1.213  1.00 20.00    -0.021 C 
HETATM    8  C3  UNL     1     -32.979   9.308  -0.307  1.00 20.00     0.009 C 
HETATM    9  C4  UNL     1     -32.471  10.879   1.573  1.00 20.00     0.009 C 
ENDBRANCH   6   7
ENDBRANCH   5   6
ENDBRANCH   3   5
BRANCH   1  10
HETATM   10  C6  UNL     1     -34.851   5.830   4.623  1.00 20.00     0.098 C 
HETATM   11  C2  UNL     1     -34.504   4.725   5.609  1.00 20.00     0.014 C 
ENDBRANCH   1  10
TORSDOF 4
ENDMDL
MODEL 2
REMARK VINA RESULT:      -5.6      1.243      1.850
REMARK  4 active torsions:
REMARK  status: ('A' for Active; 'I' for Inactive)
REMARK    1  A    between atoms: C1_1  and  C6_6 
REMARK       I    between atoms: C1_1  and  N10_10 
REMARK    2  A    between atoms: C7_7  and  C8_8 
REMARK    3  A    between atoms: C7_7  and  C9_9 
REMARK    4  A    between atoms: C8_8  and  N10_10 
ROOT
HETATM    1  C1  UNL     1     -34.128   6.593   3.894  1.00 20.00     0.218 C 
HETATM    2  C5  UNL     1     -32.086   8.039   4.194  1.00 20.00     0.152 C 
HETATM    3  N10 UNL     1     -33.089   7.381   3.348  1.00 20.00    -0.356 N 
HETATM    4  O11 UNL     1     -34.993   6.023   3.223  1.00 20.00    -0.273 OA
ENDROOT
BRANCH   3   5
HETATM    5  C8  UNL     1     -32.952   7.584   1.933  1.00 20.00     0.125 C 
BRANCH   5   6
HETATM    6  C7  UNL     1     -31.785   8.503   1.585  1.00 20.00     0.024 C 
BRANCH   6   7
HETATM    7  C9  UNL     1     -32.144   9.698   0.678  1.00 20.00    -0.021 C 
HETATM    8  C3  UNL     1     -32.770  10.814   1.518  1.00 20.00     0.009 C 
HETATM    9  C4  UNL     1     -33.096   9.307  -0.452  1.00 20.00     0.009 C 
ENDBRANCH   6   7
ENDBRANCH   5   6
ENDBRANCH   3   5
BRANCH   1  10
HETATM   10  C6  UNL     1     -34.132   6.480   5.412  1.00 20.00     0.098 C 
HETATM   11  C2  UNL     1     -34.559   5.103   5.896  1.00 20.00     0.014 C 
ENDBRANCH   1  10
TORSDOF 4
ENDMDL
MODEL 3
REMARK VINA RESULT:      -4.6      1.825      5.245
REMARK  4 active torsions:
REMARK  status: ('A' for Active; 'I' for Inactive)
REMARK    1  A    between atoms: C1_1  and  C6_6 
REMARK       I    between atoms: C1_1  and  N10_10 
REMARK    2  A    between atoms: C7_7  and  C8_8 
REMARK    3  A    between atoms: C7_7  and  C9_9 
REMARK    4  A    between atoms: C8_8  and  N10_10 
ROOT
HETATM    1  C1  UNL     1     -32.686   8.345   1.662  1.00 20.00     0.218 C 
HETATM    2  C5  UNL     1     -31.897   7.997   4.030  1.00 20.00     0.152 C 
HETATM    3  N10 UNL     1     -32.590   7.539   2.819  1.00 20.00    -0.356 N 
HETATM    4  O11 UNL     1     -33.257   8.002   0.623  1.00 20.00    -0.273 OA
ENDROOT
BRANCH   3   5
HETATM    5  C8  UNL     1     -33.165   6.224   2.880  1.00 20.00     0.125 C 
BRANCH   5   6
HETATM    6  C7  UNL     1     -34.608   6.240   3.378  1.00 20.00     0.024 C 
BRANCH   6   7
HETATM    7  C9  UNL     1     -34.881   5.357   4.612  1.00 20.00    -0.021 C 
HETATM    8  C3  UNL     1     -34.434   6.088   5.880  1.00 20.00     0.009 C 
HETATM    9  C4  UNL     1     -34.181   4.001   4.525  1.00 20.00     0.009 C 
ENDBRANCH   6   7
ENDBRANCH   5   6
ENDBRANCH   3   5
BRANCH   1  10
HETATM   10  C6  UNL     1     -32.022   9.711   1.762  1.00 20.00     0.098 C 
HETATM   11  C2  UNL     1     -32.474  10.664   0.666  1.00 20.00     0.014 C 
ENDBRANCH   1  10
TORSDOF 4
ENDMDL
MODEL 4
REMARK VINA RESULT:      -4.5      1.368      5.132
REMARK  4 active torsions:
REMARK  status: ('A' for Active; 'I' for Inactive)
REMARK    1  A    between atoms: C1_1  and  C6_6 
REMARK       I    between atoms: C1_1  and  N10_10 
REMARK    2  A    between atoms: C7_7  and  C8_8 
REMARK    3  A    between atoms: C7_7  and  C9_9 
REMARK    4  A    between atoms: C8_8  and  N10_10 
ROOT
HETATM    1  C1  UNL     1     -32.021   8.310   2.515  1.00 20.00     0.218 C 
HETATM    2  C5  UNL     1     -33.746   6.761   1.527  1.00 20.00     0.152 C 
HETATM    3  N10 UNL     1     -33.045   7.349   2.675  1.00 20.00    -0.356 N 
HETATM    4  O11 UNL     1     -31.406   8.831   3.449  1.00 20.00    -0.273 OA
ENDROOT
BRANCH   3   5
HETATM    5  C8  UNL     1     -33.460   6.889   3.970  1.00 20.00     0.125 C 
BRANCH   5   6
HETATM    6  C7  UNL     1     -34.831   6.219   3.941  1.00 20.00     0.024 C 
BRANCH   6   7
HETATM    7  C9  UNL     1     -34.909   4.861   4.668  1.00 20.00    -0.021 C 
HETATM    8  C3  UNL     1     -34.603   5.053   6.155  1.00 20.00     0.009 C 
HETATM    9  C4  UNL     1     -33.952   3.826   4.074  1.00 20.00     0.009 C 
ENDBRANCH   6   7
ENDBRANCH   5   6
ENDBRANCH   3   5
BRANCH   1  10
HETATM   10  C6  UNL     1     -31.702   8.689   1.076  1.00 20.00     0.098 C 
HETATM   11  C2  UNL     1     -32.382   9.980   0.645  1.00 20.00     0.014 C 
ENDBRANCH   1  10
TORSDOF 4
ENDMDL
MODEL 5
REMARK VINA RESULT:      -4.3     10.351     11.028
REMARK  4 active torsions:
REMARK  status: ('A' for Active; 'I' for Inactive)
REMARK    1  A    between atoms: C1_1  and  C6_6 
REMARK       I    between atoms: C1_1  and  N10_10 
REMARK    2  A    between atoms: C7_7  and  C8_8 
REMARK    3  A    between atoms: C7_7  and  C9_9 
REMARK    4  A    between atoms: C8_8  and  N10_10 
ROOT
HETATM    1  C1  UNL     1     -34.853  14.185  -4.364  1.00 20.00     0.218 C 
HETATM    2  C5  UNL     1     -36.575  16.000  -4.059  1.00 20.00     0.152 C 
HETATM    3  N10 UNL     1     -35.244  15.429  -3.819  1.00 20.00    -0.356 N 
HETATM    4  O11 UNL     1     -33.747  13.667  -4.190  1.00 20.00    -0.273 OA
ENDROOT
BRANCH   3   5
HETATM    5  C8  UNL     1     -34.362  16.209  -2.996  1.00 20.00     0.125 C 
BRANCH   5   6
HETATM    6  C7  UNL     1     -35.029  16.678  -1.706  1.00 20.00     0.024 C 
BRANCH   6   7
HETATM    7  C9  UNL     1     -34.423  17.953  -1.085  1.00 20.00    -0.021 C 
HETATM    8  C3  UNL     1     -32.912  17.978  -1.327  1.00 20.00     0.009 C 
HETATM    9  C4  UNL     1     -34.707  18.064   0.413  1.00 20.00     0.009 C 
ENDBRANCH   6   7
ENDBRANCH   5   6
ENDBRANCH   3   5
BRANCH   1  10
HETATM   10  C6  UNL     1     -35.906  13.486  -5.213  1.00 20.00     0.098 C 
HETATM   11  C2  UNL     1     -35.466  13.302  -6.657  1.00 20.00     0.014 C 
ENDBRANCH   1  10
TORSDOF 4
ENDMDL
MODEL 6
REMARK VINA RESULT:      -4.3     10.857     11.872
REMARK  4 active torsions:
REMARK  status: ('A' for Active; 'I' for Inactive)
REMARK    1  A    between atoms: C1_1  and  C6_6 
REMARK       I    between atoms: C1_1  and  N10_10 
REMARK    2  A    between atoms: C7_7  and  C8_8 
REMARK    3  A    between atoms: C7_7  and  C9_9 
REMARK    4  A    between atoms: C8_8  and  N10_10 
ROOT
HETATM    1  C1  UNL     1     -36.081  13.770  -5.967  1.00 20.00     0.218 C 
HETATM    2  C5  UNL     1     -36.718  16.159  -6.455  1.00 20.00     0.152 C 
HETATM    3  N10 UNL     1     -36.580  15.021  -5.538  1.00 20.00    -0.356 N 
HETATM    4  O11 UNL     1     -35.947  12.788  -5.233  1.00 20.00    -0.273 OA
ENDROOT
BRANCH   3   5
HETATM    5  C8  UNL     1     -36.982  15.254  -4.179  1.00 20.00     0.125 C 
BRANCH   5   6
HETATM    6  C7  UNL     1     -36.237  16.424  -3.541  1.00 20.00     0.024 C 
BRANCH   6   7
HETATM    7  C9  UNL     1     -34.941  16.044  -2.797  1.00 20.00    -0.021 C 
HETATM    8  C3  UNL     1     -34.757  16.955  -1.581  1.00 20.00     0.009 C 
HETATM    9  C4  UNL     1     -33.706  16.128  -3.696  1.00 20.00     0.009 C 
ENDBRANCH   6   7
ENDBRANCH   5   6
ENDBRANCH   3   5
BRANCH   1  10
HETATM   10  C6  UNL     1     -35.699  13.691  -7.438  1.00 20.00     0.098 C 
HETATM   11  C2  UNL     1     -34.204  13.848  -7.665  1.00 20.00     0.014 C 
ENDBRANCH   1  10
TORSDOF 4
ENDMDL
MODEL 7
REMARK VINA RESULT:      -4.1     10.370     11.070
REMARK  4 active torsions:
REMARK  status: ('A' for Active; 'I' for Inactive)
REMARK    1  A    between atoms: C1_1  and  C6_6 
REMARK       I    between atoms: C1_1  and  N10_10 
REMARK    2  A    between atoms: C7_7  and  C8_8 
REMARK    3  A    between atoms: C7_7  and  C9_9 
REMARK    4  A    between atoms: C8_8  and  N10_10 
ROOT
HETATM    1  C1  UNL     1     -33.123  18.128  -0.804  1.00 20.00     0.218 C 
HETATM    2  C5  UNL     1     -35.375  17.016  -1.006  1.00 20.00     0.152 C 
HETATM    3  N10 UNL     1     -34.029  17.309  -1.514  1.00 20.00    -0.356 N 
HETATM    4  O11 UNL     1     -31.983  18.400  -1.190  1.00 20.00    -0.273 OA
ENDROOT
BRANCH   3   5
HETATM    5  C8  UNL     1     -33.688  16.714  -2.776  1.00 20.00     0.125 C 
BRANCH   5   6
HETATM    6  C7  UNL     1     -34.829  15.883  -3.357  1.00 20.00     0.024 C 
BRANCH   6   7
HETATM    7  C9  UNL     1     -34.418  14.497  -3.893  1.00 20.00    -0.021 C 
HETATM    8  C3  UNL     1     -33.055  14.592  -4.583  1.00 20.00     0.009 C 
HETATM    9  C4  UNL     1     -35.447  13.919  -4.866  1.00 20.00     0.009 C 
ENDBRANCH   6   7
ENDBRANCH   5   6
ENDBRANCH   3   5
BRANCH   1  10
HETATM   10  C6  UNL     1     -33.640  18.680   0.517  1.00 20.00     0.098 C 
HETATM   11  C2  UNL     1     -32.556  18.769   1.580  1.00 20.00     0.014 C 
ENDBRANCH   1  10
TORSDOF 4
ENDMDL
MODEL 8
REMARK VINA RESULT:      -4.0     10.790     11.386
REMARK  4 active torsions:
REMARK  status: ('A' for Active; 'I' for Inactive)
REMARK    1  A    between atoms: C1_1  and  C6_6 
REMARK       I    between atoms: C1_1  and  N10_10 
REMARK    2  A    between atoms: C7_7  and  C8_8 
REMARK    3  A    between atoms: C7_7  and  C9_9 
REMARK    4  A    between atoms: C8_8  and  N10_10 
ROOT
HETATM    1  C1  UNL     1     -32.142  18.461  -0.005  1.00 20.00     0.218 C 
HETATM    2  C5  UNL     1     -34.661  18.375  -0.034  1.00 20.00     0.152 C 
HETATM    3  N10 UNL     1     -33.353  18.119  -0.649  1.00 20.00    -0.356 N 
HETATM    4  O11 UNL     1     -31.022  18.264  -0.482  1.00 20.00    -0.273 OA
ENDROOT
BRANCH   3   5
HETATM    5  C8  UNL     1     -33.375  17.501  -1.945  1.00 20.00     0.125 C 
BRANCH   5   6
HETATM    6  C7  UNL     1     -34.620  16.644  -2.162  1.00 20.00     0.024 C 
BRANCH   6   7
HETATM    7  C9  UNL     1     -34.542  15.672  -3.357  1.00 20.00    -0.021 C 
HETATM    8  C3  UNL     1     -33.499  16.170  -4.361  1.00 20.00     0.009 C 
HETATM    9  C4  UNL     1     -35.890  15.499  -4.058  1.00 20.00     0.009 C 
ENDBRANCH   6   7
ENDBRANCH   5   6
ENDBRANCH   3   5
BRANCH   1  10
HETATM   10  C6  UNL     1     -32.293  19.108   1.365  1.00 20.00     0.098 C 
HETATM   11  C2  UNL     1     -31.081  18.887   2.255  1.00 20.00     0.014 C 
ENDBRANCH   1  10
TORSDOF 4
ENDMDL
MODEL 9
REMARK VINA RESULT:      -4.0      1.920      5.180
REMARK  4 active torsions:
REMARK  status: ('A' for Active; 'I' for Inactive)
REMARK    1  A    between atoms: C1_1  and  C6_6 
REMARK       I    between atoms: C1_1  and  N10_10 
REMARK    2  A    between atoms: C7_7  and  C8_8 
REMARK    3  A    between atoms: C7_7  and  C9_9 
REMARK    4  A    between atoms: C8_8  and  N10_10 
ROOT
HETATM    1  C1  UNL     1     -32.047   8.789   1.344  1.00 20.00     0.218 C 
HETATM    2  C5  UNL     1     -34.076   9.070   2.812  1.00 20.00     0.152 C 
HETATM    3  N10 UNL     1     -32.848   8.363   2.427  1.00 20.00    -0.356 N 
HETATM    4  O11 UNL     1     -31.008   8.228   0.986  1.00 20.00    -0.273 OA
ENDROOT
BRANCH   3   5
HETATM    5  C8  UNL     1     -32.510   7.212   3.216  1.00 20.00     0.125 C 
BRANCH   5   6
HETATM    6  C7  UNL     1     -33.484   6.055   3.009  1.00 20.00     0.024 C 
BRANCH   6   7
HETATM    7  C9  UNL     1     -34.425   5.774   4.198  1.00 20.00    -0.021 C 
HETATM    8  C3  UNL     1     -34.023   6.642   5.392  1.00 20.00     0.009 C 
HETATM    9  C4  UNL     1     -34.424   4.301   4.608  1.00 20.00     0.009 C 
ENDBRANCH   6   7
ENDBRANCH   5   6
ENDBRANCH   3   5
BRANCH   1  10
HETATM   10  C6  UNL     1     -32.545  10.027   0.612  1.00 20.00     0.098 C 
HETATM   11  C2  UNL     1     -33.252   9.693  -0.692  1.00 20.00     0.014 C 
ENDBRANCH   1  10
TORSDOF 4
ENDMDL
