MODEL 1
REMARK VINA RESULT:      -5.4      0.000      0.000
REMARK  2 active torsions:
REMARK  status: ('A' for Active; 'I' for Inactive)
REMARK    1  A    between atoms: C1_1  and  C3_3 
REMARK       I    between atoms: C1_1  and  N9_9 
REMARK    2  A    between atoms: C8_8  and  N9_9 
ROOT
HETATM    1  C1  UNL     1     -32.361   7.670   2.772  1.00 20.00     0.222 C 
HETATM    2  N9  UNL     1     -32.957   8.223   1.656  1.00 20.00    -0.357 N 
HETATM    3  O10 UNL     1     -31.369   8.095   3.354  1.00 20.00    -0.273 OA
HETATM    4  H25 UNL     1     -33.779   7.767   1.271  1.00 20.00     0.162 HD
ENDROOT
BRANCH   1   5
HETATM    5  C3  UNL     1     -33.023   6.456   3.265  1.00 20.00     0.082 A 
HETATM    6  C2  UNL     1     -34.526   6.434   3.393  1.00 20.00     0.019 A 
HETATM    7  C4  UNL     1     -33.671   6.425   4.629  1.00 20.00    -0.005 A 
HETATM    8  C5  UNL     1     -33.665   7.606   5.538  1.00 20.00     0.011 C 
ENDBRANCH   1   5
BRANCH   2   9
HETATM    9  C8  UNL     1     -32.468   9.420   1.009  1.00 20.00     0.076 C 
HETATM   10  C6  UNL     1     -33.002  10.638   1.747  1.00 20.00     0.032 C 
HETATM   11  C7  UNL     1     -32.907   9.407  -0.447  1.00 20.00     0.032 C 
ENDBRANCH   2   9
TORSDOF 2
ENDMDL
MODEL 2
REMARK VINA RESULT:      -5.3      1.185      1.782
REMARK  2 active torsions:
REMARK  status: ('A' for Active; 'I' for Inactive)
REMARK    1  A    between atoms: C1_1  and  C3_3 
REMARK       I    between atoms: C1_1  and  N9_9 
REMARK    2  A    between atoms: C8_8  and  N9_9 
ROOT
HETATM    1  C1  UNL     1     -33.086   7.717   3.433  1.00 20.00     0.222 C 
HETATM    2  N9  UNL     1     -33.149   8.318   2.191  1.00 20.00    -0.357 N 
HETATM    3  O10 UNL     1     -32.182   7.834   4.253  1.00 20.00    -0.273 OA
HETATM    4  H25 UNL     1     -33.960   8.135   1.607  1.00 20.00     0.162 HD
ENDROOT
BRANCH   1   5
HETATM    5  C3  UNL     1     -34.242   6.870   3.748  1.00 20.00     0.082 A 
HETATM    6  C2  UNL     1     -34.135   5.855   4.858  1.00 20.00     0.019 A 
HETATM    7  C4  UNL     1     -34.231   5.393   3.432  1.00 20.00    -0.005 A 
HETATM    8  C5  UNL     1     -33.065   4.729   2.783  1.00 20.00     0.011 C 
ENDBRANCH   1   5
BRANCH   2   9
HETATM    9  C8  UNL     1     -32.118   9.194   1.682  1.00 20.00     0.076 C 
HETATM   10  C6  UNL     1     -32.759  10.479   1.181  1.00 20.00     0.032 C 
HETATM   11  C7  UNL     1     -31.362   8.473   0.576  1.00 20.00     0.032 C 
ENDBRANCH   2   9
TORSDOF 2
ENDMDL
MODEL 3
REMARK VINA RESULT:      -5.1      0.998      4.246
REMARK  2 active torsions:
REMARK  status: ('A' for Active; 'I' for Inactive)
REMARK    1  A    between atoms: C1_1  and  C3_3 
REMARK       I    between atoms: C1_1  and  N9_9 
REMARK    2  A    between atoms: C8_8  and  N9_9 
ROOT
HETATM    1  C1  UNL     1     -32.433   7.843   2.653  1.00 20.00     0.222 C 
HETATM    2  N9  UNL     1     -33.499   7.104   3.128  1.00 20.00    -0.357 N 
HETATM    3  O10 UNL     1     -31.429   8.159   3.281  1.00 20.00    -0.273 OA
HETATM    4  H25 UNL     1     -34.273   6.912   2.499  1.00 20.00     0.162 HD
ENDROOT
BRANCH   1   5
HETATM    5  C3  UNL     1     -32.572   8.263   1.253  1.00 20.00     0.082 A 
HETATM    6  C2  UNL     1     -31.447   9.020   0.593  1.00 20.00     0.019 A 
HETATM    7  C4  UNL     1     -32.743   9.719   0.893  1.00 20.00    -0.005 A 
HETATM    8  C5  UNL     1     -32.789  10.793   1.926  1.00 20.00     0.011 C 
ENDBRANCH   1   5
BRANCH   2   9
HETATM    9  C8  UNL     1     -33.565   6.589   4.477  1.00 20.00     0.076 C 
HETATM   10  C6  UNL     1     -34.759   5.653   4.595  1.00 20.00     0.032 C 
HETATM   11  C7  UNL     1     -33.669   7.758   5.445  1.00 20.00     0.032 C 
ENDBRANCH   2   9
TORSDOF 2
ENDMDL
MODEL 4
REMARK VINA RESULT:      -5.0      1.920      2.717
REMARK  2 active torsions:
REMARK  status: ('A' for Active; 'I' for Inactive)
REMARK    1  A    between atoms: C1_1  and  C3_3 
REMARK       I    between atoms: C1_1  and  N9_9 
REMARK    2  A    between atoms: C8_8  and  N9_9 
ROOT
HETATM    1  C1  UNL     1     -34.048   6.383   3.093  1.00 20.00     0.222 C 
HETATM    2  N9  UNL     1     -33.194   7.415   3.431  1.00 20.00    -0.357 N 
HETATM    3  O10 UNL     1     -34.070   5.776   2.029  1.00 20.00    -0.273 OA
HETATM    4  H25 UNL     1     -33.283   7.834   4.352  1.00 20.00     0.162 HD
ENDROOT
BRANCH   1   5
HETATM    5  C3  UNL     1     -35.000   6.022   4.152  1.00 20.00     0.082 A 
HETATM    6  C2  UNL     1     -34.535   5.995   5.586  1.00 20.00     0.019 A 
HETATM    7  C4  UNL     1     -34.880   4.710   4.888  1.00 20.00    -0.005 A 
HETATM    8  C5  UNL     1     -33.810   3.720   4.578  1.00 20.00     0.011 C 
ENDBRANCH   1   5
BRANCH   2   9
HETATM    9  C8  UNL     1     -32.179   7.926   2.538  1.00 20.00     0.076 C 
HETATM   10  C6  UNL     1     -31.017   8.463   3.359  1.00 20.00     0.032 C 
HETATM   11  C7  UNL     1     -32.795   9.006   1.661  1.00 20.00     0.032 C 
ENDBRANCH   2   9
TORSDOF 2
ENDMDL
MODEL 5
REMARK VINA RESULT:      -4.7      1.705      2.768
REMARK  2 active torsions:
REMARK  status: ('A' for Active; 'I' for Inactive)
REMARK    1  A    between atoms: C1_1  and  C3_3 
REMARK       I    between atoms: C1_1  and  N9_9 
REMARK    2  A    between atoms: C8_8  and  N9_9 
ROOT
HETATM    1  C1  UNL     1     -33.749   7.110   4.531  1.00 20.00     0.222 C 
HETATM    2  N9  UNL     1     -33.493   7.501   3.231  1.00 20.00    -0.357 N 
HETATM    3  O10 UNL     1     -33.211   7.547   5.543  1.00 20.00    -0.273 OA
HETATM    4  H25 UNL     1     -34.012   7.055   2.481  1.00 20.00     0.162 HD
ENDROOT
BRANCH   1   5
HETATM    5  C3  UNL     1     -34.775   6.067   4.651  1.00 20.00     0.082 A 
HETATM    6  C2  UNL     1     -34.535   4.896   5.571  1.00 20.00     0.019 A 
HETATM    7  C4  UNL     1     -34.549   4.686   4.083  1.00 20.00    -0.005 A 
HETATM    8  C5  UNL     1     -33.293   4.316   3.372  1.00 20.00     0.011 C 
ENDBRANCH   1   5
BRANCH   2   9
HETATM    9  C8  UNL     1     -32.521   8.515   2.888  1.00 20.00     0.076 C 
HETATM   10  C6  UNL     1     -32.567   8.760   1.387  1.00 20.00     0.032 C 
HETATM   11  C7  UNL     1     -31.145   8.051   3.342  1.00 20.00     0.032 C 
ENDBRANCH   2   9
TORSDOF 2
ENDMDL
MODEL 6
REMARK VINA RESULT:      -4.6      0.936      4.373
REMARK  2 active torsions:
REMARK  status: ('A' for Active; 'I' for Inactive)
REMARK    1  A    between atoms: C1_1  and  C3_3 
REMARK       I    between atoms: C1_1  and  N9_9 
REMARK    2  A    between atoms: C8_8  and  N9_9 
ROOT
HETATM    1  C1  UNL     1     -32.263   8.326   2.380  1.00 20.00     0.222 C 
HETATM    2  N9  UNL     1     -33.290   8.148   3.287  1.00 20.00    -0.357 N 
HETATM    3  O10 UNL     1     -31.465   7.473   2.008  1.00 20.00    -0.273 OA
HETATM    4  H25 UNL     1     -33.881   8.943   3.510  1.00 20.00     0.162 HD
ENDROOT
BRANCH   1   5
HETATM    5  C3  UNL     1     -32.168   9.689   1.844  1.00 20.00     0.082 A 
HETATM    6  C2  UNL     1     -33.431  10.460   1.556  1.00 20.00     0.019 A 
HETATM    7  C4  UNL     1     -32.567   9.992   0.420  1.00 20.00    -0.005 A 
HETATM    8  C5  UNL     1     -33.063   8.937  -0.508  1.00 20.00     0.011 C 
ENDBRANCH   1   5
BRANCH   2   9
HETATM    9  C8  UNL     1     -33.563   6.884   3.934  1.00 20.00     0.076 C 
HETATM   10  C6  UNL     1     -34.759   6.228   3.262  1.00 20.00     0.032 C 
HETATM   11  C7  UNL     1     -33.815   7.134   5.414  1.00 20.00     0.032 C 
ENDBRANCH   2   9
TORSDOF 2
ENDMDL
MODEL 7
REMARK VINA RESULT:      -4.5      1.874      4.466
REMARK  2 active torsions:
REMARK  status: ('A' for Active; 'I' for Inactive)
REMARK    1  A    between atoms: C1_1  and  C3_3 
REMARK       I    between atoms: C1_1  and  N9_9 
REMARK    2  A    between atoms: C8_8  and  N9_9 
ROOT
HETATM    1  C1  UNL     1     -33.186   6.632   2.772  1.00 20.00     0.222 C 
HETATM    2  N9  UNL     1     -33.393   6.516   4.133  1.00 20.00    -0.357 N 
HETATM    3  O10 UNL     1     -33.943   6.251   1.885  1.00 20.00    -0.273 OA
HETATM    4  H25 UNL     1     -32.681   6.875   4.762  1.00 20.00     0.162 HD
ENDROOT
BRANCH   1   5
HETATM    5  C3  UNL     1     -31.921   7.284   2.412  1.00 20.00     0.082 A 
HETATM    6  C2  UNL     1     -31.452   8.477   3.206  1.00 20.00     0.019 A 
HETATM    7  C4  UNL     1     -31.907   8.658   1.786  1.00 20.00    -0.005 A 
HETATM    8  C5  UNL     1     -33.159   9.411   1.495  1.00 20.00     0.011 C 
ENDBRANCH   1   5
BRANCH   2   9
HETATM    9  C8  UNL     1     -34.574   5.908   4.704  1.00 20.00     0.076 C 
HETATM   10  C6  UNL     1     -34.664   6.282   6.176  1.00 20.00     0.032 C 
HETATM   11  C7  UNL     1     -34.493   4.401   4.510  1.00 20.00     0.032 C 
ENDBRANCH   2   9
TORSDOF 2
ENDMDL
MODEL 8
REMARK VINA RESULT:      -4.4      9.742     11.083
REMARK  2 active torsions:
REMARK  status: ('A' for Active; 'I' for Inactive)
REMARK    1  A    between atoms: C1_1  and  C3_3 
REMARK       I    between atoms: C1_1  and  N9_9 
REMARK    2  A    between atoms: C8_8  and  N9_9 
ROOT
HETATM    1  C1  UNL     1     -35.513  13.841  -4.834  1.00 20.00     0.222 C 
HETATM    2  N9  UNL     1     -36.540  14.761  -4.742  1.00 20.00    -0.357 N 
HETATM    3  O10 UNL     1     -35.524  12.800  -5.481  1.00 20.00    -0.273 OA
HETATM    4  H25 UNL     1     -36.400  15.586  -4.167  1.00 20.00     0.162 HD
ENDROOT
BRANCH   1   5
HETATM    5  C3  UNL     1     -34.317  14.201  -4.062  1.00 20.00     0.082 A 
HETATM    6  C2  UNL     1     -34.141  15.622  -3.591  1.00 20.00     0.019 A 
HETATM    7  C4  UNL     1     -33.240  15.073  -4.661  1.00 20.00    -0.005 A 
HETATM    8  C5  UNL     1     -33.327  15.601  -6.051  1.00 20.00     0.011 C 
ENDBRANCH   1   5
BRANCH   2   9
HETATM    9  C8  UNL     1     -37.805  14.604  -5.424  1.00 20.00     0.076 C 
HETATM   10  C6  UNL     1     -37.712  15.245  -6.800  1.00 20.00     0.032 C 
HETATM   11  C7  UNL     1     -38.901  15.239  -4.580  1.00 20.00     0.032 C 
ENDBRANCH   2   9
TORSDOF 2
ENDMDL
MODEL 9
REMARK VINA RESULT:      -4.0      9.911     10.868
REMARK  2 active torsions:
REMARK  status: ('A' for Active; 'I' for Inactive)
REMARK    1  A    between atoms: C1_1  and  C3_3 
REMARK       I    between atoms: C1_1  and  N9_9 
REMARK    2  A    between atoms: C8_8  and  N9_9 
ROOT
HETATM    1  C1  UNL     1     -34.944  15.905  -3.530  1.00 20.00     0.222 C 
HETATM    2  N9  UNL     1     -34.026  16.360  -2.603  1.00 20.00    -0.357 N 
HETATM    3  O10 UNL     1     -36.018  16.427  -3.807  1.00 20.00    -0.273 OA
HETATM    4  H25 UNL     1     -33.171  15.829  -2.469  1.00 20.00     0.162 HD
ENDROOT
BRANCH   1   5
HETATM    5  C3  UNL     1     -34.540  14.673  -4.218  1.00 20.00     0.082 A 
HETATM    6  C2  UNL     1     -33.076  14.319  -4.302  1.00 20.00     0.019 A 
HETATM    7  C4  UNL     1     -33.819  14.725  -5.543  1.00 20.00    -0.005 A 
HETATM    8  C5  UNL     1     -33.492  16.013  -6.220  1.00 20.00     0.011 C 
ENDBRANCH   1   5
BRANCH   2   9
HETATM    9  C8  UNL     1     -34.224  17.556  -1.816  1.00 20.00     0.076 C 
HETATM   10  C6  UNL     1     -32.872  18.077  -1.353  1.00 20.00     0.032 C 
HETATM   11  C7  UNL     1     -35.133  17.227  -0.641  1.00 20.00     0.032 C 
ENDBRANCH   2   9
TORSDOF 2
ENDMDL
