MODEL 1
REMARK VINA RESULT:      -5.6      0.000      0.000
REMARK  3 active torsions:
REMARK  status: ('A' for Active; 'I' for Inactive)
REMARK    1  A    between atoms: C1_1  and  C7_7 
REMARK       I    between atoms: C1_1  and  N9_9 
REMARK    2  A    between atoms: C4_4  and  C8_8 
REMARK    3  A    between atoms: C8_8  and  N9_9 
ROOT
HETATM    1  C1  UNL     1     -33.584   7.083   4.251  1.00 20.00     0.219 C 
HETATM    2  C6  UNL     1     -31.399   8.191   3.732  1.00 20.00     0.152 C 
HETATM    3  N9  UNL     1     -32.706   7.679   3.339  1.00 20.00    -0.356 N 
HETATM    4  O10 UNL     1     -33.627   7.381   5.447  1.00 20.00    -0.273 OA
ENDROOT
BRANCH   3   5
HETATM    5  C8  UNL     1     -33.035   7.835   1.923  1.00 20.00     0.130 C 
BRANCH   5   6
HETATM    6  C4  UNL     1     -32.242   8.936   1.305  1.00 20.00     0.004 A 
HETATM    7  C2  UNL     1     -32.623   9.479  -0.044  1.00 20.00     0.007 A 
HETATM    8  C3  UNL     1     -32.827  10.316   1.187  1.00 20.00     0.007 A 
ENDBRANCH   5   6
ENDBRANCH   3   5
BRANCH   1   9
HETATM    9  C7  UNL     1     -34.510   6.014   3.689  1.00 20.00     0.098 C 
HETATM   10  C5  UNL     1     -34.699   4.842   4.639  1.00 20.00     0.014 C 
ENDBRANCH   1   9
TORSDOF 3
ENDMDL
MODEL 2
REMARK VINA RESULT:      -4.6      1.925      4.570
REMARK  3 active torsions:
REMARK  status: ('A' for Active; 'I' for Inactive)
REMARK    1  A    between atoms: C1_1  and  C7_7 
REMARK       I    between atoms: C1_1  and  N9_9 
REMARK    2  A    between atoms: C4_4  and  C8_8 
REMARK    3  A    between atoms: C8_8  and  N9_9 
ROOT
HETATM    1  C1  UNL     1     -32.053   8.796   1.427  1.00 20.00     0.219 C 
HETATM    2  C6  UNL     1     -31.248   8.046   3.676  1.00 20.00     0.152 C 
HETATM    3  N9  UNL     1     -32.300   8.234   2.684  1.00 20.00    -0.356 N 
HETATM    4  O10 UNL     1     -30.976   8.692   0.836  1.00 20.00    -0.273 OA
ENDROOT
BRANCH   3   5
HETATM    5  C8  UNL     1     -33.631   7.793   3.097  1.00 20.00     0.130 C 
BRANCH   5   6
HETATM    6  C4  UNL     1     -33.547   6.633   4.030  1.00 20.00     0.004 A 
HETATM    7  C2  UNL     1     -34.115   6.735   5.418  1.00 20.00     0.007 A 
HETATM    8  C3  UNL     1     -34.786   5.864   4.394  1.00 20.00     0.007 A 
ENDBRANCH   5   6
ENDBRANCH   3   5
BRANCH   1   9
HETATM    9  C7  UNL     1     -33.205   9.568   0.799  1.00 20.00     0.098 C 
HETATM   10  C5  UNL     1     -33.221   9.468  -0.718  1.00 20.00     0.014 C 
ENDBRANCH   1   9
TORSDOF 3
ENDMDL
MODEL 3
REMARK VINA RESULT:      -4.5      1.342      4.564
REMARK  3 active torsions:
REMARK  status: ('A' for Active; 'I' for Inactive)
REMARK    1  A    between atoms: C1_1  and  C7_7 
REMARK       I    between atoms: C1_1  and  N9_9 
REMARK    2  A    between atoms: C4_4  and  C8_8 
REMARK    3  A    between atoms: C8_8  and  N9_9 
ROOT
HETATM    1  C1  UNL     1     -32.077   8.026   3.325  1.00 20.00     0.219 C 
HETATM    2  C6  UNL     1     -33.508   7.632   5.342  1.00 20.00     0.152 C 
HETATM    3  N9  UNL     1     -33.110   7.338   3.970  1.00 20.00    -0.356 N 
HETATM    4  O10 UNL     1     -31.107   8.507   3.917  1.00 20.00    -0.273 OA
ENDROOT
BRANCH   3   5
HETATM    5  C8  UNL     1     -33.867   6.271   3.318  1.00 20.00     0.130 C 
BRANCH   5   6
HETATM    6  C4  UNL     1     -34.784   5.597   4.280  1.00 20.00     0.004 A 
HETATM    7  C2  UNL     1     -34.665   4.120   4.533  1.00 20.00     0.007 A 
HETATM    8  C3  UNL     1     -34.264   5.099   5.600  1.00 20.00     0.007 A 
ENDBRANCH   5   6
ENDBRANCH   3   5
BRANCH   1   9
HETATM    9  C7  UNL     1     -32.204   8.165   1.815  1.00 20.00     0.098 C 
HETATM   10  C5  UNL     1     -32.401   9.607   1.373  1.00 20.00     0.014 C 
ENDBRANCH   1   9
TORSDOF 3
ENDMDL
MODEL 4
REMARK VINA RESULT:      -4.3      1.514      1.968
REMARK  3 active torsions:
REMARK  status: ('A' for Active; 'I' for Inactive)
REMARK    1  A    between atoms: C1_1  and  C7_7 
REMARK       I    between atoms: C1_1  and  N9_9 
REMARK    2  A    between atoms: C4_4  and  C8_8 
REMARK    3  A    between atoms: C8_8  and  N9_9 
ROOT
HETATM    1  C1  UNL     1     -34.093   6.274   3.462  1.00 20.00     0.219 C 
HETATM    2  C6  UNL     1     -33.363   7.530   5.502  1.00 20.00     0.152 C 
HETATM    3  N9  UNL     1     -33.242   7.191   4.089  1.00 20.00    -0.356 N 
HETATM    4  O10 UNL     1     -35.261   6.084   3.809  1.00 20.00    -0.273 OA
ENDROOT
BRANCH   3   5
HETATM    5  C8  UNL     1     -32.169   7.879   3.374  1.00 20.00     0.130 C 
BRANCH   5   6
HETATM    6  C4  UNL     1     -32.637   8.374   2.048  1.00 20.00     0.004 A 
HETATM    7  C2  UNL     1     -32.392   9.801   1.642  1.00 20.00     0.007 A 
HETATM    8  C3  UNL     1     -31.645   8.687   0.963  1.00 20.00     0.007 A 
ENDBRANCH   5   6
ENDBRANCH   3   5
BRANCH   1   9
HETATM    9  C7  UNL     1     -33.497   5.493   2.300  1.00 20.00     0.098 C 
HETATM   10  C5  UNL     1     -32.861   4.183   2.738  1.00 20.00     0.014 C 
ENDBRANCH   1   9
TORSDOF 3
ENDMDL
MODEL 5
REMARK VINA RESULT:      -4.1     10.254     10.940
REMARK  3 active torsions:
REMARK  status: ('A' for Active; 'I' for Inactive)
REMARK    1  A    between atoms: C1_1  and  C7_7 
REMARK       I    between atoms: C1_1  and  N9_9 
REMARK    2  A    between atoms: C4_4  and  C8_8 
REMARK    3  A    between atoms: C8_8  and  N9_9 
ROOT
HETATM    1  C1  UNL     1     -35.938  13.988  -5.155  1.00 20.00     0.219 C 
HETATM    2  C6  UNL     1     -33.553  14.314  -4.465  1.00 20.00     0.152 C 
HETATM    3  N9  UNL     1     -34.941  14.754  -4.542  1.00 20.00    -0.356 N 
HETATM    4  O10 UNL     1     -35.918  12.755  -5.197  1.00 20.00    -0.273 OA
ENDROOT
BRANCH   3   5
HETATM    5  C8  UNL     1     -35.216  16.053  -3.931  1.00 20.00     0.130 C 
BRANCH   5   6
HETATM    6  C4  UNL     1     -34.622  16.143  -2.567  1.00 20.00     0.004 A 
HETATM    7  C2  UNL     1     -33.991  17.424  -2.098  1.00 20.00     0.007 A 
HETATM    8  C3  UNL     1     -35.292  16.966  -1.502  1.00 20.00     0.007 A 
ENDBRANCH   5   6
ENDBRANCH   3   5
BRANCH   1   9
HETATM    9  C7  UNL     1     -37.083  14.762  -5.791  1.00 20.00     0.098 C 
HETATM   10  C5  UNL     1     -38.400  14.570  -5.057  1.00 20.00     0.014 C 
ENDBRANCH   1   9
TORSDOF 3
ENDMDL
MODEL 6
REMARK VINA RESULT:      -4.1     10.523     11.144
REMARK  3 active torsions:
REMARK  status: ('A' for Active; 'I' for Inactive)
REMARK    1  A    between atoms: C1_1  and  C7_7 
REMARK       I    between atoms: C1_1  and  N9_9 
REMARK    2  A    between atoms: C4_4  and  C8_8 
REMARK    3  A    between atoms: C8_8  and  N9_9 
ROOT
HETATM    1  C1  UNL     1     -34.727  13.827  -5.912  1.00 20.00     0.219 C 
HETATM    2  C6  UNL     1     -33.179  15.790  -6.055  1.00 20.00     0.152 C 
HETATM    3  N9  UNL     1     -33.969  14.828  -5.296  1.00 20.00    -0.356 N 
HETATM    4  O10 UNL     1     -34.426  13.316  -6.994  1.00 20.00    -0.273 OA
ENDROOT
BRANCH   3   5
HETATM    5  C8  UNL     1     -33.910  14.984  -3.844  1.00 20.00     0.130 C 
BRANCH   5   6
HETATM    6  C4  UNL     1     -34.314  16.359  -3.434  1.00 20.00     0.004 A 
HETATM    7  C2  UNL     1     -35.215  16.562  -2.247  1.00 20.00     0.007 A 
HETATM    8  C3  UNL     1     -33.768  16.963  -2.170  1.00 20.00     0.007 A 
ENDBRANCH   5   6
ENDBRANCH   3   5
BRANCH   1   9
HETATM    9  C7  UNL     1     -35.980  13.382  -5.172  1.00 20.00     0.098 C 
HETATM   10  C5  UNL     1     -37.186  14.256  -5.482  1.00 20.00     0.014 C 
ENDBRANCH   1   9
TORSDOF 3
ENDMDL
MODEL 7
REMARK VINA RESULT:      -4.0      1.602      2.280
REMARK  3 active torsions:
REMARK  status: ('A' for Active; 'I' for Inactive)
REMARK    1  A    between atoms: C1_1  and  C7_7 
REMARK       I    between atoms: C1_1  and  N9_9 
REMARK    2  A    between atoms: C4_4  and  C8_8 
REMARK    3  A    between atoms: C8_8  and  N9_9 
ROOT
HETATM    1  C1  UNL     1     -33.951   5.869   4.183  1.00 20.00     0.219 C 
HETATM    2  C6  UNL     1     -33.113   5.085   1.957  1.00 20.00     0.152 C 
HETATM    3  N9  UNL     1     -33.134   6.039   3.059  1.00 20.00    -0.356 N 
HETATM    4  O10 UNL     1     -34.287   4.764   4.618  1.00 20.00    -0.273 OA
ENDROOT
BRANCH   3   5
HETATM    5  C8  UNL     1     -32.240   7.185   2.907  1.00 20.00     0.130 C 
BRANCH   5   6
HETATM    6  C4  UNL     1     -32.610   8.000   1.716  1.00 20.00     0.004 A 
HETATM    7  C2  UNL     1     -32.456   9.496   1.744  1.00 20.00     0.007 A 
HETATM    8  C3  UNL     1     -31.542   8.662   0.890  1.00 20.00     0.007 A 
ENDBRANCH   5   6
ENDBRANCH   3   5
BRANCH   1   9
HETATM    9  C7  UNL     1     -34.425   7.143   4.866  1.00 20.00     0.098 C 
HETATM   10  C5  UNL     1     -33.648   7.453   6.136  1.00 20.00     0.014 C 
ENDBRANCH   1   9
TORSDOF 3
ENDMDL
MODEL 8
REMARK VINA RESULT:      -3.8     10.774     11.535
REMARK  3 active torsions:
REMARK  status: ('A' for Active; 'I' for Inactive)
REMARK    1  A    between atoms: C1_1  and  C7_7 
REMARK       I    between atoms: C1_1  and  N9_9 
REMARK    2  A    between atoms: C4_4  and  C8_8 
REMARK    3  A    between atoms: C8_8  and  N9_9 
ROOT
HETATM    1  C1  UNL     1     -35.950  13.807  -5.412  1.00 20.00     0.219 C 
HETATM    2  C6  UNL     1     -34.463  13.833  -7.426  1.00 20.00     0.152 C 
HETATM    3  N9  UNL     1     -35.094  14.486  -6.286  1.00 20.00    -0.356 N 
HETATM    4  O10 UNL     1     -35.853  12.602  -5.166  1.00 20.00    -0.273 OA
ENDROOT
BRANCH   3   5
HETATM    5  C8  UNL     1     -34.768  15.901  -6.120  1.00 20.00     0.130 C 
BRANCH   5   6
HETATM    6  C4  UNL     1     -33.547  16.077  -5.284  1.00 20.00     0.004 A 
HETATM    7  C2  UNL     1     -33.458  17.213  -4.302  1.00 20.00     0.007 A 
HETATM    8  C3  UNL     1     -33.594  15.800  -3.808  1.00 20.00     0.007 A 
ENDBRANCH   5   6
ENDBRANCH   3   5
BRANCH   1   9
HETATM    9  C7  UNL     1     -37.043  14.641  -4.759  1.00 20.00     0.098 C 
HETATM   10  C5  UNL     1     -38.300  14.731  -5.610  1.00 20.00     0.014 C 
ENDBRANCH   1   9
TORSDOF 3
ENDMDL
MODEL 9
REMARK VINA RESULT:      -3.7     10.401     11.337
REMARK  3 active torsions:
REMARK  status: ('A' for Active; 'I' for Inactive)
REMARK    1  A    between atoms: C1_1  and  C7_7 
REMARK       I    between atoms: C1_1  and  N9_9 
REMARK    2  A    between atoms: C4_4  and  C8_8 
REMARK    3  A    between atoms: C8_8  and  N9_9 
ROOT
HETATM    1  C1  UNL     1     -33.460  15.580  -4.609  1.00 20.00     0.219 C 
HETATM    2  C6  UNL     1     -33.623  18.071  -4.414  1.00 20.00     0.152 C 
HETATM    3  N9  UNL     1     -33.643  16.733  -3.837  1.00 20.00    -0.356 N 
HETATM    4  O10 UNL     1     -32.777  15.551  -5.636  1.00 20.00    -0.273 OA
ENDROOT
BRANCH   3   5
HETATM    5  C8  UNL     1     -33.866  16.681  -2.394  1.00 20.00     0.130 C 
BRANCH   5   6
HETATM    6  C4  UNL     1     -33.627  18.010  -1.764  1.00 20.00     0.004 A 
HETATM    7  C2  UNL     1     -33.778  18.184  -0.279  1.00 20.00     0.007 A 
HETATM    8  C3  UNL     1     -32.414  18.235  -0.907  1.00 20.00     0.007 A 
ENDBRANCH   5   6
ENDBRANCH   3   5
BRANCH   1   9
HETATM    9  C7  UNL     1     -34.166  14.324  -4.117  1.00 20.00     0.098 C 
HETATM   10  C5  UNL     1     -35.535  14.134  -4.750  1.00 20.00     0.014 C 
ENDBRANCH   1   9
TORSDOF 3
ENDMDL
