MODEL 1
REMARK VINA RESULT:      -4.5      0.000      0.000
REMARK  1 active torsions:
REMARK  status: ('A' for Active; 'I' for Inactive)
REMARK    1  A    between atoms: C6_6  and  C9_9 
ROOT
HETATM    1  C1  UNL     1     -35.437  13.897  -5.475  1.00 20.00     0.085 C 
HETATM    2  C2  UNL     1     -37.000  16.464  -4.929  1.00 20.00     0.003 C 
HETATM    3  C3  UNL     1     -36.348  16.356  -3.549  1.00 20.00     0.005 C 
HETATM    4  C4  UNL     1     -36.034  16.217  -6.095  1.00 20.00     0.041 C 
HETATM    5  C5  UNL     1     -34.077  15.758  -4.535  1.00 20.00     0.045 C 
HETATM    6  C6  UNL     1     -34.859  16.700  -3.593  1.00 20.00    -0.012 C 
HETATM    7  C7  UNL     1     -34.903  15.247  -5.735  1.00 20.00     0.125 C 
HETATM    8  N10 UNL     1     -35.857  12.835  -5.271  1.00 20.00    -0.195 NA
HETATM    9 CL11 UNL     1     -33.819  15.054  -7.160  1.00 20.00    -0.103 Cl
ENDROOT
BRANCH   6  10
HETATM   10  C9  UNL     1     -34.248  16.692  -2.192  1.00 20.00     0.000 C 
HETATM   11  C8  UNL     1     -35.274  16.970  -1.144  1.00 20.00     0.005 C 
ENDBRANCH   6  10
TORSDOF 1
ENDMDL
MODEL 2
REMARK VINA RESULT:      -4.5      2.092      2.830
REMARK  1 active torsions:
REMARK  status: ('A' for Active; 'I' for Inactive)
REMARK    1  A    between atoms: C6_6  and  C9_9 
ROOT
HETATM    1  C1  UNL     1     -35.923  15.945  -5.942  1.00 20.00     0.085 C 
HETATM    2  C2  UNL     1     -33.713  14.523  -4.386  1.00 20.00     0.003 C 
HETATM    3  C3  UNL     1     -33.612  15.863  -3.654  1.00 20.00     0.005 C 
HETATM    4  C4  UNL     1     -35.152  14.029  -4.580  1.00 20.00     0.041 C 
HETATM    5  C5  UNL     1     -36.141  16.091  -3.467  1.00 20.00     0.045 C 
HETATM    6  C6  UNL     1     -34.794  16.090  -2.712  1.00 20.00    -0.012 C 
HETATM    7  C7  UNL     1     -36.163  15.173  -4.708  1.00 20.00     0.125 C 
HETATM    8  N10 UNL     1     -35.735  16.552  -6.913  1.00 20.00    -0.195 NA
HETATM    9 CL11 UNL     1     -37.813  14.481  -4.903  1.00 20.00    -0.103 Cl
ENDROOT
BRANCH   6  10
HETATM   10  C9  UNL     1     -34.622  17.381  -1.911  1.00 20.00     0.000 C 
HETATM   11  C8  UNL     1     -33.184  17.662  -1.622  1.00 20.00     0.005 C 
ENDBRANCH   6  10
TORSDOF 1
ENDMDL
MODEL 3
REMARK VINA RESULT:      -4.4      1.875      2.499
REMARK  1 active torsions:
REMARK  status: ('A' for Active; 'I' for Inactive)
REMARK    1  A    between atoms: C6_6  and  C9_9 
ROOT
HETATM    1  C1  UNL     1     -36.299  15.772  -5.790  1.00 20.00     0.085 C 
HETATM    2  C2  UNL     1     -33.280  16.137  -6.064  1.00 20.00     0.003 C 
HETATM    3  C3  UNL     1     -33.443  16.963  -4.786  1.00 20.00     0.005 C 
HETATM    4  C4  UNL     1     -34.037  14.804  -6.044  1.00 20.00     0.041 C 
HETATM    5  C5  UNL     1     -35.002  15.247  -3.732  1.00 20.00     0.045 C 
HETATM    6  C6  UNL     1     -33.712  16.081  -3.567  1.00 20.00    -0.012 C 
HETATM    7  C7  UNL     1     -35.310  14.855  -5.192  1.00 20.00     0.125 C 
HETATM    8  N10 UNL     1     -37.078  16.493  -6.259  1.00 20.00    -0.195 NA
HETATM    9 CL11 UNL     1     -36.099  13.237  -5.216  1.00 20.00    -0.103 Cl
ENDROOT
BRANCH   6  10
HETATM   10  C9  UNL     1     -33.765  16.911  -2.285  1.00 20.00     0.000 C 
HETATM   11  C8  UNL     1     -35.091  16.798  -1.610  1.00 20.00     0.005 C 
ENDBRANCH   6  10
TORSDOF 1
ENDMDL
MODEL 4
REMARK VINA RESULT:      -4.3      1.313      1.651
REMARK  1 active torsions:
REMARK  status: ('A' for Active; 'I' for Inactive)
REMARK    1  A    between atoms: C6_6  and  C9_9 
ROOT
HETATM    1  C1  UNL     1     -35.075  13.808  -4.920  1.00 20.00     0.085 C 
HETATM    2  C2  UNL     1     -35.267  16.612  -6.113  1.00 20.00     0.003 C 
HETATM    3  C3  UNL     1     -36.126  16.886  -4.877  1.00 20.00     0.005 C 
HETATM    4  C4  UNL     1     -33.978  15.836  -5.816  1.00 20.00     0.041 C 
HETATM    5  C5  UNL     1     -34.520  15.647  -3.337  1.00 20.00     0.045 C 
HETATM    6  C6  UNL     1     -35.284  16.963  -3.603  1.00 20.00    -0.012 C 
HETATM    7  C7  UNL     1     -34.117  14.888  -4.619  1.00 20.00     0.125 C 
HETATM    8  N10 UNL     1     -35.829  12.957  -5.156  1.00 20.00    -0.195 NA
HETATM    9 CL11 UNL     1     -32.545  14.055  -4.344  1.00 20.00    -0.103 Cl
ENDROOT
BRANCH   6  10
HETATM   10  C9  UNL     1     -36.142  17.343  -2.397  1.00 20.00     0.000 C 
HETATM   11  C8  UNL     1     -35.460  17.011  -1.110  1.00 20.00     0.005 C 
ENDBRANCH   6  10
TORSDOF 1
ENDMDL
MODEL 5
REMARK VINA RESULT:      -4.3      2.188      3.727
REMARK  1 active torsions:
REMARK  status: ('A' for Active; 'I' for Inactive)
REMARK    1  A    between atoms: C6_6  and  C9_9 
ROOT
HETATM    1  C1  UNL     1     -35.830  13.877  -5.038  1.00 20.00     0.085 C 
HETATM    2  C2  UNL     1     -33.392  15.425  -4.044  1.00 20.00     0.003 C 
HETATM    3  C3  UNL     1     -33.163  15.673  -5.536  1.00 20.00     0.005 C 
HETATM    4  C4  UNL     1     -34.845  15.628  -3.595  1.00 20.00     0.041 C 
HETATM    5  C5  UNL     1     -35.623  16.183  -5.952  1.00 20.00     0.045 C 
HETATM    6  C6  UNL     1     -34.167  16.674  -6.109  1.00 20.00    -0.012 C 
HETATM    7  C7  UNL     1     -35.859  15.313  -4.700  1.00 20.00     0.125 C 
HETATM    8  N10 UNL     1     -35.808  12.748  -5.304  1.00 20.00    -0.195 NA
HETATM    9 CL11 UNL     1     -37.520  15.612  -4.075  1.00 20.00    -0.103 Cl
ENDROOT
BRANCH   6  10
HETATM   10  C9  UNL     1     -33.858  16.991  -7.571  1.00 20.00     0.000 C 
HETATM   11  C8  UNL     1     -33.913  18.458  -7.840  1.00 20.00     0.005 C 
ENDBRANCH   6  10
TORSDOF 1
ENDMDL
MODEL 6
REMARK VINA RESULT:      -4.3     10.530     11.443
REMARK  1 active torsions:
REMARK  status: ('A' for Active; 'I' for Inactive)
REMARK    1  A    between atoms: C6_6  and  C9_9 
ROOT
HETATM    1  C1  UNL     1     -32.806   9.603   1.719  1.00 20.00     0.085 C 
HETATM    2  C2  UNL     1     -31.888   8.435   4.387  1.00 20.00     0.003 C 
HETATM    3  C3  UNL     1     -33.247   7.734   4.345  1.00 20.00     0.005 C 
HETATM    4  C4  UNL     1     -31.121   8.386   3.060  1.00 20.00     0.041 C 
HETATM    5  C5  UNL     1     -32.994   7.127   1.885  1.00 20.00     0.045 C 
HETATM    6  C6  UNL     1     -33.276   6.607   3.312  1.00 20.00    -0.012 C 
HETATM    7  C7  UNL     1     -32.047   8.344   1.839  1.00 20.00     0.125 C 
HETATM    8  N10 UNL     1     -33.405  10.593   1.625  1.00 20.00    -0.195 NA
HETATM    9 CL11 UNL     1     -31.046   8.259   0.345  1.00 20.00    -0.103 Cl
ENDROOT
BRANCH   6  10
HETATM   10  C9  UNL     1     -34.602   5.850   3.360  1.00 20.00     0.000 C 
HETATM   11  C8  UNL     1     -34.872   5.296   4.720  1.00 20.00     0.005 C 
ENDBRANCH   6  10
TORSDOF 1
ENDMDL
MODEL 7
REMARK VINA RESULT:      -4.2      1.366      1.752
REMARK  1 active torsions:
REMARK  status: ('A' for Active; 'I' for Inactive)
REMARK    1  A    between atoms: C6_6  and  C9_9 
ROOT
HETATM    1  C1  UNL     1     -34.380  14.716  -4.313  1.00 20.00     0.085 C 
HETATM    2  C2  UNL     1     -36.482  16.621  -3.183  1.00 20.00     0.003 C 
HETATM    3  C3  UNL     1     -35.500  16.727  -2.015  1.00 20.00     0.005 C 
HETATM    4  C4  UNL     1     -35.819  16.713  -4.563  1.00 20.00     0.041 C 
HETATM    5  C5  UNL     1     -33.488  16.916  -3.565  1.00 20.00     0.045 C 
HETATM    6  C6  UNL     1     -34.261  17.543  -2.383  1.00 20.00    -0.012 C 
HETATM    7  C7  UNL     1     -34.387  16.168  -4.573  1.00 20.00     0.125 C 
HETATM    8  N10 UNL     1     -34.374  13.573  -4.109  1.00 20.00    -0.195 NA
HETATM    9 CL11 UNL     1     -33.699  16.350  -6.227  1.00 20.00    -0.103 Cl
ENDROOT
BRANCH   6  10
HETATM   10  C9  UNL     1     -33.343  17.730  -1.176  1.00 20.00     0.000 C 
HETATM   11  C8  UNL     1     -34.101  18.192   0.025  1.00 20.00     0.005 C 
ENDBRANCH   6  10
TORSDOF 1
ENDMDL
MODEL 8
REMARK VINA RESULT:      -4.2      2.015      2.734
REMARK  1 active torsions:
REMARK  status: ('A' for Active; 'I' for Inactive)
REMARK    1  A    between atoms: C6_6  and  C9_9 
ROOT
HETATM    1  C1  UNL     1     -34.954  16.436  -6.463  1.00 20.00     0.085 C 
HETATM    2  C2  UNL     1     -33.036  15.010  -4.563  1.00 20.00     0.003 C 
HETATM    3  C3  UNL     1     -33.546  16.044  -3.557  1.00 20.00     0.005 C 
HETATM    4  C4  UNL     1     -34.144  14.356  -5.398  1.00 20.00     0.041 C 
HETATM    5  C5  UNL     1     -35.965  15.748  -4.295  1.00 20.00     0.045 C 
HETATM    6  C6  UNL     1     -34.976  15.746  -3.108  1.00 20.00    -0.012 C 
HETATM    7  C7  UNL     1     -35.342  15.283  -5.628  1.00 20.00     0.125 C 
HETATM    8  N10 UNL     1     -34.650  17.344  -7.119  1.00 20.00    -0.195 NA
HETATM    9 CL11 UNL     1     -36.586  14.408  -6.590  1.00 20.00    -0.103 Cl
ENDROOT
BRANCH   6  10
HETATM   10  C9  UNL     1     -35.430  16.724  -2.025  1.00 20.00     0.000 C 
HETATM   11  C8  UNL     1     -34.274  17.260  -1.248  1.00 20.00     0.005 C 
ENDBRANCH   6  10
TORSDOF 1
ENDMDL
MODEL 9
REMARK VINA RESULT:      -4.1      2.144      2.829
REMARK  1 active torsions:
REMARK  status: ('A' for Active; 'I' for Inactive)
REMARK    1  A    between atoms: C6_6  and  C9_9 
ROOT
HETATM    1  C1  UNL     1     -36.575  16.027  -6.131  1.00 20.00     0.085 C 
HETATM    2  C2  UNL     1     -34.114  14.317  -5.546  1.00 20.00     0.003 C 
HETATM    3  C3  UNL     1     -33.735  15.490  -4.639  1.00 20.00     0.005 C 
HETATM    4  C4  UNL     1     -35.578  13.879  -5.417  1.00 20.00     0.041 C 
HETATM    5  C5  UNL     1     -36.098  15.693  -3.712  1.00 20.00     0.045 C 
HETATM    6  C6  UNL     1     -34.598  15.538  -3.378  1.00 20.00    -0.012 C 
HETATM    7  C7  UNL     1     -36.514  15.033  -5.043  1.00 20.00     0.125 C 
HETATM    8  N10 UNL     1     -36.624  16.810  -6.987  1.00 20.00    -0.195 NA
HETATM    9 CL11 UNL     1     -38.194  14.403  -4.892  1.00 20.00    -0.103 Cl
ENDROOT
BRANCH   6  10
HETATM   10  C9  UNL     1     -34.136  16.647  -2.434  1.00 20.00     0.000 C 
HETATM   11  C8  UNL     1     -35.169  16.958  -1.402  1.00 20.00     0.005 C 
ENDBRANCH   6  10
TORSDOF 1
ENDMDL
