MODEL 1
REMARK VINA RESULT:      -5.9      0.000      0.000
REMARK  3 active torsions:
REMARK  status: ('A' for Active; 'I' for Inactive)
REMARK    1  A    between atoms: C5_5  and  C8_8 
REMARK    2  A    between atoms: C6_6  and  C9_9 
REMARK    3  A    between atoms: C9_9  and  C10_10 
ROOT
HETATM    1  C1  UNL     1     -33.473   4.077   3.708  1.00 20.00     0.001 C 
HETATM    2  C2  UNL     1     -34.838   4.490   4.253  1.00 20.00     0.005 C 
HETATM    3  C3  UNL     1     -33.012   5.001   2.583  1.00 20.00     0.005 C 
HETATM    4  C4  UNL     1     -34.389   6.881   3.563  1.00 20.00     0.009 C 
HETATM    5  C5  UNL     1     -34.891   5.962   4.687  1.00 20.00    -0.014 C 
HETATM    6  C6  UNL     1     -33.012   6.472   3.015  1.00 20.00    -0.013 C 
ENDROOT
BRANCH   6   7
HETATM    7  C9  UNL     1     -32.610   7.374   1.849  1.00 20.00     0.020 C 
BRANCH   7   8
HETATM    8  C10 UNL     1     -32.040   8.710   2.297  1.00 20.00     0.115 C 
HETATM    9 CL11 UNL     1     -32.539  10.044   1.231  1.00 20.00    -0.130 Cl
ENDBRANCH   7   8
ENDBRANCH   6   7
BRANCH   5  10
HETATM   10  C8  UNL     1     -34.129   6.195   5.994  1.00 20.00     0.000 C 
HETATM   11  C7  UNL     1     -33.548   7.569   6.056  1.00 20.00     0.005 C 
ENDBRANCH   5  10
TORSDOF 3
ENDMDL
MODEL 2
REMARK VINA RESULT:      -4.6     11.690     12.500
REMARK  3 active torsions:
REMARK  status: ('A' for Active; 'I' for Inactive)
REMARK    1  A    between atoms: C5_5  and  C8_8 
REMARK    2  A    between atoms: C6_6  and  C9_9 
REMARK    3  A    between atoms: C9_9  and  C10_10 
ROOT
HETATM    1  C1  UNL     1     -34.834  17.761   0.075  1.00 20.00     0.001 C 
HETATM    2  C2  UNL     1     -34.202  19.148  -0.021  1.00 20.00     0.005 C 
HETATM    3  C3  UNL     1     -34.943  17.095  -1.295  1.00 20.00     0.005 C 
HETATM    4  C4  UNL     1     -32.959  18.438  -2.106  1.00 20.00     0.009 C 
HETATM    5  C5  UNL     1     -32.848  19.144  -0.746  1.00 20.00    -0.014 C 
HETATM    6  C6  UNL     1     -33.589  17.039  -2.013  1.00 20.00    -0.013 C 
ENDROOT
BRANCH   6   7
HETATM    7  C9  UNL     1     -33.745  16.427  -3.405  1.00 20.00     0.020 C 
BRANCH   7   8
HETATM    8  C10 UNL     1     -35.033  15.637  -3.569  1.00 20.00     0.115 C 
HETATM    9 CL11 UNL     1     -34.741  14.004  -4.211  1.00 20.00    -0.130 Cl
ENDBRANCH   7   8
ENDBRANCH   6   7
BRANCH   5  10
HETATM   10  C8  UNL     1     -31.744  18.534   0.122  1.00 20.00     0.000 C 
HETATM   11  C7  UNL     1     -31.643  19.218   1.445  1.00 20.00     0.005 C 
ENDBRANCH   5  10
TORSDOF 3
ENDMDL
MODEL 3
REMARK VINA RESULT:      -4.6      1.079      2.555
REMARK  3 active torsions:
REMARK  status: ('A' for Active; 'I' for Inactive)
REMARK    1  A    between atoms: C5_5  and  C8_8 
REMARK    2  A    between atoms: C6_6  and  C9_9 
REMARK    3  A    between atoms: C9_9  and  C10_10 
ROOT
HETATM    1  C1  UNL     1     -33.945   7.308   6.009  1.00 20.00     0.001 C 
HETATM    2  C2  UNL     1     -34.065   5.809   5.740  1.00 20.00     0.005 C 
HETATM    3  C3  UNL     1     -32.783   7.928   5.236  1.00 20.00     0.005 C 
HETATM    4  C4  UNL     1     -33.000   6.132   3.469  1.00 20.00     0.009 C 
HETATM    5  C5  UNL     1     -34.150   5.472   4.244  1.00 20.00    -0.014 C 
HETATM    6  C6  UNL     1     -32.879   7.641   3.732  1.00 20.00    -0.013 C 
ENDROOT
BRANCH   6   7
HETATM    7  C9  UNL     1     -31.669   8.218   2.998  1.00 20.00     0.020 C 
BRANCH   7   8
HETATM    8  C10 UNL     1     -31.950   8.527   1.536  1.00 20.00     0.115 C 
HETATM    9 CL11 UNL     1     -32.577  10.175   1.306  1.00 20.00    -0.130 Cl
ENDBRANCH   7   8
ENDBRANCH   6   7
BRANCH   5  10
HETATM   10  C8  UNL     1     -35.515   5.841   3.657  1.00 20.00     0.000 C 
HETATM   11  C7  UNL     1     -35.392   6.371   2.268  1.00 20.00     0.005 C 
ENDBRANCH   5  10
TORSDOF 3
ENDMDL
MODEL 4
REMARK VINA RESULT:      -4.4      2.550      4.577
REMARK  3 active torsions:
REMARK  status: ('A' for Active; 'I' for Inactive)
REMARK    1  A    between atoms: C5_5  and  C8_8 
REMARK    2  A    between atoms: C6_6  and  C9_9 
REMARK    3  A    between atoms: C9_9  and  C10_10 
ROOT
HETATM    1  C1  UNL     1     -33.594   6.770   1.840  1.00 20.00     0.001 C 
HETATM    2  C2  UNL     1     -32.206   7.324   1.527  1.00 20.00     0.005 C 
HETATM    3  C3  UNL     1     -33.735   6.401   3.315  1.00 20.00     0.005 C 
HETATM    4  C4  UNL     1     -31.992   8.133   3.913  1.00 20.00     0.009 C 
HETATM    5  C5  UNL     1     -31.811   8.499   2.433  1.00 20.00    -0.014 C 
HETATM    6  C6  UNL     1     -33.390   7.580   4.234  1.00 20.00    -0.013 C 
ENDROOT
BRANCH   6   7
HETATM    7  C9  UNL     1     -33.477   7.160   5.701  1.00 20.00     0.020 C 
BRANCH   7   8
HETATM    8  C10 UNL     1     -34.677   6.275   5.998  1.00 20.00     0.115 C 
HETATM    9 CL11 UNL     1     -34.345   4.560   5.661  1.00 20.00    -0.130 Cl
ENDBRANCH   7   8
ENDBRANCH   6   7
BRANCH   5  10
HETATM   10  C8  UNL     1     -32.571   9.777   2.066  1.00 20.00     0.000 C 
HETATM   11  C7  UNL     1     -32.476  10.075   0.607  1.00 20.00     0.005 C 
ENDBRANCH   5  10
TORSDOF 3
ENDMDL
MODEL 5
REMARK VINA RESULT:      -4.3     11.522     12.454
REMARK  3 active torsions:
REMARK  status: ('A' for Active; 'I' for Inactive)
REMARK    1  A    between atoms: C5_5  and  C8_8 
REMARK    2  A    between atoms: C6_6  and  C9_9 
REMARK    3  A    between atoms: C9_9  and  C10_10 
ROOT
HETATM    1  C1  UNL     1     -36.376  15.127  -4.438  1.00 20.00     0.001 C 
HETATM    2  C2  UNL     1     -35.556  13.924  -4.899  1.00 20.00     0.005 C 
HETATM    3  C3  UNL     1     -35.703  15.857  -3.278  1.00 20.00     0.005 C 
HETATM    4  C4  UNL     1     -33.445  15.051  -4.081  1.00 20.00     0.009 C 
HETATM    5  C5  UNL     1     -34.102  14.282  -5.238  1.00 20.00    -0.014 C 
HETATM    6  C6  UNL     1     -34.264  16.265  -3.618  1.00 20.00    -0.013 C 
ENDROOT
BRANCH   6   7
HETATM    7  C9  UNL     1     -33.598  16.935  -2.416  1.00 20.00     0.020 C 
BRANCH   7   8
HETATM    8  C10 UNL     1     -34.554  17.168  -1.257  1.00 20.00     0.115 C 
HETATM    9 CL11 UNL     1     -33.839  18.198   0.005  1.00 20.00    -0.130 Cl
ENDBRANCH   7   8
ENDBRANCH   6   7
BRANCH   5  10
HETATM   10  C8  UNL     1     -34.001  15.049  -6.559  1.00 20.00     0.000 C 
HETATM   11  C7  UNL     1     -34.165  14.145  -7.735  1.00 20.00     0.005 C 
ENDBRANCH   5  10
TORSDOF 3
ENDMDL
MODEL 6
REMARK VINA RESULT:      -4.2     11.420     12.654
REMARK  3 active torsions:
REMARK  status: ('A' for Active; 'I' for Inactive)
REMARK    1  A    between atoms: C5_5  and  C8_8 
REMARK    2  A    between atoms: C6_6  and  C9_9 
REMARK    3  A    between atoms: C9_9  and  C10_10 
ROOT
HETATM    1  C1  UNL     1     -33.865  16.984  -5.238  1.00 20.00     0.001 C 
HETATM    2  C2  UNL     1     -35.313  16.515  -5.365  1.00 20.00     0.005 C 
HETATM    3  C3  UNL     1     -33.593  17.611  -3.873  1.00 20.00     0.005 C 
HETATM    4  C4  UNL     1     -35.430  16.199  -2.859  1.00 20.00     0.009 C 
HETATM    5  C5  UNL     1     -35.743  15.577  -4.228  1.00 20.00    -0.014 C 
HETATM    6  C6  UNL     1     -33.972  16.667  -2.725  1.00 20.00    -0.013 C 
ENDROOT
BRANCH   6   7
HETATM    7  C9  UNL     1     -33.749  17.348  -1.375  1.00 20.00     0.020 C 
BRANCH   7   8
HETATM    8  C10 UNL     1     -32.728  18.472  -1.434  1.00 20.00     0.115 C 
HETATM    9 CL11 UNL     1     -31.740  18.560   0.042  1.00 20.00    -0.130 Cl
ENDBRANCH   7   8
ENDBRANCH   6   7
BRANCH   5  10
HETATM   10  C8  UNL     1     -35.119  14.186  -4.375  1.00 20.00     0.000 C 
HETATM   11  C7  UNL     1     -35.877  13.344  -5.348  1.00 20.00     0.005 C 
ENDBRANCH   5  10
TORSDOF 3
ENDMDL
MODEL 7
REMARK VINA RESULT:      -4.2     11.577     12.669
REMARK  3 active torsions:
REMARK  status: ('A' for Active; 'I' for Inactive)
REMARK    1  A    between atoms: C5_5  and  C8_8 
REMARK    2  A    between atoms: C6_6  and  C9_9 
REMARK    3  A    between atoms: C9_9  and  C10_10 
ROOT
HETATM    1  C1  UNL     1     -35.268  17.544  -4.934  1.00 20.00     0.001 C 
HETATM    2  C2  UNL     1     -33.898  17.476  -4.263  1.00 20.00     0.005 C 
HETATM    3  C3  UNL     1     -35.676  16.194  -5.520  1.00 20.00     0.005 C 
HETATM    4  C4  UNL     1     -34.247  15.015  -3.800  1.00 20.00     0.009 C 
HETATM    5  C5  UNL     1     -33.797  16.361  -3.212  1.00 20.00    -0.014 C 
HETATM    6  C6  UNL     1     -35.628  15.077  -4.470  1.00 20.00    -0.013 C 
ENDROOT
BRANCH   6   7
HETATM    7  C9  UNL     1     -35.979  13.731  -5.104  1.00 20.00     0.020 C 
BRANCH   7   8
HETATM    8  C10 UNL     1     -36.001  13.773  -6.623  1.00 20.00     0.115 C 
HETATM    9 CL11 UNL     1     -34.406  13.422  -7.327  1.00 20.00    -0.130 Cl
ENDBRANCH   7   8
ENDBRANCH   6   7
BRANCH   5  10
HETATM   10  C8  UNL     1     -34.572  16.712  -1.939  1.00 20.00     0.000 C 
HETATM   11  C7  UNL     1     -33.839  17.712  -1.107  1.00 20.00     0.005 C 
ENDBRANCH   5  10
TORSDOF 3
ENDMDL
MODEL 8
REMARK VINA RESULT:      -4.2     11.671     12.467
REMARK  3 active torsions:
REMARK  status: ('A' for Active; 'I' for Inactive)
REMARK    1  A    between atoms: C5_5  and  C8_8 
REMARK    2  A    between atoms: C6_6  and  C9_9 
REMARK    3  A    between atoms: C9_9  and  C10_10 
ROOT
HETATM    1  C1  UNL     1     -33.351  18.796  -0.252  1.00 20.00     0.001 C 
HETATM    2  C2  UNL     1     -34.469  18.214   0.610  1.00 20.00     0.005 C 
HETATM    3  C3  UNL     1     -32.935  17.832  -1.361  1.00 20.00     0.005 C 
HETATM    4  C4  UNL     1     -35.251  16.816  -1.347  1.00 20.00     0.009 C 
HETATM    5  C5  UNL     1     -35.683  17.754  -0.210  1.00 20.00    -0.014 C 
HETATM    6  C6  UNL     1     -34.130  17.400  -2.221  1.00 20.00    -0.013 C 
ENDROOT
BRANCH   6   7
HETATM    7  C9  UNL     1     -33.692  16.388  -3.279  1.00 20.00     0.020 C 
BRANCH   7   8
HETATM    8  C10 UNL     1     -34.859  15.683  -3.950  1.00 20.00     0.115 C 
HETATM    9 CL11 UNL     1     -34.585  13.933  -4.109  1.00 20.00    -0.130 Cl
ENDBRANCH   7   8
ENDBRANCH   6   7
BRANCH   5  10
HETATM   10  C8  UNL     1     -36.497  18.942  -0.732  1.00 20.00     0.000 C 
HETATM   11  C7  UNL     1     -37.626  18.497  -1.600  1.00 20.00     0.005 C 
ENDBRANCH   5  10
TORSDOF 3
ENDMDL
MODEL 9
REMARK VINA RESULT:      -4.1     11.523     12.702
REMARK  3 active torsions:
REMARK  status: ('A' for Active; 'I' for Inactive)
REMARK    1  A    between atoms: C5_5  and  C8_8 
REMARK    2  A    between atoms: C6_6  and  C9_9 
REMARK    3  A    between atoms: C9_9  and  C10_10 
ROOT
HETATM    1  C1  UNL     1     -33.849  16.107  -6.363  1.00 20.00     0.001 C 
HETATM    2  C2  UNL     1     -32.901  15.627  -5.267  1.00 20.00     0.005 C 
HETATM    3  C3  UNL     1     -35.062  15.190  -6.502  1.00 20.00     0.005 C 
HETATM    4  C4  UNL     1     -34.840  14.530  -4.071  1.00 20.00     0.009 C 
HETATM    5  C5  UNL     1     -33.599  15.422  -3.915  1.00 20.00    -0.014 C 
HETATM    6  C6  UNL     1     -35.800  15.014  -5.169  1.00 20.00    -0.013 C 
ENDROOT
BRANCH   6   7
HETATM    7  C9  UNL     1     -36.968  14.041  -5.328  1.00 20.00     0.020 C 
BRANCH   7   8
HETATM    8  C10 UNL     1     -38.312  14.659  -4.976  1.00 20.00     0.115 C 
HETATM    9 CL11 UNL     1     -38.143  16.301  -4.315  1.00 20.00    -0.130 Cl
ENDBRANCH   7   8
ENDBRANCH   6   7
BRANCH   5  10
HETATM   10  C8  UNL     1     -33.940  16.757  -3.246  1.00 20.00     0.000 C 
HETATM   11  C7  UNL     1     -34.829  16.569  -2.062  1.00 20.00     0.005 C 
ENDBRANCH   5  10
TORSDOF 3
ENDMDL
