MODEL 1
REMARK VINA RESULT:      -5.6      0.000      0.000
REMARK  3 active torsions:
REMARK  status: ('A' for Active; 'I' for Inactive)
REMARK    1  A    between atoms: C1_1  and  C9_9 
REMARK    2  A    between atoms: C6_6  and  C9_9 
REMARK    3  A    between atoms: C7_7  and  C10_10 
ROOT
HETATM    1  C2  UNL     1     -33.498   4.031   3.758  1.00 20.00     0.001 C 
HETATM    2  C3  UNL     1     -33.031   4.929   2.617  1.00 20.00     0.005 C 
HETATM    3  C4  UNL     1     -34.856   4.470   4.303  1.00 20.00     0.005 C 
HETATM    4  C5  UNL     1     -34.382   6.842   3.570  1.00 20.00     0.009 C 
HETATM    5  C6  UNL     1     -33.013   6.408   3.024  1.00 20.00    -0.008 C 
HETATM    6  C7  UNL     1     -34.890   5.948   4.711  1.00 20.00    -0.014 C 
ENDROOT
BRANCH   5   7
HETATM    7  C9  UNL     1     -32.605   7.285   1.841  1.00 20.00     0.074 C 
BRANCH   7   8
HETATM    8  C1  UNL     1     -32.138   8.649   2.275  1.00 20.00     0.231 C 
HETATM    9  O11 UNL     1     -32.179   9.662   1.586  1.00 20.00    -0.307 OA
ENDBRANCH   7   8
ENDBRANCH   5   7
BRANCH   6  10
HETATM   10  C10 UNL     1     -34.121   6.196   6.011  1.00 20.00     0.000 C 
HETATM   11  C8  UNL     1     -33.536   7.569   6.050  1.00 20.00     0.005 C 
ENDBRANCH   6  10
TORSDOF 3
ENDMDL
MODEL 2
REMARK VINA RESULT:      -5.6      1.024      1.472
REMARK  3 active torsions:
REMARK  status: ('A' for Active; 'I' for Inactive)
REMARK    1  A    between atoms: C1_1  and  C9_9 
REMARK    2  A    between atoms: C6_6  and  C9_9 
REMARK    3  A    between atoms: C7_7  and  C10_10 
ROOT
HETATM    1  C2  UNL     1     -33.477   5.188   2.876  1.00 20.00     0.001 C 
HETATM    2  C3  UNL     1     -32.611   6.304   2.301  1.00 20.00     0.005 C 
HETATM    3  C4  UNL     1     -34.803   5.722   3.416  1.00 20.00     0.005 C 
HETATM    4  C5  UNL     1     -33.719   7.964   3.854  1.00 20.00     0.009 C 
HETATM    5  C6  UNL     1     -32.382   7.430   3.317  1.00 20.00    -0.008 C 
HETATM    6  C7  UNL     1     -34.624   6.863   4.426  1.00 20.00    -0.014 C 
ENDROOT
BRANCH   5   7
HETATM    7  C9  UNL     1     -31.566   8.561   2.689  1.00 20.00     0.074 C 
BRANCH   7   8
HETATM    8  C1  UNL     1     -32.186   9.073   1.417  1.00 20.00     0.231 C 
HETATM    9  O11 UNL     1     -32.562  10.225   1.229  1.00 20.00    -0.307 OA
ENDBRANCH   7   8
ENDBRANCH   5   7
BRANCH   6  10
HETATM   10  C10 UNL     1     -34.110   6.350   5.774  1.00 20.00     0.000 C 
HETATM   11  C8  UNL     1     -34.599   4.968   6.058  1.00 20.00     0.005 C 
ENDBRANCH   6  10
TORSDOF 3
ENDMDL
MODEL 3
REMARK VINA RESULT:      -4.7     11.430     12.447
REMARK  3 active torsions:
REMARK  status: ('A' for Active; 'I' for Inactive)
REMARK    1  A    between atoms: C1_1  and  C9_9 
REMARK    2  A    between atoms: C6_6  and  C9_9 
REMARK    3  A    between atoms: C7_7  and  C10_10 
ROOT
HETATM    1  C2  UNL     1     -35.131  17.382  -0.520  1.00 20.00     0.001 C 
HETATM    2  C3  UNL     1     -35.089  16.657  -1.863  1.00 20.00     0.005 C 
HETATM    3  C4  UNL     1     -34.623  18.818  -0.638  1.00 20.00     0.005 C 
HETATM    4  C5  UNL     1     -33.188  18.148  -2.608  1.00 20.00     0.009 C 
HETATM    5  C6  UNL     1     -33.691  16.701  -2.492  1.00 20.00    -0.008 C 
HETATM    6  C7  UNL     1     -33.231  18.912  -1.276  1.00 20.00    -0.014 C 
ENDROOT
BRANCH   5   7
HETATM    7  C9  UNL     1     -33.699  16.024  -3.862  1.00 20.00     0.074 C 
BRANCH   7   8
HETATM    8  C1  UNL     1     -34.661  14.867  -3.923  1.00 20.00     0.231 C 
HETATM    9  O11 UNL     1     -34.343  13.691  -4.061  1.00 20.00    -0.307 OA
ENDBRANCH   7   8
ENDBRANCH   5   7
BRANCH   6  10
HETATM   10  C10 UNL     1     -32.135  18.444  -0.316  1.00 20.00     0.000 C 
HETATM   11  C8  UNL     1     -32.211  19.156   0.993  1.00 20.00     0.005 C 
ENDBRANCH   6  10
TORSDOF 3
ENDMDL
MODEL 4
REMARK VINA RESULT:      -4.6     11.361     12.479
REMARK  3 active torsions:
REMARK  status: ('A' for Active; 'I' for Inactive)
REMARK    1  A    between atoms: C1_1  and  C9_9 
REMARK    2  A    between atoms: C6_6  and  C9_9 
REMARK    3  A    between atoms: C7_7  and  C10_10 
ROOT
HETATM    1  C2  UNL     1     -36.316  17.339  -2.745  1.00 20.00     0.001 C 
HETATM    2  C3  UNL     1     -36.063  16.094  -3.589  1.00 20.00     0.005 C 
HETATM    3  C4  UNL     1     -35.220  18.386  -2.940  1.00 20.00     0.005 C 
HETATM    4  C5  UNL     1     -33.578  16.555  -3.524  1.00 20.00     0.009 C 
HETATM    5  C6  UNL     1     -34.675  15.497  -3.325  1.00 20.00    -0.008 C 
HETATM    6  C7  UNL     1     -33.810  17.830  -2.701  1.00 20.00    -0.014 C 
ENDROOT
BRANCH   5   7
HETATM    7  C9  UNL     1     -34.428  14.291  -4.231  1.00 20.00     0.074 C 
BRANCH   7   8
HETATM    8  C1  UNL     1     -35.688  13.818  -4.907  1.00 20.00     0.231 C 
HETATM    9  O11 UNL     1     -35.900  12.669  -5.278  1.00 20.00    -0.307 OA
ENDBRANCH   7   8
ENDBRANCH   5   7
BRANCH   6  10
HETATM   10  C10 UNL     1     -33.536  17.603  -1.212  1.00 20.00     0.000 C 
HETATM   11  C8  UNL     1     -32.423  18.467  -0.721  1.00 20.00     0.005 C 
ENDBRANCH   6  10
TORSDOF 3
ENDMDL
MODEL 5
REMARK VINA RESULT:      -4.6     11.543     12.653
REMARK  3 active torsions:
REMARK  status: ('A' for Active; 'I' for Inactive)
REMARK    1  A    between atoms: C1_1  and  C9_9 
REMARK    2  A    between atoms: C6_6  and  C9_9 
REMARK    3  A    between atoms: C7_7  and  C10_10 
ROOT
HETATM    1  C2  UNL     1     -34.946  17.373  -5.242  1.00 20.00     0.001 C 
HETATM    2  C3  UNL     1     -35.524  16.063  -5.769  1.00 20.00     0.005 C 
HETATM    3  C4  UNL     1     -33.640  17.150  -4.481  1.00 20.00     0.005 C 
HETATM    4  C5  UNL     1     -34.387  14.807  -3.892  1.00 20.00     0.009 C 
HETATM    5  C6  UNL     1     -35.704  15.028  -4.651  1.00 20.00    -0.008 C 
HETATM    6  C7  UNL     1     -33.769  16.110  -3.361  1.00 20.00    -0.014 C 
ENDROOT
BRANCH   5   7
HETATM    7  C9  UNL     1     -36.222  13.708  -5.222  1.00 20.00     0.074 C 
BRANCH   7   8
HETATM    8  C1  UNL     1     -35.550  13.343  -6.518  1.00 20.00     0.231 C 
HETATM    9  O11 UNL     1     -35.061  12.249  -6.776  1.00 20.00    -0.307 OA
ENDBRANCH   7   8
ENDBRANCH   5   7
BRANCH   6  10
HETATM   10  C10 UNL     1     -34.548  16.660  -2.163  1.00 20.00     0.000 C 
HETATM   11  C8  UNL     1     -33.700  17.558  -1.324  1.00 20.00     0.005 C 
ENDBRANCH   6  10
TORSDOF 3
ENDMDL
MODEL 6
REMARK VINA RESULT:      -4.5      2.437      4.486
REMARK  3 active torsions:
REMARK  status: ('A' for Active; 'I' for Inactive)
REMARK    1  A    between atoms: C1_1  and  C9_9 
REMARK    2  A    between atoms: C6_6  and  C9_9 
REMARK    3  A    between atoms: C7_7  and  C10_10 
ROOT
HETATM    1  C2  UNL     1     -33.530   6.600   1.877  1.00 20.00     0.001 C 
HETATM    2  C3  UNL     1     -33.779   6.265   3.345  1.00 20.00     0.005 C 
HETATM    3  C4  UNL     1     -32.139   7.196   1.662  1.00 20.00     0.005 C 
HETATM    4  C5  UNL     1     -32.149   8.071   4.034  1.00 20.00     0.009 C 
HETATM    5  C6  UNL     1     -33.549   7.479   4.255  1.00 20.00    -0.008 C 
HETATM    6  C7  UNL     1     -31.858   8.405   2.563  1.00 20.00    -0.014 C 
ENDROOT
BRANCH   5   7
HETATM    7  C9  UNL     1     -33.743   7.093   5.721  1.00 20.00     0.074 C 
BRANCH   7   8
HETATM    8  C1  UNL     1     -34.686   5.932   5.886  1.00 20.00     0.231 C 
HETATM    9  O11 UNL     1     -34.347   4.762   6.026  1.00 20.00    -0.307 OA
ENDBRANCH   7   8
ENDBRANCH   5   7
BRANCH   6  10
HETATM   10  C10 UNL     1     -32.626   9.647   2.101  1.00 20.00     0.000 C 
HETATM   11  C8  UNL     1     -32.422   9.907   0.645  1.00 20.00     0.005 C 
ENDBRANCH   6  10
TORSDOF 3
ENDMDL
MODEL 7
REMARK VINA RESULT:      -4.5     11.657     12.743
REMARK  3 active torsions:
REMARK  status: ('A' for Active; 'I' for Inactive)
REMARK    1  A    between atoms: C1_1  and  C9_9 
REMARK    2  A    between atoms: C6_6  and  C9_9 
REMARK    3  A    between atoms: C7_7  and  C10_10 
ROOT
HETATM    1  C2  UNL     1     -34.200  18.134  -4.654  1.00 20.00     0.001 C 
HETATM    2  C3  UNL     1     -34.102  16.993  -5.662  1.00 20.00     0.005 C 
HETATM    3  C4  UNL     1     -33.498  17.789  -3.341  1.00 20.00     0.005 C 
HETATM    4  C5  UNL     1     -33.916  15.331  -3.765  1.00 20.00     0.009 C 
HETATM    5  C6  UNL     1     -34.627  15.673  -5.084  1.00 20.00    -0.008 C 
HETATM    6  C7  UNL     1     -33.981  16.466  -2.732  1.00 20.00    -0.014 C 
ENDROOT
BRANCH   5   7
HETATM    7  C9  UNL     1     -34.455  14.539  -6.095  1.00 20.00     0.074 C 
BRANCH   7   8
HETATM    8  C1  UNL     1     -35.640  13.609  -6.117  1.00 20.00     0.231 C 
HETATM    9  O11 UNL     1     -35.862  12.730  -5.292  1.00 20.00    -0.307 OA
ENDBRANCH   7   8
ENDBRANCH   5   7
BRANCH   6  10
HETATM   10  C10 UNL     1     -35.379  16.600  -2.123  1.00 20.00     0.000 C 
HETATM   11  C8  UNL     1     -35.333  17.250  -0.780  1.00 20.00     0.005 C 
ENDBRANCH   6  10
TORSDOF 3
ENDMDL
MODEL 8
REMARK VINA RESULT:      -4.4     11.542     12.872
REMARK  3 active torsions:
REMARK  status: ('A' for Active; 'I' for Inactive)
REMARK    1  A    between atoms: C1_1  and  C9_9 
REMARK    2  A    between atoms: C6_6  and  C9_9 
REMARK    3  A    between atoms: C7_7  and  C10_10 
ROOT
HETATM    1  C2  UNL     1     -33.610  17.952  -4.496  1.00 20.00     0.001 C 
HETATM    2  C3  UNL     1     -33.510  18.495  -3.074  1.00 20.00     0.005 C 
HETATM    3  C4  UNL     1     -34.870  17.111  -4.693  1.00 20.00     0.005 C 
HETATM    4  C5  UNL     1     -34.869  16.537  -2.230  1.00 20.00     0.009 C 
HETATM    5  C6  UNL     1     -33.599  17.377  -2.028  1.00 20.00    -0.008 C 
HETATM    6  C7  UNL     1     -35.009  15.987  -3.658  1.00 20.00    -0.014 C 
ENDROOT
BRANCH   5   7
HETATM    7  C9  UNL     1     -33.561  17.961  -0.615  1.00 20.00     0.074 C 
BRANCH   7   8
HETATM    8  C1  UNL     1     -32.274  18.688  -0.332  1.00 20.00     0.231 C 
HETATM    9  O11 UNL     1     -31.151  18.216  -0.471  1.00 20.00    -0.307 OA
ENDBRANCH   7   8
ENDBRANCH   5   7
BRANCH   6  10
HETATM   10  C10 UNL     1     -34.024  14.845  -3.925  1.00 20.00     0.000 C 
HETATM   11  C8  UNL     1     -34.025  14.446  -5.364  1.00 20.00     0.005 C 
ENDBRANCH   6  10
TORSDOF 3
ENDMDL
MODEL 9
REMARK VINA RESULT:      -4.3      1.179      2.572
REMARK  3 active torsions:
REMARK  status: ('A' for Active; 'I' for Inactive)
REMARK    1  A    between atoms: C1_1  and  C9_9 
REMARK    2  A    between atoms: C6_6  and  C9_9 
REMARK    3  A    between atoms: C7_7  and  C10_10 
ROOT
HETATM    1  C2  UNL     1     -34.001   7.225   6.050  1.00 20.00     0.001 C 
HETATM    2  C3  UNL     1     -32.832   7.838   5.285  1.00 20.00     0.005 C 
HETATM    3  C4  UNL     1     -34.135   5.728   5.774  1.00 20.00     0.005 C 
HETATM    4  C5  UNL     1     -33.059   6.052   3.509  1.00 20.00     0.009 C 
HETATM    5  C6  UNL     1     -32.926   7.558   3.779  1.00 20.00    -0.008 C 
HETATM    6  C7  UNL     1     -34.218   5.399   4.278  1.00 20.00    -0.014 C 
ENDROOT
BRANCH   5   7
HETATM    7  C9  UNL     1     -31.709   8.128   3.051  1.00 20.00     0.074 C 
BRANCH   7   8
HETATM    8  C1  UNL     1     -32.076   8.764   1.737  1.00 20.00     0.231 C 
HETATM    9  O11 UNL     1     -31.382   8.746   0.726  1.00 20.00    -0.307 OA
ENDBRANCH   7   8
ENDBRANCH   5   7
BRANCH   6  10
HETATM   10  C10 UNL     1     -35.577   5.782   3.688  1.00 20.00     0.000 C 
HETATM   11  C8  UNL     1     -35.435   6.399   2.336  1.00 20.00     0.005 C 
ENDBRANCH   6  10
TORSDOF 3
ENDMDL
