MODEL 1
REMARK VINA RESULT:      -4.9      0.000      0.000
REMARK  0 active torsions:
REMARK  status: ('A' for Active; 'I' for Inactive)
ROOT
HETATM    1  C1  UNL     1     -32.526   7.908   4.681  1.00 20.00     0.066 C 
HETATM    2  C2  UNL     1     -33.044   5.927   3.207  1.00 20.00     0.077 C 
HETATM    3  C3  UNL     1     -33.720   7.507   5.538  1.00 20.00     0.171 C 
HETATM    4  C4  UNL     1     -33.068   8.326   2.156  1.00 20.00     0.207 A 
HETATM    5  C5  UNL     1     -32.729   7.391   3.292  1.00 20.00     0.087 A 
HETATM    6  C6  UNL     1     -34.202   5.573   4.163  1.00 20.00     0.056 C 
HETATM    7  C7  UNL     1     -35.557   6.065   3.633  1.00 20.00     0.045 C 
HETATM    8  C8  UNL     1     -34.270   4.048   4.326  1.00 20.00     0.045 C 
HETATM    9  O9  UNL     1     -31.737   7.830   2.355  1.00 20.00    -0.375 OA
HETATM   10  O10 UNL     1     -33.942   6.096   5.481  1.00 20.00    -0.381 OA
ENDROOT
TORSDOF 0
ENDMDL
MODEL 2
REMARK VINA RESULT:      -4.4     11.462     12.749
REMARK  0 active torsions:
REMARK  status: ('A' for Active; 'I' for Inactive)
ROOT
HETATM    1  C1  UNL     1     -34.083  14.339  -6.287  1.00 20.00     0.066 C 
HETATM    2  C2  UNL     1     -34.767  14.757  -3.895  1.00 20.00     0.077 C 
HETATM    3  C3  UNL     1     -33.704  15.811  -6.373  1.00 20.00     0.171 C 
HETATM    4  C4  UNL     1     -36.561  13.873  -5.587  1.00 20.00     0.207 A 
HETATM    5  C5  UNL     1     -35.124  14.166  -5.227  1.00 20.00     0.087 A 
HETATM    6  C6  UNL     1     -34.309  16.220  -4.065  1.00 20.00     0.056 C 
HETATM    7  C7  UNL     1     -35.487  17.162  -4.353  1.00 20.00     0.045 C 
HETATM    8  C8  UNL     1     -33.622  16.685  -2.773  1.00 20.00     0.045 C 
HETATM    9  O9  UNL     1     -35.666  12.841  -5.150  1.00 20.00    -0.375 OA
HETATM   10  O10 UNL     1     -33.307  16.315  -5.096  1.00 20.00    -0.381 OA
ENDROOT
TORSDOF 0
ENDMDL
MODEL 3
REMARK VINA RESULT:      -4.0     11.219     12.582
REMARK  0 active torsions:
REMARK  status: ('A' for Active; 'I' for Inactive)
ROOT
HETATM    1  C1  UNL     1     -34.254  14.129  -4.113  1.00 20.00     0.066 C 
HETATM    2  C2  UNL     1     -36.605  14.971  -4.469  1.00 20.00     0.077 C 
HETATM    3  C3  UNL     1     -33.814  15.583  -4.000  1.00 20.00     0.171 C 
HETATM    4  C4  UNL     1     -35.487  13.516  -6.338  1.00 20.00     0.207 A 
HETATM    5  C5  UNL     1     -35.505  14.062  -4.930  1.00 20.00     0.087 A 
HETATM    6  C6  UNL     1     -36.072  16.407  -4.290  1.00 20.00     0.056 C 
HETATM    7  C7  UNL     1     -35.835  17.105  -5.637  1.00 20.00     0.045 C 
HETATM    8  C8  UNL     1     -37.096  17.228  -3.493  1.00 20.00     0.045 C 
HETATM    9  O9  UNL     1     -35.938  12.728  -5.228  1.00 20.00    -0.375 OA
HETATM   10  O10 UNL     1     -34.871  16.401  -3.493  1.00 20.00    -0.381 OA
ENDROOT
TORSDOF 0
ENDMDL
MODEL 4
REMARK VINA RESULT:      -4.0     11.941     12.816
REMARK  0 active torsions:
REMARK  status: ('A' for Active; 'I' for Inactive)
ROOT
HETATM    1  C1  UNL     1     -35.852  13.408  -5.677  1.00 20.00     0.066 C 
HETATM    2  C2  UNL     1     -36.188  15.247  -3.984  1.00 20.00     0.077 C 
HETATM    3  C3  UNL     1     -34.526  14.064  -6.039  1.00 20.00     0.171 C 
HETATM    4  C4  UNL     1     -37.949  14.955  -5.901  1.00 20.00     0.207 A 
HETATM    5  C5  UNL     1     -36.769  14.444  -5.110  1.00 20.00     0.087 A 
HETATM    6  C6  UNL     1     -34.809  15.809  -4.384  1.00 20.00     0.056 C 
HETATM    7  C7  UNL     1     -34.928  16.976  -5.375  1.00 20.00     0.045 C 
HETATM    8  C8  UNL     1     -34.087  16.313  -3.126  1.00 20.00     0.045 C 
HETATM    9  O9  UNL     1     -38.101  13.975  -4.865  1.00 20.00    -0.375 OA
HETATM   10  O10 UNL     1     -33.976  14.761  -4.918  1.00 20.00    -0.381 OA
ENDROOT
TORSDOF 0
ENDMDL
MODEL 5
REMARK VINA RESULT:      -3.9     11.672     12.970
REMARK  0 active torsions:
REMARK  status: ('A' for Active; 'I' for Inactive)
ROOT
HETATM    1  C1  UNL     1     -36.340  14.049  -6.909  1.00 20.00     0.066 C 
HETATM    2  C2  UNL     1     -35.426  14.123  -4.559  1.00 20.00     0.077 C 
HETATM    3  C3  UNL     1     -35.135  14.875  -7.340  1.00 20.00     0.171 C 
HETATM    4  C4  UNL     1     -37.801  15.125  -5.024  1.00 20.00     0.207 A 
HETATM    5  C5  UNL     1     -36.611  14.304  -5.460  1.00 20.00     0.087 A 
HETATM    6  C6  UNL     1     -34.218  14.913  -5.100  1.00 20.00     0.056 C 
HETATM    7  C7  UNL     1     -34.370  16.424  -4.871  1.00 20.00     0.045 C 
HETATM    8  C8  UNL     1     -32.945  14.440  -4.382  1.00 20.00     0.045 C 
HETATM    9  O9  UNL     1     -37.813  13.692  -4.974  1.00 20.00    -0.375 OA
HETATM   10  O10 UNL     1     -34.010  14.621  -6.496  1.00 20.00    -0.381 OA
ENDROOT
TORSDOF 0
ENDMDL
MODEL 6
REMARK VINA RESULT:      -3.9     11.635     12.768
REMARK  0 active torsions:
REMARK  status: ('A' for Active; 'I' for Inactive)
ROOT
HETATM    1  C1  UNL     1     -34.698  15.626  -6.296  1.00 20.00     0.066 C 
HETATM    2  C2  UNL     1     -34.263  14.978  -3.897  1.00 20.00     0.077 C 
HETATM    3  C3  UNL     1     -35.076  17.012  -5.791  1.00 20.00     0.171 C 
HETATM    4  C4  UNL     1     -36.071  13.657  -5.255  1.00 20.00     0.207 A 
HETATM    5  C5  UNL     1     -34.920  14.632  -5.200  1.00 20.00     0.087 A 
HETATM    6  C6  UNL     1     -34.616  16.423  -3.488  1.00 20.00     0.056 C 
HETATM    7  C7  UNL     1     -36.061  16.542  -2.982  1.00 20.00     0.045 C 
HETATM    8  C8  UNL     1     -33.671  16.873  -2.364  1.00 20.00     0.045 C 
HETATM    9  O9  UNL     1     -34.735  13.268  -5.601  1.00 20.00    -0.375 OA
HETATM   10  O10 UNL     1     -34.377  17.327  -4.585  1.00 20.00    -0.381 OA
ENDROOT
TORSDOF 0
ENDMDL
MODEL 7
REMARK VINA RESULT:      -3.9     11.479     13.180
REMARK  0 active torsions:
REMARK  status: ('A' for Active; 'I' for Inactive)
ROOT
HETATM    1  C1  UNL     1     -33.518  15.590  -3.946  1.00 20.00     0.066 C 
HETATM    2  C2  UNL     1     -33.707  16.091  -6.411  1.00 20.00     0.077 C 
HETATM    3  C3  UNL     1     -34.319  14.320  -4.204  1.00 20.00     0.171 C 
HETATM    4  C4  UNL     1     -34.690  17.807  -4.693  1.00 20.00     0.207 A 
HETATM    5  C5  UNL     1     -33.845  16.594  -5.005  1.00 20.00     0.087 A 
HETATM    6  C6  UNL     1     -34.467  14.760  -6.580  1.00 20.00     0.056 C 
HETATM    7  C7  UNL     1     -35.988  14.968  -6.628  1.00 20.00     0.045 C 
HETATM    8  C8  UNL     1     -34.028  14.092  -7.891  1.00 20.00     0.045 C 
HETATM    9  O9  UNL     1     -33.261  17.885  -4.788  1.00 20.00    -0.375 OA
HETATM   10  O10 UNL     1     -34.105  13.839  -5.532  1.00 20.00    -0.381 OA
ENDROOT
TORSDOF 0
ENDMDL
MODEL 8
REMARK VINA RESULT:      -3.8     11.524     12.670
REMARK  0 active torsions:
REMARK  status: ('A' for Active; 'I' for Inactive)
ROOT
HETATM    1  C1  UNL     1     -36.523  13.707  -5.875  1.00 20.00     0.066 C 
HETATM    2  C2  UNL     1     -35.077  14.770  -4.102  1.00 20.00     0.077 C 
HETATM    3  C3  UNL     1     -35.294  13.677  -6.775  1.00 20.00     0.171 C 
HETATM    4  C4  UNL     1     -37.175  16.074  -4.972  1.00 20.00     0.207 A 
HETATM    5  C5  UNL     1     -36.364  14.804  -4.872  1.00 20.00     0.087 A 
HETATM    6  C6  UNL     1     -33.880  14.651  -5.068  1.00 20.00     0.056 C 
HETATM    7  C7  UNL     1     -33.599  15.970  -5.801  1.00 20.00     0.045 C 
HETATM    8  C8  UNL     1     -32.626  14.263  -4.270  1.00 20.00     0.045 C 
HETATM    9  O9  UNL     1     -37.523  15.025  -4.058  1.00 20.00    -0.375 OA
HETATM   10  O10 UNL     1     -34.095  13.576  -6.004  1.00 20.00    -0.381 OA
ENDROOT
TORSDOF 0
ENDMDL
MODEL 9
REMARK VINA RESULT:      -3.7     11.332     13.172
REMARK  0 active torsions:
REMARK  status: ('A' for Active; 'I' for Inactive)
ROOT
HETATM    1  C1  UNL     1     -34.435  14.079  -4.146  1.00 20.00     0.066 C 
HETATM    2  C2  UNL     1     -35.761  15.772  -5.464  1.00 20.00     0.077 C 
HETATM    3  C3  UNL     1     -33.201  14.933  -4.405  1.00 20.00     0.171 C 
HETATM    4  C4  UNL     1     -35.704  13.289  -6.293  1.00 20.00     0.207 A 
HETATM    5  C5  UNL     1     -35.434  14.327  -5.231  1.00 20.00     0.087 A 
HETATM    6  C6  UNL     1     -34.466  16.594  -5.630  1.00 20.00     0.056 C 
HETATM    7  C7  UNL     1     -33.803  16.352  -6.994  1.00 20.00     0.045 C 
HETATM    8  C8  UNL     1     -34.800  18.088  -5.511  1.00 20.00     0.045 C 
HETATM    9  O9  UNL     1     -36.583  13.471  -5.175  1.00 20.00    -0.375 OA
HETATM   10  O10 UNL     1     -33.551  16.311  -4.554  1.00 20.00    -0.381 OA
ENDROOT
TORSDOF 0
ENDMDL
