MODEL 1
REMARK VINA RESULT:      -5.6      0.000      0.000
REMARK  1 active torsions:
REMARK  status: ('A' for Active; 'I' for Inactive)
REMARK    1  A    between atoms: C8_8  and  C10_10 
ROOT
HETATM    1  C1  UNL     1     -32.325   8.182   2.039  1.00 20.00     0.088 C 
HETATM    2  C2  UNL     1     -33.930   6.644   2.964  1.00 20.00    -0.070 C 
HETATM    3  C3  UNL     1     -33.457   7.892   2.840  1.00 20.00     0.096 C 
HETATM    4  C4  UNL     1     -33.300   5.467   2.268  1.00 20.00     0.035 C 
HETATM    5  C5  UNL     1     -35.121   6.311   3.826  1.00 20.00     0.039 C 
HETATM    6  C6  UNL     1     -32.962   4.358   3.267  1.00 20.00     0.005 C 
HETATM    7  C7  UNL     1     -34.165   3.985   4.137  1.00 20.00     0.005 C 
HETATM    8  C8  UNL     1     -34.800   5.198   4.840  1.00 20.00    -0.011 C 
HETATM    9  N11 UNL     1     -31.398   8.428   1.385  1.00 20.00    -0.192 NA
ENDROOT
BRANCH   8  10
HETATM   10  C10 UNL     1     -33.918   5.714   5.981  1.00 20.00     0.000 C 
HETATM   11  C9  UNL     1     -33.987   7.202   6.101  1.00 20.00     0.005 C 
ENDBRANCH   8  10
TORSDOF 1
ENDMDL
MODEL 2
REMARK VINA RESULT:      -5.0     11.529     12.712
REMARK  1 active torsions:
REMARK  status: ('A' for Active; 'I' for Inactive)
REMARK    1  A    between atoms: C8_8  and  C10_10 
ROOT
HETATM    1  C1  UNL     1     -34.014  14.763  -4.030  1.00 20.00     0.088 C 
HETATM    2  C2  UNL     1     -34.199  17.003  -3.166  1.00 20.00    -0.070 C 
HETATM    3  C3  UNL     1     -33.557  16.100  -3.920  1.00 20.00     0.096 C 
HETATM    4  C4  UNL     1     -35.444  16.670  -2.386  1.00 20.00     0.035 C 
HETATM    5  C5  UNL     1     -33.719  18.425  -3.020  1.00 20.00     0.039 C 
HETATM    6  C6  UNL     1     -35.282  17.046  -0.912  1.00 20.00     0.005 C 
HETATM    7  C7  UNL     1     -34.819  18.495  -0.738  1.00 20.00     0.005 C 
HETATM    8  C8  UNL     1     -33.548  18.822  -1.543  1.00 20.00    -0.011 C 
HETATM    9  N11 UNL     1     -34.382  13.666  -4.124  1.00 20.00    -0.192 NA
ENDROOT
BRANCH   8  10
HETATM   10  C10 UNL     1     -32.306  18.172  -0.925  1.00 20.00     0.000 C 
HETATM   11  C9  UNL     1     -31.974  18.771   0.402  1.00 20.00     0.005 C 
ENDBRANCH   8  10
TORSDOF 1
ENDMDL
MODEL 3
REMARK VINA RESULT:      -5.0     11.349     12.634
REMARK  1 active torsions:
REMARK  status: ('A' for Active; 'I' for Inactive)
REMARK    1  A    between atoms: C8_8  and  C10_10 
ROOT
HETATM    1  C1  UNL     1     -35.303  13.585  -4.757  1.00 20.00     0.088 C 
HETATM    2  C2  UNL     1     -34.522  15.720  -3.964  1.00 20.00    -0.070 C 
HETATM    3  C3  UNL     1     -34.482  14.382  -3.921  1.00 20.00     0.096 C 
HETATM    4  C4  UNL     1     -35.435  16.474  -4.895  1.00 20.00     0.035 C 
HETATM    5  C5  UNL     1     -33.671  16.586  -3.070  1.00 20.00     0.039 C 
HETATM    6  C6  UNL     1     -36.294  17.478  -4.125  1.00 20.00     0.005 C 
HETATM    7  C7  UNL     1     -35.448  18.387  -3.229  1.00 20.00     0.005 C 
HETATM    8  C8  UNL     1     -34.517  17.604  -2.284  1.00 20.00    -0.011 C 
HETATM    9  N11 UNL     1     -35.974  12.926  -5.437  1.00 20.00    -0.192 NA
ENDROOT
BRANCH   8  10
HETATM   10  C10 UNL     1     -35.300  16.930  -1.153  1.00 20.00     0.000 C 
HETATM   11  C9  UNL     1     -35.202  17.704   0.121  1.00 20.00     0.005 C 
ENDBRANCH   8  10
TORSDOF 1
ENDMDL
MODEL 4
REMARK VINA RESULT:      -4.6     11.405     13.246
REMARK  1 active torsions:
REMARK  status: ('A' for Active; 'I' for Inactive)
REMARK    1  A    between atoms: C8_8  and  C10_10 
ROOT
HETATM    1  C1  UNL     1     -34.591  16.704  -2.276  1.00 20.00     0.088 C 
HETATM    2  C2  UNL     1     -33.767  15.616  -4.260  1.00 20.00    -0.070 C 
HETATM    3  C3  UNL     1     -33.805  16.687  -3.456  1.00 20.00     0.096 C 
HETATM    4  C4  UNL     1     -34.548  14.360  -3.975  1.00 20.00     0.035 C 
HETATM    5  C5  UNL     1     -32.953  15.585  -5.529  1.00 20.00     0.039 C 
HETATM    6  C6  UNL     1     -35.415  13.972  -5.173  1.00 20.00     0.005 C 
HETATM    7  C7  UNL     1     -34.605  13.908  -6.471  1.00 20.00     0.005 C 
HETATM    8  C8  UNL     1     -33.809  15.197  -6.748  1.00 20.00    -0.011 C 
HETATM    9  N11 UNL     1     -35.232  16.725  -1.309  1.00 20.00    -0.192 NA
ENDROOT
BRANCH   8  10
HETATM   10  C10 UNL     1     -34.729  16.345  -7.178  1.00 20.00     0.000 C 
HETATM   11  C9  UNL     1     -33.955  17.587  -7.477  1.00 20.00     0.005 C 
ENDBRANCH   8  10
TORSDOF 1
ENDMDL
MODEL 5
REMARK VINA RESULT:      -4.6     11.798     13.105
REMARK  1 active torsions:
REMARK  status: ('A' for Active; 'I' for Inactive)
REMARK    1  A    between atoms: C8_8  and  C10_10 
ROOT
HETATM    1  C1  UNL     1     -37.881  14.872  -4.560  1.00 20.00     0.088 C 
HETATM    2  C2  UNL     1     -35.609  15.355  -3.926  1.00 20.00    -0.070 C 
HETATM    3  C3  UNL     1     -36.906  15.692  -3.939  1.00 20.00     0.096 C 
HETATM    4  C4  UNL     1     -35.094  14.092  -4.563  1.00 20.00     0.035 C 
HETATM    5  C5  UNL     1     -34.553  16.222  -3.288  1.00 20.00     0.039 C 
HETATM    6  C6  UNL     1     -33.966  14.399  -5.550  1.00 20.00     0.005 C 
HETATM    7  C7  UNL     1     -32.868  15.258  -4.917  1.00 20.00     0.005 C 
HETATM    8  C8  UNL     1     -33.409  16.544  -4.266  1.00 20.00    -0.011 C 
HETATM    9  N11 UNL     1     -38.685  14.206  -5.066  1.00 20.00    -0.192 NA
ENDROOT
BRANCH   8  10
HETATM   10  C10 UNL     1     -33.841  17.570  -5.319  1.00 20.00     0.000 C 
HETATM   11  C9  UNL     1     -34.379  18.812  -4.689  1.00 20.00     0.005 C 
ENDBRANCH   8  10
TORSDOF 1
ENDMDL
MODEL 6
REMARK VINA RESULT:      -4.5     11.538     12.811
REMARK  1 active torsions:
REMARK  status: ('A' for Active; 'I' for Inactive)
REMARK    1  A    between atoms: C8_8  and  C10_10 
ROOT
HETATM    1  C1  UNL     1     -33.518  17.434  -3.421  1.00 20.00     0.088 C 
HETATM    2  C2  UNL     1     -34.759  15.412  -3.832  1.00 20.00    -0.070 C 
HETATM    3  C3  UNL     1     -33.602  16.087  -3.854  1.00 20.00     0.096 C 
HETATM    4  C4  UNL     1     -36.047  16.027  -3.351  1.00 20.00     0.035 C 
HETATM    5  C5  UNL     1     -34.874  13.985  -4.306  1.00 20.00     0.039 C 
HETATM    6  C6  UNL     1     -37.148  15.886  -4.403  1.00 20.00     0.005 C 
HETATM    7  C7  UNL     1     -37.301  14.439  -4.881  1.00 20.00     0.005 C 
HETATM    8  C8  UNL     1     -35.976  13.822  -5.368  1.00 20.00    -0.011 C 
HETATM    9  N11 UNL     1     -33.442  18.537  -3.069  1.00 20.00    -0.192 NA
ENDROOT
BRANCH   8  10
HETATM   10  C10 UNL     1     -35.547  14.403  -6.719  1.00 20.00     0.000 C 
HETATM   11  C9  UNL     1     -34.432  13.616  -7.327  1.00 20.00     0.005 C 
ENDBRANCH   8  10
TORSDOF 1
ENDMDL
MODEL 7
REMARK VINA RESULT:      -4.5     11.931     13.019
REMARK  1 active torsions:
REMARK  status: ('A' for Active; 'I' for Inactive)
REMARK    1  A    between atoms: C8_8  and  C10_10 
ROOT
HETATM    1  C1  UNL     1     -35.725  13.914  -6.906  1.00 20.00     0.088 C 
HETATM    2  C2  UNL     1     -34.205  14.910  -5.326  1.00 20.00    -0.070 C 
HETATM    3  C3  UNL     1     -35.032  13.913  -5.670  1.00 20.00     0.096 C 
HETATM    4  C4  UNL     1     -33.950  16.095  -6.219  1.00 20.00     0.035 C 
HETATM    5  C5  UNL     1     -33.474  14.938  -4.007  1.00 20.00     0.039 C 
HETATM    6  C6  UNL     1     -34.210  17.406  -5.476  1.00 20.00     0.005 C 
HETATM    7  C7  UNL     1     -33.457  17.469  -4.144  1.00 20.00     0.005 C 
HETATM    8  C8  UNL     1     -33.725  16.250  -3.242  1.00 20.00    -0.011 C 
HETATM    9  N11 UNL     1     -36.295  13.908  -7.917  1.00 20.00    -0.192 NA
ENDROOT
BRANCH   8  10
HETATM   10  C10 UNL     1     -35.134  16.291  -2.643  1.00 20.00     0.000 C 
HETATM   11  C9  UNL     1     -35.147  16.974  -1.314  1.00 20.00     0.005 C 
ENDBRANCH   8  10
TORSDOF 1
ENDMDL
MODEL 8
REMARK VINA RESULT:      -4.5     11.834     13.075
REMARK  1 active torsions:
REMARK  status: ('A' for Active; 'I' for Inactive)
REMARK    1  A    between atoms: C8_8  and  C10_10 
ROOT
HETATM    1  C1  UNL     1     -37.524  15.137  -6.958  1.00 20.00     0.088 C 
HETATM    2  C2  UNL     1     -35.587  14.530  -5.663  1.00 20.00    -0.070 C 
HETATM    3  C3  UNL     1     -36.919  14.612  -5.789  1.00 20.00     0.096 C 
HETATM    4  C4  UNL     1     -34.641  14.985  -6.743  1.00 20.00     0.035 C 
HETATM    5  C5  UNL     1     -34.922  13.992  -4.421  1.00 20.00     0.039 C 
HETATM    6  C6  UNL     1     -33.621  15.982  -6.192  1.00 20.00     0.005 C 
HETATM    7  C7  UNL     1     -32.914  15.447  -4.944  1.00 20.00     0.005 C 
HETATM    8  C8  UNL     1     -33.892  14.983  -3.849  1.00 20.00    -0.011 C 
HETATM    9  N11 UNL     1     -38.027  15.567  -7.911  1.00 20.00    -0.192 NA
ENDROOT
BRANCH   8  10
HETATM   10  C10 UNL     1     -34.574  16.170  -3.162  1.00 20.00     0.000 C 
HETATM   11  C9  UNL     1     -33.620  16.929  -2.299  1.00 20.00     0.005 C 
ENDBRANCH   8  10
TORSDOF 1
ENDMDL
MODEL 9
REMARK VINA RESULT:      -4.4     11.444     12.884
REMARK  1 active torsions:
REMARK  status: ('A' for Active; 'I' for Inactive)
REMARK    1  A    between atoms: C8_8  and  C10_10 
ROOT
HETATM    1  C1  UNL     1     -35.654  13.278  -6.136  1.00 20.00     0.088 C 
HETATM    2  C2  UNL     1     -35.601  14.822  -4.290  1.00 20.00    -0.070 C 
HETATM    3  C3  UNL     1     -36.257  14.266  -5.317  1.00 20.00     0.096 C 
HETATM    4  C4  UNL     1     -34.189  14.445  -3.929  1.00 20.00     0.035 C 
HETATM    5  C5  UNL     1     -36.217  15.888  -3.418  1.00 20.00     0.039 C 
HETATM    6  C6  UNL     1     -33.292  15.682  -3.861  1.00 20.00     0.005 C 
HETATM    7  C7  UNL     1     -33.885  16.770  -2.960  1.00 20.00     0.005 C 
HETATM    8  C8  UNL     1     -35.330  17.144  -3.338  1.00 20.00    -0.011 C 
HETATM    9  N11 UNL     1     -35.167  12.469  -6.811  1.00 20.00    -0.192 NA
ENDROOT
BRANCH   8  10
HETATM   10  C10 UNL     1     -35.381  17.953  -4.638  1.00 20.00     0.000 C 
HETATM   11  C9  UNL     1     -36.787  18.262  -5.039  1.00 20.00     0.005 C 
ENDBRANCH   8  10
TORSDOF 1
ENDMDL
