MODEL 1
REMARK VINA RESULT:      -6.2      0.000      0.000
REMARK  3 active torsions:
REMARK  status: ('A' for Active; 'I' for Inactive)
REMARK    1  A    between atoms: C5_5  and  C8_8 
REMARK    2  A    between atoms: C6_6  and  C9_9 
REMARK    3  A    between atoms: C9_9  and  C10_10 
ROOT
HETATM    1  C1  UNL     1     -32.582   8.302   5.025  1.00 20.00     0.001 C 
HETATM    2  C2  UNL     1     -33.552   7.140   5.217  1.00 20.00     0.005 C 
HETATM    3  C3  UNL     1     -31.561   8.009   3.927  1.00 20.00     0.005 C 
HETATM    4  C4  UNL     1     -33.213   6.457   2.806  1.00 20.00     0.009 C 
HETATM    5  C5  UNL     1     -34.245   6.751   3.907  1.00 20.00    -0.014 C 
HETATM    6  C6  UNL     1     -32.209   7.602   2.597  1.00 20.00    -0.013 C 
ENDROOT
BRANCH   6   7
HETATM    7  C9  UNL     1     -32.853   8.798   1.891  1.00 20.00     0.020 C 
BRANCH   7   8
HETATM    8  C10 UNL     1     -32.118   9.211   0.625  1.00 20.00     0.115 C 
HETATM    9 CL11 UNL     1     -33.229   9.481  -0.737  1.00 20.00    -0.130 Cl
ENDBRANCH   7   8
ENDBRANCH   6   7
BRANCH   5  10
HETATM   10  C8  UNL     1     -35.160   5.543   4.120  1.00 20.00     0.000 C 
HETATM   11  C7  UNL     1     -34.385   4.331   4.517  1.00 20.00     0.005 C 
ENDBRANCH   5  10
TORSDOF 3
ENDMDL
MODEL 2
REMARK VINA RESULT:      -5.0      2.580      4.607
REMARK  3 active torsions:
REMARK  status: ('A' for Active; 'I' for Inactive)
REMARK    1  A    between atoms: C5_5  and  C8_8 
REMARK    2  A    between atoms: C6_6  and  C9_9 
REMARK    3  A    between atoms: C9_9  and  C10_10 
ROOT
HETATM    1  C1  UNL     1     -32.113   7.977   4.554  1.00 20.00     0.001 C 
HETATM    2  C2  UNL     1     -31.765   8.778   3.303  1.00 20.00     0.005 C 
HETATM    3  C3  UNL     1     -33.561   7.492   4.530  1.00 20.00     0.005 C 
HETATM    4  C4  UNL     1     -33.522   7.508   2.001  1.00 20.00     0.009 C 
HETATM    5  C5  UNL     1     -32.064   7.993   2.021  1.00 20.00    -0.014 C 
HETATM    6  C6  UNL     1     -33.911   6.711   3.257  1.00 20.00    -0.013 C 
ENDROOT
BRANCH   6   7
HETATM    7  C9  UNL     1     -33.283   5.315   3.258  1.00 20.00     0.020 C 
BRANCH   7   8
HETATM    8  C10 UNL     1     -34.155   4.269   3.936  1.00 20.00     0.115 C 
HETATM    9 CL11 UNL     1     -34.538   4.703   5.617  1.00 20.00    -0.130 Cl
ENDBRANCH   7   8
ENDBRANCH   6   7
BRANCH   5  10
HETATM   10  C8  UNL     1     -31.766   8.846   0.786  1.00 20.00     0.000 C 
HETATM   11  C7  UNL     1     -32.532  10.127   0.806  1.00 20.00     0.005 C 
ENDBRANCH   5  10
TORSDOF 3
ENDMDL
MODEL 3
REMARK VINA RESULT:      -4.4      1.353      2.252
REMARK  3 active torsions:
REMARK  status: ('A' for Active; 'I' for Inactive)
REMARK    1  A    between atoms: C5_5  and  C8_8 
REMARK    2  A    between atoms: C6_6  and  C9_9 
REMARK    3  A    between atoms: C9_9  and  C10_10 
ROOT
HETATM    1  C1  UNL     1     -33.080   5.060   2.478  1.00 20.00     0.001 C 
HETATM    2  C2  UNL     1     -33.736   5.036   3.856  1.00 20.00     0.005 C 
HETATM    3  C3  UNL     1     -33.571   6.239   1.640  1.00 20.00     0.005 C 
HETATM    4  C4  UNL     1     -34.043   7.543   3.754  1.00 20.00     0.009 C 
HETATM    5  C5  UNL     1     -33.547   6.361   4.602  1.00 20.00    -0.014 C 
HETATM    6  C6  UNL     1     -33.414   7.589   2.352  1.00 20.00    -0.013 C 
ENDROOT
BRANCH   6   7
HETATM    7  C9  UNL     1     -31.951   8.036   2.403  1.00 20.00     0.020 C 
BRANCH   7   8
HETATM    8  C10 UNL     1     -31.530   8.839   1.182  1.00 20.00     0.115 C 
HETATM    9 CL11 UNL     1     -32.591  10.238   0.901  1.00 20.00    -0.130 Cl
ENDBRANCH   7   8
ENDBRANCH   6   7
BRANCH   5  10
HETATM   10  C8  UNL     1     -34.271   6.327   5.949  1.00 20.00     0.000 C 
HETATM   11  C7  UNL     1     -34.837   4.976   6.235  1.00 20.00     0.005 C 
ENDBRANCH   5  10
TORSDOF 3
ENDMDL
MODEL 4
REMARK VINA RESULT:      -4.3      2.139      4.249
REMARK  3 active torsions:
REMARK  status: ('A' for Active; 'I' for Inactive)
REMARK    1  A    between atoms: C5_5  and  C8_8 
REMARK    2  A    between atoms: C6_6  and  C9_9 
REMARK    3  A    between atoms: C9_9  and  C10_10 
ROOT
HETATM    1  C1  UNL     1     -33.264   7.211   6.018  1.00 20.00     0.001 C 
HETATM    2  C2  UNL     1     -33.000   7.969   4.719  1.00 20.00     0.005 C 
HETATM    3  C3  UNL     1     -34.632   6.532   6.006  1.00 20.00     0.005 C 
HETATM    4  C4  UNL     1     -34.539   6.389   3.483  1.00 20.00     0.009 C 
HETATM    5  C5  UNL     1     -33.161   7.068   3.489  1.00 20.00    -0.014 C 
HETATM    6  C6  UNL     1     -34.844   5.629   4.784  1.00 20.00    -0.013 C 
ENDROOT
BRANCH   6   7
HETATM    7  C9  UNL     1     -34.033   4.335   4.888  1.00 20.00     0.020 C 
BRANCH   7   8
HETATM    8  C10 UNL     1     -33.992   3.550   3.586  1.00 20.00     0.115 C 
HETATM    9 CL11 UNL     1     -32.698   4.114   2.505  1.00 20.00    -0.130 Cl
ENDBRANCH   7   8
ENDBRANCH   6   7
BRANCH   5  10
HETATM   10  C8  UNL     1     -32.954   7.872   2.204  1.00 20.00     0.000 C 
HETATM   11  C7  UNL     1     -31.731   8.724   2.280  1.00 20.00     0.005 C 
ENDBRANCH   5  10
TORSDOF 3
ENDMDL
MODEL 5
REMARK VINA RESULT:      -4.3     10.463     11.586
REMARK  3 active torsions:
REMARK  status: ('A' for Active; 'I' for Inactive)
REMARK    1  A    between atoms: C5_5  and  C8_8 
REMARK    2  A    between atoms: C6_6  and  C9_9 
REMARK    3  A    between atoms: C9_9  and  C10_10 
ROOT
HETATM    1  C1  UNL     1     -36.881  16.559  -3.879  1.00 20.00     0.001 C 
HETATM    2  C2  UNL     1     -36.206  17.272  -2.710  1.00 20.00     0.005 C 
HETATM    3  C3  UNL     1     -35.903  16.301  -5.023  1.00 20.00     0.005 C 
HETATM    4  C4  UNL     1     -33.987  16.258  -3.373  1.00 20.00     0.009 C 
HETATM    5  C5  UNL     1     -34.967  16.515  -2.218  1.00 20.00    -0.014 C 
HETATM    6  C6  UNL     1     -34.639  15.556  -4.575  1.00 20.00    -0.013 C 
ENDROOT
BRANCH   6   7
HETATM    7  C9  UNL     1     -34.924  14.080  -4.282  1.00 20.00     0.020 C 
BRANCH   7   8
HETATM    8  C10 UNL     1     -35.822  13.428  -5.323  1.00 20.00     0.115 C 
HETATM    9 CL11 UNL     1     -35.029  13.307  -6.910  1.00 20.00    -0.130 Cl
ENDBRANCH   7   8
ENDBRANCH   6   7
BRANCH   5  10
HETATM   10  C8  UNL     1     -34.278  17.287  -1.092  1.00 20.00     0.000 C 
HETATM   11  C7  UNL     1     -32.991  17.891  -1.547  1.00 20.00     0.005 C 
ENDBRANCH   5  10
TORSDOF 3
ENDMDL
MODEL 6
REMARK VINA RESULT:      -4.2     10.616     11.745
REMARK  3 active torsions:
REMARK  status: ('A' for Active; 'I' for Inactive)
REMARK    1  A    between atoms: C5_5  and  C8_8 
REMARK    2  A    between atoms: C6_6  and  C9_9 
REMARK    3  A    between atoms: C9_9  and  C10_10 
ROOT
HETATM    1  C1  UNL     1     -33.682  17.114  -5.645  1.00 20.00     0.001 C 
HETATM    2  C2  UNL     1     -33.947  17.374  -4.164  1.00 20.00     0.005 C 
HETATM    3  C3  UNL     1     -33.103  15.721  -5.878  1.00 20.00     0.005 C 
HETATM    4  C4  UNL     1     -34.251  14.893  -3.783  1.00 20.00     0.009 C 
HETATM    5  C5  UNL     1     -34.840  16.293  -3.545  1.00 20.00    -0.014 C 
HETATM    6  C6  UNL     1     -33.957  14.604  -5.264  1.00 20.00    -0.013 C 
ENDROOT
BRANCH   6   7
HETATM    7  C9  UNL     1     -35.243  14.370  -6.061  1.00 20.00     0.020 C 
BRANCH   7   8
HETATM    8  C10 UNL     1     -36.249  13.497  -5.328  1.00 20.00     0.115 C 
HETATM    9 CL11 UNL     1     -37.762  14.364  -4.980  1.00 20.00    -0.130 Cl
ENDBRANCH   7   8
ENDBRANCH   6   7
BRANCH   5  10
HETATM   10  C8  UNL     1     -35.032  16.547  -2.049  1.00 20.00     0.000 C 
HETATM   11  C7  UNL     1     -33.894  17.322  -1.472  1.00 20.00     0.005 C 
ENDBRANCH   5  10
TORSDOF 3
ENDMDL
MODEL 7
REMARK VINA RESULT:      -4.2     10.792     11.994
REMARK  3 active torsions:
REMARK  status: ('A' for Active; 'I' for Inactive)
REMARK    1  A    between atoms: C5_5  and  C8_8 
REMARK    2  A    between atoms: C6_6  and  C9_9 
REMARK    3  A    between atoms: C9_9  and  C10_10 
ROOT
HETATM    1  C1  UNL     1     -33.923  15.024  -7.125  1.00 20.00     0.001 C 
HETATM    2  C2  UNL     1     -33.340  15.544  -5.814  1.00 20.00     0.005 C 
HETATM    3  C3  UNL     1     -34.555  13.645  -6.954  1.00 20.00     0.005 C 
HETATM    4  C4  UNL     1     -35.011  14.157  -4.520  1.00 20.00     0.009 C 
HETATM    5  C5  UNL     1     -34.379  15.548  -4.688  1.00 20.00    -0.014 C 
HETATM    6  C6  UNL     1     -35.595  13.596  -5.827  1.00 20.00    -0.013 C 
ENDROOT
BRANCH   6   7
HETATM    7  C9  UNL     1     -36.891  14.310  -6.220  1.00 20.00     0.020 C 
BRANCH   7   8
HETATM    8  C10 UNL     1     -37.863  14.464  -5.061  1.00 20.00     0.115 C 
HETATM    9 CL11 UNL     1     -38.006  16.153  -4.525  1.00 20.00    -0.130 Cl
ENDBRANCH   7   8
ENDBRANCH   6   7
BRANCH   5  10
HETATM   10  C8  UNL     1     -33.747  16.012  -3.375  1.00 20.00     0.000 C 
HETATM   11  C7  UNL     1     -34.779  16.481  -2.404  1.00 20.00     0.005 C 
ENDBRANCH   5  10
TORSDOF 3
ENDMDL
MODEL 8
REMARK VINA RESULT:      -4.2     10.948     11.741
REMARK  3 active torsions:
REMARK  status: ('A' for Active; 'I' for Inactive)
REMARK    1  A    between atoms: C5_5  and  C8_8 
REMARK    2  A    between atoms: C6_6  and  C9_9 
REMARK    3  A    between atoms: C9_9  and  C10_10 
ROOT
HETATM    1  C1  UNL     1     -35.521  16.946  -1.074  1.00 20.00     0.001 C 
HETATM    2  C2  UNL     1     -34.491  17.822  -0.366  1.00 20.00     0.005 C 
HETATM    3  C3  UNL     1     -35.627  17.287  -2.559  1.00 20.00     0.005 C 
HETATM    4  C4  UNL     1     -33.232  18.101  -2.542  1.00 20.00     0.009 C 
HETATM    5  C5  UNL     1     -33.119  17.757  -1.049  1.00 20.00    -0.014 C 
HETATM    6  C6  UNL     1     -34.274  17.247  -3.282  1.00 20.00    -0.013 C 
ENDROOT
BRANCH   6   7
HETATM    7  C9  UNL     1     -33.785  15.811  -3.490  1.00 20.00     0.020 C 
BRANCH   7   8
HETATM    8  C10 UNL     1     -33.146  15.590  -4.853  1.00 20.00     0.115 C 
HETATM    9 CL11 UNL     1     -33.689  16.787  -6.050  1.00 20.00    -0.130 Cl
ENDBRANCH   7   8
ENDBRANCH   6   7
BRANCH   5  10
HETATM   10  C8  UNL     1     -32.129  18.694  -0.356  1.00 20.00     0.000 C 
HETATM   11  C7  UNL     1     -32.467  18.883   1.086  1.00 20.00     0.005 C 
ENDBRANCH   5  10
TORSDOF 3
ENDMDL
MODEL 9
REMARK VINA RESULT:      -4.1     10.594     11.549
REMARK  3 active torsions:
REMARK  status: ('A' for Active; 'I' for Inactive)
REMARK    1  A    between atoms: C5_5  and  C8_8 
REMARK    2  A    between atoms: C6_6  and  C9_9 
REMARK    3  A    between atoms: C9_9  and  C10_10 
ROOT
HETATM    1  C1  UNL     1     -33.093  17.752  -1.412  1.00 20.00     0.001 C 
HETATM    2  C2  UNL     1     -33.523  16.950  -2.637  1.00 20.00     0.005 C 
HETATM    3  C3  UNL     1     -34.126  18.814  -1.042  1.00 20.00     0.005 C 
HETATM    4  C4  UNL     1     -35.948  17.403  -2.082  1.00 20.00     0.009 C 
HETATM    5  C5  UNL     1     -34.913  16.330  -2.454  1.00 20.00    -0.014 C 
HETATM    6  C6  UNL     1     -35.538  18.242  -0.861  1.00 20.00    -0.013 C 
ENDROOT
BRANCH   6   7
HETATM    7  C9  UNL     1     -35.664  17.446   0.441  1.00 20.00     0.020 C 
BRANCH   7   8
HETATM    8  C10 UNL     1     -35.700  18.329   1.679  1.00 20.00     0.115 C 
HETATM    9 CL11 UNL     1     -34.187  18.241   2.609  1.00 20.00    -0.130 Cl
ENDBRANCH   7   8
ENDBRANCH   6   7
BRANCH   5  10
HETATM   10  C8  UNL     1     -35.341  15.588  -3.722  1.00 20.00     0.000 C 
HETATM   11  C7  UNL     1     -34.385  14.497  -4.070  1.00 20.00     0.005 C 
ENDBRANCH   5  10
TORSDOF 3
ENDMDL
