MODEL 1
REMARK VINA RESULT:      -4.8      0.000      0.000
REMARK  3 active torsions:
REMARK  status: ('A' for Active; 'I' for Inactive)
REMARK    1  A    between atoms: C5_5  and  C9_9 
REMARK    2  A    between atoms: C6_6  and  C10_10 
REMARK    3  A    between atoms: C10_10  and  O11_11 
ROOT
HETATM    1  C1  UNL     1     -33.030   4.979   2.674  1.00 20.00     0.001 C 
HETATM    2  C2  UNL     1     -32.338   6.230   2.139  1.00 20.00     0.005 C 
HETATM    3  C3  UNL     1     -34.468   5.267   3.096  1.00 20.00     0.007 C 
HETATM    4  C4  UNL     1     -33.850   7.675   3.559  1.00 20.00     0.011 C 
HETATM    5  C5  UNL     1     -32.399   7.390   3.141  1.00 20.00    -0.014 C 
HETATM    6  C6  UNL     1     -34.582   6.432   4.088  1.00 20.00     0.014 C 
ENDROOT
BRANCH   6   7
HETATM    7  C10 UNL     1     -34.092   6.036   5.484  1.00 20.00     0.118 C 
HETATM    8  C8  UNL     1     -33.968   7.244   6.393  1.00 20.00     0.040 C 
BRANCH   7   9
HETATM    9  O11 UNL     1     -35.010   5.108   6.047  1.00 20.00    -0.396 OA
HETATM   10  H31 UNL     1     -35.301   4.529   5.325  1.00 20.00     0.210 HD
ENDBRANCH   7   9
ENDBRANCH   6   7
BRANCH   5  11
HETATM   11  C9  UNL     1     -31.757   8.645   2.548  1.00 20.00     0.000 C 
HETATM   12  C7  UNL     1     -32.357   8.997   1.226  1.00 20.00     0.005 C 
ENDBRANCH   5  11
TORSDOF 3
ENDMDL
MODEL 2
REMARK VINA RESULT:      -4.3     11.566     12.498
REMARK  3 active torsions:
REMARK  status: ('A' for Active; 'I' for Inactive)
REMARK    1  A    between atoms: C5_5  and  C9_9 
REMARK    2  A    between atoms: C6_6  and  C10_10 
REMARK    3  A    between atoms: C10_10  and  O11_11 
ROOT
HETATM    1  C1  UNL     1     -37.180  14.798  -5.170  1.00 20.00     0.001 C 
HETATM    2  C2  UNL     1     -36.938  15.528  -3.852  1.00 20.00     0.005 C 
HETATM    3  C3  UNL     1     -36.239  13.609  -5.338  1.00 20.00     0.007 C 
HETATM    4  C4  UNL     1     -34.532  14.754  -3.865  1.00 20.00     0.011 C 
HETATM    5  C5  UNL     1     -35.473  15.956  -3.697  1.00 20.00    -0.014 C 
HETATM    6  C6  UNL     1     -34.760  13.986  -5.176  1.00 20.00     0.014 C 
ENDROOT
BRANCH   6   7
HETATM    7  C10 UNL     1     -34.238  14.763  -6.387  1.00 20.00     0.118 C 
HETATM    8  C8  UNL     1     -33.101  15.692  -6.005  1.00 20.00     0.040 C 
BRANCH   7   9
HETATM    9  O11 UNL     1     -33.788  13.838  -7.368  1.00 20.00    -0.396 OA
HETATM   10  H31 UNL     1     -33.181  14.320  -7.951  1.00 20.00     0.210 HD
ENDBRANCH   7   9
ENDBRANCH   6   7
BRANCH   5  11
HETATM   11  C9  UNL     1     -35.251  16.625  -2.339  1.00 20.00     0.000 C 
HETATM   12  C7  UNL     1     -33.817  16.987  -2.133  1.00 20.00     0.005 C 
ENDBRANCH   5  11
TORSDOF 3
ENDMDL
MODEL 3
REMARK VINA RESULT:      -4.2     11.548     12.168
REMARK  3 active torsions:
REMARK  status: ('A' for Active; 'I' for Inactive)
REMARK    1  A    between atoms: C5_5  and  C9_9 
REMARK    2  A    between atoms: C6_6  and  C10_10 
REMARK    3  A    between atoms: C10_10  and  O11_11 
ROOT
HETATM    1  C1  UNL     1     -33.156  14.701  -4.426  1.00 20.00     0.001 C 
HETATM    2  C2  UNL     1     -33.364  15.782  -3.369  1.00 20.00     0.005 C 
HETATM    3  C3  UNL     1     -33.956  14.989  -5.693  1.00 20.00     0.007 C 
HETATM    4  C4  UNL     1     -35.648  16.283  -4.329  1.00 20.00     0.011 C 
HETATM    5  C5  UNL     1     -34.849  15.991  -3.049  1.00 20.00    -0.014 C 
HETATM    6  C6  UNL     1     -35.449  15.221  -5.421  1.00 20.00     0.014 C 
ENDROOT
BRANCH   6   7
HETATM    7  C10 UNL     1     -36.171  13.914  -5.081  1.00 20.00     0.118 C 
HETATM    8  C8  UNL     1     -37.669  14.035  -5.293  1.00 20.00     0.040 C 
BRANCH   7   9
HETATM    9  O11 UNL     1     -35.655  12.876  -5.903  1.00 20.00    -0.396 OA
HETATM   10  H31 UNL     1     -36.313  12.715  -6.598  1.00 20.00     0.210 HD
ENDBRANCH   7   9
ENDBRANCH   6   7
BRANCH   5  11
HETATM   11  C9  UNL     1     -35.025  17.125  -2.038  1.00 20.00     0.000 C 
HETATM   12  C7  UNL     1     -33.726  17.503  -1.405  1.00 20.00     0.005 C 
ENDBRANCH   5  11
TORSDOF 3
ENDMDL
MODEL 4
REMARK VINA RESULT:      -4.2     11.750     12.819
REMARK  3 active torsions:
REMARK  status: ('A' for Active; 'I' for Inactive)
REMARK    1  A    between atoms: C5_5  and  C9_9 
REMARK    2  A    between atoms: C6_6  and  C10_10 
REMARK    3  A    between atoms: C10_10  and  O11_11 
ROOT
HETATM    1  C1  UNL     1     -32.881  15.083  -4.439  1.00 20.00     0.001 C 
HETATM    2  C2  UNL     1     -33.710  15.857  -3.418  1.00 20.00     0.005 C 
HETATM    3  C3  UNL     1     -33.161  15.550  -5.864  1.00 20.00     0.007 C 
HETATM    4  C4  UNL     1     -35.483  16.272  -5.171  1.00 20.00     0.011 C 
HETATM    5  C5  UNL     1     -35.210  15.798  -3.735  1.00 20.00    -0.014 C 
HETATM    6  C6  UNL     1     -34.653  15.522  -6.224  1.00 20.00     0.014 C 
ENDROOT
BRANCH   6   7
HETATM    7  C10 UNL     1     -35.158  14.092  -6.432  1.00 20.00     0.118 C 
HETATM    8  C8  UNL     1     -36.332  14.051  -7.392  1.00 20.00     0.040 C 
BRANCH   7   9
HETATM    9  O11 UNL     1     -34.096  13.299  -6.944  1.00 20.00    -0.396 OA
HETATM   10  H31 UNL     1     -33.537  13.057  -6.189  1.00 20.00     0.210 HD
ENDBRANCH   7   9
ENDBRANCH   6   7
BRANCH   5  11
HETATM   11  C9  UNL     1     -36.002  16.638  -2.733  1.00 20.00     0.000 C 
HETATM   12  C7  UNL     1     -35.231  16.866  -1.475  1.00 20.00     0.005 C 
ENDBRANCH   5  11
TORSDOF 3
ENDMDL
MODEL 5
REMARK VINA RESULT:      -4.1     11.660     12.667
REMARK  3 active torsions:
REMARK  status: ('A' for Active; 'I' for Inactive)
REMARK    1  A    between atoms: C5_5  and  C9_9 
REMARK    2  A    between atoms: C6_6  and  C10_10 
REMARK    3  A    between atoms: C10_10  and  O11_11 
ROOT
HETATM    1  C1  UNL     1     -37.443  15.845  -4.549  1.00 20.00     0.001 C 
HETATM    2  C2  UNL     1     -36.337  16.220  -3.567  1.00 20.00     0.005 C 
HETATM    3  C3  UNL     1     -37.432  14.353  -4.870  1.00 20.00     0.007 C 
HETATM    4  C4  UNL     1     -34.951  14.269  -4.383  1.00 20.00     0.011 C 
HETATM    5  C5  UNL     1     -34.956  15.772  -4.064  1.00 20.00    -0.014 C 
HETATM    6  C6  UNL     1     -36.064  13.854  -5.357  1.00 20.00     0.014 C 
ENDROOT
BRANCH   6   7
HETATM    7  C10 UNL     1     -35.769  14.318  -6.786  1.00 20.00     0.118 C 
HETATM    8  C8  UNL     1     -34.579  13.584  -7.375  1.00 20.00     0.040 C 
BRANCH   7   9
HETATM    9  O11 UNL     1     -36.918  14.086  -7.591  1.00 20.00    -0.396 OA
HETATM   10  H31 UNL     1     -37.511  13.516  -7.075  1.00 20.00     0.210 HD
ENDBRANCH   7   9
ENDBRANCH   6   7
BRANCH   5  11
HETATM   11  C9  UNL     1     -33.881  16.104  -3.028  1.00 20.00     0.000 C 
HETATM   12  C7  UNL     1     -34.447  16.860  -1.871  1.00 20.00     0.005 C 
ENDBRANCH   5  11
TORSDOF 3
ENDMDL
MODEL 6
REMARK VINA RESULT:      -4.1     11.454     13.132
REMARK  3 active torsions:
REMARK  status: ('A' for Active; 'I' for Inactive)
REMARK    1  A    between atoms: C5_5  and  C9_9 
REMARK    2  A    between atoms: C6_6  and  C10_10 
REMARK    3  A    between atoms: C10_10  and  O11_11 
ROOT
HETATM    1  C1  UNL     1     -33.331  18.717  -4.623  1.00 20.00     0.001 C 
HETATM    2  C2  UNL     1     -33.618  18.776  -3.125  1.00 20.00     0.005 C 
HETATM    3  C3  UNL     1     -34.277  17.759  -5.342  1.00 20.00     0.007 C 
HETATM    4  C4  UNL     1     -34.547  16.427  -3.209  1.00 20.00     0.011 C 
HETATM    5  C5  UNL     1     -33.591  17.384  -2.481  1.00 20.00    -0.014 C 
HETATM    6  C6  UNL     1     -34.294  16.355  -4.723  1.00 20.00     0.014 C 
ENDROOT
BRANCH   6   7
HETATM    7  C10 UNL     1     -33.017  15.577  -5.049  1.00 20.00     0.118 C 
HETATM    8  C8  UNL     1     -32.966  14.253  -4.309  1.00 20.00     0.040 C 
BRANCH   7   9
HETATM    9  O11 UNL     1     -32.967  15.342  -6.450  1.00 20.00    -0.396 OA
HETATM   10  H31 UNL     1     -32.868  16.208  -6.877  1.00 20.00     0.210 HD
ENDBRANCH   7   9
ENDBRANCH   6   7
BRANCH   5  11
HETATM   11  C9  UNL     1     -33.947  17.473  -0.998  1.00 20.00     0.000 C 
HETATM   12  C7  UNL     1     -35.398  17.206  -0.764  1.00 20.00     0.005 C 
ENDBRANCH   5  11
TORSDOF 3
ENDMDL
MODEL 7
REMARK VINA RESULT:      -4.0     11.631     12.587
REMARK  3 active torsions:
REMARK  status: ('A' for Active; 'I' for Inactive)
REMARK    1  A    between atoms: C5_5  and  C9_9 
REMARK    2  A    between atoms: C6_6  and  C10_10 
REMARK    3  A    between atoms: C10_10  and  O11_11 
ROOT
HETATM    1  C1  UNL     1     -33.356  16.790  -4.755  1.00 20.00     0.001 C 
HETATM    2  C2  UNL     1     -33.201  15.868  -5.962  1.00 20.00     0.005 C 
HETATM    3  C3  UNL     1     -33.792  16.022  -3.511  1.00 20.00     0.007 C 
HETATM    4  C4  UNL     1     -34.906  14.286  -4.974  1.00 20.00     0.011 C 
HETATM    5  C5  UNL     1     -34.475  15.058  -6.231  1.00 20.00    -0.014 C 
HETATM    6  C6  UNL     1     -35.058  15.182  -3.735  1.00 20.00     0.014 C 
ENDROOT
BRANCH   6   7
HETATM    7  C10 UNL     1     -36.310  16.058  -3.818  1.00 20.00     0.118 C 
HETATM    8  C8  UNL     1     -37.516  15.262  -4.281  1.00 20.00     0.040 C 
BRANCH   7   9
HETATM    9  O11 UNL     1     -36.569  16.611  -2.535  1.00 20.00    -0.396 OA
HETATM   10  H31 UNL     1     -37.531  16.584  -2.406  1.00 20.00     0.210 HD
ENDBRANCH   7   9
ENDBRANCH   6   7
BRANCH   5  11
HETATM   11  C9  UNL     1     -34.263  14.099  -7.403  1.00 20.00     0.000 C 
HETATM   12  C7  UNL     1     -35.170  12.915  -7.316  1.00 20.00     0.005 C 
ENDBRANCH   5  11
TORSDOF 3
ENDMDL
MODEL 8
REMARK VINA RESULT:      -4.0     11.501     12.368
REMARK  3 active torsions:
REMARK  status: ('A' for Active; 'I' for Inactive)
REMARK    1  A    between atoms: C5_5  and  C9_9 
REMARK    2  A    between atoms: C6_6  and  C10_10 
REMARK    3  A    between atoms: C10_10  and  O11_11 
ROOT
HETATM    1  C1  UNL     1     -34.751  14.096  -4.950  1.00 20.00     0.001 C 
HETATM    2  C2  UNL     1     -34.103  14.998  -3.903  1.00 20.00     0.005 C 
HETATM    3  C3  UNL     1     -35.620  14.892  -5.920  1.00 20.00     0.007 C 
HETATM    4  C4  UNL     1     -36.012  16.638  -4.134  1.00 20.00     0.011 C 
HETATM    5  C5  UNL     1     -35.143  15.839  -3.151  1.00 20.00    -0.014 C 
HETATM    6  C6  UNL     1     -36.668  15.762  -5.212  1.00 20.00     0.014 C 
ENDROOT
BRANCH   6   7
HETATM    7  C10 UNL     1     -37.811  14.920  -4.642  1.00 20.00     0.118 C 
HETATM    8  C8  UNL     1     -39.025  15.772  -4.321  1.00 20.00     0.040 C 
BRANCH   7   9
HETATM    9  O11 UNL     1     -38.166  13.923  -5.591  1.00 20.00    -0.396 OA
HETATM   10  H31 UNL     1     -38.991  13.519  -5.278  1.00 20.00     0.210 HD
ENDBRANCH   7   9
ENDBRANCH   6   7
BRANCH   5  11
HETATM   11  C9  UNL     1     -34.456  16.777  -2.158  1.00 20.00     0.000 C 
HETATM   12  C7  UNL     1     -35.335  17.079  -0.989  1.00 20.00     0.005 C 
ENDBRANCH   5  11
TORSDOF 3
ENDMDL
MODEL 9
REMARK VINA RESULT:      -4.0      2.402      4.267
REMARK  3 active torsions:
REMARK  status: ('A' for Active; 'I' for Inactive)
REMARK    1  A    between atoms: C5_5  and  C9_9 
REMARK    2  A    between atoms: C6_6  and  C10_10 
REMARK    3  A    between atoms: C10_10  and  O11_11 
ROOT
HETATM    1  C1  UNL     1     -33.558   6.118   1.984  1.00 20.00     0.001 C 
HETATM    2  C2  UNL     1     -33.749   6.072   3.498  1.00 20.00     0.005 C 
HETATM    3  C3  UNL     1     -32.232   6.769   1.601  1.00 20.00     0.007 C 
HETATM    4  C4  UNL     1     -32.272   8.109   3.745  1.00 20.00     0.011 C 
HETATM    5  C5  UNL     1     -33.610   7.462   4.134  1.00 20.00    -0.014 C 
HETATM    6  C6  UNL     1     -32.041   8.157   2.227  1.00 20.00     0.014 C 
ENDROOT
BRANCH   6   7
HETATM    7  C10 UNL     1     -32.925   9.209   1.552  1.00 20.00     0.118 C 
HETATM    8  C8  UNL     1     -32.421  10.615   1.818  1.00 20.00     0.040 C 
BRANCH   7   9
HETATM    9  O11 UNL     1     -32.940   8.965   0.152  1.00 20.00    -0.396 OA
HETATM   10  H31 UNL     1     -33.642   8.315  -0.012  1.00 20.00     0.210 HD
ENDBRANCH   7   9
ENDBRANCH   6   7
BRANCH   5  11
HETATM   11  C9  UNL     1     -33.740   7.370   5.654  1.00 20.00     0.000 C 
HETATM   12  C7  UNL     1     -34.424   6.110   6.073  1.00 20.00     0.005 C 
ENDBRANCH   5  11
TORSDOF 3
ENDMDL
