MODEL 1
REMARK VINA RESULT:      -5.9      0.000      0.000
REMARK  3 active torsions:
REMARK  status: ('A' for Active; 'I' for Inactive)
REMARK    1  A    between atoms: C1_1  and  C6_6 
REMARK    2  A    between atoms: C1_1  and  C10_10 
REMARK    3  A    between atoms: C7_7  and  C11_11 
ROOT
HETATM    1  C2  UNL     1     -33.827   7.556   6.112  1.00 20.00     0.001 C 
HETATM    2  C3  UNL     1     -32.806   8.060   5.095  1.00 20.00     0.012 C 
HETATM    3  C4  UNL     1     -34.174   6.087   5.880  1.00 20.00     0.005 C 
HETATM    4  C5  UNL     1     -33.619   6.345   3.427  1.00 20.00     0.016 C 
HETATM    5  C6  UNL     1     -33.284   7.814   3.669  1.00 20.00     0.055 C 
HETATM    6  C7  UNL     1     -34.653   5.836   4.443  1.00 20.00    -0.014 C 
ENDROOT
BRANCH   5   7
HETATM    7  C1  UNL     1     -32.149   8.186   2.734  1.00 20.00     0.130 C 
HETATM    8  O12 UNL     1     -30.978   8.142   3.108  1.00 20.00    -0.298 OA
BRANCH   7   9
HETATM    9  C10 UNL     1     -32.550   8.608   1.332  1.00 20.00     0.074 C 
HETATM   10  C8  UNL     1     -32.571  10.116   1.160  1.00 20.00     0.013 C 
ENDBRANCH   7   9
ENDBRANCH   5   7
BRANCH   6  11
HETATM   11  C11 UNL     1     -34.942   4.353   4.222  1.00 20.00     0.000 C 
HETATM   12  C9  UNL     1     -33.683   3.557   4.107  1.00 20.00     0.005 C 
ENDBRANCH   6  11
TORSDOF 3
ENDMDL
MODEL 2
REMARK VINA RESULT:      -5.4      1.729      4.813
REMARK  3 active torsions:
REMARK  status: ('A' for Active; 'I' for Inactive)
REMARK    1  A    between atoms: C1_1  and  C6_6 
REMARK    2  A    between atoms: C1_1  and  C10_10 
REMARK    3  A    between atoms: C7_7  and  C11_11 
ROOT
HETATM    1  C2  UNL     1     -31.724   8.374   4.298  1.00 20.00     0.001 C 
HETATM    2  C3  UNL     1     -32.943   7.481   4.510  1.00 20.00     0.012 C 
HETATM    3  C4  UNL     1     -31.800   9.124   2.969  1.00 20.00     0.005 C 
HETATM    4  C5  UNL     1     -33.230   7.273   2.009  1.00 20.00     0.016 C 
HETATM    5  C6  UNL     1     -33.138   6.528   3.337  1.00 20.00     0.055 C 
HETATM    6  C7  UNL     1     -32.000   8.166   1.786  1.00 20.00    -0.014 C 
ENDROOT
BRANCH   5   7
HETATM    7  C1  UNL     1     -34.454   5.803   3.549  1.00 20.00     0.130 C 
HETATM    8  O12 UNL     1     -35.502   6.236   3.073  1.00 20.00    -0.298 OA
BRANCH   7   9
HETATM    9  C10 UNL     1     -34.389   4.531   4.375  1.00 20.00     0.074 C 
HETATM   10  C8  UNL     1     -34.620   4.782   5.854  1.00 20.00     0.013 C 
ENDBRANCH   7   9
ENDBRANCH   5   7
BRANCH   6  11
HETATM   11  C11 UNL     1     -32.127   8.944   0.478  1.00 20.00     0.000 C 
HETATM   12  C9  UNL     1     -32.641  10.328   0.707  1.00 20.00     0.005 C 
ENDBRANCH   6  11
TORSDOF 3
ENDMDL
MODEL 3
REMARK VINA RESULT:      -5.1     11.297     12.031
REMARK  3 active torsions:
REMARK  status: ('A' for Active; 'I' for Inactive)
REMARK    1  A    between atoms: C1_1  and  C6_6 
REMARK    2  A    between atoms: C1_1  and  C10_10 
REMARK    3  A    between atoms: C7_7  and  C11_11 
ROOT
HETATM    1  C2  UNL     1     -35.661  17.550  -0.662  1.00 20.00     0.001 C 
HETATM    2  C3  UNL     1     -34.425  17.888   0.168  1.00 20.00     0.012 C 
HETATM    3  C4  UNL     1     -35.320  16.620  -1.825  1.00 20.00     0.005 C 
HETATM    4  C5  UNL     1     -32.962  17.532  -1.860  1.00 20.00     0.016 C 
HETATM    5  C6  UNL     1     -33.317  18.464  -0.705  1.00 20.00     0.055 C 
HETATM    6  C7  UNL     1     -34.201  17.196  -2.705  1.00 20.00    -0.014 C 
ENDROOT
BRANCH   5   7
HETATM    7  C1  UNL     1     -32.081  18.612   0.162  1.00 20.00     0.130 C 
HETATM    8  O12 UNL     1     -30.965  18.325  -0.269  1.00 20.00    -0.298 OA
BRANCH   7   9
HETATM    9  C10 UNL     1     -32.312  19.127   1.571  1.00 20.00     0.074 C 
HETATM   10  C8  UNL     1     -31.058  19.078   2.424  1.00 20.00     0.013 C 
ENDBRANCH   7   9
ENDBRANCH   5   7
BRANCH   6  11
HETATM   11  C11 UNL     1     -33.842  16.223  -3.827  1.00 20.00     0.000 C 
HETATM   12  C9  UNL     1     -34.687  14.992  -3.780  1.00 20.00     0.005 C 
ENDBRANCH   6  11
TORSDOF 3
ENDMDL
MODEL 4
REMARK VINA RESULT:      -4.8     11.453     12.405
REMARK  3 active torsions:
REMARK  status: ('A' for Active; 'I' for Inactive)
REMARK    1  A    between atoms: C1_1  and  C6_6 
REMARK    2  A    between atoms: C1_1  and  C10_10 
REMARK    3  A    between atoms: C7_7  and  C11_11 
ROOT
HETATM    1  C2  UNL     1     -36.866  17.092  -3.868  1.00 20.00     0.001 C 
HETATM    2  C3  UNL     1     -36.569  15.941  -4.826  1.00 20.00     0.012 C 
HETATM    3  C4  UNL     1     -35.586  17.655  -3.252  1.00 20.00     0.005 C 
HETATM    4  C5  UNL     1     -34.462  15.408  -3.537  1.00 20.00     0.016 C 
HETATM    5  C6  UNL     1     -35.749  14.854  -4.142  1.00 20.00     0.055 C 
HETATM    6  C7  UNL     1     -34.757  16.561  -2.565  1.00 20.00    -0.014 C 
ENDROOT
BRANCH   5   7
HETATM    7  C1  UNL     1     -35.359  13.840  -5.200  1.00 20.00     0.130 C 
HETATM    8  O12 UNL     1     -35.927  12.752  -5.277  1.00 20.00    -0.298 OA
BRANCH   7   9
HETATM    9  C10 UNL     1     -34.241  14.252  -6.140  1.00 20.00     0.074 C 
HETATM   10  C8  UNL     1     -34.432  13.717  -7.547  1.00 20.00     0.013 C 
ENDBRANCH   7   9
ENDBRANCH   5   7
BRANCH   6  11
HETATM   11  C11 UNL     1     -33.458  17.140  -2.005  1.00 20.00     0.000 C 
HETATM   12  C9  UNL     1     -33.706  17.983  -0.797  1.00 20.00     0.005 C 
ENDBRANCH   6  11
TORSDOF 3
ENDMDL
MODEL 5
REMARK VINA RESULT:      -4.8     11.300     12.223
REMARK  3 active torsions:
REMARK  status: ('A' for Active; 'I' for Inactive)
REMARK    1  A    between atoms: C1_1  and  C6_6 
REMARK    2  A    between atoms: C1_1  and  C10_10 
REMARK    3  A    between atoms: C7_7  and  C11_11 
ROOT
HETATM    1  C2  UNL     1     -33.323  16.036  -6.087  1.00 20.00     0.001 C 
HETATM    2  C3  UNL     1     -33.414  16.850  -4.798  1.00 20.00     0.012 C 
HETATM    3  C4  UNL     1     -34.551  15.148  -6.279  1.00 20.00     0.005 C 
HETATM    4  C5  UNL     1     -34.884  15.068  -3.774  1.00 20.00     0.016 C 
HETATM    5  C6  UNL     1     -33.650  15.947  -3.593  1.00 20.00     0.055 C 
HETATM    6  C7  UNL     1     -34.792  14.240  -5.065  1.00 20.00    -0.014 C 
ENDROOT
BRANCH   5   7
HETATM    7  C1  UNL     1     -33.894  16.841  -2.392  1.00 20.00     0.130 C 
HETATM    8  O12 UNL     1     -33.014  17.586  -1.965  1.00 20.00    -0.298 OA
BRANCH   7   9
HETATM    9  C10 UNL     1     -35.273  16.752  -1.764  1.00 20.00     0.074 C 
HETATM   10  C8  UNL     1     -35.328  17.378  -0.383  1.00 20.00     0.013 C 
ENDBRANCH   7   9
ENDBRANCH   5   7
BRANCH   6  11
HETATM   11  C11 UNL     1     -36.055  13.403  -5.260  1.00 20.00     0.000 C 
HETATM   12  C9  UNL     1     -37.287  14.247  -5.223  1.00 20.00     0.005 C 
ENDBRANCH   6  11
TORSDOF 3
ENDMDL
MODEL 6
REMARK VINA RESULT:      -4.6      1.315      2.541
REMARK  3 active torsions:
REMARK  status: ('A' for Active; 'I' for Inactive)
REMARK    1  A    between atoms: C1_1  and  C6_6 
REMARK    2  A    between atoms: C1_1  and  C10_10 
REMARK    3  A    between atoms: C7_7  and  C11_11 
ROOT
HETATM    1  C2  UNL     1     -33.246   5.395   2.360  1.00 20.00     0.001 C 
HETATM    2  C3  UNL     1     -32.949   6.713   1.650  1.00 20.00     0.012 C 
HETATM    3  C4  UNL     1     -34.007   5.617   3.665  1.00 20.00     0.005 C 
HETATM    4  C5  UNL     1     -32.978   7.918   3.871  1.00 20.00     0.016 C 
HETATM    5  C6  UNL     1     -32.215   7.680   2.571  1.00 20.00     0.055 C 
HETATM    6  C7  UNL     1     -33.270   6.594   4.593  1.00 20.00    -0.014 C 
ENDROOT
BRANCH   5   7
HETATM    7  C1  UNL     1     -32.111   9.010   1.849  1.00 20.00     0.130 C 
HETATM    8  O12 UNL     1     -32.168  10.073   2.465  1.00 20.00    -0.298 OA
BRANCH   7   9
HETATM    9  C10 UNL     1     -31.936   8.941   0.343  1.00 20.00     0.074 C 
HETATM   10  C8  UNL     1     -33.098   9.563  -0.410  1.00 20.00     0.013 C 
ENDBRANCH   7   9
ENDBRANCH   5   7
BRANCH   6  11
HETATM   11  C11 UNL     1     -34.078   6.841   5.866  1.00 20.00     0.000 C 
HETATM   12  C9  UNL     1     -34.896   5.648   6.241  1.00 20.00     0.005 C 
ENDBRANCH   6  11
TORSDOF 3
ENDMDL
MODEL 7
REMARK VINA RESULT:      -4.6     11.102     11.987
REMARK  3 active torsions:
REMARK  status: ('A' for Active; 'I' for Inactive)
REMARK    1  A    between atoms: C1_1  and  C6_6 
REMARK    2  A    between atoms: C1_1  and  C10_10 
REMARK    3  A    between atoms: C7_7  and  C11_11 
ROOT
HETATM    1  C2  UNL     1     -32.834  18.355  -1.510  1.00 20.00     0.001 C 
HETATM    2  C3  UNL     1     -33.403  17.295  -2.450  1.00 20.00     0.012 C 
HETATM    3  C4  UNL     1     -33.358  18.185  -0.086  1.00 20.00     0.005 C 
HETATM    4  C5  UNL     1     -35.457  17.102  -0.990  1.00 20.00     0.016 C 
HETATM    5  C6  UNL     1     -34.927  17.286  -2.409  1.00 20.00     0.055 C 
HETATM    6  C7  UNL     1     -34.893  18.173  -0.043  1.00 20.00    -0.014 C 
ENDROOT
BRANCH   5   7
HETATM    7  C1  UNL     1     -35.400  16.104  -3.233  1.00 20.00     0.130 C 
HETATM    8  O12 UNL     1     -36.594  15.937  -3.476  1.00 20.00    -0.298 OA
BRANCH   7   9
HETATM    9  C10 UNL     1     -34.320  15.159  -3.727  1.00 20.00     0.074 C 
HETATM   10  C8  UNL     1     -34.886  13.954  -4.456  1.00 20.00     0.013 C 
ENDBRANCH   7   9
ENDBRANCH   5   7
BRANCH   6  11
HETATM   11  C11 UNL     1     -35.390  17.947   1.384  1.00 20.00     0.000 C 
HETATM   12  C9  UNL     1     -34.364  18.343   2.395  1.00 20.00     0.005 C 
ENDBRANCH   6  11
TORSDOF 3
ENDMDL
MODEL 8
REMARK VINA RESULT:      -4.5     11.577     12.353
REMARK  3 active torsions:
REMARK  status: ('A' for Active; 'I' for Inactive)
REMARK    1  A    between atoms: C1_1  and  C6_6 
REMARK    2  A    between atoms: C1_1  and  C10_10 
REMARK    3  A    between atoms: C7_7  and  C11_11 
ROOT
HETATM    1  C2  UNL     1     -33.316  15.741  -4.376  1.00 20.00     0.001 C 
HETATM    2  C3  UNL     1     -34.311  14.698  -4.877  1.00 20.00     0.012 C 
HETATM    3  C4  UNL     1     -33.655  16.207  -2.962  1.00 20.00     0.005 C 
HETATM    4  C5  UNL     1     -36.091  15.666  -3.368  1.00 20.00     0.016 C 
HETATM    5  C6  UNL     1     -35.743  15.213  -4.783  1.00 20.00     0.055 C 
HETATM    6  C7  UNL     1     -35.098  16.724  -2.863  1.00 20.00    -0.014 C 
ENDROOT
BRANCH   5   7
HETATM    7  C1  UNL     1     -36.667  14.064  -5.138  1.00 20.00     0.130 C 
HETATM    8  O12 UNL     1     -36.237  12.919  -5.267  1.00 20.00    -0.298 OA
BRANCH   7   9
HETATM    9  C10 UNL     1     -38.132  14.418  -5.319  1.00 20.00     0.074 C 
HETATM   10  C8  UNL     1     -38.346  15.510  -6.352  1.00 20.00     0.013 C 
ENDBRANCH   7   9
ENDBRANCH   5   7
BRANCH   6  11
HETATM   11  C11 UNL     1     -35.427  17.132  -1.428  1.00 20.00     0.000 C 
HETATM   12  C9  UNL     1     -34.227  17.668  -0.718  1.00 20.00     0.005 C 
ENDBRANCH   6  11
TORSDOF 3
ENDMDL
MODEL 9
REMARK VINA RESULT:      -4.5     11.221     12.503
REMARK  3 active torsions:
REMARK  status: ('A' for Active; 'I' for Inactive)
REMARK    1  A    between atoms: C1_1  and  C6_6 
REMARK    2  A    between atoms: C1_1  and  C10_10 
REMARK    3  A    between atoms: C7_7  and  C11_11 
ROOT
HETATM    1  C2  UNL     1     -33.638  17.968  -4.851  1.00 20.00     0.001 C 
HETATM    2  C3  UNL     1     -33.685  16.475  -5.165  1.00 20.00     0.012 C 
HETATM    3  C4  UNL     1     -33.353  18.223  -3.373  1.00 20.00     0.005 C 
HETATM    4  C5  UNL     1     -34.395  15.995  -2.788  1.00 20.00     0.016 C 
HETATM    5  C6  UNL     1     -34.685  15.755  -4.267  1.00 20.00     0.055 C 
HETATM    6  C7  UNL     1     -34.357  17.497  -2.466  1.00 20.00    -0.014 C 
ENDROOT
BRANCH   5   7
HETATM    7  C1  UNL     1     -34.546  14.267  -4.527  1.00 20.00     0.130 C 
HETATM    8  O12 UNL     1     -33.484  13.682  -4.318  1.00 20.00    -0.298 OA
BRANCH   7   9
HETATM    9  C10 UNL     1     -35.783  13.563  -5.052  1.00 20.00     0.074 C 
HETATM   10  C8  UNL     1     -37.018  14.446  -5.015  1.00 20.00     0.013 C 
ENDBRANCH   7   9
ENDBRANCH   5   7
BRANCH   6  11
HETATM   11  C11 UNL     1     -34.017  17.725  -0.994  1.00 20.00     0.000 C 
HETATM   12  C9  UNL     1     -32.696  18.404  -0.832  1.00 20.00     0.005 C 
ENDBRANCH   6  11
TORSDOF 3
ENDMDL
