MODEL 1
REMARK VINA RESULT:      -6.5      0.000      0.000
REMARK  2 active torsions:
REMARK  status: ('A' for Active; 'I' for Inactive)
REMARK    1  A    between atoms: C8_8  and  C12_12 
REMARK    2  A    between atoms: C11_11  and  N13_13 
ROOT
HETATM    1  C1  UNL     1     -33.285   9.510  -0.592  1.00 20.00     0.013 C 
HETATM    2  C2  UNL     1     -32.665   9.346   0.424  1.00 20.00    -0.087 C 
HETATM    3  C11 UNL     1     -31.907   9.151   1.662  1.00 20.00     0.364 C 
ENDROOT
BRANCH   3   4
HETATM    4  N13 UNL     1     -32.617   8.245   2.566  1.00 20.00     0.099 N 
HETATM    5  C6  UNL     1     -31.936   8.143   3.858  1.00 20.00     0.273 C 
HETATM    6  C3  UNL     1     -32.827   7.624   5.005  1.00 20.00     0.031 C 
HETATM    7  C4  UNL     1     -34.290   7.362   4.633  1.00 20.00     0.007 C 
HETATM    8  C8  UNL     1     -34.508   6.137   3.722  1.00 20.00    -0.010 C 
HETATM    9  C5  UNL     1     -33.318   5.804   2.808  1.00 20.00     0.035 C 
HETATM   10  C7  UNL     1     -32.844   6.951   1.910  1.00 20.00     0.274 C 
BRANCH   8  11
HETATM   11  C12 UNL     1     -34.850   4.904   4.568  1.00 20.00    -0.019 C 
HETATM   12  C9  UNL     1     -33.929   3.744   4.211  1.00 20.00     0.010 C 
HETATM   13  C10 UNL     1     -34.754   5.237   6.053  1.00 20.00     0.010 C 
ENDBRANCH   8  11
ENDBRANCH   3   4
TORSDOF 2
ENDMDL
MODEL 2
REMARK VINA RESULT:      -5.1     10.954     11.978
REMARK  2 active torsions:
REMARK  status: ('A' for Active; 'I' for Inactive)
REMARK    1  A    between atoms: C8_8  and  C12_12 
REMARK    2  A    between atoms: C11_11  and  N13_13 
ROOT
HETATM    1  C1  UNL     1     -34.060  14.059  -7.898  1.00 20.00     0.013 C 
HETATM    2  C2  UNL     1     -34.774  13.850  -6.955  1.00 20.00    -0.087 C 
HETATM    3  C11 UNL     1     -35.646  13.589  -5.807  1.00 20.00     0.364 C 
ENDROOT
BRANCH   3   4
HETATM    4  N13 UNL     1     -35.569  14.686  -4.841  1.00 20.00     0.099 N 
HETATM    5  C6  UNL     1     -35.910  15.966  -5.463  1.00 20.00     0.273 C 
HETATM    6  C3  UNL     1     -36.324  17.067  -4.465  1.00 20.00     0.031 C 
HETATM    7  C4  UNL     1     -36.378  16.633  -2.997  1.00 20.00     0.007 C 
HETATM    8  C8  UNL     1     -34.999  16.374  -2.356  1.00 20.00    -0.010 C 
HETATM    9  C5  UNL     1     -33.913  15.920  -3.344  1.00 20.00     0.035 C 
HETATM   10  C7  UNL     1     -34.262  14.680  -4.172  1.00 20.00     0.274 C 
BRANCH   8  11
HETATM   11  C12 UNL     1     -34.514  17.631  -1.621  1.00 20.00    -0.019 C 
HETATM   12  C9  UNL     1     -35.038  17.644  -0.190  1.00 20.00     0.010 C 
HETATM   13  C10 UNL     1     -32.991  17.704  -1.643  1.00 20.00     0.010 C 
ENDBRANCH   8  11
ENDBRANCH   3   4
TORSDOF 2
ENDMDL
MODEL 3
REMARK VINA RESULT:      -5.0     10.957     11.910
REMARK  2 active torsions:
REMARK  status: ('A' for Active; 'I' for Inactive)
REMARK    1  A    between atoms: C8_8  and  C12_12 
REMARK    2  A    between atoms: C11_11  and  N13_13 
ROOT
HETATM    1  C1  UNL     1     -34.204  14.829  -7.135  1.00 20.00     0.013 C 
HETATM    2  C2  UNL     1     -34.647  14.500  -6.068  1.00 20.00    -0.087 C 
HETATM    3  C11 UNL     1     -35.188  14.094  -4.769  1.00 20.00     0.364 C 
ENDROOT
BRANCH   3   4
HETATM    4  N13 UNL     1     -35.056  15.177  -3.793  1.00 20.00     0.099 N 
HETATM    5  C6  UNL     1     -36.022  16.246  -4.053  1.00 20.00     0.273 C 
HETATM    6  C3  UNL     1     -36.292  17.166  -2.845  1.00 20.00     0.031 C 
HETATM    7  C4  UNL     1     -35.564  16.781  -1.553  1.00 20.00     0.007 C 
HETATM    8  C8  UNL     1     -34.042  17.026  -1.579  1.00 20.00    -0.010 C 
HETATM    9  C5  UNL     1     -33.408  16.944  -2.976  1.00 20.00     0.035 C 
HETATM   10  C7  UNL     1     -33.663  15.637  -3.732  1.00 20.00     0.274 C 
BRANCH   8  11
HETATM   11  C12 UNL     1     -33.717  18.393  -0.961  1.00 20.00    -0.019 C 
HETATM   12  C9  UNL     1     -34.553  18.620   0.293  1.00 20.00     0.010 C 
HETATM   13  C10 UNL     1     -32.229  18.493  -0.648  1.00 20.00     0.010 C 
ENDBRANCH   8  11
ENDBRANCH   3   4
TORSDOF 2
ENDMDL
MODEL 4
REMARK VINA RESULT:      -4.9     10.878     11.865
REMARK  2 active torsions:
REMARK  status: ('A' for Active; 'I' for Inactive)
REMARK    1  A    between atoms: C8_8  and  C12_12 
REMARK    2  A    between atoms: C11_11  and  N13_13 
ROOT
HETATM    1  C1  UNL     1     -35.447  17.381  -0.072  1.00 20.00     0.013 C 
HETATM    2  C2  UNL     1     -34.589  17.359  -0.913  1.00 20.00    -0.087 C 
HETATM    3  C11 UNL     1     -33.540  17.334  -1.935  1.00 20.00     0.364 C 
ENDROOT
BRANCH   3   4
HETATM    4  N13 UNL     1     -33.891  16.409  -3.013  1.00 20.00     0.099 N 
HETATM    5  C6  UNL     1     -33.465  16.926  -4.316  1.00 20.00     0.273 C 
HETATM    6  C3  UNL     1     -33.348  15.852  -5.417  1.00 20.00     0.031 C 
HETATM    7  C4  UNL     1     -33.627  14.415  -4.964  1.00 20.00     0.007 C 
HETATM    8  C8  UNL     1     -35.106  14.122  -4.641  1.00 20.00    -0.010 C 
HETATM    9  C5  UNL     1     -35.906  15.343  -4.159  1.00 20.00     0.035 C 
HETATM   10  C7  UNL     1     -35.318  16.070  -2.946  1.00 20.00     0.274 C 
BRANCH   8  11
HETATM   11  C12 UNL     1     -35.804  13.519  -5.867  1.00 20.00    -0.019 C 
HETATM   12  C9  UNL     1     -36.938  14.425  -6.332  1.00 20.00     0.010 C 
HETATM   13  C10 UNL     1     -34.799  13.287  -6.989  1.00 20.00     0.010 C 
ENDBRANCH   8  11
ENDBRANCH   3   4
TORSDOF 2
ENDMDL
MODEL 5
REMARK VINA RESULT:      -4.8     11.264     12.033
REMARK  2 active torsions:
REMARK  status: ('A' for Active; 'I' for Inactive)
REMARK    1  A    between atoms: C8_8  and  C12_12 
REMARK    2  A    between atoms: C11_11  and  N13_13 
ROOT
HETATM    1  C1  UNL     1     -38.477  14.681  -4.915  1.00 20.00     0.013 C 
HETATM    2  C2  UNL     1     -37.289  14.770  -4.761  1.00 20.00    -0.087 C 
HETATM    3  C11 UNL     1     -35.839  14.876  -4.579  1.00 20.00     0.364 C 
ENDROOT
BRANCH   3   4
HETATM    4  N13 UNL     1     -35.521  15.833  -3.518  1.00 20.00     0.099 N 
HETATM    5  C6  UNL     1     -36.204  17.110  -3.734  1.00 20.00     0.273 C 
HETATM    6  C3  UNL     1     -36.327  17.985  -2.470  1.00 20.00     0.031 C 
HETATM    7  C4  UNL     1     -35.780  17.359  -1.183  1.00 20.00     0.007 C 
HETATM    8  C8  UNL     1     -34.243  17.249  -1.128  1.00 20.00    -0.010 C 
HETATM    9  C5  UNL     1     -33.565  17.115  -2.501  1.00 20.00     0.035 C 
HETATM   10  C7  UNL     1     -34.067  15.954  -3.365  1.00 20.00     0.274 C 
BRANCH   8  11
HETATM   11  C12 UNL     1     -33.653  18.460  -0.394  1.00 20.00    -0.019 C 
HETATM   12  C9  UNL     1     -34.112  18.475   1.060  1.00 20.00     0.010 C 
HETATM   13  C10 UNL     1     -32.131  18.444  -0.483  1.00 20.00     0.010 C 
ENDBRANCH   8  11
ENDBRANCH   3   4
TORSDOF 2
ENDMDL
MODEL 6
REMARK VINA RESULT:      -4.8     11.221     12.250
REMARK  2 active torsions:
REMARK  status: ('A' for Active; 'I' for Inactive)
REMARK    1  A    between atoms: C8_8  and  C12_12 
REMARK    2  A    between atoms: C11_11  and  N13_13 
ROOT
HETATM    1  C1  UNL     1     -30.677  18.878   2.013  1.00 20.00     0.013 C 
HETATM    2  C2  UNL     1     -31.872  18.924   1.903  1.00 20.00    -0.087 C 
HETATM    3  C11 UNL     1     -33.331  18.984   1.774  1.00 20.00     0.364 C 
ENDROOT
BRANCH   3   4
HETATM    4  N13 UNL     1     -33.760  18.401   0.502  1.00 20.00     0.099 N 
HETATM    5  C6  UNL     1     -33.399  19.263  -0.626  1.00 20.00     0.273 C 
HETATM    6  C3  UNL     1     -33.365  18.543  -1.989  1.00 20.00     0.031 C 
HETATM    7  C4  UNL     1     -33.644  17.038  -1.943  1.00 20.00     0.007 C 
HETATM    8  C8  UNL     1     -35.108  16.669  -1.628  1.00 20.00    -0.010 C 
HETATM    9  C5  UNL     1     -35.856  17.706  -0.775  1.00 20.00     0.035 C 
HETATM   10  C7  UNL     1     -35.186  18.060   0.557  1.00 20.00     0.274 C 
BRANCH   8  11
HETATM   11  C12 UNL     1     -35.886  16.437  -2.930  1.00 20.00    -0.019 C 
HETATM   12  C9  UNL     1     -36.501  17.743  -3.420  1.00 20.00     0.010 C 
HETATM   13  C10 UNL     1     -34.975  15.833  -3.992  1.00 20.00     0.010 C 
ENDBRANCH   8  11
ENDBRANCH   3   4
TORSDOF 2
ENDMDL
MODEL 7
REMARK VINA RESULT:      -4.5     11.008     12.171
REMARK  2 active torsions:
REMARK  status: ('A' for Active; 'I' for Inactive)
REMARK    1  A    between atoms: C8_8  and  C12_12 
REMARK    2  A    between atoms: C11_11  and  N13_13 
ROOT
HETATM    1  C1  UNL     1     -38.612  16.064  -6.905  1.00 20.00     0.013 C 
HETATM    2  C2  UNL     1     -37.693  15.333  -6.653  1.00 20.00    -0.087 C 
HETATM    3  C11 UNL     1     -36.573  14.438  -6.351  1.00 20.00     0.364 C 
ENDROOT
BRANCH   3   4
HETATM    4  N13 UNL     1     -35.708  15.021  -5.325  1.00 20.00     0.099 N 
HETATM    5  C6  UNL     1     -34.654  14.087  -4.926  1.00 20.00     0.273 C 
HETATM    6  C3  UNL     1     -33.443  14.752  -4.241  1.00 20.00     0.031 C 
HETATM    7  C4  UNL     1     -33.500  16.280  -4.145  1.00 20.00     0.007 C 
HETATM    8  C8  UNL     1     -34.542  16.819  -3.143  1.00 20.00    -0.010 C 
HETATM    9  C5  UNL     1     -35.755  15.900  -2.931  1.00 20.00     0.035 C 
HETATM   10  C7  UNL     1     -36.516  15.520  -4.205  1.00 20.00     0.274 C 
BRANCH   8  11
HETATM   11  C12 UNL     1     -33.877  17.092  -1.787  1.00 20.00    -0.019 C 
HETATM   12  C9  UNL     1     -32.923  18.276  -1.893  1.00 20.00     0.010 C 
HETATM   13  C10 UNL     1     -34.935  17.341  -0.719  1.00 20.00     0.010 C 
ENDBRANCH   8  11
ENDBRANCH   3   4
TORSDOF 2
ENDMDL
MODEL 8
REMARK VINA RESULT:      -4.4     10.894     12.575
REMARK  2 active torsions:
REMARK  status: ('A' for Active; 'I' for Inactive)
REMARK    1  A    between atoms: C8_8  and  C12_12 
REMARK    2  A    between atoms: C11_11  and  N13_13 
ROOT
HETATM    1  C1  UNL     1     -34.923  17.561  -0.475  1.00 20.00     0.013 C 
HETATM    2  C2  UNL     1     -34.209  17.581  -1.441  1.00 20.00    -0.087 C 
HETATM    3  C11 UNL     1     -33.334  17.607  -2.616  1.00 20.00     0.364 C 
ENDROOT
BRANCH   3   4
HETATM    4  N13 UNL     1     -33.893  16.790  -3.694  1.00 20.00     0.099 N 
HETATM    5  C6  UNL     1     -33.603  15.369  -3.487  1.00 20.00     0.273 C 
HETATM    6  C3  UNL     1     -34.528  14.413  -4.267  1.00 20.00     0.031 C 
HETATM    7  C4  UNL     1     -35.639  15.090  -5.076  1.00 20.00     0.007 C 
HETATM    8  C8  UNL     1     -35.147  15.855  -6.322  1.00 20.00    -0.010 C 
HETATM    9  C5  UNL     1     -33.715  16.401  -6.208  1.00 20.00     0.035 C 
HETATM   10  C7  UNL     1     -33.454  17.302  -4.997  1.00 20.00     0.274 C 
BRANCH   8  11
HETATM   11  C12 UNL     1     -35.244  14.960  -7.564  1.00 20.00    -0.019 C 
HETATM   12  C9  UNL     1     -33.874  14.392  -7.918  1.00 20.00     0.010 C 
HETATM   13  C10 UNL     1     -36.253  13.840  -7.333  1.00 20.00     0.010 C 
ENDBRANCH   8  11
ENDBRANCH   3   4
TORSDOF 2
ENDMDL
MODEL 9
REMARK VINA RESULT:      -4.4     11.140     12.407
REMARK  2 active torsions:
REMARK  status: ('A' for Active; 'I' for Inactive)
REMARK    1  A    between atoms: C8_8  and  C12_12 
REMARK    2  A    between atoms: C11_11  and  N13_13 
ROOT
HETATM    1  C1  UNL     1     -34.786  17.772  -0.088  1.00 20.00     0.013 C 
HETATM    2  C2  UNL     1     -34.117  17.924  -1.074  1.00 20.00    -0.087 C 
HETATM    3  C11 UNL     1     -33.297  18.112  -2.273  1.00 20.00     0.364 C 
ENDROOT
BRANCH   3   4
HETATM    4  N13 UNL     1     -33.864  17.379  -3.406  1.00 20.00     0.099 N 
HETATM    5  C6  UNL     1     -35.209  17.862  -3.729  1.00 20.00     0.273 C 
HETATM    6  C3  UNL     1     -35.682  17.514  -5.156  1.00 20.00     0.031 C 
HETATM    7  C4  UNL     1     -34.655  16.783  -6.027  1.00 20.00     0.007 C 
HETATM    8  C8  UNL     1     -34.385  15.323  -5.609  1.00 20.00    -0.010 C 
HETATM    9  C5  UNL     1     -34.596  15.040  -4.113  1.00 20.00     0.035 C 
HETATM   10  C7  UNL     1     -33.794  15.934  -3.162  1.00 20.00     0.274 C 
BRANCH   8  11
HETATM   11  C12 UNL     1     -35.265  14.369  -6.428  1.00 20.00    -0.019 C 
HETATM   12  C9  UNL     1     -34.419  13.606  -7.440  1.00 20.00     0.010 C 
HETATM   13  C10 UNL     1     -36.006  13.408  -5.505  1.00 20.00     0.010 C 
ENDBRANCH   8  11
ENDBRANCH   3   4
TORSDOF 2
ENDMDL
