MODEL 1
REMARK VINA RESULT:      -5.6      0.000      0.000
REMARK  3 active torsions:
REMARK  status: ('A' for Active; 'I' for Inactive)
REMARK    1  A    between atoms: C1_1  and  C9_9 
REMARK    2  A    between atoms: C6_6  and  C9_9 
REMARK    3  A    between atoms: C7_7  and  C10_10 
ROOT
HETATM    1  C2  UNL     1     -32.534   8.247   5.173  1.00 20.00     0.001 C 
HETATM    2  C3  UNL     1     -33.447   7.025   5.205  1.00 20.00     0.005 C 
HETATM    3  C4  UNL     1     -31.698   8.294   3.897  1.00 20.00     0.005 C 
HETATM    4  C5  UNL     1     -33.494   6.997   2.679  1.00 20.00     0.009 C 
HETATM    5  C6  UNL     1     -34.339   6.953   3.959  1.00 20.00    -0.008 C 
HETATM    6  C7  UNL     1     -32.578   8.230   2.643  1.00 20.00    -0.014 C 
ENDROOT
BRANCH   5   7
HETATM    7  C9  UNL     1     -35.208   5.697   3.990  1.00 20.00     0.074 C 
BRANCH   7   8
HETATM    8  C1  UNL     1     -34.569   4.578   4.767  1.00 20.00     0.231 C 
HETATM    9  O11 UNL     1     -34.124   3.545   4.279  1.00 20.00    -0.307 OA
ENDBRANCH   7   8
ENDBRANCH   5   7
BRANCH   6  10
HETATM   10  C10 UNL     1     -31.719   8.226   1.380  1.00 20.00     0.000 C 
HETATM   11  C8  UNL     1     -32.078   9.349   0.465  1.00 20.00     0.005 C 
ENDBRANCH   6  10
TORSDOF 3
ENDMDL
MODEL 2
REMARK VINA RESULT:      -5.1      2.418      4.604
REMARK  3 active torsions:
REMARK  status: ('A' for Active; 'I' for Inactive)
REMARK    1  A    between atoms: C1_1  and  C9_9 
REMARK    2  A    between atoms: C6_6  and  C9_9 
REMARK    3  A    between atoms: C7_7  and  C10_10 
ROOT
HETATM    1  C2  UNL     1     -32.099   8.327   4.780  1.00 20.00     0.001 C 
HETATM    2  C3  UNL     1     -31.827   8.954   3.417  1.00 20.00     0.005 C 
HETATM    3  C4  UNL     1     -33.396   7.523   4.783  1.00 20.00     0.005 C 
HETATM    4  C5  UNL     1     -33.133   7.099   2.304  1.00 20.00     0.009 C 
HETATM    5  C6  UNL     1     -31.826   7.902   2.300  1.00 20.00    -0.008 C 
HETATM    6  C7  UNL     1     -33.405   6.462   3.675  1.00 20.00    -0.014 C 
ENDROOT
BRANCH   5   7
HETATM    7  C9  UNL     1     -31.600   8.560   0.940  1.00 20.00     0.074 C 
BRANCH   7   8
HETATM    8  C1  UNL     1     -32.657   9.581   0.616  1.00 20.00     0.231 C 
HETATM    9  O11 UNL     1     -33.316   9.610  -0.418  1.00 20.00    -0.307 OA
ENDBRANCH   7   8
ENDBRANCH   5   7
BRANCH   6  10
HETATM   10  C10 UNL     1     -34.732   5.705   3.664  1.00 20.00     0.000 C 
HETATM   11  C8  UNL     1     -34.745   4.600   4.667  1.00 20.00     0.005 C 
ENDBRANCH   6  10
TORSDOF 3
ENDMDL
MODEL 3
REMARK VINA RESULT:      -4.9      2.634      4.893
REMARK  3 active torsions:
REMARK  status: ('A' for Active; 'I' for Inactive)
REMARK    1  A    between atoms: C1_1  and  C9_9 
REMARK    2  A    between atoms: C6_6  and  C9_9 
REMARK    3  A    between atoms: C7_7  and  C10_10 
ROOT
HETATM    1  C2  UNL     1     -33.499   4.708   2.571  1.00 20.00     0.001 C 
HETATM    2  C3  UNL     1     -32.540   5.835   2.199  1.00 20.00     0.005 C 
HETATM    3  C4  UNL     1     -33.864   4.744   4.052  1.00 20.00     0.005 C 
HETATM    4  C5  UNL     1     -33.462   7.239   4.087  1.00 20.00     0.009 C 
HETATM    5  C6  UNL     1     -33.100   7.207   2.596  1.00 20.00    -0.008 C 
HETATM    6  C7  UNL     1     -34.432   6.109   4.461  1.00 20.00    -0.014 C 
ENDROOT
BRANCH   5   7
HETATM    7  C9  UNL     1     -32.102   8.314   2.259  1.00 20.00     0.074 C 
BRANCH   7   8
HETATM    8  C1  UNL     1     -32.544   9.144   1.084  1.00 20.00     0.231 C 
HETATM    9  O11 UNL     1     -32.642  10.366   1.081  1.00 20.00    -0.307 OA
ENDBRANCH   7   8
ENDBRANCH   5   7
BRANCH   6  10
HETATM   10  C10 UNL     1     -34.743   6.138   5.957  1.00 20.00     0.000 C 
HETATM   11  C8  UNL     1     -34.042   7.263   6.644  1.00 20.00     0.005 C 
ENDBRANCH   6  10
TORSDOF 3
ENDMDL
MODEL 4
REMARK VINA RESULT:      -4.8     11.267     12.092
REMARK  3 active torsions:
REMARK  status: ('A' for Active; 'I' for Inactive)
REMARK    1  A    between atoms: C1_1  and  C9_9 
REMARK    2  A    between atoms: C6_6  and  C9_9 
REMARK    3  A    between atoms: C7_7  and  C10_10 
ROOT
HETATM    1  C2  UNL     1     -33.329  16.048  -6.120  1.00 20.00     0.001 C 
HETATM    2  C3  UNL     1     -34.531  15.125  -6.300  1.00 20.00     0.005 C 
HETATM    3  C4  UNL     1     -33.447  16.887  -4.851  1.00 20.00     0.005 C 
HETATM    4  C5  UNL     1     -34.870  15.083  -3.796  1.00 20.00     0.009 C 
HETATM    5  C6  UNL     1     -34.749  14.235  -5.069  1.00 20.00    -0.008 C 
HETATM    6  C7  UNL     1     -33.658  16.009  -3.611  1.00 20.00    -0.014 C 
ENDROOT
BRANCH   5   7
HETATM    7  C9  UNL     1     -35.985  13.356  -5.252  1.00 20.00     0.074 C 
BRANCH   7   8
HETATM    8  C1  UNL     1     -37.233  14.165  -5.482  1.00 20.00     0.231 C 
HETATM    9  O11 UNL     1     -38.264  14.073  -4.825  1.00 20.00    -0.307 OA
ENDBRANCH   7   8
ENDBRANCH   5   7
BRANCH   6  10
HETATM   10  C10 UNL     1     -33.824  16.871  -2.361  1.00 20.00     0.000 C 
HETATM   11  C8  UNL     1     -35.194  16.747  -1.783  1.00 20.00     0.005 C 
ENDBRANCH   6  10
TORSDOF 3
ENDMDL
MODEL 5
REMARK VINA RESULT:      -4.6     11.077     11.741
REMARK  3 active torsions:
REMARK  status: ('A' for Active; 'I' for Inactive)
REMARK    1  A    between atoms: C1_1  and  C9_9 
REMARK    2  A    between atoms: C6_6  and  C9_9 
REMARK    3  A    between atoms: C7_7  and  C10_10 
ROOT
HETATM    1  C2  UNL     1     -35.752  17.510  -0.834  1.00 20.00     0.001 C 
HETATM    2  C3  UNL     1     -35.298  16.527  -1.909  1.00 20.00     0.005 C 
HETATM    3  C4  UNL     1     -34.600  17.917   0.081  1.00 20.00     0.005 C 
HETATM    4  C5  UNL     1     -32.962  17.483  -1.795  1.00 20.00     0.009 C 
HETATM    5  C6  UNL     1     -34.119  17.079  -2.719  1.00 20.00    -0.008 C 
HETATM    6  C7  UNL     1     -33.416  18.478  -0.717  1.00 20.00    -0.014 C 
ENDROOT
BRANCH   5   7
HETATM    7  C9  UNL     1     -33.651  16.057  -3.754  1.00 20.00     0.074 C 
BRANCH   7   8
HETATM    8  C1  UNL     1     -34.632  14.929  -3.929  1.00 20.00     0.231 C 
HETATM    9  O11 UNL     1     -34.331  13.746  -4.044  1.00 20.00    -0.307 OA
ENDBRANCH   7   8
ENDBRANCH   5   7
BRANCH   6  10
HETATM   10  C10 UNL     1     -32.257  18.830   0.214  1.00 20.00     0.000 C 
HETATM   11  C8  UNL     1     -32.656  18.737   1.650  1.00 20.00     0.005 C 
ENDBRANCH   6  10
TORSDOF 3
ENDMDL
MODEL 6
REMARK VINA RESULT:      -4.6     11.162     12.068
REMARK  3 active torsions:
REMARK  status: ('A' for Active; 'I' for Inactive)
REMARK    1  A    between atoms: C1_1  and  C9_9 
REMARK    2  A    between atoms: C6_6  and  C9_9 
REMARK    3  A    between atoms: C7_7  and  C10_10 
ROOT
HETATM    1  C2  UNL     1     -33.457  16.964  -5.455  1.00 20.00     0.001 C 
HETATM    2  C3  UNL     1     -34.508  15.891  -5.726  1.00 20.00     0.005 C 
HETATM    3  C4  UNL     1     -33.663  17.625  -4.095  1.00 20.00     0.005 C 
HETATM    4  C5  UNL     1     -34.761  15.514  -3.240  1.00 20.00     0.009 C 
HETATM    5  C6  UNL     1     -34.549  14.845  -4.604  1.00 20.00    -0.008 C 
HETATM    6  C7  UNL     1     -33.700  16.590  -2.963  1.00 20.00    -0.014 C 
ENDROOT
BRANCH   5   7
HETATM    7  C9  UNL     1     -35.641  13.810  -4.873  1.00 20.00     0.074 C 
BRANCH   7   8
HETATM    8  C1  UNL     1     -35.642  13.338  -6.302  1.00 20.00     0.231 C 
HETATM    9  O11 UNL     1     -35.113  12.307  -6.703  1.00 20.00    -0.307 OA
ENDBRANCH   7   8
ENDBRANCH   5   7
BRANCH   6  10
HETATM   10  C10 UNL     1     -33.958  17.269  -1.620  1.00 20.00     0.000 C 
HETATM   11  C8  UNL     1     -35.340  17.001  -1.122  1.00 20.00     0.005 C 
ENDBRANCH   6  10
TORSDOF 3
ENDMDL
MODEL 7
REMARK VINA RESULT:      -4.4     11.485     12.201
REMARK  3 active torsions:
REMARK  status: ('A' for Active; 'I' for Inactive)
REMARK    1  A    between atoms: C1_1  and  C9_9 
REMARK    2  A    between atoms: C6_6  and  C9_9 
REMARK    3  A    between atoms: C7_7  and  C10_10 
ROOT
HETATM    1  C2  UNL     1     -35.625  17.092  -0.888  1.00 20.00     0.001 C 
HETATM    2  C3  UNL     1     -34.804  18.268  -0.368  1.00 20.00     0.005 C 
HETATM    3  C4  UNL     1     -35.325  16.800  -2.356  1.00 20.00     0.005 C 
HETATM    4  C5  UNL     1     -33.005  17.762  -2.069  1.00 20.00     0.009 C 
HETATM    5  C6  UNL     1     -33.302  18.052  -0.592  1.00 20.00    -0.008 C 
HETATM    6  C7  UNL     1     -33.826  16.574  -2.592  1.00 20.00    -0.014 C 
ENDROOT
BRANCH   5   7
HETATM    7  C9  UNL     1     -32.505  19.263  -0.108  1.00 20.00     0.074 C 
BRANCH   7   8
HETATM    8  C1  UNL     1     -31.767  18.988   1.174  1.00 20.00     0.231 C 
HETATM    9  O11 UNL     1     -30.553  18.851   1.273  1.00 20.00    -0.307 OA
ENDBRANCH   7   8
ENDBRANCH   5   7
BRANCH   6  10
HETATM   10  C10 UNL     1     -33.544  16.334  -4.074  1.00 20.00     0.000 C 
HETATM   11  C8  UNL     1     -33.314  14.888  -4.365  1.00 20.00     0.005 C 
ENDBRANCH   6  10
TORSDOF 3
ENDMDL
MODEL 8
REMARK VINA RESULT:      -4.4     11.349     11.805
REMARK  3 active torsions:
REMARK  status: ('A' for Active; 'I' for Inactive)
REMARK    1  A    between atoms: C1_1  and  C9_9 
REMARK    2  A    between atoms: C6_6  and  C9_9 
REMARK    3  A    between atoms: C7_7  and  C10_10 
ROOT
HETATM    1  C2  UNL     1     -36.537  16.937  -2.973  1.00 20.00     0.001 C 
HETATM    2  C3  UNL     1     -36.132  15.660  -3.704  1.00 20.00     0.005 C 
HETATM    3  C4  UNL     1     -35.540  17.299  -1.875  1.00 20.00     0.005 C 
HETATM    4  C5  UNL     1     -33.708  16.117  -3.155  1.00 20.00     0.009 C 
HETATM    5  C6  UNL     1     -34.706  15.757  -4.263  1.00 20.00    -0.008 C 
HETATM    6  C7  UNL     1     -34.111  17.406  -2.422  1.00 20.00    -0.014 C 
ENDROOT
BRANCH   5   7
HETATM    7  C9  UNL     1     -34.306  14.451  -4.947  1.00 20.00     0.074 C 
BRANCH   7   8
HETATM    8  C1  UNL     1     -35.477  13.760  -5.591  1.00 20.00     0.231 C 
HETATM    9  O11 UNL     1     -35.915  12.662  -5.264  1.00 20.00    -0.307 OA
ENDBRANCH   7   8
ENDBRANCH   5   7
BRANCH   6  10
HETATM   10  C10 UNL     1     -33.126  17.718  -1.298  1.00 20.00     0.000 C 
HETATM   11  C8  UNL     1     -33.812  18.309  -0.111  1.00 20.00     0.005 C 
ENDBRANCH   6  10
TORSDOF 3
ENDMDL
MODEL 9
REMARK VINA RESULT:      -4.4     10.965     11.804
REMARK  3 active torsions:
REMARK  status: ('A' for Active; 'I' for Inactive)
REMARK    1  A    between atoms: C1_1  and  C9_9 
REMARK    2  A    between atoms: C6_6  and  C9_9 
REMARK    3  A    between atoms: C7_7  and  C10_10 
ROOT
HETATM    1  C2  UNL     1     -32.890  17.791  -1.540  1.00 20.00     0.001 C 
HETATM    2  C3  UNL     1     -33.443  17.270  -2.863  1.00 20.00     0.005 C 
HETATM    3  C4  UNL     1     -33.992  18.369  -0.657  1.00 20.00     0.005 C 
HETATM    4  C5  UNL     1     -35.674  16.836  -1.758  1.00 20.00     0.009 C 
HETATM    5  C6  UNL     1     -34.566  16.249  -2.644  1.00 20.00    -0.008 C 
HETATM    6  C7  UNL     1     -35.119  17.355  -0.423  1.00 20.00    -0.014 C 
ENDROOT
BRANCH   5   7
HETATM    7  C9  UNL     1     -35.136  15.779  -3.981  1.00 20.00     0.074 C 
BRANCH   7   8
HETATM    8  C1  UNL     1     -34.808  14.339  -4.269  1.00 20.00     0.231 C 
HETATM    9  O11 UNL     1     -33.690  13.841  -4.189  1.00 20.00    -0.307 OA
ENDBRANCH   7   8
ENDBRANCH   5   7
BRANCH   6  10
HETATM   10  C10 UNL     1     -36.234  17.972   0.420  1.00 20.00     0.000 C 
HETATM   11  C8  UNL     1     -37.342  18.498  -0.431  1.00 20.00     0.005 C 
ENDBRANCH   6  10
TORSDOF 3
ENDMDL
