MODEL 1
REMARK VINA RESULT:      -5.2      0.000      0.000
REMARK  3 active torsions:
REMARK  status: ('A' for Active; 'I' for Inactive)
REMARK    1  A    between atoms: C5_5  and  C9_9 
REMARK    2  A    between atoms: C6_6  and  C10_10 
REMARK    3  A    between atoms: C6_6  and  O11_11 
ROOT
HETATM    1  C1  UNL     1     -33.811   7.556   5.685  1.00 20.00     0.003 C 
HETATM    2  C2  UNL     1     -32.718   7.960   4.700  1.00 20.00     0.005 C 
HETATM    3  C3  UNL     1     -34.124   6.061   5.599  1.00 20.00     0.038 C 
HETATM    4  C4  UNL     1     -33.385   6.061   3.167  1.00 20.00     0.042 C 
HETATM    5  C5  UNL     1     -33.075   7.564   3.262  1.00 20.00    -0.012 C 
HETATM    6  C6  UNL     1     -34.457   5.601   4.170  1.00 20.00     0.058 C 
ENDROOT
BRANCH   6   7
HETATM    7  C10 UNL     1     -34.633   4.083   4.123  1.00 20.00     0.033 C 
HETATM    8  C8  UNL     1     -33.360   3.372   4.443  1.00 20.00     0.008 C 
ENDBRANCH   6   7
BRANCH   6   9
HETATM    9  O11 UNL     1     -35.708   6.198   3.808  1.00 20.00    -0.390 OA
HETATM   10  H31 UNL     1     -35.531   7.142   3.685  1.00 20.00     0.210 HD
ENDBRANCH   6   9
BRANCH   5  11
HETATM   11  C9  UNL     1     -31.947   7.944   2.303  1.00 20.00     0.000 C 
HETATM   12  C7  UNL     1     -32.326   9.103   1.439  1.00 20.00     0.005 C 
ENDBRANCH   5  11
TORSDOF 3
ENDMDL
MODEL 2
REMARK VINA RESULT:      -4.7     11.737     12.698
REMARK  3 active torsions:
REMARK  status: ('A' for Active; 'I' for Inactive)
REMARK    1  A    between atoms: C5_5  and  C9_9 
REMARK    2  A    between atoms: C6_6  and  C10_10 
REMARK    3  A    between atoms: C6_6  and  O11_11 
ROOT
HETATM    1  C1  UNL     1     -33.636  16.519  -6.155  1.00 20.00     0.003 C 
HETATM    2  C2  UNL     1     -33.684  17.215  -4.798  1.00 20.00     0.005 C 
HETATM    3  C3  UNL     1     -34.727  15.456  -6.284  1.00 20.00     0.038 C 
HETATM    4  C4  UNL     1     -34.699  15.142  -3.762  1.00 20.00     0.042 C 
HETATM    5  C5  UNL     1     -33.600  16.211  -3.642  1.00 20.00    -0.012 C 
HETATM    6  C6  UNL     1     -34.711  14.440  -5.131  1.00 20.00     0.058 C 
ENDROOT
BRANCH   6   7
HETATM    7  C10 UNL     1     -35.899  13.483  -5.243  1.00 20.00     0.033 C 
HETATM    8  C8  UNL     1     -37.199  14.215  -5.216  1.00 20.00     0.008 C 
ENDBRANCH   6   7
BRANCH   6   9
HETATM    9  O11 UNL     1     -33.513  13.665  -5.258  1.00 20.00    -0.390 OA
HETATM   10  H31 UNL     1     -33.736  12.915  -5.829  1.00 20.00     0.210 HD
ENDBRANCH   6   9
BRANCH   5  11
HETATM   11  C9  UNL     1     -33.691  16.930  -2.296  1.00 20.00     0.000 C 
HETATM   12  C7  UNL     1     -35.042  16.770  -1.677  1.00 20.00     0.005 C 
ENDBRANCH   5  11
TORSDOF 3
ENDMDL
MODEL 3
REMARK VINA RESULT:      -4.7      2.227      4.722
REMARK  3 active torsions:
REMARK  status: ('A' for Active; 'I' for Inactive)
REMARK    1  A    between atoms: C5_5  and  C9_9 
REMARK    2  A    between atoms: C6_6  and  C10_10 
REMARK    3  A    between atoms: C6_6  and  O11_11 
ROOT
HETATM    1  C1  UNL     1     -31.493   8.385   3.930  1.00 20.00     0.003 C 
HETATM    2  C2  UNL     1     -32.626   7.378   4.095  1.00 20.00     0.005 C 
HETATM    3  C3  UNL     1     -31.846   9.471   2.913  1.00 20.00     0.038 C 
HETATM    4  C4  UNL     1     -33.393   7.838   1.729  1.00 20.00     0.042 C 
HETATM    5  C5  UNL     1     -33.030   6.752   2.755  1.00 20.00    -0.012 C 
HETATM    6  C6  UNL     1     -32.292   8.898   1.557  1.00 20.00     0.058 C 
ENDROOT
BRANCH   6   7
HETATM    7  C10 UNL     1     -32.754  10.020   0.627  1.00 20.00     0.033 C 
HETATM    8  C8  UNL     1     -33.251   9.486  -0.675  1.00 20.00     0.008 C 
ENDBRANCH   6   7
BRANCH   6   9
HETATM    9  O11 UNL     1     -31.149   8.277   0.957  1.00 20.00    -0.390 OA
HETATM   10  H31 UNL     1     -31.097   7.387   1.335  1.00 20.00     0.210 HD
ENDBRANCH   6   9
BRANCH   5  11
HETATM   11  C9  UNL     1     -34.193   5.777   2.943  1.00 20.00     0.000 C 
HETATM   12  C7  UNL     1     -34.740   5.835   4.332  1.00 20.00     0.005 C 
ENDBRANCH   5  11
TORSDOF 3
ENDMDL
MODEL 4
REMARK VINA RESULT:      -4.7     11.698     12.441
REMARK  3 active torsions:
REMARK  status: ('A' for Active; 'I' for Inactive)
REMARK    1  A    between atoms: C5_5  and  C9_9 
REMARK    2  A    between atoms: C6_6  and  C10_10 
REMARK    3  A    between atoms: C6_6  and  O11_11 
ROOT
HETATM    1  C1  UNL     1     -33.114  14.701  -4.646  1.00 20.00     0.003 C 
HETATM    2  C2  UNL     1     -33.615  15.806  -3.721  1.00 20.00     0.005 C 
HETATM    3  C3  UNL     1     -34.070  14.468  -5.817  1.00 20.00     0.038 C 
HETATM    4  C4  UNL     1     -36.001  15.293  -4.385  1.00 20.00     0.042 C 
HETATM    5  C5  UNL     1     -35.034  15.522  -3.212  1.00 20.00    -0.012 C 
HETATM    6  C6  UNL     1     -35.517  14.211  -5.366  1.00 20.00     0.058 C 
ENDROOT
BRANCH   6   7
HETATM    7  C10 UNL     1     -36.447  14.114  -6.576  1.00 20.00     0.033 C 
HETATM    8  C8  UNL     1     -35.706  13.709  -7.807  1.00 20.00     0.008 C 
ENDBRANCH   6   7
BRANCH   6   9
HETATM    9  O11 UNL     1     -35.539  12.945  -4.696  1.00 20.00    -0.390 OA
HETATM   10  H31 UNL     1     -36.472  12.747  -4.525  1.00 20.00     0.210 HD
ENDBRANCH   6   9
BRANCH   5  11
HETATM   11  C9  UNL     1     -35.526  16.662  -2.322  1.00 20.00     0.000 C 
HETATM   12  C7  UNL     1     -34.461  17.126  -1.382  1.00 20.00     0.005 C 
ENDBRANCH   5  11
TORSDOF 3
ENDMDL
MODEL 5
REMARK VINA RESULT:      -4.7     11.851     12.591
REMARK  3 active torsions:
REMARK  status: ('A' for Active; 'I' for Inactive)
REMARK    1  A    between atoms: C5_5  and  C9_9 
REMARK    2  A    between atoms: C6_6  and  C10_10 
REMARK    3  A    between atoms: C6_6  and  O11_11 
ROOT
HETATM    1  C1  UNL     1     -34.058  14.526  -6.551  1.00 20.00     0.003 C 
HETATM    2  C2  UNL     1     -33.610  15.511  -5.476  1.00 20.00     0.005 C 
HETATM    3  C3  UNL     1     -35.582  14.433  -6.632  1.00 20.00     0.038 C 
HETATM    4  C4  UNL     1     -35.738  15.076  -4.178  1.00 20.00     0.042 C 
HETATM    5  C5  UNL     1     -34.205  15.165  -4.105  1.00 20.00    -0.012 C 
HETATM    6  C6  UNL     1     -36.236  14.121  -5.276  1.00 20.00     0.058 C 
ENDROOT
BRANCH   6   7
HETATM    7  C10 UNL     1     -37.760  14.168  -5.392  1.00 20.00     0.033 C 
HETATM    8  C8  UNL     1     -38.344  15.236  -4.527  1.00 20.00     0.008 C 
ENDBRANCH   6   7
BRANCH   6   9
HETATM    9  O11 UNL     1     -35.866  12.783  -4.920  1.00 20.00    -0.390 OA
HETATM   10  H31 UNL     1     -34.962  12.836  -4.577  1.00 20.00     0.210 HD
ENDBRANCH   6   9
BRANCH   5  11
HETATM   11  C9  UNL     1     -33.773  16.190  -3.056  1.00 20.00     0.000 C 
HETATM   12  C7  UNL     1     -34.911  16.587  -2.173  1.00 20.00     0.005 C 
ENDBRANCH   5  11
TORSDOF 3
ENDMDL
MODEL 6
REMARK VINA RESULT:      -4.3     12.047     12.576
REMARK  3 active torsions:
REMARK  status: ('A' for Active; 'I' for Inactive)
REMARK    1  A    between atoms: C5_5  and  C9_9 
REMARK    2  A    between atoms: C6_6  and  C10_10 
REMARK    3  A    between atoms: C6_6  and  O11_11 
ROOT
HETATM    1  C1  UNL     1     -35.570  17.737  -0.169  1.00 20.00     0.003 C 
HETATM    2  C2  UNL     1     -34.342  18.088   0.665  1.00 20.00     0.005 C 
HETATM    3  C3  UNL     1     -35.212  16.831  -1.348  1.00 20.00     0.038 C 
HETATM    4  C4  UNL     1     -32.869  17.815  -1.374  1.00 20.00     0.042 C 
HETATM    5  C5  UNL     1     -33.238  18.723  -0.189  1.00 20.00    -0.012 C 
HETATM    6  C6  UNL     1     -34.084  17.404  -2.222  1.00 20.00     0.058 C 
ENDROOT
BRANCH   6   7
HETATM    7  C10 UNL     1     -33.682  16.401  -3.304  1.00 20.00     0.033 C 
HETATM    8  C8  UNL     1     -34.779  15.430  -3.589  1.00 20.00     0.008 C 
ENDBRANCH   6   7
BRANCH   6   9
HETATM    9  O11 UNL     1     -34.599  18.570  -2.877  1.00 20.00    -0.390 OA
HETATM   10  H31 UNL     1     -35.516  18.663  -2.579  1.00 20.00     0.210 HD
ENDBRANCH   6   9
BRANCH   5  11
HETATM   11  C9  UNL     1     -32.005  19.028   0.662  1.00 20.00     0.000 C 
HETATM   12  C7  UNL     1     -32.218  18.653   2.092  1.00 20.00     0.005 C 
ENDBRANCH   5  11
TORSDOF 3
ENDMDL
MODEL 7
REMARK VINA RESULT:      -4.2     11.752     12.921
REMARK  3 active torsions:
REMARK  status: ('A' for Active; 'I' for Inactive)
REMARK    1  A    between atoms: C5_5  and  C9_9 
REMARK    2  A    between atoms: C6_6  and  C10_10 
REMARK    3  A    between atoms: C6_6  and  O11_11 
ROOT
HETATM    1  C1  UNL     1     -34.841  15.111  -3.792  1.00 20.00     0.003 C 
HETATM    2  C2  UNL     1     -36.120  15.942  -3.839  1.00 20.00     0.005 C 
HETATM    3  C3  UNL     1     -34.500  14.522  -5.162  1.00 20.00     0.038 C 
HETATM    4  C4  UNL     1     -36.967  14.545  -5.770  1.00 20.00     0.042 C 
HETATM    5  C5  UNL     1     -37.302  15.135  -4.390  1.00 20.00    -0.012 C 
HETATM    6  C6  UNL     1     -35.663  13.729  -5.778  1.00 20.00     0.058 C 
ENDROOT
BRANCH   6   7
HETATM    7  C10 UNL     1     -35.311  13.275  -7.195  1.00 20.00     0.033 C 
HETATM    8  C8  UNL     1     -34.203  14.091  -7.774  1.00 20.00     0.008 C 
ENDBRANCH   6   7
BRANCH   6   9
HETATM    9  O11 UNL     1     -35.854  12.555  -4.979  1.00 20.00    -0.390 OA
HETATM   10  H31 UNL     1     -36.399  12.828  -4.226  1.00 20.00     0.210 HD
ENDBRANCH   6   9
BRANCH   5  11
HETATM   11  C9  UNL     1     -38.559  16.001  -4.464  1.00 20.00     0.000 C 
HETATM   12  C7  UNL     1     -38.236  17.453  -4.325  1.00 20.00     0.005 C 
ENDBRANCH   5  11
TORSDOF 3
ENDMDL
MODEL 8
REMARK VINA RESULT:      -4.1      1.887      4.541
REMARK  3 active torsions:
REMARK  status: ('A' for Active; 'I' for Inactive)
REMARK    1  A    between atoms: C5_5  and  C9_9 
REMARK    2  A    between atoms: C6_6  and  C10_10 
REMARK    3  A    between atoms: C6_6  and  O11_11 
ROOT
HETATM    1  C1  UNL     1     -31.872   8.293   4.440  1.00 20.00     0.003 C 
HETATM    2  C2  UNL     1     -33.122   7.478   4.754  1.00 20.00     0.005 C 
HETATM    3  C3  UNL     1     -32.044   9.123   3.166  1.00 20.00     0.038 C 
HETATM    4  C4  UNL     1     -33.707   7.410   2.294  1.00 20.00     0.042 C 
HETATM    5  C5  UNL     1     -33.526   6.582   3.577  1.00 20.00    -0.012 C 
HETATM    6  C6  UNL     1     -32.482   8.279   1.958  1.00 20.00     0.058 C 
ENDROOT
BRANCH   6   7
HETATM    7  C10 UNL     1     -32.763   9.175   0.752  1.00 20.00     0.033 C 
HETATM    8  C8  UNL     1     -32.634  10.621   1.099  1.00 20.00     0.008 C 
ENDBRANCH   6   7
BRANCH   6   9
HETATM    9  O11 UNL     1     -31.390   7.417   1.617  1.00 20.00    -0.390 OA
HETATM   10  H31 UNL     1     -30.604   7.802   2.033  1.00 20.00     0.210 HD
ENDBRANCH   6   9
BRANCH   5  11
HETATM   11  C9  UNL     1     -34.802   5.806   3.903  1.00 20.00     0.000 C 
HETATM   12  C7  UNL     1     -34.720   5.147   5.241  1.00 20.00     0.005 C 
ENDBRANCH   5  11
TORSDOF 3
ENDMDL
MODEL 9
REMARK VINA RESULT:      -4.0      1.278      3.934
REMARK  3 active torsions:
REMARK  status: ('A' for Active; 'I' for Inactive)
REMARK    1  A    between atoms: C5_5  and  C9_9 
REMARK    2  A    between atoms: C6_6  and  C10_10 
REMARK    3  A    between atoms: C6_6  and  O11_11 
ROOT
HETATM    1  C1  UNL     1     -33.759   3.882   3.321  1.00 20.00     0.003 C 
HETATM    2  C2  UNL     1     -33.988   4.351   4.754  1.00 20.00     0.005 C 
HETATM    3  C3  UNL     1     -32.905   4.875   2.531  1.00 20.00     0.038 C 
HETATM    4  C4  UNL     1     -33.752   6.758   4.013  1.00 20.00     0.042 C 
HETATM    5  C5  UNL     1     -34.608   5.753   4.800  1.00 20.00    -0.012 C 
HETATM    6  C6  UNL     1     -33.464   6.307   2.571  1.00 20.00     0.058 C 
ENDROOT
BRANCH   6   7
HETATM    7  C10 UNL     1     -32.506   7.275   1.876  1.00 20.00     0.033 C 
HETATM    8  C8  UNL     1     -31.819   8.167   2.857  1.00 20.00     0.008 C 
ENDBRANCH   6   7
BRANCH   6   9
HETATM    9  O11 UNL     1     -34.694   6.308   1.837  1.00 20.00    -0.390 OA
HETATM   10  H31 UNL     1     -34.863   5.386   1.593  1.00 20.00     0.210 HD
ENDBRANCH   6   9
BRANCH   5  11
HETATM   11  C9  UNL     1     -34.790   6.215   6.246  1.00 20.00     0.000 C 
HETATM   12  C7  UNL     1     -33.960   7.419   6.548  1.00 20.00     0.005 C 
ENDBRANCH   5  11
TORSDOF 3
ENDMDL
