MODEL 1
REMARK VINA RESULT:      -4.3      0.000      0.000
REMARK  5 active torsions:
REMARK  status: ('A' for Active; 'I' for Inactive)
REMARK    1  A    between atoms: C4_4  and  C5_5 
REMARK    2  A    between atoms: C5_5  and  C7_7 
REMARK    3  A    between atoms: C6_6  and  C7_7 
REMARK    4  A    between atoms: C6_6  and  O10_10 
REMARK    5  A    between atoms: C7_7  and  N8_8 
ROOT
HETATM    1  C1  UNL     1     -33.248   5.191   2.829  1.00 20.00     0.332 C 
HETATM    2  N8  UNL     1     -32.916   6.215   2.368  1.00 20.00    -0.240 NA
HETATM    3  O9  UNL     1     -33.584   4.160   3.285  1.00 20.00    -0.260 OA
ENDROOT
BRANCH   2   4
HETATM    4  C7  UNL     1     -32.543   7.230   3.365  1.00 20.00     0.136 C 
BRANCH   4   5
HETATM    5  C5  UNL     1     -33.792   7.636   4.156  1.00 20.00     0.029 C 
BRANCH   5   6
HETATM    6  C4  UNL     1     -33.671   7.297   5.645  1.00 20.00    -0.002 C 
HETATM    7  C2  UNL     1     -34.495   6.070   6.005  1.00 20.00     0.005 C 
ENDBRANCH   5   6
ENDBRANCH   4   5
BRANCH   4   8
HETATM    8  C6  UNL     1     -31.906   8.408   2.629  1.00 20.00     0.194 C 
BRANCH   8   9
HETATM    9  O10 UNL     1     -32.577   8.659   1.401  1.00 20.00    -0.394 OA
HETATM   10  C3  UNL     1     -32.613  10.048   1.101  1.00 20.00     0.201 C 
ENDBRANCH   8   9
ENDBRANCH   4   8
ENDBRANCH   2   4
TORSDOF 5
ENDMDL
MODEL 2
REMARK VINA RESULT:      -4.3      1.925      2.462
REMARK  5 active torsions:
REMARK  status: ('A' for Active; 'I' for Inactive)
REMARK    1  A    between atoms: C4_4  and  C5_5 
REMARK    2  A    between atoms: C5_5  and  C7_7 
REMARK    3  A    between atoms: C6_6  and  C7_7 
REMARK    4  A    between atoms: C6_6  and  O10_10 
REMARK    5  A    between atoms: C7_7  and  N8_8 
ROOT
HETATM    1  C1  UNL     1     -33.238   7.597   5.364  1.00 20.00     0.332 C 
HETATM    2  N8  UNL     1     -32.499   7.776   4.473  1.00 20.00    -0.240 NA
HETATM    3  O9  UNL     1     -33.974   7.420   6.265  1.00 20.00    -0.260 OA
ENDROOT
BRANCH   2   4
HETATM    4  C7  UNL     1     -33.079   7.505   3.149  1.00 20.00     0.136 C 
BRANCH   4   5
HETATM    5  C5  UNL     1     -33.209   5.989   2.961  1.00 20.00     0.029 C 
BRANCH   5   6
HETATM    6  C4  UNL     1     -34.568   5.461   3.427  1.00 20.00    -0.002 C 
HETATM    7  C2  UNL     1     -34.410   4.317   4.419  1.00 20.00     0.005 C 
ENDBRANCH   5   6
ENDBRANCH   4   5
BRANCH   4   8
HETATM    8  C6  UNL     1     -32.182   8.153   2.095  1.00 20.00     0.194 C 
BRANCH   8   9
HETATM    9  O10 UNL     1     -32.752   9.367   1.624  1.00 20.00    -0.394 OA
HETATM   10  C3  UNL     1     -32.626   9.490   0.214  1.00 20.00     0.201 C 
ENDBRANCH   8   9
ENDBRANCH   4   8
ENDBRANCH   2   4
TORSDOF 5
ENDMDL
MODEL 3
REMARK VINA RESULT:      -4.2      1.764      4.082
REMARK  5 active torsions:
REMARK  status: ('A' for Active; 'I' for Inactive)
REMARK    1  A    between atoms: C4_4  and  C5_5 
REMARK    2  A    between atoms: C5_5  and  C7_7 
REMARK    3  A    between atoms: C6_6  and  C7_7 
REMARK    4  A    between atoms: C6_6  and  O10_10 
REMARK    5  A    between atoms: C7_7  and  N8_8 
ROOT
HETATM    1  C1  UNL     1     -33.684   7.249   5.515  1.00 20.00     0.332 C 
HETATM    2  N8  UNL     1     -33.044   7.961   4.840  1.00 20.00    -0.240 NA
HETATM    3  O9  UNL     1     -34.328   6.541   6.199  1.00 20.00    -0.260 OA
ENDROOT
BRANCH   2   4
HETATM    4  C7  UNL     1     -32.438   7.298   3.676  1.00 20.00     0.136 C 
BRANCH   4   5
HETATM    5  C5  UNL     1     -31.737   8.351   2.809  1.00 20.00     0.029 C 
BRANCH   5   6
HETATM    6  C4  UNL     1     -32.475   8.603   1.492  1.00 20.00    -0.002 C 
HETATM    7  C2  UNL     1     -32.567  10.090   1.181  1.00 20.00     0.005 C 
ENDBRANCH   5   6
ENDBRANCH   4   5
BRANCH   4   8
HETATM    8  C6  UNL     1     -33.541   6.557   2.922  1.00 20.00     0.194 C 
BRANCH   8   9
HETATM    9  O10 UNL     1     -33.191   5.193   2.726  1.00 20.00    -0.394 OA
HETATM   10  C3  UNL     1     -33.897   4.340   3.616  1.00 20.00     0.201 C 
ENDBRANCH   8   9
ENDBRANCH   4   8
ENDBRANCH   2   4
TORSDOF 5
ENDMDL
MODEL 4
REMARK VINA RESULT:      -4.1      1.759      3.708
REMARK  5 active torsions:
REMARK  status: ('A' for Active; 'I' for Inactive)
REMARK    1  A    between atoms: C4_4  and  C5_5 
REMARK    2  A    between atoms: C5_5  and  C7_7 
REMARK    3  A    between atoms: C6_6  and  C7_7 
REMARK    4  A    between atoms: C6_6  and  O10_10 
REMARK    5  A    between atoms: C7_7  and  N8_8 
ROOT
HETATM    1  C1  UNL     1     -32.005   8.595   1.272  1.00 20.00     0.332 C 
HETATM    2  N8  UNL     1     -32.870   8.373   2.030  1.00 20.00    -0.240 NA
HETATM    3  O9  UNL     1     -31.141   8.825   0.507  1.00 20.00    -0.260 OA
ENDROOT
BRANCH   2   4
HETATM    4  C7  UNL     1     -32.640   7.191   2.873  1.00 20.00     0.136 C 
BRANCH   4   5
HETATM    5  C5  UNL     1     -33.740   6.158   2.597  1.00 20.00     0.029 C 
BRANCH   5   6
HETATM    6  C4  UNL     1     -33.307   4.737   2.968  1.00 20.00    -0.002 C 
HETATM    7  C2  UNL     1     -34.160   4.172   4.094  1.00 20.00     0.005 C 
ENDBRANCH   5   6
ENDBRANCH   4   5
BRANCH   4   8
HETATM    8  C6  UNL     1     -32.613   7.644   4.332  1.00 20.00     0.194 C 
BRANCH   8   9
HETATM    9  O10 UNL     1     -33.920   7.622   4.891  1.00 20.00    -0.394 OA
HETATM   10  C3  UNL     1     -33.918   7.070   6.200  1.00 20.00     0.201 C 
ENDBRANCH   8   9
ENDBRANCH   4   8
ENDBRANCH   2   4
TORSDOF 5
ENDMDL
MODEL 5
REMARK VINA RESULT:      -4.0      1.575      3.843
REMARK  5 active torsions:
REMARK  status: ('A' for Active; 'I' for Inactive)
REMARK    1  A    between atoms: C4_4  and  C5_5 
REMARK    2  A    between atoms: C5_5  and  C7_7 
REMARK    3  A    between atoms: C6_6  and  C7_7 
REMARK    4  A    between atoms: C6_6  and  O10_10 
REMARK    5  A    between atoms: C7_7  and  N8_8 
ROOT
HETATM    1  C1  UNL     1     -33.304   5.607   2.618  1.00 20.00     0.332 C 
HETATM    2  N8  UNL     1     -33.898   6.612   2.524  1.00 20.00    -0.240 NA
HETATM    3  O9  UNL     1     -32.712   4.594   2.708  1.00 20.00    -0.260 OA
ENDROOT
BRANCH   2   4
HETATM    4  C7  UNL     1     -33.247   7.758   3.174  1.00 20.00     0.136 C 
BRANCH   4   5
HETATM    5  C5  UNL     1     -32.023   8.172   2.347  1.00 20.00     0.029 C 
BRANCH   5   6
HETATM    6  C4  UNL     1     -32.415   8.837   1.025  1.00 20.00    -0.002 C 
HETATM    7  C2  UNL     1     -32.627  10.334   1.196  1.00 20.00     0.005 C 
ENDBRANCH   5   6
ENDBRANCH   4   5
BRANCH   4   8
HETATM    8  C6  UNL     1     -32.881   7.351   4.601  1.00 20.00     0.194 C 
BRANCH   8   9
HETATM    9  O10 UNL     1     -34.003   7.477   5.465  1.00 20.00    -0.394 OA
HETATM   10  C3  UNL     1     -34.434   6.213   5.950  1.00 20.00     0.201 C 
ENDBRANCH   8   9
ENDBRANCH   4   8
ENDBRANCH   2   4
TORSDOF 5
ENDMDL
MODEL 6
REMARK VINA RESULT:      -4.0     10.876     11.470
REMARK  5 active torsions:
REMARK  status: ('A' for Active; 'I' for Inactive)
REMARK    1  A    between atoms: C4_4  and  C5_5 
REMARK    2  A    between atoms: C5_5  and  C7_7 
REMARK    3  A    between atoms: C6_6  and  C7_7 
REMARK    4  A    between atoms: C6_6  and  O10_10 
REMARK    5  A    between atoms: C7_7  and  N8_8 
ROOT
HETATM    1  C1  UNL     1     -35.652  13.820  -4.802  1.00 20.00     0.332 C 
HETATM    2  N8  UNL     1     -35.452  14.888  -4.365  1.00 20.00    -0.240 NA
HETATM    3  O9  UNL     1     -35.862  12.749  -5.242  1.00 20.00    -0.260 OA
ENDROOT
BRANCH   2   4
HETATM    4  C7  UNL     1     -34.068  15.103  -3.918  1.00 20.00     0.136 C 
BRANCH   4   5
HETATM    5  C5  UNL     1     -34.027  16.321  -2.987  1.00 20.00     0.029 C 
BRANCH   5   6
HETATM    6  C4  UNL     1     -35.350  16.529  -2.245  1.00 20.00    -0.002 C 
HETATM    7  C2  UNL     1     -35.129  17.172  -0.884  1.00 20.00     0.005 C 
ENDBRANCH   5   6
ENDBRANCH   4   5
BRANCH   4   8
HETATM    8  C6  UNL     1     -33.190  15.281  -5.156  1.00 20.00     0.194 C 
BRANCH   8   9
HETATM    9  O10 UNL     1     -33.351  16.581  -5.707  1.00 20.00    -0.394 OA
HETATM   10  C3  UNL     1     -33.765  16.525  -7.065  1.00 20.00     0.201 C 
ENDBRANCH   8   9
ENDBRANCH   4   8
ENDBRANCH   2   4
TORSDOF 5
ENDMDL
MODEL 7
REMARK VINA RESULT:      -3.9     11.250     11.586
REMARK  5 active torsions:
REMARK  status: ('A' for Active; 'I' for Inactive)
REMARK    1  A    between atoms: C4_4  and  C5_5 
REMARK    2  A    between atoms: C5_5  and  C7_7 
REMARK    3  A    between atoms: C6_6  and  C7_7 
REMARK    4  A    between atoms: C6_6  and  O10_10 
REMARK    5  A    between atoms: C7_7  and  N8_8 
ROOT
HETATM    1  C1  UNL     1     -37.218  14.716  -4.578  1.00 20.00     0.332 C 
HETATM    2  N8  UNL     1     -36.425  15.493  -4.204  1.00 20.00    -0.240 NA
HETATM    3  O9  UNL     1     -38.020  13.942  -4.954  1.00 20.00    -0.260 OA
ENDROOT
BRANCH   2   4
HETATM    4  C7  UNL     1     -35.051  14.973  -4.155  1.00 20.00     0.136 C 
BRANCH   4   5
HETATM    5  C5  UNL     1     -34.202  15.886  -3.263  1.00 20.00     0.029 C 
BRANCH   5   6
HETATM    6  C4  UNL     1     -35.040  16.595  -2.195  1.00 20.00    -0.002 C 
HETATM    7  C2  UNL     1     -34.159  17.335  -1.198  1.00 20.00     0.005 C 
ENDBRANCH   5   6
ENDBRANCH   4   5
BRANCH   4   8
HETATM    8  C6  UNL     1     -34.522  14.894  -5.587  1.00 20.00     0.194 C 
BRANCH   8   9
HETATM    9  O10 UNL     1     -34.274  13.544  -5.960  1.00 20.00    -0.394 OA
HETATM   10  C3  UNL     1     -34.899  13.221  -7.194  1.00 20.00     0.201 C 
ENDBRANCH   8   9
ENDBRANCH   4   8
ENDBRANCH   2   4
TORSDOF 5
ENDMDL
MODEL 8
REMARK VINA RESULT:      -3.8      1.159      3.648
REMARK  5 active torsions:
REMARK  status: ('A' for Active; 'I' for Inactive)
REMARK    1  A    between atoms: C4_4  and  C5_5 
REMARK    2  A    between atoms: C5_5  and  C7_7 
REMARK    3  A    between atoms: C6_6  and  C7_7 
REMARK    4  A    between atoms: C6_6  and  O10_10 
REMARK    5  A    between atoms: C7_7  and  N8_8 
ROOT
HETATM    1  C1  UNL     1     -31.783   8.401   1.698  1.00 20.00     0.332 C 
HETATM    2  N8  UNL     1     -31.925   7.704   2.629  1.00 20.00    -0.240 NA
HETATM    3  O9  UNL     1     -31.632   9.103   0.766  1.00 20.00    -0.260 OA
ENDROOT
BRANCH   2   4
HETATM    4  C7  UNL     1     -33.254   7.082   2.715  1.00 20.00     0.136 C 
BRANCH   4   5
HETATM    5  C5  UNL     1     -34.023   7.705   3.887  1.00 20.00     0.029 C 
BRANCH   5   6
HETATM    6  C4  UNL     1     -33.242   7.624   5.201  1.00 20.00    -0.002 C 
HETATM    7  C2  UNL     1     -34.040   6.904   6.278  1.00 20.00     0.005 C 
ENDBRANCH   5   6
ENDBRANCH   4   5
BRANCH   4   8
HETATM    8  C6  UNL     1     -33.064   5.574   2.874  1.00 20.00     0.194 C 
BRANCH   8   9
HETATM    9  O10 UNL     1     -34.264   4.957   3.322  1.00 20.00    -0.394 OA
HETATM   10  C3  UNL     1     -34.004   3.953   4.292  1.00 20.00     0.201 C 
ENDBRANCH   8   9
ENDBRANCH   4   8
ENDBRANCH   2   4
TORSDOF 5
ENDMDL
MODEL 9
REMARK VINA RESULT:      -3.7     10.938     11.982
REMARK  5 active torsions:
REMARK  status: ('A' for Active; 'I' for Inactive)
REMARK    1  A    between atoms: C4_4  and  C5_5 
REMARK    2  A    between atoms: C5_5  and  C7_7 
REMARK    3  A    between atoms: C6_6  and  C7_7 
REMARK    4  A    between atoms: C6_6  and  O10_10 
REMARK    5  A    between atoms: C7_7  and  N8_8 
ROOT
HETATM    1  C1  UNL     1     -33.655  16.582  -6.312  1.00 20.00     0.332 C 
HETATM    2  N8  UNL     1     -33.411  16.825  -5.192  1.00 20.00    -0.240 NA
HETATM    3  O9  UNL     1     -33.895  16.344  -7.439  1.00 20.00    -0.260 OA
ENDROOT
BRANCH   2   4
HETATM    4  C7  UNL     1     -34.080  15.942  -4.226  1.00 20.00     0.136 C 
BRANCH   4   5
HETATM    5  C5  UNL     1     -33.909  16.521  -2.817  1.00 20.00     0.029 C 
BRANCH   5   6
HETATM    6  C4  UNL     1     -35.234  16.588  -2.053  1.00 20.00    -0.002 C 
HETATM    7  C2  UNL     1     -35.067  17.286  -0.711  1.00 20.00     0.005 C 
ENDBRANCH   5   6
ENDBRANCH   4   5
BRANCH   4   8
HETATM    8  C6  UNL     1     -33.478  14.544  -4.364  1.00 20.00     0.194 C 
BRANCH   8   9
HETATM    9  O10 UNL     1     -34.461  13.544  -4.125  1.00 20.00    -0.394 OA
HETATM   10  C3  UNL     1     -35.634  13.771  -4.895  1.00 20.00     0.201 C 
ENDBRANCH   8   9
ENDBRANCH   4   8
ENDBRANCH   2   4
TORSDOF 5
ENDMDL
