MODEL 1
REMARK VINA RESULT:      -5.9      0.000      0.000
REMARK  1 active torsions:
REMARK  status: ('A' for Active; 'I' for Inactive)
REMARK    1  A    between atoms: C8_8  and  N10_10 
ROOT
HETATM    1  C1  UNL     1     -32.280   8.334   1.997  1.00 20.00     0.177 C 
HETATM    2  N9  UNL     1     -31.524   8.609   1.161  1.00 20.00    -0.172 NA
HETATM    3  N10 UNL     1     -33.159   8.017   2.965  1.00 20.00    -0.324 N 
HETATM    4  H22 UNL     1     -34.099   8.435   2.964  1.00 20.00     0.172 HD
ENDROOT
BRANCH   3   5
HETATM    5  C8  UNL     1     -33.111   6.751   3.729  1.00 20.00     0.096 C 
HETATM    6  C5  UNL     1     -33.700   6.939   5.140  1.00 20.00     0.031 C 
HETATM    7  C6  UNL     1     -34.868   5.935   5.163  1.00 20.00    -0.012 C 
HETATM    8  C2  UNL     1     -34.301   4.505   5.174  1.00 20.00     0.005 C 
HETATM    9  C4  UNL     1     -35.406   6.046   3.738  1.00 20.00     0.011 C 
HETATM   10  C3  UNL     1     -33.757   4.337   3.746  1.00 20.00     0.007 C 
HETATM   11  C7  UNL     1     -34.055   5.702   3.102  1.00 20.00     0.009 C 
ENDBRANCH   3   5
TORSDOF 1
ENDMDL
MODEL 2
REMARK VINA RESULT:      -4.5     11.557     12.330
REMARK  1 active torsions:
REMARK  status: ('A' for Active; 'I' for Inactive)
REMARK    1  A    between atoms: C8_8  and  N10_10 
ROOT
HETATM    1  C1  UNL     1     -35.815  13.895  -4.934  1.00 20.00     0.177 C 
HETATM    2  N9  UNL     1     -35.876  12.805  -5.324  1.00 20.00    -0.172 NA
HETATM    3  N10 UNL     1     -35.749  15.161  -4.483  1.00 20.00    -0.324 N 
HETATM    4  H22 UNL     1     -36.470  15.844  -4.755  1.00 20.00     0.172 HD
ENDROOT
BRANCH   3   5
HETATM    5  C8  UNL     1     -35.057  15.549  -3.235  1.00 20.00     0.096 C 
HETATM    6  C5  UNL     1     -33.622  16.028  -3.528  1.00 20.00     0.031 C 
HETATM    7  C6  UNL     1     -33.623  17.470  -2.988  1.00 20.00    -0.012 C 
HETATM    8  C2  UNL     1     -33.704  17.431  -1.452  1.00 20.00     0.005 C 
HETATM    9  C4  UNL     1     -35.026  17.945  -3.362  1.00 20.00     0.011 C 
HETATM   10  C3  UNL     1     -35.153  16.987  -1.193  1.00 20.00     0.007 C 
HETATM   11  C7  UNL     1     -35.714  16.800  -2.614  1.00 20.00     0.009 C 
ENDBRANCH   3   5
TORSDOF 1
ENDMDL
MODEL 3
REMARK VINA RESULT:      -4.1      1.007      1.721
REMARK  1 active torsions:
REMARK  status: ('A' for Active; 'I' for Inactive)
REMARK    1  A    between atoms: C8_8  and  N10_10 
ROOT
HETATM    1  C1  UNL     1     -32.279   8.571   1.829  1.00 20.00     0.177 C 
HETATM    2  N9  UNL     1     -32.331   9.532   1.182  1.00 20.00    -0.172 NA
HETATM    3  N10 UNL     1     -32.217   7.458   2.582  1.00 20.00    -0.324 N 
HETATM    4  H22 UNL     1     -31.553   7.403   3.367  1.00 20.00     0.172 HD
ENDROOT
BRANCH   3   5
HETATM    5  C8  UNL     1     -33.343   6.512   2.736  1.00 20.00     0.096 C 
HETATM    6  C5  UNL     1     -32.851   5.157   3.282  1.00 20.00     0.031 C 
HETATM    7  C6  UNL     1     -33.641   5.009   4.596  1.00 20.00    -0.012 C 
HETATM    8  C2  UNL     1     -35.125   4.770   4.267  1.00 20.00     0.005 C 
HETATM    9  C4  UNL     1     -33.664   6.445   5.114  1.00 20.00     0.011 C 
HETATM   10  C3  UNL     1     -35.592   6.145   3.761  1.00 20.00     0.007 C 
HETATM   11  C7  UNL     1     -34.311   6.993   3.839  1.00 20.00     0.009 C 
ENDBRANCH   3   5
TORSDOF 1
ENDMDL
MODEL 4
REMARK VINA RESULT:      -4.1      1.176      2.118
REMARK  1 active torsions:
REMARK  status: ('A' for Active; 'I' for Inactive)
REMARK    1  A    between atoms: C8_8  and  N10_10 
ROOT
HETATM    1  C1  UNL     1     -32.490   9.362   1.283  1.00 20.00     0.177 C 
HETATM    2  N9  UNL     1     -32.513  10.385   0.737  1.00 20.00    -0.172 NA
HETATM    3  N10 UNL     1     -32.459   8.176   1.918  1.00 20.00    -0.324 N 
HETATM    4  H22 UNL     1     -31.560   7.705   2.088  1.00 20.00     0.172 HD
ENDROOT
BRANCH   3   5
HETATM    5  C8  UNL     1     -33.512   7.723   2.853  1.00 20.00     0.096 C 
HETATM    6  C5  UNL     1     -34.406   6.654   2.196  1.00 20.00     0.031 C 
HETATM    7  C6  UNL     1     -34.229   5.437   3.125  1.00 20.00    -0.012 C 
HETATM    8  C2  UNL     1     -34.912   5.730   4.471  1.00 20.00     0.005 C 
HETATM    9  C4  UNL     1     -32.751   5.539   3.496  1.00 20.00     0.011 C 
HETATM   10  C3  UNL     1     -33.979   6.768   5.115  1.00 20.00     0.007 C 
HETATM   11  C7  UNL     1     -32.891   6.962   4.044  1.00 20.00     0.009 C 
ENDBRANCH   3   5
TORSDOF 1
ENDMDL
MODEL 5
REMARK VINA RESULT:      -4.1     11.658     12.783
REMARK  1 active torsions:
REMARK  status: ('A' for Active; 'I' for Inactive)
REMARK    1  A    between atoms: C8_8  and  N10_10 
ROOT
HETATM    1  C1  UNL     1     -34.885  13.365  -7.052  1.00 20.00     0.177 C 
HETATM    2  N9  UNL     1     -35.207  12.252  -6.995  1.00 20.00    -0.172 NA
HETATM    3  N10 UNL     1     -34.512  14.656  -7.121  1.00 20.00    -0.324 N 
HETATM    4  H22 UNL     1     -34.469  15.132  -8.032  1.00 20.00     0.172 HD
ENDROOT
BRANCH   3   5
HETATM    5  C8  UNL     1     -34.655  15.609  -5.999  1.00 20.00     0.096 C 
HETATM    6  C5  UNL     1     -35.370  14.948  -4.805  1.00 20.00     0.031 C 
HETATM    7  C6  UNL     1     -34.332  15.066  -3.673  1.00 20.00    -0.012 C 
HETATM    8  C2  UNL     1     -34.198  16.544  -3.266  1.00 20.00     0.005 C 
HETATM    9  C4  UNL     1     -33.022  14.829  -4.422  1.00 20.00     0.011 C 
HETATM   10  C3  UNL     1     -33.451  17.164  -4.457  1.00 20.00     0.007 C 
HETATM   11  C7  UNL     1     -33.274  15.970  -5.412  1.00 20.00     0.009 C 
ENDBRANCH   3   5
TORSDOF 1
ENDMDL
MODEL 6
REMARK VINA RESULT:      -4.1     11.483     12.530
REMARK  1 active torsions:
REMARK  status: ('A' for Active; 'I' for Inactive)
REMARK    1  A    between atoms: C8_8  and  N10_10 
ROOT
HETATM    1  C1  UNL     1     -33.275  17.605  -2.009  1.00 20.00     0.177 C 
HETATM    2  N9  UNL     1     -32.560  18.479  -1.746  1.00 20.00    -0.172 NA
HETATM    3  N10 UNL     1     -34.107  16.591  -2.311  1.00 20.00    -0.324 N 
HETATM    4  H22 UNL     1     -34.766  16.238  -1.604  1.00 20.00     0.172 HD
ENDROOT
BRANCH   3   5
HETATM    5  C8  UNL     1     -34.542  16.274  -3.688  1.00 20.00     0.096 C 
HETATM    6  C5  UNL     1     -33.556  16.850  -4.723  1.00 20.00     0.031 C 
HETATM    7  C6  UNL     1     -33.080  15.595  -5.480  1.00 20.00    -0.012 C 
HETATM    8  C2  UNL     1     -34.242  15.048  -6.326  1.00 20.00     0.005 C 
HETATM    9  C4  UNL     1     -32.998  14.563  -4.357  1.00 20.00     0.011 C 
HETATM   10  C3  UNL     1     -35.187  14.450  -5.270  1.00 20.00     0.007 C 
HETATM   11  C7  UNL     1     -34.461  14.754  -3.948  1.00 20.00     0.009 C 
ENDBRANCH   3   5
TORSDOF 1
ENDMDL
MODEL 7
REMARK VINA RESULT:      -4.0     11.223     12.530
REMARK  1 active torsions:
REMARK  status: ('A' for Active; 'I' for Inactive)
REMARK    1  A    between atoms: C8_8  and  N10_10 
ROOT
HETATM    1  C1  UNL     1     -35.255  13.666  -4.659  1.00 20.00     0.177 C 
HETATM    2  N9  UNL     1     -35.933  12.948  -5.268  1.00 20.00    -0.172 NA
HETATM    3  N10 UNL     1     -34.465  14.496  -3.954  1.00 20.00    -0.324 N 
HETATM    4  H22 UNL     1     -33.542  14.177  -3.629  1.00 20.00     0.172 HD
ENDROOT
BRANCH   3   5
HETATM    5  C8  UNL     1     -34.549  15.970  -4.036  1.00 20.00     0.096 C 
HETATM    6  C5  UNL     1     -36.005  16.447  -3.872  1.00 20.00     0.031 C 
HETATM    7  C6  UNL     1     -35.933  17.356  -2.631  1.00 20.00    -0.012 C 
HETATM    8  C2  UNL     1     -35.152  18.633  -2.988  1.00 20.00     0.005 C 
HETATM    9  C4  UNL     1     -34.928  16.611  -1.754  1.00 20.00     0.011 C 
HETATM   10  C3  UNL     1     -33.704  18.131  -3.107  1.00 20.00     0.007 C 
HETATM   11  C7  UNL     1     -33.839  16.623  -2.830  1.00 20.00     0.009 C 
ENDBRANCH   3   5
TORSDOF 1
ENDMDL
MODEL 8
REMARK VINA RESULT:      -4.0     11.516     12.672
REMARK  1 active torsions:
REMARK  status: ('A' for Active; 'I' for Inactive)
REMARK    1  A    between atoms: C8_8  and  N10_10 
ROOT
HETATM    1  C1  UNL     1     -38.041  14.910  -4.471  1.00 20.00     0.177 C 
HETATM    2  N9  UNL     1     -38.822  14.253  -5.022  1.00 20.00    -0.172 NA
HETATM    3  N10 UNL     1     -37.137  15.671  -3.828  1.00 20.00    -0.324 N 
HETATM    4  H22 UNL     1     -37.094  15.663  -2.800  1.00 20.00     0.172 HD
ENDROOT
BRANCH   3   5
HETATM    5  C8  UNL     1     -35.865  16.117  -4.437  1.00 20.00     0.096 C 
HETATM    6  C5  UNL     1     -34.786  16.333  -3.358  1.00 20.00     0.031 C 
HETATM    7  C6  UNL     1     -33.675  15.353  -3.781  1.00 20.00    -0.012 C 
HETATM    8  C2  UNL     1     -33.023  15.861  -5.078  1.00 20.00     0.005 C 
HETATM    9  C4  UNL     1     -34.484  14.160  -4.285  1.00 20.00     0.011 C 
HETATM   10  C3  UNL     1     -34.107  15.599  -6.136  1.00 20.00     0.007 C 
HETATM   11  C7  UNL     1     -35.257  14.998  -5.308  1.00 20.00     0.009 C 
ENDBRANCH   3   5
TORSDOF 1
ENDMDL
MODEL 9
REMARK VINA RESULT:      -3.9     11.949     12.836
REMARK  1 active torsions:
REMARK  status: ('A' for Active; 'I' for Inactive)
REMARK    1  A    between atoms: C8_8  and  N10_10 
ROOT
HETATM    1  C1  UNL     1     -37.738  15.053  -4.375  1.00 20.00     0.177 C 
HETATM    2  N9  UNL     1     -38.069  14.130  -4.995  1.00 20.00    -0.172 NA
HETATM    3  N10 UNL     1     -37.356  16.123  -3.654  1.00 20.00    -0.324 N 
HETATM    4  H22 UNL     1     -37.817  16.331  -2.757  1.00 20.00     0.172 HD
ENDROOT
BRANCH   3   5
HETATM    5  C8  UNL     1     -36.012  16.732  -3.745  1.00 20.00     0.096 C 
HETATM    6  C5  UNL     1     -36.037  18.195  -3.261  1.00 20.00     0.031 C 
HETATM    7  C6  UNL     1     -35.037  18.187  -2.089  1.00 20.00    -0.012 C 
HETATM    8  C2  UNL     1     -33.615  17.995  -2.644  1.00 20.00     0.005 C 
HETATM    9  C4  UNL     1     -35.310  16.826  -1.452  1.00 20.00     0.011 C 
HETATM   10  C3  UNL     1     -33.611  16.522  -3.083  1.00 20.00     0.007 C 
HETATM   11  C7  UNL     1     -35.041  16.060  -2.751  1.00 20.00     0.009 C 
ENDBRANCH   3   5
TORSDOF 1
ENDMDL
