MODEL 1
REMARK VINA RESULT:      -6.0      0.000      0.000
REMARK  3 active torsions:
REMARK  status: ('A' for Active; 'I' for Inactive)
REMARK    1  A    between atoms: C6_6  and  C10_10 
REMARK    2  A    between atoms: C7_7  and  N11_11 
REMARK    3  A    between atoms: C9_9  and  N11_11 
ROOT
HETATM    1  C1  UNL     1     -32.665   9.573   0.471  1.00 20.00     0.013 C 
HETATM    2  C2  UNL     1     -32.174   9.108   1.463  1.00 20.00    -0.087 C 
HETATM    3  C9  UNL     1     -31.572   8.543   2.673  1.00 20.00     0.362 C 
ENDROOT
BRANCH   3   4
HETATM    4  N11 UNL     1     -32.237   7.305   3.049  1.00 20.00     0.098 N 
HETATM    5  H28 UNL     1     -31.685   6.824   3.756  1.00 20.00     0.317 HD
BRANCH   4   6
HETATM    6  C7  UNL     1     -33.551   7.573   3.583  1.00 20.00     0.222 C 
HETATM    7  C4  UNL     1     -33.473   8.019   5.043  1.00 20.00     0.036 C 
HETATM    8  C3  UNL     1     -33.610   6.723   5.828  1.00 20.00     0.007 C 
HETATM    9  C6  UNL     1     -34.694   5.977   5.057  1.00 20.00    -0.013 C 
HETATM   10  C5  UNL     1     -34.411   6.301   3.582  1.00 20.00     0.040 C 
BRANCH   9  11
HETATM   11  C10 UNL     1     -34.714   4.486   5.350  1.00 20.00     0.000 C 
HETATM   12  C8  UNL     1     -33.989   3.700   4.304  1.00 20.00     0.005 C 
ENDBRANCH   9  11
ENDBRANCH   4   6
ENDBRANCH   3   4
TORSDOF 3
ENDMDL
MODEL 2
REMARK VINA RESULT:      -5.4      1.098      4.975
REMARK  3 active torsions:
REMARK  status: ('A' for Active; 'I' for Inactive)
REMARK    1  A    between atoms: C6_6  and  C10_10 
REMARK    2  A    between atoms: C7_7  and  N11_11 
REMARK    3  A    between atoms: C9_9  and  N11_11 
ROOT
HETATM    1  C1  UNL     1     -34.490   4.246   4.838  1.00 20.00     0.013 C 
HETATM    2  C2  UNL     1     -34.295   5.407   5.068  1.00 20.00    -0.087 C 
HETATM    3  C9  UNL     1     -34.057   6.824   5.353  1.00 20.00     0.362 C 
ENDROOT
BRANCH   3   4
HETATM    4  N11 UNL     1     -34.033   7.600   4.123  1.00 20.00     0.098 N 
HETATM    5  H28 UNL     1     -33.967   8.590   4.346  1.00 20.00     0.317 HD
BRANCH   4   6
HETATM    6  C7  UNL     1     -32.902   7.227   3.306  1.00 20.00     0.222 C 
HETATM    7  C4  UNL     1     -31.626   7.923   3.781  1.00 20.00     0.036 C 
HETATM    8  C3  UNL     1     -31.579   9.201   2.956  1.00 20.00     0.007 C 
HETATM    9  C6  UNL     1     -32.014   8.724   1.574  1.00 20.00    -0.013 C 
HETATM   10  C5  UNL     1     -33.105   7.679   1.853  1.00 20.00     0.040 C 
BRANCH   9  11
HETATM   11  C10 UNL     1     -32.484   9.855   0.674  1.00 20.00     0.000 C 
HETATM   12  C8  UNL     1     -33.163   9.345  -0.558  1.00 20.00     0.005 C 
ENDBRANCH   9  11
ENDBRANCH   4   6
ENDBRANCH   3   4
TORSDOF 3
ENDMDL
MODEL 3
REMARK VINA RESULT:      -4.8      1.204      1.945
REMARK  3 active torsions:
REMARK  status: ('A' for Active; 'I' for Inactive)
REMARK    1  A    between atoms: C6_6  and  C10_10 
REMARK    2  A    between atoms: C7_7  and  N11_11 
REMARK    3  A    between atoms: C9_9  and  N11_11 
ROOT
HETATM    1  C1  UNL     1     -32.922   9.925   0.054  1.00 20.00     0.013 C 
HETATM    2  C2  UNL     1     -32.378   9.215   0.854  1.00 20.00    -0.087 C 
HETATM    3  C9  UNL     1     -31.711   8.350   1.830  1.00 20.00     0.362 C 
ENDROOT
BRANCH   3   4
HETATM    4  N11 UNL     1     -32.667   7.825   2.792  1.00 20.00     0.098 N 
HETATM    5  H28 UNL     1     -33.487   8.426   2.819  1.00 20.00     0.317 HD
BRANCH   4   6
HETATM    6  C7  UNL     1     -33.077   6.490   2.427  1.00 20.00     0.222 C 
HETATM    7  C4  UNL     1     -34.558   6.451   2.049  1.00 20.00     0.036 C 
HETATM    8  C3  UNL     1     -35.260   6.121   3.358  1.00 20.00     0.007 C 
HETATM    9  C6  UNL     1     -34.347   5.064   3.971  1.00 20.00    -0.013 C 
HETATM   10  C5  UNL     1     -32.927   5.528   3.614  1.00 20.00     0.040 C 
BRANCH   9  11
HETATM   11  C10 UNL     1     -34.562   4.885   5.465  1.00 20.00     0.000 C 
HETATM   12  C8  UNL     1     -34.371   6.165   6.215  1.00 20.00     0.005 C 
ENDBRANCH   9  11
ENDBRANCH   4   6
ENDBRANCH   3   4
TORSDOF 3
ENDMDL
MODEL 4
REMARK VINA RESULT:      -4.4      1.824      4.260
REMARK  3 active torsions:
REMARK  status: ('A' for Active; 'I' for Inactive)
REMARK    1  A    between atoms: C6_6  and  C10_10 
REMARK    2  A    between atoms: C7_7  and  N11_11 
REMARK    3  A    between atoms: C9_9  and  N11_11 
ROOT
HETATM    1  C1  UNL     1     -33.020   7.920   5.953  1.00 20.00     0.013 C 
HETATM    2  C2  UNL     1     -33.856   7.063   6.025  1.00 20.00    -0.087 C 
HETATM    3  C9  UNL     1     -34.880   6.019   6.114  1.00 20.00     0.362 C 
ENDROOT
BRANCH   3   4
HETATM    4  N11 UNL     1     -34.371   4.754   5.609  1.00 20.00     0.098 N 
HETATM    5  H28 UNL     1     -34.767   3.988   6.150  1.00 20.00     0.317 HD
BRANCH   4   6
HETATM    6  C7  UNL     1     -34.723   4.578   4.221  1.00 20.00     0.222 C 
HETATM    7  C4  UNL     1     -33.562   3.979   3.427  1.00 20.00     0.036 C 
HETATM    8  C3  UNL     1     -32.813   5.195   2.902  1.00 20.00     0.007 C 
HETATM    9  C6  UNL     1     -33.943   6.131   2.486  1.00 20.00    -0.013 C 
HETATM   10  C5  UNL     1     -35.024   5.930   3.558  1.00 20.00     0.040 C 
BRANCH   9  11
HETATM   11  C10 UNL     1     -33.497   7.577   2.346  1.00 20.00     0.000 C 
HETATM   12  C8  UNL     1     -32.029   7.736   2.587  1.00 20.00     0.005 C 
ENDBRANCH   9  11
ENDBRANCH   4   6
ENDBRANCH   3   4
TORSDOF 3
ENDMDL
MODEL 5
REMARK VINA RESULT:      -4.2     11.341     12.060
REMARK  3 active torsions:
REMARK  status: ('A' for Active; 'I' for Inactive)
REMARK    1  A    between atoms: C6_6  and  C10_10 
REMARK    2  A    between atoms: C7_7  and  N11_11 
REMARK    3  A    between atoms: C9_9  and  N11_11 
ROOT
HETATM    1  C1  UNL     1     -34.421  13.911  -7.853  1.00 20.00     0.013 C 
HETATM    2  C2  UNL     1     -34.941  13.645  -6.805  1.00 20.00    -0.087 C 
HETATM    3  C9  UNL     1     -35.579  13.318  -5.528  1.00 20.00     0.362 C 
ENDROOT
BRANCH   3   4
HETATM    4  N11 UNL     1     -34.903  13.988  -4.428  1.00 20.00     0.098 N 
HETATM    5  H28 UNL     1     -33.931  13.691  -4.395  1.00 20.00     0.317 HD
BRANCH   4   6
HETATM    6  C7  UNL     1     -34.949  15.421  -4.597  1.00 20.00     0.222 C 
HETATM    7  C4  UNL     1     -33.579  16.051  -4.345  1.00 20.00     0.036 C 
HETATM    8  C3  UNL     1     -33.605  16.401  -2.865  1.00 20.00     0.007 C 
HETATM    9  C6  UNL     1     -35.017  16.945  -2.674  1.00 20.00    -0.013 C 
HETATM   10  C5  UNL     1     -35.895  16.062  -3.572  1.00 20.00     0.040 C 
BRANCH   9  11
HETATM   11  C10 UNL     1     -35.460  16.951  -1.220  1.00 20.00     0.000 C 
HETATM   12  C8  UNL     1     -34.508  17.707  -0.347  1.00 20.00     0.005 C 
ENDBRANCH   9  11
ENDBRANCH   4   6
ENDBRANCH   3   4
TORSDOF 3
ENDMDL
MODEL 6
REMARK VINA RESULT:      -4.1     11.210     12.187
REMARK  3 active torsions:
REMARK  status: ('A' for Active; 'I' for Inactive)
REMARK    1  A    between atoms: C6_6  and  C10_10 
REMARK    2  A    between atoms: C7_7  and  N11_11 
REMARK    3  A    between atoms: C9_9  and  N11_11 
ROOT
HETATM    1  C1  UNL     1     -34.468  17.728  -0.447  1.00 20.00     0.013 C 
HETATM    2  C2  UNL     1     -34.565  17.081  -1.453  1.00 20.00    -0.087 C 
HETATM    3  C9  UNL     1     -34.686  16.290  -2.679  1.00 20.00     0.362 C 
ENDROOT
BRANCH   3   4
HETATM    4  N11 UNL     1     -33.703  16.713  -3.664  1.00 20.00     0.098 N 
HETATM    5  H28 UNL     1     -32.909  17.139  -3.191  1.00 20.00     0.317 HD
BRANCH   4   6
HETATM    6  C7  UNL     1     -33.238  15.587  -4.438  1.00 20.00     0.222 C 
HETATM    7  C4  UNL     1     -33.320  15.876  -5.937  1.00 20.00     0.036 C 
HETATM    8  C3  UNL     1     -34.695  15.358  -6.334  1.00 20.00     0.007 C 
HETATM    9  C6  UNL     1     -34.800  14.054  -5.551  1.00 20.00    -0.013 C 
HETATM   10  C5  UNL     1     -34.127  14.358  -4.203  1.00 20.00     0.040 C 
BRANCH   9  11
HETATM   11  C10 UNL     1     -36.230  13.558  -5.409  1.00 20.00     0.000 C 
HETATM   12  C8  UNL     1     -37.135  14.614  -4.855  1.00 20.00     0.005 C 
ENDBRANCH   9  11
ENDBRANCH   4   6
ENDBRANCH   3   4
TORSDOF 3
ENDMDL
MODEL 7
REMARK VINA RESULT:      -4.1     11.060     12.867
REMARK  3 active torsions:
REMARK  status: ('A' for Active; 'I' for Inactive)
REMARK    1  A    between atoms: C6_6  and  C10_10 
REMARK    2  A    between atoms: C7_7  and  N11_11 
REMARK    3  A    between atoms: C9_9  and  N11_11 
ROOT
HETATM    1  C1  UNL     1     -34.380  16.389  -3.042  1.00 20.00     0.013 C 
HETATM    2  C2  UNL     1     -34.427  15.335  -3.613  1.00 20.00    -0.087 C 
HETATM    3  C9  UNL     1     -34.486  14.047  -4.308  1.00 20.00     0.362 C 
ENDROOT
BRANCH   3   4
HETATM    4  N11 UNL     1     -33.646  14.063  -5.495  1.00 20.00     0.098 N 
HETATM    5  H28 UNL     1     -32.878  13.406  -5.377  1.00 20.00     0.317 HD
BRANCH   4   6
HETATM    6  C7  UNL     1     -34.406  13.690  -6.664  1.00 20.00     0.222 C 
HETATM    7  C4  UNL     1     -34.315  14.765  -7.747  1.00 20.00     0.036 C 
HETATM    8  C3  UNL     1     -35.512  15.663  -7.471  1.00 20.00     0.007 C 
HETATM    9  C6  UNL     1     -36.612  14.662  -7.132  1.00 20.00    -0.013 C 
HETATM   10  C5  UNL     1     -35.899  13.564  -6.328  1.00 20.00     0.040 C 
BRANCH   9  11
HETATM   11  C10 UNL     1     -37.779  15.289  -6.387  1.00 20.00     0.000 C 
HETATM   12  C8  UNL     1     -38.091  14.559  -5.119  1.00 20.00     0.005 C 
ENDBRANCH   9  11
ENDBRANCH   4   6
ENDBRANCH   3   4
TORSDOF 3
ENDMDL
MODEL 8
REMARK VINA RESULT:      -4.0     11.192     12.378
REMARK  3 active torsions:
REMARK  status: ('A' for Active; 'I' for Inactive)
REMARK    1  A    between atoms: C6_6  and  C10_10 
REMARK    2  A    between atoms: C7_7  and  N11_11 
REMARK    3  A    between atoms: C9_9  and  N11_11 
ROOT
HETATM    1  C1  UNL     1     -33.793  16.596  -7.488  1.00 20.00     0.013 C 
HETATM    2  C2  UNL     1     -34.054  15.467  -7.179  1.00 20.00    -0.087 C 
HETATM    3  C9  UNL     1     -34.368  14.087  -6.801  1.00 20.00     0.362 C 
ENDROOT
BRANCH   3   4
HETATM    4  N11 UNL     1     -35.780  13.950  -6.478  1.00 20.00     0.098 N 
HETATM    5  H28 UNL     1     -36.158  13.131  -6.949  1.00 20.00     0.317 HD
BRANCH   4   6
HETATM    6  C7  UNL     1     -35.966  13.801  -5.055  1.00 20.00     0.222 C 
HETATM    7  C4  UNL     1     -36.967  14.826  -4.520  1.00 20.00     0.036 C 
HETATM    8  C3  UNL     1     -36.097  16.004  -4.106  1.00 20.00     0.007 C 
HETATM    9  C6  UNL     1     -34.901  15.322  -3.449  1.00 20.00    -0.013 C 
HETATM   10  C5  UNL     1     -34.656  14.068  -4.301  1.00 20.00     0.040 C 
BRANCH   9  11
HETATM   11  C10 UNL     1     -33.683  16.226  -3.347  1.00 20.00     0.000 C 
HETATM   12  C8  UNL     1     -33.714  17.070  -2.112  1.00 20.00     0.005 C 
ENDBRANCH   9  11
ENDBRANCH   4   6
ENDBRANCH   3   4
TORSDOF 3
ENDMDL
MODEL 9
REMARK VINA RESULT:      -4.0     11.793     12.898
REMARK  3 active torsions:
REMARK  status: ('A' for Active; 'I' for Inactive)
REMARK    1  A    between atoms: C6_6  and  C10_10 
REMARK    2  A    between atoms: C7_7  and  N11_11 
REMARK    3  A    between atoms: C9_9  and  N11_11 
ROOT
HETATM    1  C1  UNL     1     -34.102  16.486  -2.765  1.00 20.00     0.013 C 
HETATM    2  C2  UNL     1     -33.638  15.793  -3.627  1.00 20.00    -0.087 C 
HETATM    3  C9  UNL     1     -33.071  14.944  -4.678  1.00 20.00     0.362 C 
ENDROOT
BRANCH   3   4
HETATM    4  N11 UNL     1     -32.850  15.709  -5.895  1.00 20.00     0.098 N 
HETATM    5  H28 UNL     1     -31.871  15.645  -6.163  1.00 20.00     0.317 HD
BRANCH   4   6
HETATM    6  C7  UNL     1     -33.665  15.202  -6.972  1.00 20.00     0.222 C 
HETATM    7  C4  UNL     1     -34.625  16.274  -7.490  1.00 20.00     0.036 C 
HETATM    8  C3  UNL     1     -35.888  16.061  -6.668  1.00 20.00     0.007 C 
HETATM    9  C6  UNL     1     -36.003  14.540  -6.619  1.00 20.00    -0.013 C 
HETATM   10  C5  UNL     1     -34.554  14.048  -6.489  1.00 20.00     0.040 C 
BRANCH   9  11
HETATM   11  C10 UNL     1     -36.908  14.047  -5.501  1.00 20.00     0.000 C 
HETATM   12  C8  UNL     1     -37.148  15.104  -4.469  1.00 20.00     0.005 C 
ENDBRANCH   9  11
ENDBRANCH   4   6
ENDBRANCH   3   4
TORSDOF 3
ENDMDL
