MODEL 1
REMARK VINA RESULT:      -4.5      0.000      0.000
REMARK  3 active torsions:
REMARK  status: ('A' for Active; 'I' for Inactive)
REMARK    1  A    between atoms: C4_4  and  C6_6 
REMARK    2  A    between atoms: C5_5  and  C6_6 
REMARK    3  A    between atoms: C5_5  and  O8_8 
ROOT
HETATM    1  C1  UNL     1     -33.788   7.218   5.175  1.00 20.00     0.066 C 
HETATM    2  C6  UNL     1     -34.228   6.791   3.831  1.00 20.00     0.116 C 
HETATM    3  N7  UNL     1     -33.441   7.555   6.231  1.00 20.00    -0.197 NA
ENDROOT
BRANCH   2   4
HETATM    4  C4  UNL     1     -35.133   5.551   3.921  1.00 20.00     0.017 C 
HETATM    5  C2  UNL     1     -34.464   4.372   4.618  1.00 20.00     0.006 C 
ENDBRANCH   2   4
BRANCH   2   6
HETATM    6  C5  UNL     1     -33.005   6.489   2.956  1.00 20.00     0.186 C 
BRANCH   6   7
HETATM    7  O8  UNL     1     -32.049   7.534   3.093  1.00 20.00    -0.395 OA
HETATM    8  C3  UNL     1     -32.125   8.453   2.013  1.00 20.00     0.201 C 
ENDBRANCH   6   7
ENDBRANCH   2   6
TORSDOF 3
ENDMDL
MODEL 2
REMARK VINA RESULT:      -4.0      2.378      4.036
REMARK  3 active torsions:
REMARK  status: ('A' for Active; 'I' for Inactive)
REMARK    1  A    between atoms: C4_4  and  C6_6 
REMARK    2  A    between atoms: C5_5  and  C6_6 
REMARK    3  A    between atoms: C5_5  and  O8_8 
ROOT
HETATM    1  C1  UNL     1     -33.099   5.687   2.787  1.00 20.00     0.066 C 
HETATM    2  C6  UNL     1     -33.340   7.058   3.281  1.00 20.00     0.116 C 
HETATM    3  N7  UNL     1     -32.912   4.609   2.399  1.00 20.00    -0.197 NA
ENDROOT
BRANCH   2   4
HETATM    4  C4  UNL     1     -32.066   7.911   3.169  1.00 20.00     0.017 C 
HETATM    5  C2  UNL     1     -31.867   8.509   1.780  1.00 20.00     0.006 C 
ENDBRANCH   2   4
BRANCH   2   6
HETATM    6  C5  UNL     1     -33.816   7.009   4.739  1.00 20.00     0.186 C 
BRANCH   6   7
HETATM    7  O8  UNL     1     -34.869   6.061   4.866  1.00 20.00    -0.395 OA
HETATM    8  C3  UNL     1     -34.578   5.093   5.864  1.00 20.00     0.201 C 
ENDBRANCH   6   7
ENDBRANCH   2   6
TORSDOF 3
ENDMDL
MODEL 3
REMARK VINA RESULT:      -4.0      2.319      3.530
REMARK  3 active torsions:
REMARK  status: ('A' for Active; 'I' for Inactive)
REMARK    1  A    between atoms: C4_4  and  C6_6 
REMARK    2  A    between atoms: C5_5  and  C6_6 
REMARK    3  A    between atoms: C5_5  and  O8_8 
ROOT
HETATM    1  C1  UNL     1     -32.576   8.085   2.309  1.00 20.00     0.066 C 
HETATM    2  C6  UNL     1     -33.345   7.356   3.338  1.00 20.00     0.116 C 
HETATM    3  N7  UNL     1     -31.973   8.657   1.498  1.00 20.00    -0.197 NA
ENDROOT
BRANCH   2   4
HETATM    4  C4  UNL     1     -32.767   7.616   4.739  1.00 20.00     0.017 C 
HETATM    5  C2  UNL     1     -33.775   7.374   5.857  1.00 20.00     0.006 C 
ENDBRANCH   2   4
BRANCH   2   6
HETATM    6  C5  UNL     1     -33.329   5.853   3.032  1.00 20.00     0.186 C 
BRANCH   6   7
HETATM    7  O8  UNL     1     -34.538   5.258   3.489  1.00 20.00    -0.395 OA
HETATM    8  C3  UNL     1     -34.282   4.167   4.361  1.00 20.00     0.201 C 
ENDBRANCH   6   7
ENDBRANCH   2   6
TORSDOF 3
ENDMDL
MODEL 4
REMARK VINA RESULT:      -3.9      2.217      2.641
REMARK  3 active torsions:
REMARK  status: ('A' for Active; 'I' for Inactive)
REMARK    1  A    between atoms: C4_4  and  C6_6 
REMARK    2  A    between atoms: C5_5  and  C6_6 
REMARK    3  A    between atoms: C5_5  and  O8_8 
ROOT
HETATM    1  C1  UNL     1     -32.968   5.683   2.911  1.00 20.00     0.066 C 
HETATM    2  C6  UNL     1     -32.932   7.050   3.471  1.00 20.00     0.116 C 
HETATM    3  N7  UNL     1     -32.993   4.609   2.471  1.00 20.00    -0.197 NA
ENDROOT
BRANCH   2   4
HETATM    4  C4  UNL     1     -34.098   7.270   4.449  1.00 20.00     0.017 C 
HETATM    5  C2  UNL     1     -33.661   7.279   5.909  1.00 20.00     0.006 C 
ENDBRANCH   2   4
BRANCH   2   6
HETATM    6  C5  UNL     1     -32.995   8.078   2.335  1.00 20.00     0.186 C 
BRANCH   6   7
HETATM    7  O8  UNL     1     -31.686   8.312   1.829  1.00 20.00    -0.395 OA
HETATM    8  C3  UNL     1     -31.720   9.091   0.641  1.00 20.00     0.201 C 
ENDBRANCH   6   7
ENDBRANCH   2   6
TORSDOF 3
ENDMDL
MODEL 5
REMARK VINA RESULT:      -3.9      1.633      3.336
REMARK  3 active torsions:
REMARK  status: ('A' for Active; 'I' for Inactive)
REMARK    1  A    between atoms: C4_4  and  C6_6 
REMARK    2  A    between atoms: C5_5  and  C6_6 
REMARK    3  A    between atoms: C5_5  and  O8_8 
ROOT
HETATM    1  C1  UNL     1     -33.467   7.211   5.053  1.00 20.00     0.066 C 
HETATM    2  C6  UNL     1     -33.310   6.662   3.690  1.00 20.00     0.116 C 
HETATM    3  N7  UNL     1     -33.590   7.640   6.125  1.00 20.00    -0.197 NA
ENDROOT
BRANCH   2   4
HETATM    4  C4  UNL     1     -32.881   7.762   2.704  1.00 20.00     0.017 C 
HETATM    5  C2  UNL     1     -31.529   8.377   3.046  1.00 20.00     0.006 C 
ENDBRANCH   2   4
BRANCH   2   6
HETATM    6  C5  UNL     1     -34.628   6.027   3.231  1.00 20.00     0.186 C 
BRANCH   6   7
HETATM    7  O8  UNL     1     -35.124   5.167   4.250  1.00 20.00    -0.395 OA
HETATM    8  C3  UNL     1     -34.294   4.026   4.417  1.00 20.00     0.201 C 
ENDBRANCH   6   7
ENDBRANCH   2   6
TORSDOF 3
ENDMDL
MODEL 6
REMARK VINA RESULT:      -3.8      2.499      3.344
REMARK  3 active torsions:
REMARK  status: ('A' for Active; 'I' for Inactive)
REMARK    1  A    between atoms: C4_4  and  C6_6 
REMARK    2  A    between atoms: C5_5  and  C6_6 
REMARK    3  A    between atoms: C5_5  and  O8_8 
ROOT
HETATM    1  C1  UNL     1     -32.374   8.343   2.056  1.00 20.00     0.066 C 
HETATM    2  C6  UNL     1     -32.436   7.194   2.983  1.00 20.00     0.116 C 
HETATM    3  N7  UNL     1     -32.322   9.245   1.327  1.00 20.00    -0.197 NA
ENDROOT
BRANCH   2   4
HETATM    4  C4  UNL     1     -33.516   6.193   2.542  1.00 20.00     0.017 C 
HETATM    5  C2  UNL     1     -33.078   4.740   2.681  1.00 20.00     0.006 C 
ENDBRANCH   2   4
BRANCH   2   6
HETATM    6  C5  UNL     1     -32.726   7.691   4.405  1.00 20.00     0.186 C 
BRANCH   6   7
HETATM    7  O8  UNL     1     -34.069   7.379   4.755  1.00 20.00    -0.395 OA
HETATM    8  C3  UNL     1     -34.134   6.671   5.986  1.00 20.00     0.201 C 
ENDBRANCH   6   7
ENDBRANCH   2   6
TORSDOF 3
ENDMDL
MODEL 7
REMARK VINA RESULT:      -3.5     11.681     12.417
REMARK  3 active torsions:
REMARK  status: ('A' for Active; 'I' for Inactive)
REMARK    1  A    between atoms: C4_4  and  C6_6 
REMARK    2  A    between atoms: C5_5  and  C6_6 
REMARK    3  A    between atoms: C5_5  and  O8_8 
ROOT
HETATM    1  C1  UNL     1     -35.182  13.698  -4.707  1.00 20.00     0.066 C 
HETATM    2  C6  UNL     1     -34.224  14.609  -4.046  1.00 20.00     0.116 C 
HETATM    3  N7  UNL     1     -35.932  12.980  -5.226  1.00 20.00    -0.197 NA
ENDROOT
BRANCH   2   4
HETATM    4  C4  UNL     1     -34.963  15.756  -3.337  1.00 20.00     0.017 C 
HETATM    5  C2  UNL     1     -34.030  16.674  -2.553  1.00 20.00     0.006 C 
ENDBRANCH   2   4
BRANCH   2   6
HETATM    6  C5  UNL     1     -33.245  15.174  -5.083  1.00 20.00     0.186 C 
BRANCH   6   7
HETATM    7  O8  UNL     1     -33.924  15.387  -6.315  1.00 20.00    -0.395 OA
HETATM    8  C3  UNL     1     -33.805  16.736  -6.746  1.00 20.00     0.201 C 
ENDBRANCH   6   7
ENDBRANCH   2   6
TORSDOF 3
ENDMDL
MODEL 8
REMARK VINA RESULT:      -3.4     11.861     12.487
REMARK  3 active torsions:
REMARK  status: ('A' for Active; 'I' for Inactive)
REMARK    1  A    between atoms: C4_4  and  C6_6 
REMARK    2  A    between atoms: C5_5  and  C6_6 
REMARK    3  A    between atoms: C5_5  and  O8_8 
ROOT
HETATM    1  C1  UNL     1     -35.742  13.871  -4.972  1.00 20.00     0.066 C 
HETATM    2  C6  UNL     1     -35.658  15.289  -4.562  1.00 20.00     0.116 C 
HETATM    3  N7  UNL     1     -35.809  12.759  -5.296  1.00 20.00    -0.197 NA
ENDROOT
BRANCH   2   4
HETATM    4  C4  UNL     1     -34.504  15.502  -3.568  1.00 20.00     0.017 C 
HETATM    5  C2  UNL     1     -34.869  16.436  -2.420  1.00 20.00     0.006 C 
ENDBRANCH   2   4
BRANCH   2   6
HETATM    6  C5  UNL     1     -36.985  15.726  -3.931  1.00 20.00     0.186 C 
BRANCH   6   7
HETATM    7  O8  UNL     1     -38.005  14.792  -4.266  1.00 20.00    -0.395 OA
HETATM    8  C3  UNL     1     -39.161  15.445  -4.772  1.00 20.00     0.201 C 
ENDBRANCH   6   7
ENDBRANCH   2   6
TORSDOF 3
ENDMDL
MODEL 9
REMARK VINA RESULT:      -3.3     11.442     12.149
REMARK  3 active torsions:
REMARK  status: ('A' for Active; 'I' for Inactive)
REMARK    1  A    between atoms: C4_4  and  C6_6 
REMARK    2  A    between atoms: C5_5  and  C6_6 
REMARK    3  A    between atoms: C5_5  and  O8_8 
ROOT
HETATM    1  C1  UNL     1     -35.080  15.588  -3.279  1.00 20.00     0.066 C 
HETATM    2  C6  UNL     1     -34.648  14.391  -4.032  1.00 20.00     0.116 C 
HETATM    3  N7  UNL     1     -35.421  16.526  -2.687  1.00 20.00    -0.197 NA
ENDROOT
BRANCH   2   4
HETATM    4  C4  UNL     1     -33.209  14.560  -4.547  1.00 20.00     0.017 C 
HETATM    5  C2  UNL     1     -33.056  15.719  -5.525  1.00 20.00     0.006 C 
ENDBRANCH   2   4
BRANCH   2   6
HETATM    6  C5  UNL     1     -35.603  14.144  -5.206  1.00 20.00     0.186 C 
BRANCH   6   7
HETATM    7  O8  UNL     1     -35.349  12.862  -5.768  1.00 20.00    -0.395 OA
HETATM    8  C3  UNL     1     -35.205  12.932  -7.179  1.00 20.00     0.201 C 
ENDBRANCH   6   7
ENDBRANCH   2   6
TORSDOF 3
ENDMDL
