MODEL 1
REMARK VINA RESULT:      -5.0      0.000      0.000
REMARK  0 active torsions:
REMARK  status: ('A' for Active; 'I' for Inactive)
ROOT
HETATM    1  C1  UNL     1     -33.382   7.699   5.173  1.00 20.00     0.035 C 
HETATM    2  C2  UNL     1     -33.701   6.223   5.406  1.00 20.00     0.011 C 
HETATM    3  C3  UNL     1     -33.157   5.562   3.015  1.00 20.00     0.043 C 
HETATM    4  C4  UNL     1     -32.506   7.901   3.982  1.00 20.00     0.151 A 
HETATM    5  C5  UNL     1     -32.422   6.860   2.900  1.00 20.00     0.151 A 
HETATM    6  C6  UNL     1     -34.215   5.493   4.143  1.00 20.00    -0.045 C 
HETATM    7  C7  UNL     1     -35.562   6.079   3.673  1.00 20.00     0.015 C 
HETATM    8  C8  UNL     1     -34.459   4.011   4.500  1.00 20.00     0.015 C 
HETATM    9  O9  UNL     1     -33.229   8.027   2.743  1.00 20.00    -0.375 OA
ENDROOT
TORSDOF 0
ENDMDL
MODEL 2
REMARK VINA RESULT:      -4.5      1.457      3.350
REMARK  0 active torsions:
REMARK  status: ('A' for Active; 'I' for Inactive)
ROOT
HETATM    1  C1  UNL     1     -33.565   4.888   2.907  1.00 20.00     0.035 C 
HETATM    2  C2  UNL     1     -32.402   5.875   2.999  1.00 20.00     0.011 C 
HETATM    3  C3  UNL     1     -33.507   7.256   4.822  1.00 20.00     0.043 C 
HETATM    4  C4  UNL     1     -34.407   4.899   4.138  1.00 20.00     0.151 A 
HETATM    5  C5  UNL     1     -34.404   6.084   5.065  1.00 20.00     0.151 A 
HETATM    6  C6  UNL     1     -32.829   7.298   3.430  1.00 20.00    -0.045 C 
HETATM    7  C7  UNL     1     -33.758   7.940   2.382  1.00 20.00     0.015 C 
HETATM    8  C8  UNL     1     -31.565   8.180   3.526  1.00 20.00     0.015 C 
HETATM    9  O9  UNL     1     -35.454   5.888   4.117  1.00 20.00    -0.375 OA
ENDROOT
TORSDOF 0
ENDMDL
MODEL 3
REMARK VINA RESULT:      -4.0     11.699     12.874
REMARK  0 active torsions:
REMARK  status: ('A' for Active; 'I' for Inactive)
ROOT
HETATM    1  C1  UNL     1     -36.643  14.951  -4.512  1.00 20.00     0.035 C 
HETATM    2  C2  UNL     1     -35.575  15.930  -4.998  1.00 20.00     0.011 C 
HETATM    3  C3  UNL     1     -34.474  14.223  -6.523  1.00 20.00     0.043 C 
HETATM    4  C4  UNL     1     -36.821  13.806  -5.451  1.00 20.00     0.151 A 
HETATM    5  C5  UNL     1     -35.735  13.426  -6.420  1.00 20.00     0.151 A 
HETATM    6  C6  UNL     1     -34.241  15.250  -5.387  1.00 20.00    -0.045 C 
HETATM    7  C7  UNL     1     -33.581  14.582  -4.165  1.00 20.00     0.015 C 
HETATM    8  C8  UNL     1     -33.269  16.336  -5.898  1.00 20.00     0.015 C 
HETATM    9  O9  UNL     1     -35.927  12.705  -5.203  1.00 20.00    -0.375 OA
ENDROOT
TORSDOF 0
ENDMDL
MODEL 4
REMARK VINA RESULT:      -4.0      1.726      3.125
REMARK  0 active torsions:
REMARK  status: ('A' for Active; 'I' for Inactive)
ROOT
HETATM    1  C1  UNL     1     -33.560   6.513   5.755  1.00 20.00     0.035 C 
HETATM    2  C2  UNL     1     -33.311   7.534   4.645  1.00 20.00     0.011 C 
HETATM    3  C3  UNL     1     -34.786   6.317   2.973  1.00 20.00     0.043 C 
HETATM    4  C4  UNL     1     -34.802   5.721   5.518  1.00 20.00     0.151 A 
HETATM    5  C5  UNL     1     -35.387   5.596   4.138  1.00 20.00     0.151 A 
HETATM    6  C6  UNL     1     -33.387   6.933   3.222  1.00 20.00    -0.045 C 
HETATM    7  C7  UNL     1     -32.276   5.889   3.000  1.00 20.00     0.015 C 
HETATM    8  C8  UNL     1     -33.161   8.068   2.199  1.00 20.00     0.015 C 
HETATM    9  O9  UNL     1     -34.599   4.550   4.705  1.00 20.00    -0.375 OA
ENDROOT
TORSDOF 0
ENDMDL
MODEL 5
REMARK VINA RESULT:      -3.9     11.782     12.890
REMARK  0 active torsions:
REMARK  status: ('A' for Active; 'I' for Inactive)
ROOT
HETATM    1  C1  UNL     1     -33.281  15.861  -5.763  1.00 20.00     0.035 C 
HETATM    2  C2  UNL     1     -34.660  15.849  -6.421  1.00 20.00     0.011 C 
HETATM    3  C3  UNL     1     -35.510  13.938  -4.981  1.00 20.00     0.043 C 
HETATM    4  C4  UNL     1     -33.297  15.210  -4.421  1.00 20.00     0.151 A 
HETATM    5  C5  UNL     1     -34.379  14.233  -4.048  1.00 20.00     0.151 A 
HETATM    6  C6  UNL     1     -35.331  14.456  -6.430  1.00 20.00    -0.045 C 
HETATM    7  C7  UNL     1     -34.523  13.455  -7.278  1.00 20.00     0.015 C 
HETATM    8  C8  UNL     1     -36.726  14.589  -7.080  1.00 20.00     0.015 C 
HETATM    9  O9  UNL     1     -33.088  13.785  -4.462  1.00 20.00    -0.375 OA
ENDROOT
TORSDOF 0
ENDMDL
MODEL 6
REMARK VINA RESULT:      -3.9     12.056     13.283
REMARK  0 active torsions:
REMARK  status: ('A' for Active; 'I' for Inactive)
ROOT
HETATM    1  C1  UNL     1     -33.441  14.393  -4.702  1.00 20.00     0.035 C 
HETATM    2  C2  UNL     1     -33.484  15.491  -5.765  1.00 20.00     0.011 C 
HETATM    3  C3  UNL     1     -35.919  15.061  -6.343  1.00 20.00     0.043 C 
HETATM    4  C4  UNL     1     -34.804  14.036  -4.213  1.00 20.00     0.151 A 
HETATM    5  C5  UNL     1     -36.025  14.334  -5.040  1.00 20.00     0.151 A 
HETATM    6  C6  UNL     1     -34.485  15.208  -6.909  1.00 20.00    -0.045 C 
HETATM    7  C7  UNL     1     -34.075  13.955  -7.708  1.00 20.00     0.015 C 
HETATM    8  C8  UNL     1     -34.462  16.404  -7.886  1.00 20.00     0.015 C 
HETATM    9  O9  UNL     1     -35.458  13.024  -5.002  1.00 20.00    -0.375 OA
ENDROOT
TORSDOF 0
ENDMDL
MODEL 7
REMARK VINA RESULT:      -3.9     11.640     12.840
REMARK  0 active torsions:
REMARK  status: ('A' for Active; 'I' for Inactive)
ROOT
HETATM    1  C1  UNL     1     -35.823  13.592  -4.996  1.00 20.00     0.035 C 
HETATM    2  C2  UNL     1     -35.352  14.902  -4.366  1.00 20.00     0.011 C 
HETATM    3  C3  UNL     1     -33.816  15.471  -6.307  1.00 20.00     0.043 C 
HETATM    4  C4  UNL     1     -35.602  13.570  -6.471  1.00 20.00     0.151 A 
HETATM    5  C5  UNL     1     -34.586  14.473  -7.114  1.00 20.00     0.151 A 
HETATM    6  C6  UNL     1     -33.914  15.303  -4.771  1.00 20.00    -0.045 C 
HETATM    7  C7  UNL     1     -32.886  14.273  -4.262  1.00 20.00     0.015 C 
HETATM    8  C8  UNL     1     -33.577  16.655  -4.106  1.00 20.00     0.015 C 
HETATM    9  O9  UNL     1     -34.297  13.099  -6.856  1.00 20.00    -0.375 OA
ENDROOT
TORSDOF 0
ENDMDL
MODEL 8
REMARK VINA RESULT:      -3.9      1.241      2.122
REMARK  0 active torsions:
REMARK  status: ('A' for Active; 'I' for Inactive)
ROOT
HETATM    1  C1  UNL     1     -34.669   5.544   5.627  1.00 20.00     0.035 C 
HETATM    2  C2  UNL     1     -34.018   4.752   4.493  1.00 20.00     0.011 C 
HETATM    3  C3  UNL     1     -32.764   6.766   3.588  1.00 20.00     0.043 C 
HETATM    4  C4  UNL     1     -33.924   6.801   5.929  1.00 20.00     0.151 A 
HETATM    5  C5  UNL     1     -33.011   7.423   4.909  1.00 20.00     0.151 A 
HETATM    6  C6  UNL     1     -33.720   5.600   3.235  1.00 20.00    -0.045 C 
HETATM    7  C7  UNL     1     -35.022   6.126   2.599  1.00 20.00     0.015 C 
HETATM    8  C8  UNL     1     -33.030   4.698   2.189  1.00 20.00     0.015 C 
HETATM    9  O9  UNL     1     -34.330   7.925   5.126  1.00 20.00    -0.375 OA
ENDROOT
TORSDOF 0
ENDMDL
MODEL 9
REMARK VINA RESULT:      -3.8     11.746     12.868
REMARK  0 active torsions:
REMARK  status: ('A' for Active; 'I' for Inactive)
ROOT
HETATM    1  C1  UNL     1     -36.668  15.751  -6.234  1.00 20.00     0.035 C 
HETATM    2  C2  UNL     1     -35.311  16.175  -5.674  1.00 20.00     0.011 C 
HETATM    3  C3  UNL     1     -34.984  14.010  -4.386  1.00 20.00     0.043 C 
HETATM    4  C4  UNL     1     -36.850  14.271  -6.198  1.00 20.00     0.151 A 
HETATM    5  C5  UNL     1     -36.042  13.415  -5.261  1.00 20.00     0.151 A 
HETATM    6  C6  UNL     1     -34.989  15.556  -4.294  1.00 20.00    -0.045 C 
HETATM    7  C7  UNL     1     -35.984  16.043  -3.222  1.00 20.00     0.015 C 
HETATM    8  C8  UNL     1     -33.583  16.027  -3.863  1.00 20.00     0.015 C 
HETATM    9  O9  UNL     1     -37.389  13.780  -4.956  1.00 20.00    -0.375 OA
ENDROOT
TORSDOF 0
ENDMDL
