MODEL 1
REMARK VINA RESULT:      -4.7      0.000      0.000
REMARK  0 active torsions:
REMARK  status: ('A' for Active; 'I' for Inactive)
ROOT
HETATM    1  C1  UNL     1     -33.595   7.718   5.200  1.00 20.00     0.035 C 
HETATM    2  C2  UNL     1     -33.679   6.199   5.364  1.00 20.00     0.011 C 
HETATM    3  C3  UNL     1     -33.258   5.726   2.913  1.00 20.00     0.043 C 
HETATM    4  C4  UNL     1     -32.995   8.140   3.901  1.00 20.00     0.151 A 
HETATM    5  C5  UNL     1     -32.872   7.166   2.762  1.00 20.00     0.151 A 
HETATM    6  C6  UNL     1     -34.210   5.471   4.106  1.00 20.00    -0.045 C 
HETATM    7  C7  UNL     1     -34.254   3.958   4.391  1.00 20.00     0.015 C 
HETATM    8  C8  UNL     1     -35.637   5.936   3.757  1.00 20.00     0.015 C 
HETATM    9  O9  UNL     1     -31.742   7.540   3.575  1.00 20.00    -0.375 OA
ENDROOT
TORSDOF 0
ENDMDL
MODEL 2
REMARK VINA RESULT:      -4.3      1.602      3.357
REMARK  0 active torsions:
REMARK  status: ('A' for Active; 'I' for Inactive)
ROOT
HETATM    1  C1  UNL     1     -34.063   5.154   3.245  1.00 20.00     0.035 C 
HETATM    2  C2  UNL     1     -32.753   5.941   3.163  1.00 20.00     0.011 C 
HETATM    3  C3  UNL     1     -33.287   7.398   5.163  1.00 20.00     0.043 C 
HETATM    4  C4  UNL     1     -34.780   5.334   4.541  1.00 20.00     0.151 A 
HETATM    5  C5  UNL     1     -34.423   6.468   5.463  1.00 20.00     0.151 A 
HETATM    6  C6  UNL     1     -32.874   7.397   3.671  1.00 20.00    -0.045 C 
HETATM    7  C7  UNL     1     -31.504   8.085   3.535  1.00 20.00     0.015 C 
HETATM    8  C8  UNL     1     -33.896   8.192   2.836  1.00 20.00     0.015 C 
HETATM    9  O9  UNL     1     -33.999   5.114   5.716  1.00 20.00    -0.375 OA
ENDROOT
TORSDOF 0
ENDMDL
MODEL 3
REMARK VINA RESULT:      -4.0     12.078     12.778
REMARK  0 active torsions:
REMARK  status: ('A' for Active; 'I' for Inactive)
ROOT
HETATM    1  C1  UNL     1     -34.159  14.076  -6.281  1.00 20.00     0.035 C 
HETATM    2  C2  UNL     1     -33.765  14.701  -4.941  1.00 20.00     0.011 C 
HETATM    3  C3  UNL     1     -36.153  14.936  -4.137  1.00 20.00     0.043 C 
HETATM    4  C4  UNL     1     -35.574  13.603  -6.319  1.00 20.00     0.151 A 
HETATM    5  C5  UNL     1     -36.564  14.065  -5.285  1.00 20.00     0.151 A 
HETATM    6  C6  UNL     1     -34.821  15.684  -4.383  1.00 20.00    -0.045 C 
HETATM    7  C7  UNL     1     -34.313  16.248  -3.044  1.00 20.00     0.015 C 
HETATM    8  C8  UNL     1     -35.043  16.864  -5.348  1.00 20.00     0.015 C 
HETATM    9  O9  UNL     1     -35.970  12.752  -5.243  1.00 20.00    -0.375 OA
ENDROOT
TORSDOF 0
ENDMDL
MODEL 4
REMARK VINA RESULT:      -4.0     11.803     13.108
REMARK  0 active torsions:
REMARK  status: ('A' for Active; 'I' for Inactive)
ROOT
HETATM    1  C1  UNL     1     -34.546  14.689  -7.462  1.00 20.00     0.035 C 
HETATM    2  C2  UNL     1     -33.702  15.084  -6.248  1.00 20.00     0.011 C 
HETATM    3  C3  UNL     1     -35.284  14.035  -4.574  1.00 20.00     0.043 C 
HETATM    4  C4  UNL     1     -35.582  13.662  -7.152  1.00 20.00     0.151 A 
HETATM    5  C5  UNL     1     -35.974  13.374  -5.728  1.00 20.00     0.151 A 
HETATM    6  C6  UNL     1     -34.537  15.331  -4.969  1.00 20.00    -0.045 C 
HETATM    7  C7  UNL     1     -33.585  15.724  -3.824  1.00 20.00     0.015 C 
HETATM    8  C8  UNL     1     -35.540  16.481  -5.176  1.00 20.00     0.015 C 
HETATM    9  O9  UNL     1     -35.113  12.494  -6.478  1.00 20.00    -0.375 OA
ENDROOT
TORSDOF 0
ENDMDL
MODEL 5
REMARK VINA RESULT:      -3.9      1.364      2.175
REMARK  0 active torsions:
REMARK  status: ('A' for Active; 'I' for Inactive)
ROOT
HETATM    1  C1  UNL     1     -34.803   5.464   5.734  1.00 20.00     0.035 C 
HETATM    2  C2  UNL     1     -34.002   4.781   4.623  1.00 20.00     0.011 C 
HETATM    3  C3  UNL     1     -33.015   6.943   3.751  1.00 20.00     0.043 C 
HETATM    4  C4  UNL     1     -34.375   6.870   5.992  1.00 20.00     0.151 A 
HETATM    5  C5  UNL     1     -33.530   7.610   4.990  1.00 20.00     0.151 A 
HETATM    6  C6  UNL     1     -33.804   5.667   3.370  1.00 20.00    -0.045 C 
HETATM    7  C7  UNL     1     -32.994   4.876   2.327  1.00 20.00     0.015 C 
HETATM    8  C8  UNL     1     -35.157   6.047   2.740  1.00 20.00     0.015 C 
HETATM    9  O9  UNL     1     -32.977   7.062   6.203  1.00 20.00    -0.375 OA
ENDROOT
TORSDOF 0
ENDMDL
MODEL 6
REMARK VINA RESULT:      -3.8      1.694      3.185
REMARK  0 active torsions:
REMARK  status: ('A' for Active; 'I' for Inactive)
ROOT
HETATM    1  C1  UNL     1     -33.966   7.164   5.381  1.00 20.00     0.035 C 
HETATM    2  C2  UNL     1     -33.930   8.066   4.145  1.00 20.00     0.011 C 
HETATM    3  C3  UNL     1     -33.568   6.151   2.530  1.00 20.00     0.043 C 
HETATM    4  C4  UNL     1     -34.136   5.718   5.053  1.00 20.00     0.151 A 
HETATM    5  C5  UNL     1     -33.896   5.217   3.654  1.00 20.00     0.151 A 
HETATM    6  C6  UNL     1     -33.032   7.521   3.009  1.00 20.00    -0.045 C 
HETATM    7  C7  UNL     1     -33.071   8.510   1.830  1.00 20.00     0.015 C 
HETATM    8  C8  UNL     1     -31.570   7.386   3.475  1.00 20.00     0.015 C 
HETATM    9  O9  UNL     1     -35.224   5.405   4.182  1.00 20.00    -0.375 OA
ENDROOT
TORSDOF 0
ENDMDL
MODEL 7
REMARK VINA RESULT:      -3.8     11.794     12.915
REMARK  0 active torsions:
REMARK  status: ('A' for Active; 'I' for Inactive)
ROOT
HETATM    1  C1  UNL     1     -35.723  13.650  -5.637  1.00 20.00     0.035 C 
HETATM    2  C2  UNL     1     -35.073  14.188  -4.360  1.00 20.00     0.011 C 
HETATM    3  C3  UNL     1     -36.809  15.998  -4.017  1.00 20.00     0.043 C 
HETATM    4  C4  UNL     1     -37.117  14.139  -5.842  1.00 20.00     0.151 A 
HETATM    5  C5  UNL     1     -37.634  15.325  -5.072  1.00 20.00     0.151 A 
HETATM    6  C6  UNL     1     -35.295  15.704  -4.145  1.00 20.00    -0.045 C 
HETATM    7  C7  UNL     1     -34.595  16.127  -2.841  1.00 20.00     0.015 C 
HETATM    8  C8  UNL     1     -34.690  16.522  -5.302  1.00 20.00     0.015 C 
HETATM    9  O9  UNL     1     -38.000  13.973  -4.732  1.00 20.00    -0.375 OA
ENDROOT
TORSDOF 0
ENDMDL
MODEL 8
REMARK VINA RESULT:      -3.8      8.552     10.005
REMARK  0 active torsions:
REMARK  status: ('A' for Active; 'I' for Inactive)
ROOT
HETATM    1  C1  UNL     1     -40.695   6.371   0.102  1.00 20.00     0.035 C 
HETATM    2  C2  UNL     1     -41.218   5.295  -0.852  1.00 20.00     0.011 C 
HETATM    3  C3  UNL     1     -43.417   6.474  -1.274  1.00 20.00     0.043 C 
HETATM    4  C4  UNL     1     -41.473   7.643   0.042  1.00 20.00     0.151 A 
HETATM    5  C5  UNL     1     -42.834   7.678  -0.599  1.00 20.00     0.151 A 
HETATM    6  C6  UNL     1     -42.757   5.146  -0.831  1.00 20.00    -0.045 C 
HETATM    7  C7  UNL     1     -43.162   4.038  -1.821  1.00 20.00     0.015 C 
HETATM    8  C8  UNL     1     -43.257   4.745   0.570  1.00 20.00     0.015 C 
HETATM    9  O9  UNL     1     -41.662   8.191  -1.263  1.00 20.00    -0.375 OA
ENDROOT
TORSDOF 0
ENDMDL
MODEL 9
REMARK VINA RESULT:      -3.7     12.150     13.583
REMARK  0 active torsions:
REMARK  status: ('A' for Active; 'I' for Inactive)
ROOT
HETATM    1  C1  UNL     1     -37.251  14.517  -6.321  1.00 20.00     0.035 C 
HETATM    2  C2  UNL     1     -36.153  14.743  -7.363  1.00 20.00     0.011 C 
HETATM    3  C3  UNL     1     -34.262  14.432  -5.710  1.00 20.00     0.043 C 
HETATM    4  C4  UNL     1     -36.747  13.913  -5.053  1.00 20.00     0.151 A 
HETATM    5  C5  UNL     1     -35.276  13.913  -4.737  1.00 20.00     0.151 A 
HETATM    6  C6  UNL     1     -34.867  15.373  -6.779  1.00 20.00    -0.045 C 
HETATM    7  C7  UNL     1     -33.844  15.556  -7.916  1.00 20.00     0.015 C 
HETATM    8  C8  UNL     1     -35.156  16.757  -6.167  1.00 20.00     0.015 C 
HETATM    9  O9  UNL     1     -35.958  12.732  -5.202  1.00 20.00    -0.375 OA
ENDROOT
TORSDOF 0
ENDMDL
