MODEL 1
REMARK VINA RESULT:      -5.6      0.000      0.000
REMARK  0 active torsions:
REMARK  status: ('A' for Active; 'I' for Inactive)
ROOT
HETATM    1  C1  UNL     1     -33.710   7.642   5.620  1.00 20.00     0.004 C 
HETATM    2  C2  UNL     1     -32.518   7.960   4.721  1.00 20.00     0.040 C 
HETATM    3  C3  UNL     1     -34.024   6.142   5.625  1.00 20.00     0.009 C 
HETATM    4  C4  UNL     1     -33.036   5.913   3.298  1.00 20.00     0.049 C 
HETATM    5  C5  UNL     1     -33.091   8.284   2.192  1.00 20.00     0.207 A 
HETATM    6  C6  UNL     1     -32.733   7.384   3.354  1.00 20.00     0.083 A 
HETATM    7  C7  UNL     1     -34.234   5.549   4.208  1.00 20.00    -0.045 C 
HETATM    8  C8  UNL     1     -35.549   6.067   3.594  1.00 20.00     0.015 C 
HETATM    9  C9  UNL     1     -34.330   4.017   4.319  1.00 20.00     0.015 C 
HETATM   10  O10 UNL     1     -31.755   7.805   2.392  1.00 20.00    -0.375 OA
ENDROOT
TORSDOF 0
ENDMDL
MODEL 2
REMARK VINA RESULT:      -4.7     11.496     12.790
REMARK  0 active torsions:
REMARK  status: ('A' for Active; 'I' for Inactive)
ROOT
HETATM    1  C1  UNL     1     -33.758  15.543  -6.638  1.00 20.00     0.004 C 
HETATM    2  C2  UNL     1     -34.231  14.105  -6.441  1.00 20.00     0.040 C 
HETATM    3  C3  UNL     1     -33.263  16.156  -5.323  1.00 20.00     0.009 C 
HETATM    4  C4  UNL     1     -34.799  14.619  -4.013  1.00 20.00     0.049 C 
HETATM    5  C5  UNL     1     -36.704  13.853  -5.635  1.00 20.00     0.207 A 
HETATM    6  C6  UNL     1     -35.235  14.040  -5.329  1.00 20.00     0.083 A 
HETATM    7  C7  UNL     1     -34.300  16.075  -4.174  1.00 20.00    -0.045 C 
HETATM    8  C8  UNL     1     -35.487  17.019  -4.447  1.00 20.00     0.015 C 
HETATM    9  C9  UNL     1     -33.627  16.521  -2.864  1.00 20.00     0.015 C 
HETATM   10  O10 UNL     1     -35.878  12.761  -5.209  1.00 20.00    -0.375 OA
ENDROOT
TORSDOF 0
ENDMDL
MODEL 3
REMARK VINA RESULT:      -4.3     11.159     12.552
REMARK  0 active torsions:
REMARK  status: ('A' for Active; 'I' for Inactive)
ROOT
HETATM    1  C1  UNL     1     -33.604  15.399  -4.000  1.00 20.00     0.004 C 
HETATM    2  C2  UNL     1     -34.179  13.992  -4.141  1.00 20.00     0.040 C 
HETATM    3  C3  UNL     1     -34.636  16.370  -3.417  1.00 20.00     0.009 C 
HETATM    4  C4  UNL     1     -36.520  14.965  -4.372  1.00 20.00     0.049 C 
HETATM    5  C5  UNL     1     -35.523  13.557  -6.339  1.00 20.00     0.207 A 
HETATM    6  C6  UNL     1     -35.468  14.034  -4.905  1.00 20.00     0.083 A 
HETATM    7  C7  UNL     1     -35.971  16.401  -4.204  1.00 20.00    -0.045 C 
HETATM    8  C8  UNL     1     -35.772  17.062  -5.582  1.00 20.00     0.015 C 
HETATM    9  C9  UNL     1     -36.993  17.240  -3.416  1.00 20.00     0.015 C 
HETATM   10  O10 UNL     1     -35.973  12.736  -5.254  1.00 20.00    -0.375 OA
ENDROOT
TORSDOF 0
ENDMDL
MODEL 4
REMARK VINA RESULT:      -4.1     11.464     12.884
REMARK  0 active torsions:
REMARK  status: ('A' for Active; 'I' for Inactive)
ROOT
HETATM    1  C1  UNL     1     -35.208  15.624  -7.020  1.00 20.00     0.004 C 
HETATM    2  C2  UNL     1     -36.365  14.659  -6.778  1.00 20.00     0.040 C 
HETATM    3  C3  UNL     1     -33.928  15.151  -6.324  1.00 20.00     0.009 C 
HETATM    4  C4  UNL     1     -35.311  13.937  -4.576  1.00 20.00     0.049 C 
HETATM    5  C5  UNL     1     -37.683  15.042  -4.554  1.00 20.00     0.207 A 
HETATM    6  C6  UNL     1     -36.534  14.412  -5.309  1.00 20.00     0.083 A 
HETATM    7  C7  UNL     1     -34.110  14.886  -4.807  1.00 20.00    -0.045 C 
HETATM    8  C8  UNL     1     -34.321  16.210  -4.048  1.00 20.00     0.015 C 
HETATM    9  C9  UNL     1     -32.834  14.221  -4.261  1.00 20.00     0.015 C 
HETATM   10  O10 UNL     1     -37.721  13.675  -4.982  1.00 20.00    -0.375 OA
ENDROOT
TORSDOF 0
ENDMDL
MODEL 5
REMARK VINA RESULT:      -4.1     11.291     12.619
REMARK  0 active torsions:
REMARK  status: ('A' for Active; 'I' for Inactive)
ROOT
HETATM    1  C1  UNL     1     -34.758  15.482  -3.791  1.00 20.00     0.004 C 
HETATM    2  C2  UNL     1     -34.690  14.022  -4.229  1.00 20.00     0.040 C 
HETATM    3  C3  UNL     1     -36.205  15.932  -3.560  1.00 20.00     0.009 C 
HETATM    4  C4  UNL     1     -37.022  14.209  -5.235  1.00 20.00     0.049 C 
HETATM    5  C5  UNL     1     -35.004  13.618  -6.792  1.00 20.00     0.207 A 
HETATM    6  C6  UNL     1     -35.588  13.794  -5.408  1.00 20.00     0.083 A 
HETATM    7  C7  UNL     1     -37.131  15.683  -4.778  1.00 20.00    -0.045 C 
HETATM    8  C8  UNL     1     -36.768  16.631  -5.937  1.00 20.00     0.015 C 
HETATM    9  C9  UNL     1     -38.585  15.972  -4.364  1.00 20.00     0.015 C 
HETATM   10  O10 UNL     1     -35.434  12.498  -6.007  1.00 20.00    -0.375 OA
ENDROOT
TORSDOF 0
ENDMDL
MODEL 6
REMARK VINA RESULT:      -4.0     11.723     12.941
REMARK  0 active torsions:
REMARK  status: ('A' for Active; 'I' for Inactive)
ROOT
HETATM    1  C1  UNL     1     -33.917  17.357  -5.868  1.00 20.00     0.004 C 
HETATM    2  C2  UNL     1     -33.549  15.914  -6.203  1.00 20.00     0.040 C 
HETATM    3  C3  UNL     1     -33.571  17.702  -4.416  1.00 20.00     0.009 C 
HETATM    4  C4  UNL     1     -33.844  15.266  -3.758  1.00 20.00     0.049 C 
HETATM    5  C5  UNL     1     -35.354  14.133  -5.570  1.00 20.00     0.207 A 
HETATM    6  C6  UNL     1     -34.157  14.980  -5.200  1.00 20.00     0.083 A 
HETATM    7  C7  UNL     1     -34.193  16.726  -3.384  1.00 20.00    -0.045 C 
HETATM    8  C8  UNL     1     -35.721  16.910  -3.317  1.00 20.00     0.015 C 
HETATM    9  C9  UNL     1     -33.614  17.039  -1.992  1.00 20.00     0.015 C 
HETATM   10  O10 UNL     1     -34.026  13.594  -5.551  1.00 20.00    -0.375 OA
ENDROOT
TORSDOF 0
ENDMDL
MODEL 7
REMARK VINA RESULT:      -3.9     11.640     13.368
REMARK  0 active torsions:
REMARK  status: ('A' for Active; 'I' for Inactive)
ROOT
HETATM    1  C1  UNL     1     -33.208  14.703  -4.563  1.00 20.00     0.004 C 
HETATM    2  C2  UNL     1     -34.598  14.786  -3.937  1.00 20.00     0.040 C 
HETATM    3  C3  UNL     1     -32.987  15.820  -5.588  1.00 20.00     0.009 C 
HETATM    4  C4  UNL     1     -35.483  15.919  -6.038  1.00 20.00     0.049 C 
HETATM    5  C5  UNL     1     -36.499  13.623  -5.301  1.00 20.00     0.207 A 
HETATM    6  C6  UNL     1     -35.645  14.836  -5.008  1.00 20.00     0.083 A 
HETATM    7  C7  UNL     1     -34.080  15.875  -6.687  1.00 20.00    -0.045 C 
HETATM    8  C8  UNL     1     -33.963  14.660  -7.628  1.00 20.00     0.015 C 
HETATM    9  C9  UNL     1     -33.876  17.149  -7.527  1.00 20.00     0.015 C 
HETATM   10  O10 UNL     1     -36.985  14.714  -4.509  1.00 20.00    -0.375 OA
ENDROOT
TORSDOF 0
ENDMDL
MODEL 8
REMARK VINA RESULT:      -3.9      1.872      3.469
REMARK  0 active torsions:
REMARK  status: ('A' for Active; 'I' for Inactive)
ROOT
HETATM    1  C1  UNL     1     -33.383   7.170   5.840  1.00 20.00     0.004 C 
HETATM    2  C2  UNL     1     -34.512   6.144   5.787  1.00 20.00     0.040 C 
HETATM    3  C3  UNL     1     -33.390   8.075   4.603  1.00 20.00     0.009 C 
HETATM    4  C4  UNL     1     -34.481   6.232   3.242  1.00 20.00     0.049 C 
HETATM    5  C5  UNL     1     -33.970   3.966   4.448  1.00 20.00     0.207 A 
HETATM    6  C6  UNL     1     -34.468   5.393   4.490  1.00 20.00     0.083 A 
HETATM    7  C7  UNL     1     -33.356   7.294   3.265  1.00 20.00    -0.045 C 
HETATM    8  C8  UNL     1     -31.983   6.623   3.064  1.00 20.00     0.015 C 
HETATM    9  C9  UNL     1     -33.577   8.282   2.106  1.00 20.00     0.015 C 
HETATM   10  O10 UNL     1     -35.370   4.277   4.440  1.00 20.00    -0.375 OA
ENDROOT
TORSDOF 0
ENDMDL
MODEL 9
REMARK VINA RESULT:      -3.7     11.597     12.355
REMARK  0 active torsions:
REMARK  status: ('A' for Active; 'I' for Inactive)
ROOT
HETATM    1  C1  UNL     1     -35.503  16.800  -3.320  1.00 20.00     0.004 C 
HETATM    2  C2  UNL     1     -34.412  15.747  -3.139  1.00 20.00     0.040 C 
HETATM    3  C3  UNL     1     -36.844  16.158  -3.690  1.00 20.00     0.009 C 
HETATM    4  C4  UNL     1     -35.630  14.198  -4.751  1.00 20.00     0.049 C 
HETATM    5  C5  UNL     1     -33.212  15.005  -5.338  1.00 20.00     0.207 A 
HETATM    6  C6  UNL     1     -34.344  14.861  -4.346  1.00 20.00     0.083 A 
HETATM    7  C7  UNL     1     -36.766  15.234  -4.932  1.00 20.00    -0.045 C 
HETATM    8  C8  UNL     1     -36.534  16.062  -6.211  1.00 20.00     0.015 C 
HETATM    9  C9  UNL     1     -38.104  14.489  -5.083  1.00 20.00     0.015 C 
HETATM   10  O10 UNL     1     -33.216  13.972  -4.344  1.00 20.00    -0.375 OA
ENDROOT
TORSDOF 0
ENDMDL
