MODEL 1
REMARK VINA RESULT:      -4.9      0.000      0.000
REMARK  3 active torsions:
REMARK  status: ('A' for Active; 'I' for Inactive)
REMARK    1  A    between atoms: C4_4  and  C5_5 
REMARK    2  A    between atoms: C4_4  and  C6_6 
REMARK    3  A    between atoms: C5_5  and  C7_7 
ROOT
HETATM    1  C5  UNL     1     -33.199   6.227   3.167  1.00 20.00     0.009 C 
ENDROOT
BRANCH   1   2
HETATM    2  C4  UNL     1     -32.641   7.641   3.371  1.00 20.00     0.016 C 
BRANCH   2   3
HETATM    3  C6  UNL     1     -31.880   8.106   2.133  1.00 20.00     0.114 C 
HETATM    4 CL8  UNL     1     -32.653   9.547   1.435  1.00 20.00    -0.130 Cl
ENDBRANCH   2   3
ENDBRANCH   1   2
BRANCH   1   5
HETATM    5  C7  UNL     1     -34.274   5.770   4.189  1.00 20.00    -0.051 C 
HETATM    6  C1  UNL     1     -34.210   4.253   4.427  1.00 20.00     0.014 C 
HETATM    7  C2  UNL     1     -34.109   6.501   5.533  1.00 20.00     0.014 C 
HETATM    8  C3  UNL     1     -35.661   6.116   3.612  1.00 20.00     0.014 C 
ENDBRANCH   1   5
TORSDOF 3
ENDMDL
MODEL 2
REMARK VINA RESULT:      -4.8      0.063      1.529
REMARK  3 active torsions:
REMARK  status: ('A' for Active; 'I' for Inactive)
REMARK    1  A    between atoms: C4_4  and  C5_5 
REMARK    2  A    between atoms: C4_4  and  C6_6 
REMARK    3  A    between atoms: C5_5  and  C7_7 
ROOT
HETATM    1  C5  UNL     1     -33.160   6.225   3.139  1.00 20.00     0.009 C 
ENDROOT
BRANCH   1   2
HETATM    2  C4  UNL     1     -32.626   7.651   3.323  1.00 20.00     0.016 C 
BRANCH   2   3
HETATM    3  C6  UNL     1     -31.907   8.127   2.064  1.00 20.00     0.114 C 
HETATM    4 CL8  UNL     1     -32.673   9.602   1.432  1.00 20.00    -0.130 Cl
ENDBRANCH   2   3
ENDBRANCH   1   2
BRANCH   1   5
HETATM    5  C7  UNL     1     -34.275   5.787   4.126  1.00 20.00    -0.051 C 
HETATM    6  C1  UNL     1     -35.670   6.131   3.580  1.00 20.00     0.014 C 
HETATM    7  C2  UNL     1     -34.201   4.278   4.414  1.00 20.00     0.014 C 
HETATM    8  C3  UNL     1     -34.068   6.548   5.451  1.00 20.00     0.014 C 
ENDBRANCH   1   5
TORSDOF 3
ENDMDL
MODEL 3
REMARK VINA RESULT:      -4.8      0.056      1.531
REMARK  3 active torsions:
REMARK  status: ('A' for Active; 'I' for Inactive)
REMARK    1  A    between atoms: C4_4  and  C5_5 
REMARK    2  A    between atoms: C4_4  and  C6_6 
REMARK    3  A    between atoms: C5_5  and  C7_7 
ROOT
HETATM    1  C5  UNL     1     -33.194   6.241   3.122  1.00 20.00     0.009 C 
ENDROOT
BRANCH   1   2
HETATM    2  C4  UNL     1     -32.592   7.634   3.343  1.00 20.00     0.016 C 
BRANCH   2   3
HETATM    3  C6  UNL     1     -31.875   8.120   2.087  1.00 20.00     0.114 C 
HETATM    4 CL8  UNL     1     -32.674   9.570   1.438  1.00 20.00    -0.130 Cl
ENDBRANCH   2   3
ENDBRANCH   1   2
BRANCH   1   5
HETATM    5  C7  UNL     1     -34.288   5.809   4.135  1.00 20.00    -0.051 C 
HETATM    6  C1  UNL     1     -34.099   6.506   5.492  1.00 20.00     0.014 C 
HETATM    7  C2  UNL     1     -35.696   6.118   3.598  1.00 20.00     0.014 C 
HETATM    8  C3  UNL     1     -34.170   4.287   4.348  1.00 20.00     0.014 C 
ENDBRANCH   1   5
TORSDOF 3
ENDMDL
MODEL 4
REMARK VINA RESULT:      -4.3      2.484      4.812
REMARK  3 active torsions:
REMARK  status: ('A' for Active; 'I' for Inactive)
REMARK    1  A    between atoms: C4_4  and  C5_5 
REMARK    2  A    between atoms: C4_4  and  C6_6 
REMARK    3  A    between atoms: C5_5  and  C7_7 
ROOT
HETATM    1  C5  UNL     1     -33.350   8.352   1.846  1.00 20.00     0.009 C 
ENDROOT
BRANCH   1   2
HETATM    2  C4  UNL     1     -32.536   7.733   2.989  1.00 20.00     0.016 C 
BRANCH   2   3
HETATM    3  C6  UNL     1     -33.404   6.798   3.827  1.00 20.00     0.114 C 
HETATM    4 CL8  UNL     1     -33.527   7.396   5.497  1.00 20.00    -0.130 Cl
ENDBRANCH   2   3
ENDBRANCH   1   2
BRANCH   1   5
HETATM    5  C7  UNL     1     -32.566   9.292   0.891  1.00 20.00    -0.051 C 
HETATM    6  C1  UNL     1     -33.203   9.323  -0.508  1.00 20.00     0.014 C 
HETATM    7  C2  UNL     1     -32.501  10.724   1.450  1.00 20.00     0.014 C 
HETATM    8  C3  UNL     1     -31.128   8.753   0.761  1.00 20.00     0.014 C 
ENDBRANCH   1   5
TORSDOF 3
ENDMDL
MODEL 5
REMARK VINA RESULT:      -4.3      2.483      4.821
REMARK  3 active torsions:
REMARK  status: ('A' for Active; 'I' for Inactive)
REMARK    1  A    between atoms: C4_4  and  C5_5 
REMARK    2  A    between atoms: C4_4  and  C6_6 
REMARK    3  A    between atoms: C5_5  and  C7_7 
ROOT
HETATM    1  C5  UNL     1     -33.326   8.350   1.830  1.00 20.00     0.009 C 
ENDROOT
BRANCH   1   2
HETATM    2  C4  UNL     1     -32.532   7.723   2.984  1.00 20.00     0.016 C 
BRANCH   2   3
HETATM    3  C6  UNL     1     -33.420   6.804   3.816  1.00 20.00     0.114 C 
HETATM    4 CL8  UNL     1     -33.544   7.404   5.485  1.00 20.00    -0.130 Cl
ENDBRANCH   2   3
ENDBRANCH   1   2
BRANCH   1   5
HETATM    5  C7  UNL     1     -32.524   9.288   0.889  1.00 20.00    -0.051 C 
HETATM    6  C1  UNL     1     -32.483  10.724   1.436  1.00 20.00     0.014 C 
HETATM    7  C2  UNL     1     -31.086   8.780   0.691  1.00 20.00     0.014 C 
HETATM    8  C3  UNL     1     -33.229   9.308  -0.482  1.00 20.00     0.014 C 
ENDBRANCH   1   5
TORSDOF 3
ENDMDL
MODEL 6
REMARK VINA RESULT:      -4.3      2.473      4.831
REMARK  3 active torsions:
REMARK  status: ('A' for Active; 'I' for Inactive)
REMARK    1  A    between atoms: C4_4  and  C5_5 
REMARK    2  A    between atoms: C4_4  and  C6_6 
REMARK    3  A    between atoms: C5_5  and  C7_7 
ROOT
HETATM    1  C5  UNL     1     -33.344   8.417   1.860  1.00 20.00     0.009 C 
ENDROOT
BRANCH   1   2
HETATM    2  C4  UNL     1     -32.511   7.645   2.892  1.00 20.00     0.016 C 
BRANCH   2   3
HETATM    3  C6  UNL     1     -33.394   6.703   3.704  1.00 20.00     0.114 C 
HETATM    4 CL8  UNL     1     -33.618   7.329   5.353  1.00 20.00    -0.130 Cl
ENDBRANCH   2   3
ENDBRANCH   1   2
BRANCH   1   5
HETATM    5  C7  UNL     1     -32.540   9.282   0.853  1.00 20.00    -0.051 C 
HETATM    6  C1  UNL     1     -31.101   8.764   0.697  1.00 20.00     0.014 C 
HETATM    7  C2  UNL     1     -33.222   9.308  -0.525  1.00 20.00     0.014 C 
HETATM    8  C3  UNL     1     -32.483  10.723   1.397  1.00 20.00     0.014 C 
ENDBRANCH   1   5
TORSDOF 3
ENDMDL
MODEL 7
REMARK VINA RESULT:      -4.2      2.574      3.970
REMARK  3 active torsions:
REMARK  status: ('A' for Active; 'I' for Inactive)
REMARK    1  A    between atoms: C4_4  and  C5_5 
REMARK    2  A    between atoms: C4_4  and  C6_6 
REMARK    3  A    between atoms: C5_5  and  C7_7 
ROOT
HETATM    1  C5  UNL     1     -34.032   7.454   3.922  1.00 20.00     0.009 C 
ENDROOT
BRANCH   1   2
HETATM    2  C4  UNL     1     -33.710   7.260   5.409  1.00 20.00     0.016 C 
BRANCH   2   3
HETATM    3  C6  UNL     1     -34.415   6.024   5.959  1.00 20.00     0.114 C 
HETATM    4 CL8  UNL     1     -34.791   4.888   4.643  1.00 20.00    -0.130 Cl
ENDBRANCH   2   3
ENDBRANCH   1   2
BRANCH   1   5
HETATM    5  C7  UNL     1     -32.808   7.522   2.969  1.00 20.00    -0.051 C 
HETATM    6  C1  UNL     1     -33.083   8.447   1.773  1.00 20.00     0.014 C 
HETATM    7  C2  UNL     1     -31.553   8.011   3.711  1.00 20.00     0.014 C 
HETATM    8  C3  UNL     1     -32.537   6.101   2.435  1.00 20.00     0.014 C 
ENDBRANCH   1   5
TORSDOF 3
ENDMDL
MODEL 8
REMARK VINA RESULT:      -4.1      2.726      4.087
REMARK  3 active torsions:
REMARK  status: ('A' for Active; 'I' for Inactive)
REMARK    1  A    between atoms: C4_4  and  C5_5 
REMARK    2  A    between atoms: C4_4  and  C6_6 
REMARK    3  A    between atoms: C5_5  and  C7_7 
ROOT
HETATM    1  C5  UNL     1     -33.928   7.657   4.148  1.00 20.00     0.009 C 
ENDROOT
BRANCH   1   2
HETATM    2  C4  UNL     1     -33.634   6.970   5.487  1.00 20.00     0.016 C 
BRANCH   2   3
HETATM    3  C6  UNL     1     -34.737   5.976   5.839  1.00 20.00     0.114 C 
HETATM    4 CL8  UNL     1     -34.438   4.412   5.048  1.00 20.00    -0.130 Cl
ENDBRANCH   2   3
ENDBRANCH   1   2
BRANCH   1   5
HETATM    5  C7  UNL     1     -32.811   7.552   3.075  1.00 20.00    -0.051 C 
HETATM    6  C1  UNL     1     -32.622   6.101   2.606  1.00 20.00     0.014 C 
HETATM    7  C2  UNL     1     -33.123   8.441   1.859  1.00 20.00     0.014 C 
HETATM    8  C3  UNL     1     -31.491   8.036   3.708  1.00 20.00     0.014 C 
ENDBRANCH   1   5
TORSDOF 3
ENDMDL
MODEL 9
REMARK VINA RESULT:      -3.9      2.119      4.372
REMARK  3 active torsions:
REMARK  status: ('A' for Active; 'I' for Inactive)
REMARK    1  A    between atoms: C4_4  and  C5_5 
REMARK    2  A    between atoms: C4_4  and  C6_6 
REMARK    3  A    between atoms: C5_5  and  C7_7 
ROOT
HETATM    1  C5  UNL     1     -33.298   7.598   1.912  1.00 20.00     0.009 C 
ENDROOT
BRANCH   1   2
HETATM    2  C4  UNL     1     -33.072   6.505   2.964  1.00 20.00     0.016 C 
BRANCH   2   3
HETATM    3  C6  UNL     1     -34.216   6.480   3.973  1.00 20.00     0.114 C 
HETATM    4 CL8  UNL     1     -33.714   7.244   5.499  1.00 20.00    -0.130 Cl
ENDBRANCH   2   3
ENDBRANCH   1   2
BRANCH   1   5
HETATM    5  C7  UNL     1     -32.217   8.711   1.851  1.00 20.00    -0.051 C 
HETATM    6  C1  UNL     1     -32.856  10.102   1.713  1.00 20.00     0.014 C 
HETATM    7  C2  UNL     1     -31.322   8.685   3.102  1.00 20.00     0.014 C 
HETATM    8  C3  UNL     1     -31.335   8.455   0.613  1.00 20.00     0.014 C 
ENDBRANCH   1   5
TORSDOF 3
ENDMDL
