MODEL 1
REMARK VINA RESULT:      -6.2      0.000      0.000
REMARK  3 active torsions:
REMARK  status: ('A' for Active; 'I' for Inactive)
REMARK    1  A    between atoms: C6_6  and  C10_10 
REMARK    2  A    between atoms: C7_7  and  N11_11 
REMARK    3  A    between atoms: C9_9  and  N11_11 
ROOT
HETATM    1  C1  UNL     1     -32.573  10.460   0.723  1.00 20.00     0.013 C 
HETATM    2  C2  UNL     1     -32.246   9.537   1.418  1.00 20.00    -0.087 C 
HETATM    3  C9  UNL     1     -31.845   8.415   2.269  1.00 20.00     0.362 C 
ENDROOT
BRANCH   3   4
HETATM    4  N11 UNL     1     -32.496   7.183   1.839  1.00 20.00     0.098 N 
HETATM    5  H28 UNL     1     -33.332   7.419   1.302  1.00 20.00     0.317 HD
BRANCH   4   6
HETATM    6  C7  UNL     1     -32.864   6.361   2.977  1.00 20.00     0.222 C 
HETATM    7  C4  UNL     1     -33.177   4.921   2.591  1.00 20.00     0.036 C 
HETATM    8  C3  UNL     1     -33.875   4.396   3.837  1.00 20.00     0.007 C 
HETATM    9  C6  UNL     1     -34.722   5.576   4.343  1.00 20.00    -0.013 C 
HETATM   10  C5  UNL     1     -34.155   6.827   3.649  1.00 20.00     0.040 C 
BRANCH   9  11
HETATM   11  C10 UNL     1     -34.699   5.686   5.861  1.00 20.00     0.000 C 
HETATM   12  C8  UNL     1     -34.059   6.958   6.317  1.00 20.00     0.005 C 
ENDBRANCH   9  11
ENDBRANCH   4   6
ENDBRANCH   3   4
TORSDOF 3
ENDMDL
MODEL 2
REMARK VINA RESULT:      -5.6      1.460      5.020
REMARK  3 active torsions:
REMARK  status: ('A' for Active; 'I' for Inactive)
REMARK    1  A    between atoms: C6_6  and  C10_10 
REMARK    2  A    between atoms: C7_7  and  N11_11 
REMARK    3  A    between atoms: C9_9  and  N11_11 
ROOT
HETATM    1  C1  UNL     1     -34.728   4.657   5.374  1.00 20.00     0.013 C 
HETATM    2  C2  UNL     1     -34.382   5.785   5.599  1.00 20.00    -0.087 C 
HETATM    3  C9  UNL     1     -33.964   7.161   5.878  1.00 20.00     0.362 C 
ENDROOT
BRANCH   3   4
HETATM    4  N11 UNL     1     -32.705   7.463   5.207  1.00 20.00     0.098 N 
HETATM    5  H28 UNL     1     -32.243   8.230   5.698  1.00 20.00     0.317 HD
BRANCH   4   6
HETATM    6  C7  UNL     1     -32.927   7.836   3.822  1.00 20.00     0.222 C 
HETATM    7  C4  UNL     1     -32.876   6.646   2.873  1.00 20.00     0.036 C 
HETATM    8  C3  UNL     1     -32.756   7.321   1.513  1.00 20.00     0.007 C 
HETATM    9  C6  UNL     1     -31.846   8.537   1.754  1.00 20.00    -0.013 C 
HETATM   10  C5  UNL     1     -31.838   8.760   3.277  1.00 20.00     0.040 C 
BRANCH   9  11
HETATM   11  C10 UNL     1     -32.314   9.763   0.984  1.00 20.00     0.000 C 
HETATM   12  C8  UNL     1     -33.047   9.391  -0.265  1.00 20.00     0.005 C 
ENDBRANCH   9  11
ENDBRANCH   4   6
ENDBRANCH   3   4
TORSDOF 3
ENDMDL
MODEL 3
REMARK VINA RESULT:      -5.1      1.309      5.097
REMARK  3 active torsions:
REMARK  status: ('A' for Active; 'I' for Inactive)
REMARK    1  A    between atoms: C6_6  and  C10_10 
REMARK    2  A    between atoms: C7_7  and  N11_11 
REMARK    3  A    between atoms: C9_9  and  N11_11 
ROOT
HETATM    1  C1  UNL     1     -34.752   5.045   5.945  1.00 20.00     0.013 C 
HETATM    2  C2  UNL     1     -34.634   5.497   4.839  1.00 20.00    -0.087 C 
HETATM    3  C9  UNL     1     -34.495   6.052   3.491  1.00 20.00     0.362 C 
ENDROOT
BRANCH   3   4
HETATM    4  N11 UNL     1     -33.204   5.693   2.916  1.00 20.00     0.098 N 
HETATM    5  H28 UNL     1     -32.646   5.216   3.626  1.00 20.00     0.317 HD
BRANCH   4   6
HETATM    6  C7  UNL     1     -32.494   6.870   2.450  1.00 20.00     0.222 C 
HETATM    7  C4  UNL     1     -31.908   7.697   3.587  1.00 20.00     0.036 C 
HETATM    8  C3  UNL     1     -31.570   9.009   2.892  1.00 20.00     0.007 C 
HETATM    9  C6  UNL     1     -32.712   9.230   1.887  1.00 20.00    -0.013 C 
HETATM   10  C5  UNL     1     -33.405   7.864   1.732  1.00 20.00     0.040 C 
BRANCH   9  11
HETATM   11  C10 UNL     1     -32.208   9.785   0.562  1.00 20.00     0.000 C 
HETATM   12  C8  UNL     1     -33.097   9.400  -0.577  1.00 20.00     0.005 C 
ENDBRANCH   9  11
ENDBRANCH   4   6
ENDBRANCH   3   4
TORSDOF 3
ENDMDL
MODEL 4
REMARK VINA RESULT:      -5.0      1.325      2.216
REMARK  3 active torsions:
REMARK  status: ('A' for Active; 'I' for Inactive)
REMARK    1  A    between atoms: C6_6  and  C10_10 
REMARK    2  A    between atoms: C7_7  and  N11_11 
REMARK    3  A    between atoms: C9_9  and  N11_11 
ROOT
HETATM    1  C1  UNL     1     -33.363   9.466  -0.920  1.00 20.00     0.013 C 
HETATM    2  C2  UNL     1     -32.831   9.617   0.146  1.00 20.00    -0.087 C 
HETATM    3  C9  UNL     1     -32.183   9.807   1.446  1.00 20.00     0.362 C 
ENDROOT
BRANCH   3   4
HETATM    4  N11 UNL     1     -31.747   8.529   1.996  1.00 20.00     0.098 N 
HETATM    5  H28 UNL     1     -31.628   7.862   1.233  1.00 20.00     0.317 HD
BRANCH   4   6
HETATM    6  C7  UNL     1     -32.715   8.011   2.947  1.00 20.00     0.222 C 
HETATM    7  C4  UNL     1     -32.286   8.208   4.395  1.00 20.00     0.036 C 
HETATM    8  C3  UNL     1     -33.235   7.282   5.143  1.00 20.00     0.007 C 
HETATM    9  C6  UNL     1     -33.390   6.054   4.231  1.00 20.00    -0.013 C 
HETATM   10  C5  UNL     1     -32.895   6.498   2.842  1.00 20.00     0.040 C 
BRANCH   9  11
HETATM   11  C10 UNL     1     -34.821   5.537   4.205  1.00 20.00     0.000 C 
HETATM   12  C8  UNL     1     -35.106   4.631   5.360  1.00 20.00     0.005 C 
ENDBRANCH   9  11
ENDBRANCH   4   6
ENDBRANCH   3   4
TORSDOF 3
ENDMDL
MODEL 5
REMARK VINA RESULT:      -4.6     11.045     12.334
REMARK  3 active torsions:
REMARK  status: ('A' for Active; 'I' for Inactive)
REMARK    1  A    between atoms: C6_6  and  C10_10 
REMARK    2  A    between atoms: C7_7  and  N11_11 
REMARK    3  A    between atoms: C9_9  and  N11_11 
ROOT
HETATM    1  C1  UNL     1     -36.891  14.926  -7.917  1.00 20.00     0.013 C 
HETATM    2  C2  UNL     1     -36.145  14.057  -7.556  1.00 20.00    -0.087 C 
HETATM    3  C9  UNL     1     -35.238  12.994  -7.117  1.00 20.00     0.362 C 
ENDROOT
BRANCH   3   4
HETATM    4  N11 UNL     1     -33.990  13.556  -6.614  1.00 20.00     0.098 N 
HETATM    5  H28 UNL     1     -33.497  12.842  -6.075  1.00 20.00     0.317 HD
BRANCH   4   6
HETATM    6  C7  UNL     1     -34.239  14.713  -5.774  1.00 20.00     0.222 C 
HETATM    7  C4  UNL     1     -33.272  15.859  -6.043  1.00 20.00     0.036 C 
HETATM    8  C3  UNL     1     -33.485  16.755  -4.831  1.00 20.00     0.007 C 
HETATM    9  C6  UNL     1     -33.694  15.786  -3.655  1.00 20.00    -0.013 C 
HETATM   10  C5  UNL     1     -34.025  14.422  -4.289  1.00 20.00     0.040 C 
BRANCH   9  11
HETATM   11  C10 UNL     1     -34.779  16.268  -2.702  1.00 20.00     0.000 C 
HETATM   12  C8  UNL     1     -34.209  17.031  -1.550  1.00 20.00     0.005 C 
ENDBRANCH   9  11
ENDBRANCH   4   6
ENDBRANCH   3   4
TORSDOF 3
ENDMDL
MODEL 6
REMARK VINA RESULT:      -4.4     11.075     11.801
REMARK  3 active torsions:
REMARK  status: ('A' for Active; 'I' for Inactive)
REMARK    1  A    between atoms: C6_6  and  C10_10 
REMARK    2  A    between atoms: C7_7  and  N11_11 
REMARK    3  A    between atoms: C9_9  and  N11_11 
ROOT
HETATM    1  C1  UNL     1     -35.824  13.682  -4.969  1.00 20.00     0.013 C 
HETATM    2  C2  UNL     1     -34.793  14.178  -4.605  1.00 20.00    -0.087 C 
HETATM    3  C9  UNL     1     -33.533  14.778  -4.162  1.00 20.00     0.362 C 
ENDROOT
BRANCH   3   4
HETATM    4  N11 UNL     1     -33.687  16.214  -3.963  1.00 20.00     0.098 N 
HETATM    5  H28 UNL     1     -32.858  16.690  -4.321  1.00 20.00     0.317 HD
BRANCH   4   6
HETATM    6  C7  UNL     1     -33.862  16.532  -2.558  1.00 20.00     0.222 C 
HETATM    7  C4  UNL     1     -35.326  16.597  -2.143  1.00 20.00     0.036 C 
HETATM    8  C3  UNL     1     -35.250  17.292  -0.791  1.00 20.00     0.007 C 
HETATM    9  C6  UNL     1     -34.134  18.339  -0.947  1.00 20.00    -0.013 C 
HETATM   10  C5  UNL     1     -33.338  17.921  -2.196  1.00 20.00     0.040 C 
BRANCH   9  11
HETATM   11  C10 UNL     1     -33.264  18.438   0.298  1.00 20.00     0.000 C 
HETATM   12  C8  UNL     1     -31.813  18.555  -0.045  1.00 20.00     0.005 C 
ENDBRANCH   9  11
ENDBRANCH   4   6
ENDBRANCH   3   4
TORSDOF 3
ENDMDL
MODEL 7
REMARK VINA RESULT:      -4.3     10.995     11.940
REMARK  3 active torsions:
REMARK  status: ('A' for Active; 'I' for Inactive)
REMARK    1  A    between atoms: C6_6  and  C10_10 
REMARK    2  A    between atoms: C7_7  and  N11_11 
REMARK    3  A    between atoms: C9_9  and  N11_11 
ROOT
HETATM    1  C1  UNL     1     -34.007  16.264  -7.909  1.00 20.00     0.013 C 
HETATM    2  C2  UNL     1     -34.269  15.270  -7.288  1.00 20.00    -0.087 C 
HETATM    3  C9  UNL     1     -34.592  14.056  -6.535  1.00 20.00     0.362 C 
ENDROOT
BRANCH   3   4
HETATM    4  N11 UNL     1     -33.700  13.906  -5.391  1.00 20.00     0.098 N 
HETATM    5  H28 UNL     1     -33.586  12.912  -5.186  1.00 20.00     0.317 HD
BRANCH   4   6
HETATM    6  C7  UNL     1     -34.229  14.586  -4.223  1.00 20.00     0.222 C 
HETATM    7  C4  UNL     1     -35.681  15.014  -4.394  1.00 20.00     0.036 C 
HETATM    8  C3  UNL     1     -35.867  15.994  -3.245  1.00 20.00     0.007 C 
HETATM    9  C6  UNL     1     -34.533  16.752  -3.151  1.00 20.00    -0.013 C 
HETATM   10  C5  UNL     1     -33.512  15.903  -3.930  1.00 20.00     0.040 C 
BRANCH   9  11
HETATM   11  C10 UNL     1     -34.113  16.995  -1.708  1.00 20.00     0.000 C 
HETATM   12  C8  UNL     1     -35.293  17.128  -0.800  1.00 20.00     0.005 C 
ENDBRANCH   9  11
ENDBRANCH   4   6
ENDBRANCH   3   4
TORSDOF 3
ENDMDL
MODEL 8
REMARK VINA RESULT:      -4.2     11.556     12.351
REMARK  3 active torsions:
REMARK  status: ('A' for Active; 'I' for Inactive)
REMARK    1  A    between atoms: C6_6  and  C10_10 
REMARK    2  A    between atoms: C7_7  and  N11_11 
REMARK    3  A    between atoms: C9_9  and  N11_11 
ROOT
HETATM    1  C1  UNL     1     -30.687  18.880   2.545  1.00 20.00     0.013 C 
HETATM    2  C2  UNL     1     -31.206  18.827   1.464  1.00 20.00    -0.087 C 
HETATM    3  C9  UNL     1     -31.834  18.760   0.142  1.00 20.00     0.362 C 
ENDROOT
BRANCH   3   4
HETATM    4  N11 UNL     1     -33.278  18.939   0.248  1.00 20.00     0.098 N 
HETATM    5  H28 UNL     1     -33.610  18.470   1.091  1.00 20.00     0.317 HD
BRANCH   4   6
HETATM    6  C7  UNL     1     -33.958  18.393  -0.912  1.00 20.00     0.222 C 
HETATM    7  C4  UNL     1     -35.053  17.400  -0.543  1.00 20.00     0.036 C 
HETATM    8  C3  UNL     1     -35.333  16.717  -1.874  1.00 20.00     0.007 C 
HETATM    9  C6  UNL     1     -33.958  16.590  -2.551  1.00 20.00    -0.013 C 
HETATM   10  C5  UNL     1     -33.033  17.570  -1.807  1.00 20.00     0.040 C 
BRANCH   9  11
HETATM   11  C10 UNL     1     -34.029  16.870  -4.046  1.00 20.00     0.000 C 
HETATM   12  C8  UNL     1     -33.309  15.829  -4.842  1.00 20.00     0.005 C 
ENDBRANCH   9  11
ENDBRANCH   4   6
ENDBRANCH   3   4
TORSDOF 3
ENDMDL
MODEL 9
REMARK VINA RESULT:      -4.1     11.174     12.031
REMARK  3 active torsions:
REMARK  status: ('A' for Active; 'I' for Inactive)
REMARK    1  A    between atoms: C6_6  and  C10_10 
REMARK    2  A    between atoms: C7_7  and  N11_11 
REMARK    3  A    between atoms: C9_9  and  N11_11 
ROOT
HETATM    1  C1  UNL     1     -35.756  17.643   0.691  1.00 20.00     0.013 C 
HETATM    2  C2  UNL     1     -35.515  17.257  -0.420  1.00 20.00    -0.087 C 
HETATM    3  C9  UNL     1     -35.215  16.785  -1.774  1.00 20.00     0.362 C 
ENDROOT
BRANCH   3   4
HETATM    4  N11 UNL     1     -36.432  16.700  -2.572  1.00 20.00     0.098 N 
HETATM    5  H28 UNL     1     -37.137  16.178  -2.049  1.00 20.00     0.317 HD
BRANCH   4   6
HETATM    6  C7  UNL     1     -36.181  16.041  -3.840  1.00 20.00     0.222 C 
HETATM    7  C4  UNL     1     -37.317  15.118  -4.263  1.00 20.00     0.036 C 
HETATM    8  C3  UNL     1     -36.671  14.295  -5.369  1.00 20.00     0.007 C 
HETATM    9  C6  UNL     1     -35.225  14.065  -4.898  1.00 20.00    -0.013 C 
HETATM   10  C5  UNL     1     -34.975  15.104  -3.790  1.00 20.00     0.040 C 
BRANCH   9  11
HETATM   11  C10 UNL     1     -34.227  14.176  -6.042  1.00 20.00     0.000 C 
HETATM   12  C8  UNL     1     -34.706  13.469  -7.270  1.00 20.00     0.005 C 
ENDBRANCH   9  11
ENDBRANCH   4   6
ENDBRANCH   3   4
TORSDOF 3
ENDMDL
