MODEL 1
REMARK VINA RESULT:      -5.3      0.000      0.000
REMARK  2 active torsions:
REMARK  status: ('A' for Active; 'I' for Inactive)
REMARK    1  A    between atoms: C2_2  and  C9_9 
REMARK    2  A    between atoms: C9_9  and  N11_11 
ROOT
HETATM    1  C1  UNL     1     -32.514   9.112   1.046  1.00 20.00    -0.109 C 
HETATM    2  C2  UNL     1     -32.326   8.259   1.872  1.00 20.00    -0.077 C 
HETATM    3  C8  UNL     1     -32.742  10.150   0.042  1.00 20.00     0.112 C 
ENDROOT
BRANCH   2   4
HETATM    4  C9  UNL     1     -32.097   7.214   2.874  1.00 20.00     0.367 C 
BRANCH   4   5
HETATM    5  N11 UNL     1     -33.264   6.362   3.012  1.00 20.00     0.117 N 
HETATM    6  C6  UNL     1     -32.945   4.988   3.393  1.00 20.00     0.275 C 
HETATM    7  C4  UNL     1     -34.279   4.418   3.865  1.00 20.00     0.033 C 
HETATM    8  C5  UNL     1     -35.212   5.620   4.004  1.00 20.00     0.053 C 
HETATM    9  C7  UNL     1     -34.297   6.841   3.939  1.00 20.00     0.329 C 
HETATM   10  C3  UNL     1     -33.809   7.203   5.282  1.00 20.00     0.095 C 
HETATM   11  N10 UNL     1     -33.424   7.487   6.340  1.00 20.00    -0.195 NA
ENDBRANCH   4   5
ENDBRANCH   2   4
TORSDOF 2
ENDMDL
MODEL 2
REMARK VINA RESULT:      -4.7     11.267     12.275
REMARK  2 active torsions:
REMARK  status: ('A' for Active; 'I' for Inactive)
REMARK    1  A    between atoms: C2_2  and  C9_9 
REMARK    2  A    between atoms: C9_9  and  N11_11 
ROOT
HETATM    1  C1  UNL     1     -33.510  17.413  -1.667  1.00 20.00    -0.109 C 
HETATM    2  C2  UNL     1     -34.181  16.706  -2.370  1.00 20.00    -0.077 C 
HETATM    3  C8  UNL     1     -32.695  18.274  -0.811  1.00 20.00     0.112 C 
ENDROOT
BRANCH   2   4
HETATM    4  C9  UNL     1     -34.992  15.842  -3.232  1.00 20.00     0.367 C 
BRANCH   4   5
HETATM    5  N11 UNL     1     -34.719  16.101  -4.633  1.00 20.00     0.117 N 
HETATM    6  C6  UNL     1     -33.343  15.803  -5.027  1.00 20.00     0.275 C 
HETATM    7  C4  UNL     1     -33.399  15.754  -6.551  1.00 20.00     0.033 C 
HETATM    8  C5  UNL     1     -34.885  15.729  -6.905  1.00 20.00     0.053 C 
HETATM    9  C7  UNL     1     -35.601  15.424  -5.592  1.00 20.00     0.329 C 
HETATM   10  C3  UNL     1     -35.736  13.970  -5.393  1.00 20.00     0.095 C 
HETATM   11  N10 UNL     1     -35.841  12.824  -5.237  1.00 20.00    -0.195 NA
ENDBRANCH   4   5
ENDBRANCH   2   4
TORSDOF 2
ENDMDL
MODEL 3
REMARK VINA RESULT:      -4.3     11.099     11.939
REMARK  2 active torsions:
REMARK  status: ('A' for Active; 'I' for Inactive)
REMARK    1  A    between atoms: C2_2  and  C9_9 
REMARK    2  A    between atoms: C9_9  and  N11_11 
ROOT
HETATM    1  C1  UNL     1     -34.797  17.144  -1.183  1.00 20.00    -0.109 C 
HETATM    2  C2  UNL     1     -34.474  16.636  -2.223  1.00 20.00    -0.077 C 
HETATM    3  C8  UNL     1     -35.190  17.763   0.082  1.00 20.00     0.112 C 
ENDROOT
BRANCH   2   4
HETATM    4  C9  UNL     1     -34.074  16.015  -3.489  1.00 20.00     0.367 C 
BRANCH   4   5
HETATM    5  N11 UNL     1     -35.037  15.009  -3.900  1.00 20.00     0.117 N 
HETATM    6  C6  UNL     1     -36.362  15.551  -4.196  1.00 20.00     0.275 C 
HETATM    7  C4  UNL     1     -37.052  14.434  -4.971  1.00 20.00     0.033 C 
HETATM    8  C5  UNL     1     -35.947  13.439  -5.326  1.00 20.00     0.053 C 
HETATM    9  C7  UNL     1     -34.642  14.179  -5.045  1.00 20.00     0.329 C 
HETATM   10  C3  UNL     1     -34.198  14.929  -6.234  1.00 20.00     0.095 C 
HETATM   11  N10 UNL     1     -33.850  15.520  -7.170  1.00 20.00    -0.195 NA
ENDBRANCH   4   5
ENDBRANCH   2   4
TORSDOF 2
ENDMDL
MODEL 4
REMARK VINA RESULT:      -4.2     11.132     12.288
REMARK  2 active torsions:
REMARK  status: ('A' for Active; 'I' for Inactive)
REMARK    1  A    between atoms: C2_2  and  C9_9 
REMARK    2  A    between atoms: C9_9  and  N11_11 
ROOT
HETATM    1  C1  UNL     1     -35.027  17.106  -1.033  1.00 20.00    -0.109 C 
HETATM    2  C2  UNL     1     -34.953  16.494  -2.065  1.00 20.00    -0.077 C 
HETATM    3  C8  UNL     1     -35.116  17.852   0.221  1.00 20.00     0.112 C 
ENDROOT
BRANCH   2   4
HETATM    4  C9  UNL     1     -34.861  15.742  -3.319  1.00 20.00     0.367 C 
BRANCH   4   5
HETATM    5  N11 UNL     1     -35.927  16.118  -4.230  1.00 20.00     0.117 N 
HETATM    6  C6  UNL     1     -35.448  16.678  -5.493  1.00 20.00     0.275 C 
HETATM    7  C4  UNL     1     -36.667  16.612  -6.409  1.00 20.00     0.033 C 
HETATM    8  C5  UNL     1     -37.679  15.729  -5.680  1.00 20.00     0.053 C 
HETATM    9  C7  UNL     1     -36.888  15.059  -4.560  1.00 20.00     0.329 C 
HETATM   10  C3  UNL     1     -36.286  13.796  -5.026  1.00 20.00     0.095 C 
HETATM   11  N10 UNL     1     -35.813  12.803  -5.394  1.00 20.00    -0.195 NA
ENDBRANCH   4   5
ENDBRANCH   2   4
TORSDOF 2
ENDMDL
MODEL 5
REMARK VINA RESULT:      -4.1     11.106     12.305
REMARK  2 active torsions:
REMARK  status: ('A' for Active; 'I' for Inactive)
REMARK    1  A    between atoms: C2_2  and  C9_9 
REMARK    2  A    between atoms: C9_9  and  N11_11 
ROOT
HETATM    1  C1  UNL     1     -34.119  16.424  -2.692  1.00 20.00    -0.109 C 
HETATM    2  C2  UNL     1     -34.285  15.485  -3.424  1.00 20.00    -0.077 C 
HETATM    3  C8  UNL     1     -33.919  17.567  -1.801  1.00 20.00     0.112 C 
ENDROOT
BRANCH   2   4
HETATM    4  C9  UNL     1     -34.488  14.344  -4.321  1.00 20.00     0.367 C 
BRANCH   4   5
HETATM    5  N11 UNL     1     -34.757  14.791  -5.676  1.00 20.00     0.117 N 
HETATM    6  C6  UNL     1     -34.572  13.749  -6.684  1.00 20.00     0.275 C 
HETATM    7  C4  UNL     1     -35.280  14.301  -7.917  1.00 20.00     0.033 C 
HETATM    8  C5  UNL     1     -36.087  15.501  -7.423  1.00 20.00     0.053 C 
HETATM    9  C7  UNL     1     -36.081  15.384  -5.901  1.00 20.00     0.329 C 
HETATM   10  C3  UNL     1     -37.216  14.567  -5.434  1.00 20.00     0.095 C 
HETATM   11  N10 UNL     1     -38.109  13.923  -5.067  1.00 20.00    -0.195 NA
ENDBRANCH   4   5
ENDBRANCH   2   4
TORSDOF 2
ENDMDL
MODEL 6
REMARK VINA RESULT:      -4.1     11.105     12.286
REMARK  2 active torsions:
REMARK  status: ('A' for Active; 'I' for Inactive)
REMARK    1  A    between atoms: C2_2  and  C9_9 
REMARK    2  A    between atoms: C9_9  and  N11_11 
ROOT
HETATM    1  C1  UNL     1     -34.469  16.525  -2.411  1.00 20.00    -0.109 C 
HETATM    2  C2  UNL     1     -33.908  16.115  -3.391  1.00 20.00    -0.077 C 
HETATM    3  C8  UNL     1     -35.152  17.025  -1.218  1.00 20.00     0.112 C 
ENDROOT
BRANCH   2   4
HETATM    4  C9  UNL     1     -33.224  15.620  -4.590  1.00 20.00     0.367 C 
BRANCH   4   5
HETATM    5  N11 UNL     1     -33.949  14.509  -5.180  1.00 20.00     0.117 N 
HETATM    6  C6  UNL     1     -35.220  14.221  -4.517  1.00 20.00     0.275 C 
HETATM    7  C4  UNL     1     -35.963  13.338  -5.515  1.00 20.00     0.033 C 
HETATM    8  C5  UNL     1     -35.172  13.439  -6.819  1.00 20.00     0.053 C 
HETATM    9  C7  UNL     1     -34.224  14.619  -6.618  1.00 20.00     0.329 C 
HETATM   10  C3  UNL     1     -34.862  15.880  -7.035  1.00 20.00     0.095 C 
HETATM   11  N10 UNL     1     -35.365  16.873  -7.364  1.00 20.00    -0.195 NA
ENDBRANCH   4   5
ENDBRANCH   2   4
TORSDOF 2
ENDMDL
MODEL 7
REMARK VINA RESULT:      -3.9     11.244     12.538
REMARK  2 active torsions:
REMARK  status: ('A' for Active; 'I' for Inactive)
REMARK    1  A    between atoms: C2_2  and  C9_9 
REMARK    2  A    between atoms: C9_9  and  N11_11 
ROOT
HETATM    1  C1  UNL     1     -33.276  17.587  -1.528  1.00 20.00    -0.109 C 
HETATM    2  C2  UNL     1     -34.005  16.894  -2.186  1.00 20.00    -0.077 C 
HETATM    3  C8  UNL     1     -32.389  18.430  -0.728  1.00 20.00     0.112 C 
ENDROOT
BRANCH   2   4
HETATM    4  C9  UNL     1     -34.890  16.050  -2.993  1.00 20.00     0.367 C 
BRANCH   4   5
HETATM    5  N11 UNL     1     -34.196  15.536  -4.160  1.00 20.00     0.117 N 
HETATM    6  C6  UNL     1     -34.826  14.354  -4.744  1.00 20.00     0.275 C 
HETATM    7  C4  UNL     1     -34.197  14.249  -6.130  1.00 20.00     0.033 C 
HETATM    8  C5  UNL     1     -33.467  15.573  -6.350  1.00 20.00     0.053 C 
HETATM    9  C7  UNL     1     -33.982  16.497  -5.249  1.00 20.00     0.329 C 
HETATM   10  C3  UNL     1     -35.191  17.216  -5.691  1.00 20.00     0.095 C 
HETATM   11  N10 UNL     1     -36.143  17.781  -6.040  1.00 20.00    -0.195 NA
ENDBRANCH   4   5
ENDBRANCH   2   4
TORSDOF 2
ENDMDL
MODEL 8
REMARK VINA RESULT:      -3.9      1.347      2.339
REMARK  2 active torsions:
REMARK  status: ('A' for Active; 'I' for Inactive)
REMARK    1  A    between atoms: C2_2  and  C9_9 
REMARK    2  A    between atoms: C9_9  and  N11_11 
ROOT
HETATM    1  C1  UNL     1     -32.578   8.899   1.674  1.00 20.00    -0.109 C 
HETATM    2  C2  UNL     1     -32.675   7.766   2.061  1.00 20.00    -0.077 C 
HETATM    3  C8  UNL     1     -32.459  10.278   1.202  1.00 20.00     0.112 C 
ENDROOT
BRANCH   2   4
HETATM    4  C9  UNL     1     -32.796   6.382   2.527  1.00 20.00     0.367 C 
BRANCH   4   5
HETATM    5  N11 UNL     1     -33.019   6.334   3.961  1.00 20.00     0.117 N 
HETATM    6  C6  UNL     1     -33.098   7.654   4.586  1.00 20.00     0.275 C 
HETATM    7  C4  UNL     1     -33.723   7.378   5.949  1.00 20.00     0.033 C 
HETATM    8  C5  UNL     1     -34.240   5.941   5.880  1.00 20.00     0.053 C 
HETATM    9  C7  UNL     1     -34.197   5.575   4.398  1.00 20.00     0.329 C 
HETATM   10  C3  UNL     1     -35.459   5.945   3.731  1.00 20.00     0.095 C 
HETATM   11  N10 UNL     1     -36.452   6.236   3.206  1.00 20.00    -0.195 NA
ENDBRANCH   4   5
ENDBRANCH   2   4
TORSDOF 2
ENDMDL
MODEL 9
REMARK VINA RESULT:      -3.8     11.048     11.953
REMARK  2 active torsions:
REMARK  status: ('A' for Active; 'I' for Inactive)
REMARK    1  A    between atoms: C2_2  and  C9_9 
REMARK    2  A    between atoms: C9_9  and  N11_11 
ROOT
HETATM    1  C1  UNL     1     -35.165  14.441  -4.646  1.00 20.00    -0.109 C 
HETATM    2  C2  UNL     1     -34.522  15.334  -4.163  1.00 20.00    -0.077 C 
HETATM    3  C8  UNL     1     -35.948  13.355  -5.235  1.00 20.00     0.112 C 
ENDROOT
BRANCH   2   4
HETATM    4  C9  UNL     1     -33.737  16.419  -3.567  1.00 20.00     0.367 C 
BRANCH   4   5
HETATM    5  N11 UNL     1     -34.108  16.626  -2.179  1.00 20.00     0.117 N 
HETATM    6  C6  UNL     1     -33.312  17.651  -1.506  1.00 20.00     0.275 C 
HETATM    7  C4  UNL     1     -34.115  17.975  -0.251  1.00 20.00     0.033 C 
HETATM    8  C5  UNL     1     -35.480  17.319  -0.457  1.00 20.00     0.053 C 
HETATM    9  C7  UNL     1     -35.521  16.945  -1.937  1.00 20.00     0.329 C 
HETATM   10  C3  UNL     1     -36.055  18.057  -2.744  1.00 20.00     0.095 C 
HETATM   11  N10 UNL     1     -36.475  18.933  -3.379  1.00 20.00    -0.195 NA
ENDBRANCH   4   5
ENDBRANCH   2   4
TORSDOF 2
ENDMDL
