MODEL 1
REMARK VINA RESULT:      -6.3      0.000      0.000
REMARK  1 active torsions:
REMARK  status: ('A' for Active; 'I' for Inactive)
REMARK    1  A    between atoms: C2_2  and  C3_3 
ROOT
HETATM    1  C1  UNL     1     -34.059   5.813   3.466  1.00 20.00    -0.020 C 
HETATM    2  C2  UNL     1     -33.345   6.874   3.860  1.00 20.00    -0.062 C 
HETATM    3  C5  UNL     1     -34.951   5.315   4.554  1.00 20.00     0.028 C 
HETATM    4  C6  UNL     1     -33.648   7.253   5.274  1.00 20.00     0.038 C 
HETATM    5  C7  UNL     1     -34.414   6.034   5.790  1.00 20.00     0.008 C 
ENDROOT
BRANCH   2   6
HETATM    6  C3  UNL     1     -32.411   7.606   3.065  1.00 20.00     0.002 C 
HETATM    7  C4  UNL     1     -32.743   8.256   1.936  1.00 20.00    -0.030 C 
HETATM    8  C8  UNL     1     -31.770   9.020   1.099  1.00 20.00     0.036 C 
ENDBRANCH   2   6
TORSDOF 1
ENDMDL
MODEL 2
REMARK VINA RESULT:      -5.1      0.904      1.719
REMARK  1 active torsions:
REMARK  status: ('A' for Active; 'I' for Inactive)
REMARK    1  A    between atoms: C2_2  and  C3_3 
ROOT
HETATM    1  C1  UNL     1     -32.473   7.869   4.812  1.00 20.00    -0.020 C 
HETATM    2  C2  UNL     1     -32.819   7.497   3.575  1.00 20.00    -0.062 C 
HETATM    3  C5  UNL     1     -33.332   7.219   5.845  1.00 20.00     0.028 C 
HETATM    4  C6  UNL     1     -33.966   6.538   3.584  1.00 20.00     0.038 C 
HETATM    5  C7  UNL     1     -34.485   6.653   5.018  1.00 20.00     0.008 C 
ENDROOT
BRANCH   2   6
HETATM    6  C3  UNL     1     -32.194   7.915   2.361  1.00 20.00     0.002 C 
HETATM    7  C4  UNL     1     -32.665   8.905   1.583  1.00 20.00    -0.030 C 
HETATM    8  C8  UNL     1     -32.016   9.344   0.311  1.00 20.00     0.036 C 
ENDBRANCH   2   6
TORSDOF 1
ENDMDL
MODEL 3
REMARK VINA RESULT:      -4.6      0.927      4.107
REMARK  1 active torsions:
REMARK  status: ('A' for Active; 'I' for Inactive)
REMARK    1  A    between atoms: C2_2  and  C3_3 
ROOT
HETATM    1  C1  UNL     1     -33.128   7.678   1.644  1.00 20.00    -0.020 C 
HETATM    2  C2  UNL     1     -32.931   7.211   2.882  1.00 20.00    -0.062 C 
HETATM    3  C5  UNL     1     -32.182   8.785   1.315  1.00 20.00     0.028 C 
HETATM    4  C6  UNL     1     -31.821   7.932   3.578  1.00 20.00     0.038 C 
HETATM    5  C7  UNL     1     -31.601   9.151   2.680  1.00 20.00     0.008 C 
ENDROOT
BRANCH   2   6
HETATM    6  C3  UNL     1     -33.647   6.144   3.506  1.00 20.00     0.002 C 
HETATM    7  C4  UNL     1     -34.064   6.174   4.784  1.00 20.00    -0.030 C 
HETATM    8  C8  UNL     1     -34.811   5.060   5.442  1.00 20.00     0.036 C 
ENDBRANCH   2   6
TORSDOF 1
ENDMDL
MODEL 4
REMARK VINA RESULT:      -4.3      0.995      4.505
REMARK  1 active torsions:
REMARK  status: ('A' for Active; 'I' for Inactive)
REMARK    1  A    between atoms: C2_2  and  C3_3 
ROOT
HETATM    1  C1  UNL     1     -31.605   8.160   1.340  1.00 20.00    -0.020 C 
HETATM    2  C2  UNL     1     -32.467   8.412   2.331  1.00 20.00    -0.062 C 
HETATM    3  C5  UNL     1     -31.599   9.252   0.322  1.00 20.00     0.028 C 
HETATM    4  C6  UNL     1     -33.173   9.715   2.134  1.00 20.00     0.038 C 
HETATM    5  C7  UNL     1     -32.850  10.053   0.678  1.00 20.00     0.008 C 
ENDROOT
BRANCH   2   6
HETATM    6  C3  UNL     1     -32.707   7.587   3.472  1.00 20.00     0.002 C 
HETATM    7  C4  UNL     1     -33.935   7.229   3.886  1.00 20.00    -0.030 C 
HETATM    8  C8  UNL     1     -34.192   6.368   5.080  1.00 20.00     0.036 C 
ENDBRANCH   2   6
TORSDOF 1
ENDMDL
MODEL 5
REMARK VINA RESULT:      -4.1     11.168     11.580
REMARK  1 active torsions:
REMARK  status: ('A' for Active; 'I' for Inactive)
REMARK    1  A    between atoms: C2_2  and  C3_3 
ROOT
HETATM    1  C1  UNL     1     -35.208  16.831  -1.432  1.00 20.00    -0.020 C 
HETATM    2  C2  UNL     1     -34.059  16.932  -2.111  1.00 20.00    -0.062 C 
HETATM    3  C5  UNL     1     -35.225  17.728  -0.240  1.00 20.00     0.028 C 
HETATM    4  C6  UNL     1     -33.126  17.915  -1.479  1.00 20.00     0.038 C 
HETATM    5  C7  UNL     1     -33.760  18.142  -0.106  1.00 20.00     0.008 C 
ENDROOT
BRANCH   2   6
HETATM    6  C3  UNL     1     -33.721  16.230  -3.308  1.00 20.00     0.002 C 
HETATM    7  C4  UNL     1     -34.378  15.142  -3.745  1.00 20.00    -0.030 C 
HETATM    8  C8  UNL     1     -34.026  14.403  -4.994  1.00 20.00     0.036 C 
ENDBRANCH   2   6
TORSDOF 1
ENDMDL
MODEL 6
REMARK VINA RESULT:      -3.9     10.814     11.596
REMARK  1 active torsions:
REMARK  status: ('A' for Active; 'I' for Inactive)
REMARK    1  A    between atoms: C2_2  and  C3_3 
ROOT
HETATM    1  C1  UNL     1     -36.429  15.556  -4.125  1.00 20.00    -0.020 C 
HETATM    2  C2  UNL     1     -35.164  15.349  -3.742  1.00 20.00    -0.062 C 
HETATM    3  C5  UNL     1     -36.959  14.410  -4.921  1.00 20.00     0.028 C 
HETATM    4  C6  UNL     1     -34.648  14.031  -4.221  1.00 20.00     0.038 C 
HETATM    5  C7  UNL     1     -35.697  13.617  -5.255  1.00 20.00     0.008 C 
ENDROOT
BRANCH   2   6
HETATM    6  C3  UNL     1     -34.365  16.233  -2.954  1.00 20.00     0.002 C 
HETATM    7  C4  UNL     1     -34.781  16.785  -1.801  1.00 20.00    -0.030 C 
HETATM    8  C8  UNL     1     -33.950  17.711  -0.975  1.00 20.00     0.036 C 
ENDBRANCH   2   6
TORSDOF 1
ENDMDL
MODEL 7
REMARK VINA RESULT:      -3.9     11.306     11.977
REMARK  1 active torsions:
REMARK  status: ('A' for Active; 'I' for Inactive)
REMARK    1  A    between atoms: C2_2  and  C3_3 
ROOT
HETATM    1  C1  UNL     1     -33.169  17.653  -1.661  1.00 20.00    -0.020 C 
HETATM    2  C2  UNL     1     -34.136  17.705  -0.737  1.00 20.00    -0.062 C 
HETATM    3  C5  UNL     1     -33.631  16.969  -2.904  1.00 20.00     0.028 C 
HETATM    4  C6  UNL     1     -35.398  17.063  -1.217  1.00 20.00     0.038 C 
HETATM    5  C7  UNL     1     -34.934  16.304  -2.462  1.00 20.00     0.008 C 
ENDROOT
BRANCH   2   6
HETATM    6  C3  UNL     1     -34.038  18.305   0.556  1.00 20.00     0.002 C 
HETATM    7  C4  UNL     1     -34.939  18.116   1.535  1.00 20.00    -0.030 C 
HETATM    8  C8  UNL     1     -34.842  18.743   2.887  1.00 20.00     0.036 C 
ENDBRANCH   2   6
TORSDOF 1
ENDMDL
MODEL 8
REMARK VINA RESULT:      -3.8     11.269     11.644
REMARK  1 active torsions:
REMARK  status: ('A' for Active; 'I' for Inactive)
REMARK    1  A    between atoms: C2_2  and  C3_3 
ROOT
HETATM    1  C1  UNL     1     -35.604  16.351  -2.222  1.00 20.00    -0.020 C 
HETATM    2  C2  UNL     1     -34.614  15.984  -3.044  1.00 20.00    -0.062 C 
HETATM    3  C5  UNL     1     -35.191  17.471  -1.327  1.00 20.00     0.028 C 
HETATM    4  C6  UNL     1     -33.382  16.802  -2.829  1.00 20.00     0.038 C 
HETATM    5  C7  UNL     1     -33.673  17.501  -1.500  1.00 20.00     0.008 C 
ENDROOT
BRANCH   2   6
HETATM    6  C3  UNL     1     -34.678  14.960  -4.038  1.00 20.00     0.002 C 
HETATM    7  C4  UNL     1     -35.827  14.506  -4.568  1.00 20.00    -0.030 C 
HETATM    8  C8  UNL     1     -35.899  13.434  -5.605  1.00 20.00     0.036 C 
ENDBRANCH   2   6
TORSDOF 1
ENDMDL
MODEL 9
REMARK VINA RESULT:      -3.8     11.539     11.897
REMARK  1 active torsions:
REMARK  status: ('A' for Active; 'I' for Inactive)
REMARK    1  A    between atoms: C2_2  and  C3_3 
ROOT
HETATM    1  C1  UNL     1     -33.672  16.135  -3.267  1.00 20.00    -0.020 C 
HETATM    2  C2  UNL     1     -34.413  16.753  -2.340  1.00 20.00    -0.062 C 
HETATM    3  C5  UNL     1     -34.520  15.526  -4.334  1.00 20.00     0.028 C 
HETATM    4  C6  UNL     1     -35.874  16.656  -2.641  1.00 20.00     0.038 C 
HETATM    5  C7  UNL     1     -35.920  15.578  -3.725  1.00 20.00     0.008 C 
ENDROOT
BRANCH   2   6
HETATM    6  C3  UNL     1     -33.921  17.454  -1.196  1.00 20.00     0.002 C 
HETATM    7  C4  UNL     1     -32.723  18.060  -1.151  1.00 20.00    -0.030 C 
HETATM    8  C8  UNL     1     -32.204  18.791   0.043  1.00 20.00     0.036 C 
ENDBRANCH   2   6
TORSDOF 1
ENDMDL
