MODEL 1
REMARK VINA RESULT:      -5.8      0.000      0.000
REMARK  0 active torsions:
REMARK  status: ('A' for Active; 'I' for Inactive)
ROOT
HETATM    1  C1  UNL     1     -32.044   8.378   1.839  1.00 20.00     0.064 C 
HETATM    2  C2  UNL     1     -32.969   6.128   2.253  1.00 20.00     0.020 C 
HETATM    3  C3  UNL     1     -33.335   8.005   3.908  1.00 20.00     0.020 C 
HETATM    4  C4  UNL     1     -33.388   5.111   3.316  1.00 20.00     0.010 C 
HETATM    5  C5  UNL     1     -33.754   6.988   4.970  1.00 20.00     0.010 C 
HETATM    6  C6  UNL     1     -32.375   7.393   2.883  1.00 20.00     0.093 C 
HETATM    7  C7  UNL     1     -34.349   5.692   4.377  1.00 20.00    -0.048 C 
HETATM    8  C8  UNL     1     -34.528   4.661   5.508  1.00 20.00     0.015 C 
HETATM    9  C9  UNL     1     -35.736   5.964   3.762  1.00 20.00     0.015 C 
HETATM   10  N10 UNL     1     -31.783   9.153   1.016  1.00 20.00    -0.197 NA
ENDROOT
TORSDOF 0
ENDMDL
MODEL 2
REMARK VINA RESULT:      -4.4     11.245     12.252
REMARK  0 active torsions:
REMARK  status: ('A' for Active; 'I' for Inactive)
ROOT
HETATM    1  C1  UNL     1     -35.616  13.915  -4.932  1.00 20.00     0.064 C 
HETATM    2  C2  UNL     1     -34.069  15.331  -3.632  1.00 20.00     0.020 C 
HETATM    3  C3  UNL     1     -36.493  15.990  -3.927  1.00 20.00     0.020 C 
HETATM    4  C4  UNL     1     -33.739  16.754  -3.178  1.00 20.00     0.010 C 
HETATM    5  C5  UNL     1     -36.161  17.412  -3.473  1.00 20.00     0.010 C 
HETATM    6  C6  UNL     1     -35.283  15.303  -4.567  1.00 20.00     0.093 C 
HETATM    7  C7  UNL     1     -34.936  17.488  -2.535  1.00 20.00    -0.048 C 
HETATM    8  C8  UNL     1     -34.561  18.967  -2.322  1.00 20.00     0.015 C 
HETATM    9  C9  UNL     1     -35.269  16.881  -1.159  1.00 20.00     0.015 C 
HETATM   10  N10 UNL     1     -35.877  12.822  -5.219  1.00 20.00    -0.197 NA
ENDROOT
TORSDOF 0
ENDMDL
MODEL 3
REMARK VINA RESULT:      -4.1     11.410     12.106
REMARK  0 active torsions:
REMARK  status: ('A' for Active; 'I' for Inactive)
ROOT
HETATM    1  C1  UNL     1     -33.315  17.533  -2.135  1.00 20.00     0.064 C 
HETATM    2  C2  UNL     1     -33.532  15.681  -3.749  1.00 20.00     0.020 C 
HETATM    3  C3  UNL     1     -35.543  17.061  -3.082  1.00 20.00     0.020 C 
HETATM    4  C4  UNL     1     -34.460  14.609  -4.325  1.00 20.00     0.010 C 
HETATM    5  C5  UNL     1     -36.470  15.990  -3.657  1.00 20.00     0.010 C 
HETATM    6  C6  UNL     1     -34.208  16.468  -2.621  1.00 20.00     0.093 C 
HETATM    7  C7  UNL     1     -35.824  15.164  -4.792  1.00 20.00    -0.048 C 
HETATM    8  C8  UNL     1     -36.751  13.985  -5.142  1.00 20.00     0.015 C 
HETATM    9  C9  UNL     1     -35.654  16.025  -6.059  1.00 20.00     0.015 C 
HETATM   10  N10 UNL     1     -32.611  18.372  -1.751  1.00 20.00    -0.197 NA
ENDROOT
TORSDOF 0
ENDMDL
MODEL 4
REMARK VINA RESULT:      -4.1     11.384     12.577
REMARK  0 active torsions:
REMARK  status: ('A' for Active; 'I' for Inactive)
ROOT
HETATM    1  C1  UNL     1     -33.677  16.660  -2.646  1.00 20.00     0.064 C 
HETATM    2  C2  UNL     1     -33.320  16.522  -5.083  1.00 20.00     0.020 C 
HETATM    3  C3  UNL     1     -34.950  14.977  -3.923  1.00 20.00     0.020 C 
HETATM    4  C4  UNL     1     -33.333  15.612  -6.312  1.00 20.00     0.010 C 
HETATM    5  C5  UNL     1     -34.963  14.067  -5.152  1.00 20.00     0.010 C 
HETATM    6  C6  UNL     1     -33.631  15.745  -3.799  1.00 20.00     0.093 C 
HETATM    7  C7  UNL     1     -34.644  14.808  -6.468  1.00 20.00    -0.048 C 
HETATM    8  C8  UNL     1     -34.465  13.773  -7.595  1.00 20.00     0.015 C 
HETATM    9  C9  UNL     1     -35.806  15.740  -6.861  1.00 20.00     0.015 C 
HETATM   10  N10 UNL     1     -33.712  17.380  -1.737  1.00 20.00    -0.197 NA
ENDROOT
TORSDOF 0
ENDMDL
MODEL 5
REMARK VINA RESULT:      -4.1      2.464      4.213
REMARK  0 active torsions:
REMARK  status: ('A' for Active; 'I' for Inactive)
ROOT
HETATM    1  C1  UNL     1     -34.496   4.861   4.497  1.00 20.00     0.064 C 
HETATM    2  C2  UNL     1     -33.066   5.698   2.669  1.00 20.00     0.020 C 
HETATM    3  C3  UNL     1     -34.018   7.279   4.398  1.00 20.00     0.020 C 
HETATM    4  C4  UNL     1     -32.741   6.886   1.763  1.00 20.00     0.010 C 
HETATM    5  C5  UNL     1     -33.693   8.466   3.491  1.00 20.00     0.010 C 
HETATM    6  C6  UNL     1     -34.252   5.997   3.592  1.00 20.00     0.093 C 
HETATM    7  C7  UNL     1     -32.508   8.204   2.536  1.00 20.00    -0.048 C 
HETATM    8  C8  UNL     1     -32.411   9.364   1.528  1.00 20.00     0.015 C 
HETATM    9  C9  UNL     1     -31.183   8.145   3.320  1.00 20.00     0.015 C 
HETATM   10  N10 UNL     1     -34.689   3.965   5.209  1.00 20.00    -0.197 NA
ENDROOT
TORSDOF 0
ENDMDL
MODEL 6
REMARK VINA RESULT:      -4.1     11.178     12.710
REMARK  0 active torsions:
REMARK  status: ('A' for Active; 'I' for Inactive)
ROOT
HETATM    1  C1  UNL     1     -35.325  13.773  -4.797  1.00 20.00     0.064 C 
HETATM    2  C2  UNL     1     -35.351  15.599  -3.138  1.00 20.00     0.020 C 
HETATM    3  C3  UNL     1     -34.108  15.853  -5.325  1.00 20.00     0.020 C 
HETATM    4  C4  UNL     1     -34.593  16.799  -2.569  1.00 20.00     0.010 C 
HETATM    5  C5  UNL     1     -33.351  17.053  -4.756  1.00 20.00     0.010 C 
HETATM    6  C6  UNL     1     -34.542  14.881  -4.224  1.00 20.00     0.093 C 
HETATM    7  C7  UNL     1     -34.127  17.801  -3.650  1.00 20.00    -0.048 C 
HETATM    8  C8  UNL     1     -33.195  18.840  -3.000  1.00 20.00     0.015 C 
HETATM    9  C9  UNL     1     -35.333  18.553  -4.246  1.00 20.00     0.015 C 
HETATM   10  N10 UNL     1     -35.941  12.900  -5.248  1.00 20.00    -0.197 NA
ENDROOT
TORSDOF 0
ENDMDL
MODEL 7
REMARK VINA RESULT:      -4.0     11.610     12.187
REMARK  0 active torsions:
REMARK  status: ('A' for Active; 'I' for Inactive)
ROOT
HETATM    1  C1  UNL     1     -34.408  14.046  -6.470  1.00 20.00     0.064 C 
HETATM    2  C2  UNL     1     -35.941  15.169  -4.895  1.00 20.00     0.020 C 
HETATM    3  C3  UNL     1     -33.435  15.414  -4.662  1.00 20.00     0.020 C 
HETATM    4  C4  UNL     1     -36.124  15.699  -3.472  1.00 20.00     0.010 C 
HETATM    5  C5  UNL     1     -33.619  15.944  -3.240  1.00 20.00     0.010 C 
HETATM    6  C6  UNL     1     -34.581  14.485  -5.074  1.00 20.00     0.093 C 
HETATM    7  C7  UNL     1     -34.983  16.633  -3.012  1.00 20.00    -0.048 C 
HETATM    8  C8  UNL     1     -35.151  16.926  -1.509  1.00 20.00     0.015 C 
HETATM    9  C9  UNL     1     -35.045  17.976  -3.766  1.00 20.00     0.015 C 
HETATM   10  N10 UNL     1     -34.273  13.700  -7.569  1.00 20.00    -0.197 NA
ENDROOT
TORSDOF 0
ENDMDL
MODEL 8
REMARK VINA RESULT:      -3.9     11.194     12.370
REMARK  0 active torsions:
REMARK  status: ('A' for Active; 'I' for Inactive)
ROOT
HETATM    1  C1  UNL     1     -32.850  18.138  -1.609  1.00 20.00     0.064 C 
HETATM    2  C2  UNL     1     -34.811  16.671  -1.905  1.00 20.00     0.020 C 
HETATM    3  C3  UNL     1     -33.385  17.343  -3.882  1.00 20.00     0.020 C 
HETATM    4  C4  UNL     1     -35.919  16.220  -2.859  1.00 20.00     0.010 C 
HETATM    5  C5  UNL     1     -34.493  16.893  -4.835  1.00 20.00     0.010 C 
HETATM    6  C6  UNL     1     -33.945  17.774  -2.523  1.00 20.00     0.093 C 
HETATM    7  C7  UNL     1     -35.396  15.787  -4.247  1.00 20.00    -0.048 C 
HETATM    8  C8  UNL     1     -36.597  15.569  -5.187  1.00 20.00     0.015 C 
HETATM    9  C9  UNL     1     -34.627  14.455  -4.144  1.00 20.00     0.015 C 
HETATM   10  N10 UNL     1     -31.987  18.425  -0.888  1.00 20.00    -0.197 NA
ENDROOT
TORSDOF 0
ENDMDL
MODEL 9
REMARK VINA RESULT:      -3.8     11.506     12.544
REMARK  0 active torsions:
REMARK  status: ('A' for Active; 'I' for Inactive)
ROOT
HETATM    1  C1  UNL     1     -35.096  16.596  -2.223  1.00 20.00     0.064 C 
HETATM    2  C2  UNL     1     -33.580  15.446  -3.792  1.00 20.00     0.020 C 
HETATM    3  C3  UNL     1     -35.896  16.158  -4.514  1.00 20.00     0.020 C 
HETATM    4  C4  UNL     1     -33.484  14.526  -5.011  1.00 20.00     0.010 C 
HETATM    5  C5  UNL     1     -35.799  15.239  -5.732  1.00 20.00     0.010 C 
HETATM    6  C6  UNL     1     -35.033  15.655  -3.353  1.00 20.00     0.093 C 
HETATM    7  C7  UNL     1     -34.349  14.992  -6.203  1.00 20.00    -0.048 C 
HETATM    8  C8  UNL     1     -34.352  13.891  -7.279  1.00 20.00     0.015 C 
HETATM    9  C9  UNL     1     -33.759  16.269  -6.833  1.00 20.00     0.015 C 
HETATM   10  N10 UNL     1     -35.145  17.338  -1.331  1.00 20.00    -0.197 NA
ENDROOT
TORSDOF 0
ENDMDL
