MODEL 1
REMARK VINA RESULT:      -4.5      0.000      0.000
REMARK  3 active torsions:
REMARK  status: ('A' for Active; 'I' for Inactive)
REMARK    1  A    between atoms: C4_4  and  C6_6 
REMARK    2  A    between atoms: C5_5  and  C6_6 
REMARK    3  A    between atoms: C5_5  and  O8_8 
ROOT
HETATM    1  C1  UNL     1     -33.202   5.890   3.070  1.00 20.00     0.066 C 
HETATM    2  C6  UNL     1     -33.287   7.263   3.611  1.00 20.00     0.116 C 
HETATM    3  N7  UNL     1     -33.139   4.813   2.644  1.00 20.00    -0.197 NA
ENDROOT
BRANCH   2   4
HETATM    4  C4  UNL     1     -33.595   7.238   5.118  1.00 20.00     0.017 C 
HETATM    5  C2  UNL     1     -34.445   6.043   5.534  1.00 20.00     0.006 C 
ENDBRANCH   2   4
BRANCH   2   6
HETATM    6  C5  UNL     1     -31.968   8.004   3.355  1.00 20.00     0.186 C 
BRANCH   6   7
HETATM    7  O8  UNL     1     -31.764   8.143   1.953  1.00 20.00    -0.395 OA
HETATM    8  C3  UNL     1     -32.447   9.277   1.439  1.00 20.00     0.201 C 
ENDBRANCH   6   7
ENDBRANCH   2   6
TORSDOF 3
ENDMDL
MODEL 2
REMARK VINA RESULT:      -4.4      1.295      1.421
REMARK  3 active torsions:
REMARK  status: ('A' for Active; 'I' for Inactive)
REMARK    1  A    between atoms: C4_4  and  C6_6 
REMARK    2  A    between atoms: C5_5  and  C6_6 
REMARK    3  A    between atoms: C5_5  and  O8_8 
ROOT
HETATM    1  C1  UNL     1     -34.271   5.120   4.072  1.00 20.00     0.066 C 
HETATM    2  C6  UNL     1     -34.069   6.540   3.714  1.00 20.00     0.116 C 
HETATM    3  N7  UNL     1     -34.433   4.007   4.354  1.00 20.00    -0.197 NA
ENDROOT
BRANCH   2   4
HETATM    4  C4  UNL     1     -33.516   7.332   4.912  1.00 20.00     0.017 C 
HETATM    5  C2  UNL     1     -34.118   6.898   6.243  1.00 20.00     0.006 C 
ENDBRANCH   2   4
BRANCH   2   6
HETATM    6  C5  UNL     1     -33.105   6.643   2.525  1.00 20.00     0.186 C 
BRANCH   6   7
HETATM    7  O8  UNL     1     -32.126   7.642   2.790  1.00 20.00    -0.395 OA
HETATM    8  C3  UNL     1     -32.057   8.593   1.738  1.00 20.00     0.201 C 
ENDBRANCH   6   7
ENDBRANCH   2   6
TORSDOF 3
ENDMDL
MODEL 3
REMARK VINA RESULT:      -4.3      2.388      3.969
REMARK  3 active torsions:
REMARK  status: ('A' for Active; 'I' for Inactive)
REMARK    1  A    between atoms: C4_4  and  C6_6 
REMARK    2  A    between atoms: C5_5  and  C6_6 
REMARK    3  A    between atoms: C5_5  and  O8_8 
ROOT
HETATM    1  C1  UNL     1     -33.514   7.380   4.958  1.00 20.00     0.066 C 
HETATM    2  C6  UNL     1     -33.408   7.297   3.486  1.00 20.00     0.116 C 
HETATM    3  N7  UNL     1     -33.598   7.450   6.113  1.00 20.00    -0.197 NA
ENDROOT
BRANCH   2   4
HETATM    4  C4  UNL     1     -32.028   7.781   3.008  1.00 20.00     0.017 C 
HETATM    5  C2  UNL     1     -32.105   8.691   1.787  1.00 20.00     0.006 C 
ENDBRANCH   2   4
BRANCH   2   6
HETATM    6  C5  UNL     1     -33.645   5.851   3.031  1.00 20.00     0.186 C 
BRANCH   6   7
HETATM    7  O8  UNL     1     -34.694   5.274   3.801  1.00 20.00    -0.395 OA
HETATM    8  C3  UNL     1     -34.278   4.067   4.422  1.00 20.00     0.201 C 
ENDBRANCH   6   7
ENDBRANCH   2   6
TORSDOF 3
ENDMDL
MODEL 4
REMARK VINA RESULT:      -4.2      2.295      3.295
REMARK  3 active torsions:
REMARK  status: ('A' for Active; 'I' for Inactive)
REMARK    1  A    between atoms: C4_4  and  C6_6 
REMARK    2  A    between atoms: C5_5  and  C6_6 
REMARK    3  A    between atoms: C5_5  and  O8_8 
ROOT
HETATM    1  C1  UNL     1     -32.529   7.967   2.412  1.00 20.00     0.066 C 
HETATM    2  C6  UNL     1     -32.760   7.072   3.565  1.00 20.00     0.116 C 
HETATM    3  N7  UNL     1     -32.344   8.669   1.507  1.00 20.00    -0.197 NA
ENDROOT
BRANCH   2   4
HETATM    4  C4  UNL     1     -32.910   7.882   4.864  1.00 20.00     0.017 C 
HETATM    5  C2  UNL     1     -33.823   7.210   5.884  1.00 20.00     0.006 C 
ENDBRANCH   2   4
BRANCH   2   6
HETATM    6  C5  UNL     1     -34.019   6.229   3.322  1.00 20.00     0.186 C 
BRANCH   6   7
HETATM    7  O8  UNL     1     -33.665   4.852   3.256  1.00 20.00    -0.395 OA
HETATM    8  C3  UNL     1     -34.254   4.114   4.317  1.00 20.00     0.201 C 
ENDBRANCH   6   7
ENDBRANCH   2   6
TORSDOF 3
ENDMDL
MODEL 5
REMARK VINA RESULT:      -4.1      1.056      1.432
REMARK  3 active torsions:
REMARK  status: ('A' for Active; 'I' for Inactive)
REMARK    1  A    between atoms: C4_4  and  C6_6 
REMARK    2  A    between atoms: C5_5  and  C6_6 
REMARK    3  A    between atoms: C5_5  and  O8_8 
ROOT
HETATM    1  C1  UNL     1     -33.552   5.149   3.033  1.00 20.00     0.066 C 
HETATM    2  C6  UNL     1     -34.336   6.239   3.652  1.00 20.00     0.116 C 
HETATM    3  N7  UNL     1     -32.941   4.291   2.546  1.00 20.00    -0.197 NA
ENDROOT
BRANCH   2   4
HETATM    4  C4  UNL     1     -34.465   6.025   5.170  1.00 20.00     0.017 C 
HETATM    5  C2  UNL     1     -33.862   7.162   5.987  1.00 20.00     0.006 C 
ENDBRANCH   2   4
BRANCH   2   6
HETATM    6  C5  UNL     1     -33.662   7.587   3.367  1.00 20.00     0.186 C 
BRANCH   6   7
HETATM    7  O8  UNL     1     -32.375   7.367   2.799  1.00 20.00    -0.395 OA
HETATM    8  C3  UNL     1     -31.479   8.420   3.121  1.00 20.00     0.201 C 
ENDBRANCH   6   7
ENDBRANCH   2   6
TORSDOF 3
ENDMDL
MODEL 6
REMARK VINA RESULT:      -4.1      1.755      2.162
REMARK  3 active torsions:
REMARK  status: ('A' for Active; 'I' for Inactive)
REMARK    1  A    between atoms: C4_4  and  C6_6 
REMARK    2  A    between atoms: C5_5  and  C6_6 
REMARK    3  A    between atoms: C5_5  and  O8_8 
ROOT
HETATM    1  C1  UNL     1     -33.377   7.176   4.770  1.00 20.00     0.066 C 
HETATM    2  C6  UNL     1     -32.893   6.793   3.427  1.00 20.00     0.116 C 
HETATM    3  N7  UNL     1     -33.754   7.475   5.826  1.00 20.00    -0.197 NA
ENDROOT
BRANCH   2   4
HETATM    4  C4  UNL     1     -33.685   5.592   2.883  1.00 20.00     0.017 C 
HETATM    5  C2  UNL     1     -34.215   4.678   3.982  1.00 20.00     0.006 C 
ENDBRANCH   2   4
BRANCH   2   6
HETATM    6  C5  UNL     1     -33.020   7.985   2.471  1.00 20.00     0.186 C 
BRANCH   6   7
HETATM    7  O8  UNL     1     -31.737   8.321   1.954  1.00 20.00    -0.395 OA
HETATM    8  C3  UNL     1     -31.841   9.081   0.760  1.00 20.00     0.201 C 
ENDBRANCH   6   7
ENDBRANCH   2   6
TORSDOF 3
ENDMDL
MODEL 7
REMARK VINA RESULT:      -3.8      2.443      3.790
REMARK  3 active torsions:
REMARK  status: ('A' for Active; 'I' for Inactive)
REMARK    1  A    between atoms: C4_4  and  C6_6 
REMARK    2  A    between atoms: C5_5  and  C6_6 
REMARK    3  A    between atoms: C5_5  and  O8_8 
ROOT
HETATM    1  C1  UNL     1     -32.464   7.824   3.037  1.00 20.00     0.066 C 
HETATM    2  C6  UNL     1     -33.755   7.216   3.425  1.00 20.00     0.116 C 
HETATM    3  N7  UNL     1     -31.453   8.304   2.730  1.00 20.00    -0.197 NA
ENDROOT
BRANCH   2   4
HETATM    4  C4  UNL     1     -34.045   5.964   2.579  1.00 20.00     0.017 C 
HETATM    5  C2  UNL     1     -32.937   4.920   2.661  1.00 20.00     0.006 C 
ENDBRANCH   2   4
BRANCH   2   6
HETATM    6  C5  UNL     1     -33.729   6.851   4.914  1.00 20.00     0.186 C 
BRANCH   6   7
HETATM    7  O8  UNL     1     -34.893   6.101   5.242  1.00 20.00    -0.395 OA
HETATM    8  C3  UNL     1     -34.561   4.889   5.902  1.00 20.00     0.201 C 
ENDBRANCH   6   7
ENDBRANCH   2   6
TORSDOF 3
ENDMDL
MODEL 8
REMARK VINA RESULT:      -3.5      1.580      3.461
REMARK  3 active torsions:
REMARK  status: ('A' for Active; 'I' for Inactive)
REMARK    1  A    between atoms: C4_4  and  C6_6 
REMARK    2  A    between atoms: C5_5  and  C6_6 
REMARK    3  A    between atoms: C5_5  and  O8_8 
ROOT
HETATM    1  C1  UNL     1     -32.802   5.852   2.814  1.00 20.00     0.066 C 
HETATM    2  C6  UNL     1     -32.426   7.228   3.202  1.00 20.00     0.116 C 
HETATM    3  N7  UNL     1     -33.093   4.771   2.508  1.00 20.00    -0.197 NA
ENDROOT
BRANCH   2   4
HETATM    4  C4  UNL     1     -32.886   8.240   2.138  1.00 20.00     0.017 C 
HETATM    5  C2  UNL     1     -31.748   8.730   1.249  1.00 20.00     0.006 C 
ENDBRANCH   2   4
BRANCH   2   6
HETATM    6  C5  UNL     1     -33.050   7.573   4.560  1.00 20.00     0.186 C 
BRANCH   6   7
HETATM    7  O8  UNL     1     -34.312   6.926   4.683  1.00 20.00    -0.395 OA
HETATM    8  C3  UNL     1     -34.402   6.189   5.893  1.00 20.00     0.201 C 
ENDBRANCH   6   7
ENDBRANCH   2   6
TORSDOF 3
ENDMDL
MODEL 9
REMARK VINA RESULT:      -3.5     10.811     11.448
REMARK  3 active torsions:
REMARK  status: ('A' for Active; 'I' for Inactive)
REMARK    1  A    between atoms: C4_4  and  C6_6 
REMARK    2  A    between atoms: C5_5  and  C6_6 
REMARK    3  A    between atoms: C5_5  and  O8_8 
ROOT
HETATM    1  C1  UNL     1     -35.269  13.695  -4.685  1.00 20.00     0.066 C 
HETATM    2  C6  UNL     1     -34.407  14.627  -3.928  1.00 20.00     0.116 C 
HETATM    3  N7  UNL     1     -35.944  12.960  -5.277  1.00 20.00    -0.197 NA
ENDROOT
BRANCH   2   4
HETATM    4  C4  UNL     1     -33.077  14.862  -4.665  1.00 20.00     0.017 C 
HETATM    5  C2  UNL     1     -33.202  15.848  -5.821  1.00 20.00     0.006 C 
ENDBRANCH   2   4
BRANCH   2   6
HETATM    6  C5  UNL     1     -35.139  15.960  -3.724  1.00 20.00     0.186 C 
BRANCH   6   7
HETATM    7  O8  UNL     1     -35.240  16.240  -2.332  1.00 20.00    -0.395 OA
HETATM    8  C3  UNL     1     -34.135  17.007  -1.876  1.00 20.00     0.201 C 
ENDBRANCH   6   7
ENDBRANCH   2   6
TORSDOF 3
ENDMDL
