MODEL 1
REMARK VINA RESULT:      -5.0      0.000      0.000
REMARK  4 active torsions:
REMARK  status: ('A' for Active; 'I' for Inactive)
REMARK    1  A    between atoms: C7_7  and  C10_10 
REMARK    2  A    between atoms: C8_8  and  N11_11 
REMARK    3  A    between atoms: C9_9  and  N11_11 
REMARK    4  A    between atoms: C10_10  and  N11_11 
ROOT
HETATM    1  C1  UNL     1     -33.879   7.280   6.138  1.00 20.00     0.013 C 
HETATM    2  C2  UNL     1     -33.117   7.614   5.273  1.00 20.00    -0.087 C 
HETATM    3  C9  UNL     1     -32.184   8.026   4.220  1.00 20.00     0.365 C 
ENDROOT
BRANCH   3   4
HETATM    4  N11 UNL     1     -32.464   7.313   2.975  1.00 20.00     0.104 N 
BRANCH   4   5
HETATM    5  C8  UNL     1     -33.213   6.087   3.243  1.00 20.00     0.224 A 
HETATM    6  C5  UNL     1     -34.231   5.584   2.257  1.00 20.00     0.038 A 
HETATM    7  C6  UNL     1     -32.944   4.837   2.451  1.00 20.00     0.038 A 
ENDBRANCH   4   5
BRANCH   4   8
HETATM    8  C10 UNL     1     -33.203   8.171   2.048  1.00 20.00     0.278 C 
BRANCH   8   9
HETATM    9  C7  UNL     1     -32.275   8.980   1.207  1.00 20.00     0.014 A 
HETATM   10  C3  UNL     1     -32.703   9.451  -0.154  1.00 20.00     0.007 A 
HETATM   11  C4  UNL     1     -32.547  10.439   0.969  1.00 20.00     0.007 A 
ENDBRANCH   8   9
ENDBRANCH   4   8
ENDBRANCH   3   4
TORSDOF 4
ENDMDL
MODEL 2
REMARK VINA RESULT:      -4.9      0.975      2.926
REMARK  4 active torsions:
REMARK  status: ('A' for Active; 'I' for Inactive)
REMARK    1  A    between atoms: C7_7  and  C10_10 
REMARK    2  A    between atoms: C8_8  and  N11_11 
REMARK    3  A    between atoms: C9_9  and  N11_11 
REMARK    4  A    between atoms: C10_10  and  N11_11 
ROOT
HETATM    1  C1  UNL     1     -32.635   4.155   2.562  1.00 20.00     0.013 C 
HETATM    2  C2  UNL     1     -33.339   5.127   2.607  1.00 20.00    -0.087 C 
HETATM    3  C9  UNL     1     -34.201   6.310   2.659  1.00 20.00     0.365 C 
ENDROOT
BRANCH   3   4
HETATM    4  N11 UNL     1     -33.627   7.330   3.536  1.00 20.00     0.104 N 
BRANCH   4   5
HETATM    5  C8  UNL     1     -33.322   6.763   4.848  1.00 20.00     0.224 A 
HETATM    6  C5  UNL     1     -33.595   7.550   6.100  1.00 20.00     0.038 A 
HETATM    7  C6  UNL     1     -34.428   6.343   5.777  1.00 20.00     0.038 A 
ENDBRANCH   4   5
BRANCH   4   8
HETATM    8  C10 UNL     1     -32.424   7.904   2.934  1.00 20.00     0.278 C 
BRANCH   8   9
HETATM    9  C7  UNL     1     -32.728   8.528   1.614  1.00 20.00     0.014 A 
HETATM   10  C3  UNL     1     -32.411   9.977   1.370  1.00 20.00     0.007 A 
HETATM   11  C4  UNL     1     -31.611   8.906   0.681  1.00 20.00     0.007 A 
ENDBRANCH   8   9
ENDBRANCH   4   8
ENDBRANCH   3   4
TORSDOF 4
ENDMDL
MODEL 3
REMARK VINA RESULT:      -4.7      0.858      3.566
REMARK  4 active torsions:
REMARK  status: ('A' for Active; 'I' for Inactive)
REMARK    1  A    between atoms: C7_7  and  C10_10 
REMARK    2  A    between atoms: C8_8  and  N11_11 
REMARK    3  A    between atoms: C9_9  and  N11_11 
REMARK    4  A    between atoms: C10_10  and  N11_11 
ROOT
HETATM    1  C1  UNL     1     -33.681   7.464   6.175  1.00 20.00     0.013 C 
HETATM    2  C2  UNL     1     -32.956   7.820   5.286  1.00 20.00    -0.087 C 
HETATM    3  C9  UNL     1     -32.069   8.256   4.205  1.00 20.00     0.365 C 
ENDROOT
BRANCH   3   4
HETATM    4  N11 UNL     1     -32.620   7.883   2.903  1.00 20.00     0.104 N 
BRANCH   4   5
HETATM    5  C8  UNL     1     -32.046   8.715   1.846  1.00 20.00     0.224 A 
HETATM    6  C5  UNL     1     -32.734   8.838   0.515  1.00 20.00     0.038 A 
HETATM    7  C6  UNL     1     -32.701  10.010   1.451  1.00 20.00     0.038 A 
ENDBRANCH   4   5
BRANCH   4   8
HETATM    8  C10 UNL     1     -32.373   6.467   2.629  1.00 20.00     0.278 C 
BRANCH   8   9
HETATM    9  C7  UNL     1     -33.653   5.714   2.498  1.00 20.00     0.014 A 
HETATM   10  C3  UNL     1     -34.123   4.819   3.610  1.00 20.00     0.007 A 
HETATM   11  C4  UNL     1     -34.849   6.104   3.322  1.00 20.00     0.007 A 
ENDBRANCH   8   9
ENDBRANCH   4   8
ENDBRANCH   3   4
TORSDOF 4
ENDMDL
MODEL 4
REMARK VINA RESULT:      -4.3      0.850      4.180
REMARK  4 active torsions:
REMARK  status: ('A' for Active; 'I' for Inactive)
REMARK    1  A    between atoms: C7_7  and  C10_10 
REMARK    2  A    between atoms: C8_8  and  N11_11 
REMARK    3  A    between atoms: C9_9  and  N11_11 
REMARK    4  A    between atoms: C10_10  and  N11_11 
ROOT
HETATM    1  C1  UNL     1     -32.593   9.929   0.296  1.00 20.00     0.013 C 
HETATM    2  C2  UNL     1     -32.243   9.315   1.267  1.00 20.00    -0.087 C 
HETATM    3  C9  UNL     1     -31.812   8.568   2.451  1.00 20.00     0.365 C 
ENDROOT
BRANCH   3   4
HETATM    4  N11 UNL     1     -32.886   7.702   2.935  1.00 20.00     0.104 N 
BRANCH   4   5
HETATM    5  C8  UNL     1     -32.976   6.492   2.119  1.00 20.00     0.224 A 
HETATM    6  C5  UNL     1     -32.984   5.136   2.768  1.00 20.00     0.038 A 
HETATM    7  C6  UNL     1     -34.230   5.662   2.117  1.00 20.00     0.038 A 
ENDBRANCH   4   5
BRANCH   4   8
HETATM    8  C10 UNL     1     -32.672   7.358   4.340  1.00 20.00     0.278 C 
BRANCH   8   9
HETATM    9  C7  UNL     1     -33.957   7.362   5.097  1.00 20.00     0.014 A 
HETATM   10  C3  UNL     1     -34.411   6.127   5.825  1.00 20.00     0.007 A 
HETATM   11  C4  UNL     1     -33.949   7.330   6.600  1.00 20.00     0.007 A 
ENDBRANCH   8   9
ENDBRANCH   4   8
ENDBRANCH   3   4
TORSDOF 4
ENDMDL
MODEL 5
REMARK VINA RESULT:      -4.3     10.148     11.473
REMARK  4 active torsions:
REMARK  status: ('A' for Active; 'I' for Inactive)
REMARK    1  A    between atoms: C7_7  and  C10_10 
REMARK    2  A    between atoms: C8_8  and  N11_11 
REMARK    3  A    between atoms: C9_9  and  N11_11 
REMARK    4  A    between atoms: C10_10  and  N11_11 
ROOT
HETATM    1  C1  UNL     1     -35.490  16.949  -1.244  1.00 20.00     0.013 C 
HETATM    2  C2  UNL     1     -34.610  16.769  -2.041  1.00 20.00    -0.087 C 
HETATM    3  C9  UNL     1     -33.532  16.550  -3.009  1.00 20.00     0.365 C 
ENDROOT
BRANCH   3   4
HETATM    4  N11 UNL     1     -34.069  16.062  -4.278  1.00 20.00     0.104 N 
BRANCH   4   5
HETATM    5  C8  UNL     1     -33.471  16.784  -5.400  1.00 20.00     0.224 A 
HETATM    6  C5  UNL     1     -33.663  16.297  -6.809  1.00 20.00     0.038 A 
HETATM    7  C6  UNL     1     -34.332  17.562  -6.356  1.00 20.00     0.038 A 
ENDBRANCH   4   5
BRANCH   4   8
HETATM    8  C10 UNL     1     -33.838  14.624  -4.413  1.00 20.00     0.278 C 
BRANCH   8   9
HETATM    9  C7  UNL     1     -35.121  13.866  -4.371  1.00 20.00     0.014 A 
HETATM   10  C3  UNL     1     -36.408  14.533  -4.767  1.00 20.00     0.007 A 
HETATM   11  C4  UNL     1     -35.809  13.471  -5.649  1.00 20.00     0.007 A 
ENDBRANCH   8   9
ENDBRANCH   4   8
ENDBRANCH   3   4
TORSDOF 4
ENDMDL
MODEL 6
REMARK VINA RESULT:      -4.1     10.561     11.381
REMARK  4 active torsions:
REMARK  status: ('A' for Active; 'I' for Inactive)
REMARK    1  A    between atoms: C7_7  and  C10_10 
REMARK    2  A    between atoms: C8_8  and  N11_11 
REMARK    3  A    between atoms: C9_9  and  N11_11 
REMARK    4  A    between atoms: C10_10  and  N11_11 
ROOT
HETATM    1  C1  UNL     1     -33.655  17.180  -1.773  1.00 20.00     0.013 C 
HETATM    2  C2  UNL     1     -34.645  16.787  -2.327  1.00 20.00    -0.087 C 
HETATM    3  C9  UNL     1     -35.856  16.309  -2.999  1.00 20.00     0.365 C 
ENDROOT
BRANCH   3   4
HETATM    4  N11 UNL     1     -35.525  15.703  -4.288  1.00 20.00     0.104 N 
BRANCH   4   5
HETATM    5  C8  UNL     1     -36.522  14.698  -4.652  1.00 20.00     0.224 A 
HETATM    6  C5  UNL     1     -36.824  14.412  -6.097  1.00 20.00     0.038 A 
HETATM    7  C6  UNL     1     -36.102  13.391  -5.267  1.00 20.00     0.038 A 
ENDBRANCH   4   5
BRANCH   4   8
HETATM    8  C10 UNL     1     -35.430  16.729  -5.327  1.00 20.00     0.278 C 
BRANCH   8   9
HETATM    9  C7  UNL     1     -34.048  16.808  -5.881  1.00 20.00     0.014 A 
HETATM   10  C3  UNL     1     -33.032  15.756  -5.534  1.00 20.00     0.007 A 
HETATM   11  C4  UNL     1     -33.595  15.827  -6.926  1.00 20.00     0.007 A 
ENDBRANCH   8   9
ENDBRANCH   4   8
ENDBRANCH   3   4
TORSDOF 4
ENDMDL
MODEL 7
REMARK VINA RESULT:      -4.1     10.446     11.719
REMARK  4 active torsions:
REMARK  status: ('A' for Active; 'I' for Inactive)
REMARK    1  A    between atoms: C7_7  and  C10_10 
REMARK    2  A    between atoms: C8_8  and  N11_11 
REMARK    3  A    between atoms: C9_9  and  N11_11 
REMARK    4  A    between atoms: C10_10  and  N11_11 
ROOT
HETATM    1  C1  UNL     1     -38.351  14.608  -5.305  1.00 20.00     0.013 C 
HETATM    2  C2  UNL     1     -37.245  14.152  -5.203  1.00 20.00    -0.087 C 
HETATM    3  C9  UNL     1     -35.897  13.592  -5.077  1.00 20.00     0.365 C 
ENDROOT
BRANCH   3   4
HETATM    4  N11 UNL     1     -34.893  14.558  -5.519  1.00 20.00     0.104 N 
BRANCH   4   5
HETATM    5  C8  UNL     1     -35.021  14.811  -6.953  1.00 20.00     0.224 A 
HETATM    6  C5  UNL     1     -34.080  15.756  -7.647  1.00 20.00     0.038 A 
HETATM    7  C6  UNL     1     -33.995  14.282  -7.918  1.00 20.00     0.038 A 
ENDBRANCH   4   5
BRANCH   4   8
HETATM    8  C10 UNL     1     -35.018  15.807  -4.766  1.00 20.00     0.278 C 
BRANCH   8   9
HETATM    9  C7  UNL     1     -34.578  15.630  -3.353  1.00 20.00     0.014 A 
HETATM   10  C3  UNL     1     -33.794  16.711  -2.663  1.00 20.00     0.007 A 
HETATM   11  C4  UNL     1     -35.215  16.436  -2.255  1.00 20.00     0.007 A 
ENDBRANCH   8   9
ENDBRANCH   4   8
ENDBRANCH   3   4
TORSDOF 4
ENDMDL
MODEL 8
REMARK VINA RESULT:      -4.1      1.024      4.092
REMARK  4 active torsions:
REMARK  status: ('A' for Active; 'I' for Inactive)
REMARK    1  A    between atoms: C7_7  and  C10_10 
REMARK    2  A    between atoms: C8_8  and  N11_11 
REMARK    3  A    between atoms: C9_9  and  N11_11 
REMARK    4  A    between atoms: C10_10  and  N11_11 
ROOT
HETATM    1  C1  UNL     1     -31.877   8.881   1.015  1.00 20.00     0.013 C 
HETATM    2  C2  UNL     1     -31.854   8.504   2.154  1.00 20.00    -0.087 C 
HETATM    3  C9  UNL     1     -31.821   8.048   3.546  1.00 20.00     0.365 C 
ENDROOT
BRANCH   3   4
HETATM    4  N11 UNL     1     -32.889   7.081   3.798  1.00 20.00     0.104 N 
BRANCH   4   5
HETATM    5  C8  UNL     1     -33.768   7.554   4.866  1.00 20.00     0.224 A 
HETATM    6  C5  UNL     1     -34.325   6.590   5.877  1.00 20.00     0.038 A 
HETATM    7  C6  UNL     1     -33.287   7.593   6.291  1.00 20.00     0.038 A 
ENDBRANCH   4   5
BRANCH   4   8
HETATM    8  C10 UNL     1     -33.655   6.835   2.576  1.00 20.00     0.278 C 
BRANCH   8   9
HETATM    9  C7  UNL     1     -33.909   5.379   2.383  1.00 20.00     0.014 A 
HETATM   10  C3  UNL     1     -32.776   4.395   2.466  1.00 20.00     0.007 A 
HETATM   11  C4  UNL     1     -33.818   4.434   3.550  1.00 20.00     0.007 A 
ENDBRANCH   8   9
ENDBRANCH   4   8
ENDBRANCH   3   4
TORSDOF 4
ENDMDL
MODEL 9
REMARK VINA RESULT:      -4.1     10.407     11.409
REMARK  4 active torsions:
REMARK  status: ('A' for Active; 'I' for Inactive)
REMARK    1  A    between atoms: C7_7  and  C10_10 
REMARK    2  A    between atoms: C8_8  and  N11_11 
REMARK    3  A    between atoms: C9_9  and  N11_11 
REMARK    4  A    between atoms: C10_10  and  N11_11 
ROOT
HETATM    1  C1  UNL     1     -35.244  16.629  -2.359  1.00 20.00     0.013 C 
HETATM    2  C2  UNL     1     -34.647  15.925  -3.126  1.00 20.00    -0.087 C 
HETATM    3  C9  UNL     1     -33.913  15.066  -4.060  1.00 20.00     0.365 C 
ENDROOT
BRANCH   3   4
HETATM    4  N11 UNL     1     -34.734  14.756  -5.230  1.00 20.00     0.104 N 
BRANCH   4   5
HETATM    5  C8  UNL     1     -33.890  14.382  -6.363  1.00 20.00     0.224 A 
HETATM    6  C5  UNL     1     -34.472  13.642  -7.535  1.00 20.00     0.038 A 
HETATM    7  C6  UNL     1     -34.042  15.072  -7.691  1.00 20.00     0.038 A 
ENDBRANCH   4   5
BRANCH   4   8
HETATM    8  C10 UNL     1     -35.681  13.685  -4.922  1.00 20.00     0.278 C 
BRANCH   8   9
HETATM    9  C7  UNL     1     -37.058  14.037  -5.371  1.00 20.00     0.014 A 
HETATM   10  C3  UNL     1     -37.913  14.955  -4.543  1.00 20.00     0.007 A 
HETATM   11  C4  UNL     1     -37.362  15.426  -5.860  1.00 20.00     0.007 A 
ENDBRANCH   8   9
ENDBRANCH   4   8
ENDBRANCH   3   4
TORSDOF 4
ENDMDL
