MODEL 1
REMARK VINA RESULT:      -6.2      0.000      0.000
REMARK  4 active torsions:
REMARK  status: ('A' for Active; 'I' for Inactive)
REMARK    1  A    between atoms: C5_5  and  C8_8 
REMARK    2  A    between atoms: C6_6  and  C9_9 
REMARK    3  A    between atoms: C9_9  and  C10_10 
REMARK    4  A    between atoms: C10_10  and  C11_11 
ROOT
HETATM    1  C1  UNL     1     -33.476   4.103   3.706  1.00 20.00     0.001 C 
HETATM    2  C2  UNL     1     -34.827   4.533   4.275  1.00 20.00     0.005 C 
HETATM    3  C3  UNL     1     -33.030   5.013   2.564  1.00 20.00     0.005 C 
HETATM    4  C4  UNL     1     -34.373   6.913   3.552  1.00 20.00     0.009 C 
HETATM    5  C5  UNL     1     -34.861   6.008   4.695  1.00 20.00    -0.014 C 
HETATM    6  C6  UNL     1     -33.011   6.488   2.982  1.00 20.00    -0.014 C 
ENDROOT
BRANCH   6   7
HETATM    7  C9  UNL     1     -32.624   7.375   1.799  1.00 20.00     0.005 C 
BRANCH   7   8
HETATM    8  C10 UNL     1     -32.020   8.693   2.274  1.00 20.00     0.015 C 
BRANCH   8   9
HETATM    9  C11 UNL     1     -32.457   9.841   1.375  1.00 20.00     0.114 C 
HETATM   10 CL12 UNL     1     -32.945   9.228  -0.222  1.00 20.00    -0.130 Cl
ENDBRANCH   8   9
ENDBRANCH   7   8
ENDBRANCH   6   7
BRANCH   5  11
HETATM   11  C8  UNL     1     -34.071   6.248   5.985  1.00 20.00     0.000 C 
HETATM   12  C7  UNL     1     -33.498   7.626   6.031  1.00 20.00     0.005 C 
ENDBRANCH   5  11
TORSDOF 4
ENDMDL
MODEL 2
REMARK VINA RESULT:      -5.0      1.044      2.480
REMARK  4 active torsions:
REMARK  status: ('A' for Active; 'I' for Inactive)
REMARK    1  A    between atoms: C5_5  and  C8_8 
REMARK    2  A    between atoms: C6_6  and  C9_9 
REMARK    3  A    between atoms: C9_9  and  C10_10 
REMARK    4  A    between atoms: C10_10  and  C11_11 
ROOT
HETATM    1  C1  UNL     1     -34.033   7.239   6.027  1.00 20.00     0.001 C 
HETATM    2  C2  UNL     1     -34.136   5.749   5.702  1.00 20.00     0.005 C 
HETATM    3  C3  UNL     1     -32.834   7.883   5.336  1.00 20.00     0.005 C 
HETATM    4  C4  UNL     1     -32.953   6.147   3.503  1.00 20.00     0.009 C 
HETATM    5  C5  UNL     1     -34.142   5.461   4.195  1.00 20.00    -0.014 C 
HETATM    6  C6  UNL     1     -32.850   7.646   3.822  1.00 20.00    -0.014 C 
ENDROOT
BRANCH   6   7
HETATM    7  C9  UNL     1     -31.604   8.249   3.171  1.00 20.00     0.005 C 
BRANCH   7   8
HETATM    8  C10 UNL     1     -31.771   8.356   1.659  1.00 20.00     0.015 C 
BRANCH   8   9
HETATM    9  C11 UNL     1     -32.508   9.637   1.289  1.00 20.00     0.114 C 
HETATM   10 CL12 UNL     1     -33.191   9.511  -0.348  1.00 20.00    -0.130 Cl
ENDBRANCH   8   9
ENDBRANCH   7   8
ENDBRANCH   6   7
BRANCH   5  11
HETATM   11  C8  UNL     1     -35.475   5.849   3.549  1.00 20.00     0.000 C 
HETATM   12  C7  UNL     1     -35.290   6.318   2.144  1.00 20.00     0.005 C 
ENDBRANCH   5  11
TORSDOF 4
ENDMDL
MODEL 3
REMARK VINA RESULT:      -4.7     10.886     12.093
REMARK  4 active torsions:
REMARK  status: ('A' for Active; 'I' for Inactive)
REMARK    1  A    between atoms: C5_5  and  C8_8 
REMARK    2  A    between atoms: C6_6  and  C9_9 
REMARK    3  A    between atoms: C9_9  and  C10_10 
REMARK    4  A    between atoms: C10_10  and  C11_11 
ROOT
HETATM    1  C1  UNL     1     -34.853  17.762   0.119  1.00 20.00     0.001 C 
HETATM    2  C2  UNL     1     -34.229  19.155   0.065  1.00 20.00     0.005 C 
HETATM    3  C3  UNL     1     -34.949  17.134  -1.269  1.00 20.00     0.005 C 
HETATM    4  C4  UNL     1     -32.970  18.509  -2.030  1.00 20.00     0.009 C 
HETATM    5  C5  UNL     1     -32.872  19.179  -0.651  1.00 20.00    -0.014 C 
HETATM    6  C6  UNL     1     -33.591  17.105  -1.979  1.00 20.00    -0.014 C 
ENDROOT
BRANCH   6   7
HETATM    7  C9  UNL     1     -33.735  16.530  -3.389  1.00 20.00     0.005 C 
BRANCH   7   8
HETATM    8  C10 UNL     1     -34.889  15.535  -3.461  1.00 20.00     0.015 C 
BRANCH   8   9
HETATM    9  C11 UNL     1     -34.483  14.299  -4.253  1.00 20.00     0.114 C 
HETATM   10 CL12 UNL     1     -32.715  14.109  -4.247  1.00 20.00    -0.130 Cl
ENDBRANCH   8   9
ENDBRANCH   7   8
ENDBRANCH   6   7
BRANCH   5  11
HETATM   11  C8  UNL     1     -31.768  18.552   0.207  1.00 20.00     0.000 C 
HETATM   12  C7  UNL     1     -31.615  19.262   1.511  1.00 20.00     0.005 C 
ENDBRANCH   5  11
TORSDOF 4
ENDMDL
MODEL 4
REMARK VINA RESULT:      -4.6     11.293     12.211
REMARK  4 active torsions:
REMARK  status: ('A' for Active; 'I' for Inactive)
REMARK    1  A    between atoms: C5_5  and  C8_8 
REMARK    2  A    between atoms: C6_6  and  C9_9 
REMARK    3  A    between atoms: C9_9  and  C10_10 
REMARK    4  A    between atoms: C10_10  and  C11_11 
ROOT
HETATM    1  C1  UNL     1     -36.355  15.150  -4.428  1.00 20.00     0.001 C 
HETATM    2  C2  UNL     1     -35.537  13.948  -4.896  1.00 20.00     0.005 C 
HETATM    3  C3  UNL     1     -35.687  15.864  -3.256  1.00 20.00     0.005 C 
HETATM    4  C4  UNL     1     -33.427  15.054  -4.048  1.00 20.00     0.009 C 
HETATM    5  C5  UNL     1     -34.079  14.301  -5.219  1.00 20.00    -0.014 C 
HETATM    6  C6  UNL     1     -34.244  16.268  -3.580  1.00 20.00    -0.014 C 
ENDROOT
BRANCH   6   7
HETATM    7  C9  UNL     1     -33.585  16.921  -2.364  1.00 20.00     0.005 C 
BRANCH   7   8
HETATM    8  C10 UNL     1     -34.608  17.199  -1.268  1.00 20.00     0.015 C 
BRANCH   8   9
HETATM    9  C11 UNL     1     -34.008  18.085  -0.184  1.00 20.00     0.114 C 
HETATM   10 CL12 UNL     1     -32.334  18.524  -0.597  1.00 20.00    -0.130 Cl
ENDBRANCH   8   9
ENDBRANCH   7   8
ENDBRANCH   6   7
BRANCH   5  11
HETATM   11  C8  UNL     1     -33.963  15.082  -6.531  1.00 20.00     0.000 C 
HETATM   12  C7  UNL     1     -34.145  14.195  -7.718  1.00 20.00     0.005 C 
ENDBRANCH   5  11
TORSDOF 4
ENDMDL
MODEL 5
REMARK VINA RESULT:      -4.4     10.932     12.079
REMARK  4 active torsions:
REMARK  status: ('A' for Active; 'I' for Inactive)
REMARK    1  A    between atoms: C5_5  and  C8_8 
REMARK    2  A    between atoms: C6_6  and  C9_9 
REMARK    3  A    between atoms: C9_9  and  C10_10 
REMARK    4  A    between atoms: C10_10  and  C11_11 
ROOT
HETATM    1  C1  UNL     1     -33.095  18.922  -0.150  1.00 20.00     0.001 C 
HETATM    2  C2  UNL     1     -34.157  18.373   0.801  1.00 20.00     0.005 C 
HETATM    3  C3  UNL     1     -32.776  17.934  -1.268  1.00 20.00     0.005 C 
HETATM    4  C4  UNL     1     -35.098  16.955  -1.069  1.00 20.00     0.009 C 
HETATM    5  C5  UNL     1     -35.433  17.919   0.081  1.00 20.00    -0.014 C 
HETATM    6  C6  UNL     1     -34.036  17.507  -2.031  1.00 20.00    -0.014 C 
ENDROOT
BRANCH   6   7
HETATM    7  C9  UNL     1     -33.689  16.470  -3.100  1.00 20.00     0.005 C 
BRANCH   7   8
HETATM    8  C10 UNL     1     -34.918  15.656  -3.495  1.00 20.00     0.015 C 
BRANCH   8   9
HETATM    9  C11 UNL     1     -34.509  14.391  -4.237  1.00 20.00     0.114 C 
HETATM   10 CL12 UNL     1     -32.737  14.259  -4.311  1.00 20.00    -0.130 Cl
ENDBRANCH   8   9
ENDBRANCH   7   8
ENDBRANCH   6   7
BRANCH   5  11
HETATM   11  C8  UNL     1     -36.265  19.110  -0.402  1.00 20.00     0.000 C 
HETATM   12  C7  UNL     1     -37.490  18.667  -1.132  1.00 20.00     0.005 C 
ENDBRANCH   5  11
TORSDOF 4
ENDMDL
MODEL 6
REMARK VINA RESULT:      -4.4     11.268     12.424
REMARK  4 active torsions:
REMARK  status: ('A' for Active; 'I' for Inactive)
REMARK    1  A    between atoms: C5_5  and  C8_8 
REMARK    2  A    between atoms: C6_6  and  C9_9 
REMARK    3  A    between atoms: C9_9  and  C10_10 
REMARK    4  A    between atoms: C10_10  and  C11_11 
ROOT
HETATM    1  C1  UNL     1     -35.577  17.564  -4.769  1.00 20.00     0.001 C 
HETATM    2  C2  UNL     1     -34.137  17.681  -4.272  1.00 20.00     0.005 C 
HETATM    3  C3  UNL     1     -35.864  16.178  -5.340  1.00 20.00     0.005 C 
HETATM    4  C4  UNL     1     -34.083  15.189  -3.844  1.00 20.00     0.009 C 
HETATM    5  C5  UNL     1     -33.753  16.579  -3.276  1.00 20.00    -0.014 C 
HETATM    6  C6  UNL     1     -35.532  15.066  -4.338  1.00 20.00    -0.014 C 
ENDROOT
BRANCH   6   7
HETATM    7  C9  UNL     1     -35.770  13.691  -4.964  1.00 20.00     0.005 C 
BRANCH   7   8
HETATM    8  C10 UNL     1     -36.092  13.813  -6.451  1.00 20.00     0.015 C 
BRANCH   8   9
HETATM    9  C11 UNL     1     -35.014  13.142  -7.291  1.00 20.00     0.114 C 
HETATM   10 CL12 UNL     1     -33.871  14.352  -7.918  1.00 20.00    -0.130 Cl
ENDBRANCH   8   9
ENDBRANCH   7   8
ENDBRANCH   6   7
BRANCH   5  11
HETATM   11  C8  UNL     1     -34.404  16.801  -1.907  1.00 20.00     0.000 C 
HETATM   12  C7  UNL     1     -33.614  17.753  -1.071  1.00 20.00     0.005 C 
ENDBRANCH   5  11
TORSDOF 4
ENDMDL
MODEL 7
REMARK VINA RESULT:      -4.4     11.169     12.426
REMARK  4 active torsions:
REMARK  status: ('A' for Active; 'I' for Inactive)
REMARK    1  A    between atoms: C5_5  and  C8_8 
REMARK    2  A    between atoms: C6_6  and  C9_9 
REMARK    3  A    between atoms: C9_9  and  C10_10 
REMARK    4  A    between atoms: C10_10  and  C11_11 
ROOT
HETATM    1  C1  UNL     1     -34.157  16.926  -5.618  1.00 20.00     0.001 C 
HETATM    2  C2  UNL     1     -35.585  16.429  -5.401  1.00 20.00     0.005 C 
HETATM    3  C3  UNL     1     -33.606  17.618  -4.374  1.00 20.00     0.005 C 
HETATM    4  C4  UNL     1     -35.137  16.227  -2.920  1.00 20.00     0.009 C 
HETATM    5  C5  UNL     1     -35.730  15.538  -4.160  1.00 20.00    -0.014 C 
HETATM    6  C6  UNL     1     -33.698  16.722  -3.133  1.00 20.00    -0.014 C 
ENDROOT
BRANCH   6   7
HETATM    7  C9  UNL     1     -33.199  17.468  -1.895  1.00 20.00     0.005 C 
BRANCH   7   8
HETATM    8  C10 UNL     1     -34.286  17.550  -0.828  1.00 20.00     0.015 C 
BRANCH   8   9
HETATM    9  C11 UNL     1     -33.826  18.408   0.344  1.00 20.00     0.114 C 
HETATM   10 CL12 UNL     1     -32.087  18.758   0.212  1.00 20.00    -0.130 Cl
ENDBRANCH   8   9
ENDBRANCH   7   8
ENDBRANCH   6   7
BRANCH   5  11
HETATM   11  C8  UNL     1     -35.119  14.151  -4.384  1.00 20.00     0.000 C 
HETATM   12  C7  UNL     1     -35.926  13.344  -5.346  1.00 20.00     0.005 C 
ENDBRANCH   5  11
TORSDOF 4
ENDMDL
MODEL 8
REMARK VINA RESULT:      -4.4      2.516      5.137
REMARK  4 active torsions:
REMARK  status: ('A' for Active; 'I' for Inactive)
REMARK    1  A    between atoms: C5_5  and  C8_8 
REMARK    2  A    between atoms: C6_6  and  C9_9 
REMARK    3  A    between atoms: C9_9  and  C10_10 
REMARK    4  A    between atoms: C10_10  and  C11_11 
ROOT
HETATM    1  C1  UNL     1     -31.177   8.372   3.380  1.00 20.00     0.001 C 
HETATM    2  C2  UNL     1     -31.798   9.661   2.845  1.00 20.00     0.005 C 
HETATM    3  C3  UNL     1     -32.240   7.324   3.698  1.00 20.00     0.005 C 
HETATM    4  C4  UNL     1     -33.768   8.344   1.962  1.00 20.00     0.009 C 
HETATM    5  C5  UNL     1     -32.727   9.429   1.646  1.00 20.00    -0.014 C 
HETATM    6  C6  UNL     1     -33.146   7.044   2.493  1.00 20.00    -0.014 C 
ENDROOT
BRANCH   6   7
HETATM    7  C9  UNL     1     -34.238   6.040   2.866  1.00 20.00     0.005 C 
BRANCH   7   8
HETATM    8  C10 UNL     1     -33.633   4.735   3.375  1.00 20.00     0.015 C 
BRANCH   8   9
HETATM    9  C11 UNL     1     -34.407   4.219   4.581  1.00 20.00     0.114 C 
HETATM   10 CL12 UNL     1     -34.581   5.499   5.803  1.00 20.00    -0.130 Cl
ENDBRANCH   8   9
ENDBRANCH   7   8
ENDBRANCH   6   7
BRANCH   5  11
HETATM   11  C8  UNL     1     -31.938   9.103   0.374  1.00 20.00     0.000 C 
HETATM   12  C7  UNL     1     -32.824   9.053  -0.826  1.00 20.00     0.005 C 
ENDBRANCH   5  11
TORSDOF 4
ENDMDL
MODEL 9
REMARK VINA RESULT:      -4.3     11.438     12.575
REMARK  4 active torsions:
REMARK  status: ('A' for Active; 'I' for Inactive)
REMARK    1  A    between atoms: C5_5  and  C8_8 
REMARK    2  A    between atoms: C6_6  and  C9_9 
REMARK    3  A    between atoms: C9_9  and  C10_10 
REMARK    4  A    between atoms: C10_10  and  C11_11 
ROOT
HETATM    1  C1  UNL     1     -33.466  19.262  -2.882  1.00 20.00     0.001 C 
HETATM    2  C2  UNL     1     -33.093  18.302  -1.753  1.00 20.00     0.005 C 
HETATM    3  C3  UNL     1     -33.261  18.624  -4.253  1.00 20.00     0.005 C 
HETATM    4  C4  UNL     1     -33.634  16.335  -3.248  1.00 20.00     0.009 C 
HETATM    5  C5  UNL     1     -33.813  16.950  -1.851  1.00 20.00    -0.014 C 
HETATM    6  C6  UNL     1     -34.015  17.295  -4.385  1.00 20.00    -0.014 C 
ENDROOT
BRANCH   6   7
HETATM    7  C9  UNL     1     -33.736  16.654  -5.744  1.00 20.00     0.005 C 
BRANCH   7   8
HETATM    8  C10 UNL     1     -33.415  15.169  -5.596  1.00 20.00     0.015 C 
BRANCH   8   9
HETATM    9  C11 UNL     1     -34.527  14.317  -6.193  1.00 20.00     0.114 C 
HETATM   10 CL12 UNL     1     -35.559  13.651  -4.907  1.00 20.00    -0.130 Cl
ENDBRANCH   8   9
ENDBRANCH   7   8
ENDBRANCH   6   7
BRANCH   5  11
HETATM   11  C8  UNL     1     -35.292  17.067  -1.468  1.00 20.00     0.000 C 
HETATM   12  C7  UNL     1     -35.460  17.503  -0.050  1.00 20.00     0.005 C 
ENDBRANCH   5  11
TORSDOF 4
ENDMDL
