MODEL 1
REMARK VINA RESULT:      -6.2      0.000      0.000
REMARK  1 active torsions:
REMARK  status: ('A' for Active; 'I' for Inactive)
REMARK    1  A    between atoms: C7_7  and  C9_9 
ROOT
HETATM    1  C1  UNL     1     -32.700  10.150   1.068  1.00 20.00     0.012 C 
HETATM    2  C2  UNL     1     -32.425   9.135   1.650  1.00 20.00    -0.117 C 
HETATM    3  C9  UNL     1     -32.078   7.898   2.355  1.00 20.00     0.097 C 
ENDROOT
BRANCH   3   4
HETATM    4  C7  UNL     1     -33.237   7.423   3.229  1.00 20.00    -0.002 C 
HETATM    5  C4  UNL     1     -32.824   7.344   4.699  1.00 20.00     0.005 C 
HETATM    6  C3  UNL     1     -33.993   6.957   5.607  1.00 20.00     0.002 C 
HETATM    7  C5  UNL     1     -35.083   6.147   4.901  1.00 20.00     0.020 C 
HETATM    8  C8  UNL     1     -34.548   5.264   3.776  1.00 20.00     0.082 C 
HETATM    9  C6  UNL     1     -33.789   6.078   2.718  1.00 20.00     0.025 C 
HETATM   10 CL10 UNL     1     -33.492   3.981   4.455  1.00 20.00    -0.125 Cl
ENDBRANCH   3   4
TORSDOF 1
ENDMDL
MODEL 2
REMARK VINA RESULT:      -5.2      1.449      2.153
REMARK  1 active torsions:
REMARK  status: ('A' for Active; 'I' for Inactive)
REMARK    1  A    between atoms: C7_7  and  C9_9 
ROOT
HETATM    1  C1  UNL     1     -32.578   9.095   0.846  1.00 20.00     0.012 C 
HETATM    2  C2  UNL     1     -32.260   8.752   1.952  1.00 20.00    -0.117 C 
HETATM    3  C9  UNL     1     -31.867   8.344   3.303  1.00 20.00     0.097 C 
ENDROOT
BRANCH   3   4
HETATM    4  C7  UNL     1     -32.456   6.980   3.657  1.00 20.00    -0.002 C 
HETATM    5  C4  UNL     1     -32.772   6.171   2.398  1.00 20.00     0.005 C 
HETATM    6  C3  UNL     1     -33.279   4.765   2.728  1.00 20.00     0.002 C 
HETATM    7  C5  UNL     1     -33.951   4.656   4.100  1.00 20.00     0.020 C 
HETATM    8  C8  UNL     1     -34.653   5.940   4.534  1.00 20.00     0.082 C 
HETATM    9  C6  UNL     1     -33.694   7.139   4.560  1.00 20.00     0.025 C 
HETATM   10 CL10 UNL     1     -36.044   6.274   3.449  1.00 20.00    -0.125 Cl
ENDBRANCH   3   4
TORSDOF 1
ENDMDL
MODEL 3
REMARK VINA RESULT:      -4.9      2.373      4.444
REMARK  1 active torsions:
REMARK  status: ('A' for Active; 'I' for Inactive)
REMARK    1  A    between atoms: C7_7  and  C9_9 
ROOT
HETATM    1  C1  UNL     1     -34.750   4.688   5.581  1.00 20.00     0.012 C 
HETATM    2  C2  UNL     1     -34.604   5.200   4.503  1.00 20.00    -0.117 C 
HETATM    3  C9  UNL     1     -34.437   5.819   3.186  1.00 20.00     0.097 C 
ENDROOT
BRANCH   3   4
HETATM    4  C7  UNL     1     -33.147   6.635   3.124  1.00 20.00    -0.002 C 
HETATM    5  C4  UNL     1     -33.130   7.725   4.195  1.00 20.00     0.005 C 
HETATM    6  C3  UNL     1     -31.809   8.497   4.212  1.00 20.00     0.002 C 
HETATM    7  C5  UNL     1     -31.077   8.501   2.868  1.00 20.00     0.020 C 
HETATM    8  C8  UNL     1     -32.018   8.445   1.667  1.00 20.00     0.082 C 
HETATM    9  C6  UNL     1     -32.938   7.216   1.712  1.00 20.00     0.025 C 
HETATM   10 CL10 UNL     1     -32.990   9.953   1.580  1.00 20.00    -0.125 Cl
ENDBRANCH   3   4
TORSDOF 1
ENDMDL
MODEL 4
REMARK VINA RESULT:      -4.4     11.193     12.258
REMARK  1 active torsions:
REMARK  status: ('A' for Active; 'I' for Inactive)
REMARK    1  A    between atoms: C7_7  and  C9_9 
ROOT
HETATM    1  C1  UNL     1     -35.192  17.022  -1.175  1.00 20.00     0.012 C 
HETATM    2  C2  UNL     1     -34.649  16.611  -2.164  1.00 20.00    -0.117 C 
HETATM    3  C9  UNL     1     -33.976  16.113  -3.366  1.00 20.00     0.097 C 
ENDROOT
BRANCH   3   4
HETATM    4  C7  UNL     1     -34.984  15.538  -4.360  1.00 20.00    -0.002 C 
HETATM    5  C4  UNL     1     -34.921  14.010  -4.389  1.00 20.00     0.005 C 
HETATM    6  C3  UNL     1     -35.984  13.407  -5.310  1.00 20.00     0.002 C 
HETATM    7  C5  UNL     1     -36.431  14.343  -6.436  1.00 20.00     0.020 C 
HETATM    8  C8  UNL     1     -35.330  15.289  -6.908  1.00 20.00     0.082 C 
HETATM    9  C6  UNL     1     -34.776  16.145  -5.760  1.00 20.00     0.025 C 
HETATM   10 CL10 UNL     1     -34.010  14.352  -7.686  1.00 20.00    -0.125 Cl
ENDBRANCH   3   4
TORSDOF 1
ENDMDL
MODEL 5
REMARK VINA RESULT:      -4.4     11.303     11.858
REMARK  1 active torsions:
REMARK  status: ('A' for Active; 'I' for Inactive)
REMARK    1  A    between atoms: C7_7  and  C9_9 
ROOT
HETATM    1  C1  UNL     1     -35.561  17.478   0.271  1.00 20.00     0.012 C 
HETATM    2  C2  UNL     1     -34.940  17.406  -0.754  1.00 20.00    -0.117 C 
HETATM    3  C9  UNL     1     -34.176  17.329  -2.002  1.00 20.00     0.097 C 
ENDROOT
BRANCH   3   4
HETATM    4  C7  UNL     1     -34.523  16.061  -2.779  1.00 20.00    -0.002 C 
HETATM    5  C4  UNL     1     -33.479  15.770  -3.858  1.00 20.00     0.005 C 
HETATM    6  C3  UNL     1     -33.757  14.455  -4.590  1.00 20.00     0.002 C 
HETATM    7  C5  UNL     1     -35.231  14.043  -4.585  1.00 20.00     0.020 C 
HETATM    8  C8  UNL     1     -36.191  15.230  -4.570  1.00 20.00     0.082 C 
HETATM    9  C6  UNL     1     -35.944  16.155  -3.369  1.00 20.00     0.025 C 
HETATM   10 CL10 UNL     1     -36.052  16.149  -6.107  1.00 20.00    -0.125 Cl
ENDBRANCH   3   4
TORSDOF 1
ENDMDL
MODEL 6
REMARK VINA RESULT:      -4.3     11.156     12.124
REMARK  1 active torsions:
REMARK  status: ('A' for Active; 'I' for Inactive)
REMARK    1  A    between atoms: C7_7  and  C9_9 
ROOT
HETATM    1  C1  UNL     1     -35.395  16.580  -2.509  1.00 20.00     0.012 C 
HETATM    2  C2  UNL     1     -34.472  16.112  -3.119  1.00 20.00    -0.117 C 
HETATM    3  C9  UNL     1     -33.338  15.547  -3.855  1.00 20.00     0.097 C 
ENDROOT
BRANCH   3   4
HETATM    4  C7  UNL     1     -33.816  14.639  -4.985  1.00 20.00    -0.002 C 
HETATM    5  C4  UNL     1     -34.043  15.432  -6.273  1.00 20.00     0.005 C 
HETATM    6  C3  UNL     1     -34.435  14.529  -7.445  1.00 20.00     0.002 C 
HETATM    7  C5  UNL     1     -35.117  13.225  -7.021  1.00 20.00     0.020 C 
HETATM    8  C8  UNL     1     -35.931  13.359  -5.737  1.00 20.00     0.082 C 
HETATM    9  C6  UNL     1     -35.077  13.861  -4.563  1.00 20.00     0.025 C 
HETATM   10 CL10 UNL     1     -37.328  14.453  -6.009  1.00 20.00    -0.125 Cl
ENDBRANCH   3   4
TORSDOF 1
ENDMDL
MODEL 7
REMARK VINA RESULT:      -4.2     11.064     12.268
REMARK  1 active torsions:
REMARK  status: ('A' for Active; 'I' for Inactive)
REMARK    1  A    between atoms: C7_7  and  C9_9 
ROOT
HETATM    1  C1  UNL     1     -32.690  18.136  -1.093  1.00 20.00     0.012 C 
HETATM    2  C2  UNL     1     -33.501  17.444  -1.645  1.00 20.00    -0.117 C 
HETATM    3  C9  UNL     1     -34.498  16.599  -2.308  1.00 20.00     0.097 C 
ENDROOT
BRANCH   3   4
HETATM    4  C7  UNL     1     -34.100  16.315  -3.755  1.00 20.00    -0.002 C 
HETATM    5  C4  UNL     1     -35.147  16.854  -4.732  1.00 20.00     0.005 C 
HETATM    6  C3  UNL     1     -34.727  16.662  -6.191  1.00 20.00     0.002 C 
HETATM    7  C5  UNL     1     -33.763  15.493  -6.409  1.00 20.00     0.020 C 
HETATM    8  C8  UNL     1     -33.970  14.346  -5.423  1.00 20.00     0.082 C 
HETATM    9  C6  UNL     1     -33.843  14.810  -3.965  1.00 20.00     0.025 C 
HETATM   10 CL10 UNL     1     -35.572  13.583  -5.701  1.00 20.00    -0.125 Cl
ENDBRANCH   3   4
TORSDOF 1
ENDMDL
MODEL 8
REMARK VINA RESULT:      -4.1     11.494     12.304
REMARK  1 active torsions:
REMARK  status: ('A' for Active; 'I' for Inactive)
REMARK    1  A    between atoms: C7_7  and  C9_9 
ROOT
HETATM    1  C1  UNL     1     -36.716  14.578  -7.576  1.00 20.00     0.012 C 
HETATM    2  C2  UNL     1     -36.354  14.005  -6.583  1.00 20.00    -0.117 C 
HETATM    3  C9  UNL     1     -35.917  13.296  -5.378  1.00 20.00     0.097 C 
ENDROOT
BRANCH   3   4
HETATM    4  C7  UNL     1     -35.147  14.227  -4.444  1.00 20.00    -0.002 C 
HETATM    5  C4  UNL     1     -36.022  15.392  -3.979  1.00 20.00     0.005 C 
HETATM    6  C3  UNL     1     -35.301  16.289  -2.970  1.00 20.00     0.002 C 
HETATM    7  C5  UNL     1     -33.775  16.263  -3.098  1.00 20.00     0.020 C 
HETATM    8  C8  UNL     1     -33.292  16.025  -4.527  1.00 20.00     0.082 C 
HETATM    9  C6  UNL     1     -33.849  14.719  -5.113  1.00 20.00     0.025 C 
HETATM   10 CL10 UNL     1     -33.743  17.419  -5.565  1.00 20.00    -0.125 Cl
ENDBRANCH   3   4
TORSDOF 1
ENDMDL
MODEL 9
REMARK VINA RESULT:      -4.0     11.348     12.555
REMARK  1 active torsions:
REMARK  status: ('A' for Active; 'I' for Inactive)
REMARK    1  A    between atoms: C7_7  and  C9_9 
ROOT
HETATM    1  C1  UNL     1     -36.755  14.387  -5.033  1.00 20.00     0.012 C 
HETATM    2  C2  UNL     1     -35.623  14.326  -4.634  1.00 20.00    -0.117 C 
HETATM    3  C9  UNL     1     -34.243  14.239  -4.150  1.00 20.00     0.097 C 
ENDROOT
BRANCH   3   4
HETATM    4  C7  UNL     1     -33.743  15.601  -3.673  1.00 20.00    -0.002 C 
HETATM    5  C4  UNL     1     -34.671  16.189  -2.609  1.00 20.00     0.005 C 
HETATM    6  C3  UNL     1     -34.142  17.512  -2.050  1.00 20.00     0.002 C 
HETATM    7  C5  UNL     1     -33.233  18.274  -3.018  1.00 20.00     0.020 C 
HETATM    8  C8  UNL     1     -33.589  18.050  -4.485  1.00 20.00     0.082 C 
HETATM    9  C6  UNL     1     -33.558  16.562  -4.864  1.00 20.00     0.025 C 
HETATM   10 CL10 UNL     1     -35.204  18.752  -4.838  1.00 20.00    -0.125 Cl
ENDBRANCH   3   4
TORSDOF 1
ENDMDL
