MODEL 1
REMARK VINA RESULT:      -5.3      0.000      0.000
REMARK  2 active torsions:
REMARK  status: ('A' for Active; 'I' for Inactive)
REMARK    1  A    between atoms: C4_4  and  C10_10 
REMARK    2  A    between atoms: C8_8  and  C10_10 
ROOT
HETATM    1  C5  UNL     1     -31.510   7.920   1.314  1.00 20.00     0.006 C 
HETATM    2  C6  UNL     1     -31.156   9.080   0.381  1.00 20.00     0.020 C 
HETATM    3  C7  UNL     1     -32.763   9.926   1.914  1.00 20.00     0.025 C 
HETATM    4  C8  UNL     1     -32.628   8.434   2.235  1.00 20.00    -0.009 C 
HETATM    5  C9  UNL     1     -32.339  10.038   0.454  1.00 20.00     0.082 C 
HETATM    6 CL12 UNL     1     -33.650   9.510  -0.638  1.00 20.00    -0.125 Cl
ENDROOT
BRANCH   4   7
HETATM    7  C10 UNL     1     -32.353   8.175   3.708  1.00 20.00     0.043 C 
BRANCH   7   8
HETATM    8  C4  UNL     1     -33.281   7.133   4.277  1.00 20.00    -0.051 A 
HETATM    9  C1  UNL     1     -33.708   7.106   5.636  1.00 20.00     0.014 A 
HETATM   10  C2  UNL     1     -34.553   6.049   5.893  1.00 20.00     0.050 A 
HETATM   11  S11 UNL     1     -34.829   5.094   4.498  1.00 20.00    -0.113 SA
HETATM   12  C3  UNL     1     -33.817   6.095   3.547  1.00 20.00     0.056 A 
ENDBRANCH   7   8
ENDBRANCH   4   7
TORSDOF 2
ENDMDL
MODEL 2
REMARK VINA RESULT:      -5.0      0.589      1.175
REMARK  2 active torsions:
REMARK  status: ('A' for Active; 'I' for Inactive)
REMARK    1  A    between atoms: C4_4  and  C10_10 
REMARK    2  A    between atoms: C8_8  and  C10_10 
ROOT
HETATM    1  C5  UNL     1     -31.504   7.958   1.258  1.00 20.00     0.006 C 
HETATM    2  C6  UNL     1     -31.158   9.138   0.348  1.00 20.00     0.020 C 
HETATM    3  C7  UNL     1     -32.781   9.940   1.888  1.00 20.00     0.025 C 
HETATM    4  C8  UNL     1     -32.633   8.444   2.184  1.00 20.00    -0.009 C 
HETATM    5  C9  UNL     1     -32.352  10.082   0.433  1.00 20.00     0.082 C 
HETATM    6 CL12 UNL     1     -33.653   9.561  -0.675  1.00 20.00    -0.125 Cl
ENDROOT
BRANCH   4   7
HETATM    7  C10 UNL     1     -32.361   8.161   3.653  1.00 20.00     0.043 C 
BRANCH   7   8
HETATM    8  C4  UNL     1     -33.301   7.121   4.206  1.00 20.00    -0.051 A 
HETATM    9  C1  UNL     1     -33.958   6.139   3.409  1.00 20.00     0.014 A 
HETATM   10  C2  UNL     1     -34.759   5.311   4.163  1.00 20.00     0.050 A 
HETATM   11  S11 UNL     1     -34.720   5.720   5.826  1.00 20.00    -0.113 SA
HETATM   12  C3  UNL     1     -33.627   7.006   5.539  1.00 20.00     0.056 A 
ENDBRANCH   7   8
ENDBRANCH   4   7
TORSDOF 2
ENDMDL
MODEL 3
REMARK VINA RESULT:      -4.7     10.109     10.818
REMARK  2 active torsions:
REMARK  status: ('A' for Active; 'I' for Inactive)
REMARK    1  A    between atoms: C4_4  and  C10_10 
REMARK    2  A    between atoms: C8_8  and  C10_10 
ROOT
HETATM    1  C5  UNL     1     -34.573  14.054  -4.177  1.00 20.00     0.006 C 
HETATM    2  C6  UNL     1     -35.183  13.837  -5.563  1.00 20.00     0.020 C 
HETATM    3  C7  UNL     1     -35.623  16.101  -4.991  1.00 20.00     0.025 C 
HETATM    4  C8  UNL     1     -34.951  15.485  -3.759  1.00 20.00    -0.009 C 
HETATM    5  C9  UNL     1     -36.250  14.915  -5.713  1.00 20.00     0.082 C 
HETATM    6 CL12 UNL     1     -37.772  14.414  -4.923  1.00 20.00    -0.125 Cl
ENDROOT
BRANCH   4   7
HETATM    7  C10 UNL     1     -33.762  16.297  -3.271  1.00 20.00     0.043 C 
BRANCH   7   8
HETATM    8  C4  UNL     1     -34.058  17.002  -1.974  1.00 20.00    -0.051 A 
HETATM    9  C1  UNL     1     -35.295  16.891  -1.274  1.00 20.00     0.014 A 
HETATM   10  C2  UNL     1     -35.303  17.637  -0.116  1.00 20.00     0.050 A 
HETATM   11  S11 UNL     1     -33.825  18.468   0.123  1.00 20.00    -0.113 SA
HETATM   12  C3  UNL     1     -33.170  17.830  -1.323  1.00 20.00     0.056 A 
ENDBRANCH   7   8
ENDBRANCH   4   7
TORSDOF 2
ENDMDL
MODEL 4
REMARK VINA RESULT:      -4.7      3.077      4.906
REMARK  2 active torsions:
REMARK  status: ('A' for Active; 'I' for Inactive)
REMARK    1  A    between atoms: C4_4  and  C10_10 
REMARK    2  A    between atoms: C8_8  and  C10_10 
ROOT
HETATM    1  C5  UNL     1     -33.219   6.303   2.629  1.00 20.00     0.006 C 
HETATM    2  C6  UNL     1     -34.692   6.206   3.030  1.00 20.00     0.020 C 
HETATM    3  C7  UNL     1     -33.593   7.338   4.807  1.00 20.00     0.025 C 
HETATM    4  C8  UNL     1     -32.488   6.937   3.824  1.00 20.00    -0.009 C 
HETATM    5  C9  UNL     1     -34.712   6.336   4.548  1.00 20.00     0.082 C 
HETATM    6 CL12 UNL     1     -34.358   4.765   5.323  1.00 20.00    -0.125 Cl
ENDROOT
BRANCH   4   7
HETATM    7  C10 UNL     1     -31.602   8.108   3.428  1.00 20.00     0.043 C 
BRANCH   7   8
HETATM    8  C4  UNL     1     -32.078   8.766   2.160  1.00 20.00    -0.051 A 
HETATM    9  C1  UNL     1     -32.981   9.868   2.127  1.00 20.00     0.014 A 
HETATM   10  C2  UNL     1     -33.251  10.278   0.840  1.00 20.00     0.050 A 
HETATM   11  S11 UNL     1     -32.417   9.335  -0.322  1.00 20.00    -0.113 SA
HETATM   12  C3  UNL     1     -31.692   8.377   0.896  1.00 20.00     0.056 A 
ENDBRANCH   7   8
ENDBRANCH   4   7
TORSDOF 2
ENDMDL
MODEL 5
REMARK VINA RESULT:      -4.5     10.758     11.706
REMARK  2 active torsions:
REMARK  status: ('A' for Active; 'I' for Inactive)
REMARK    1  A    between atoms: C4_4  and  C10_10 
REMARK    2  A    between atoms: C8_8  and  C10_10 
ROOT
HETATM    1  C5  UNL     1     -34.747  17.719  -0.079  1.00 20.00     0.006 C 
HETATM    2  C6  UNL     1     -34.194  19.129   0.131  1.00 20.00     0.020 C 
HETATM    3  C7  UNL     1     -33.314  18.373  -1.943  1.00 20.00     0.025 C 
HETATM    4  C8  UNL     1     -34.093  17.186  -1.365  1.00 20.00    -0.009 C 
HETATM    5  C9  UNL     1     -32.935  19.206  -0.725  1.00 20.00     0.082 C 
HETATM    6 CL12 UNL     1     -31.541  18.490   0.133  1.00 20.00    -0.125 Cl
ENDROOT
BRANCH   4   7
HETATM    7  C10 UNL     1     -35.098  16.609  -2.350  1.00 20.00     0.043 C 
BRANCH   7   8
HETATM    8  C4  UNL     1     -34.479  16.358  -3.700  1.00 20.00    -0.051 A 
HETATM    9  C1  UNL     1     -33.423  15.429  -3.930  1.00 20.00     0.014 A 
HETATM   10  C2  UNL     1     -33.043  15.394  -5.253  1.00 20.00     0.050 A 
HETATM   11  S11 UNL     1     -33.957  16.479  -6.212  1.00 20.00    -0.113 SA
HETATM   12  C3  UNL     1     -34.865  16.997  -4.858  1.00 20.00     0.056 A 
ENDBRANCH   7   8
ENDBRANCH   4   7
TORSDOF 2
ENDMDL
MODEL 6
REMARK VINA RESULT:      -4.5     10.402     11.228
REMARK  2 active torsions:
REMARK  status: ('A' for Active; 'I' for Inactive)
REMARK    1  A    between atoms: C4_4  and  C10_10 
REMARK    2  A    between atoms: C8_8  and  C10_10 
ROOT
HETATM    1  C5  UNL     1     -33.144  17.979  -1.889  1.00 20.00     0.006 C 
HETATM    2  C6  UNL     1     -33.639  18.090  -0.446  1.00 20.00     0.020 C 
HETATM    3  C7  UNL     1     -35.196  16.696  -1.577  1.00 20.00     0.025 C 
HETATM    4  C8  UNL     1     -34.207  17.169  -2.648  1.00 20.00    -0.009 C 
HETATM    5  C9  UNL     1     -35.129  17.772  -0.500  1.00 20.00     0.082 C 
HETATM    6 CL12 UNL     1     -36.069  19.215  -0.973  1.00 20.00    -0.125 Cl
ENDROOT
BRANCH   4   7
HETATM    7  C10 UNL     1     -33.619  16.018  -3.450  1.00 20.00     0.043 C 
BRANCH   7   8
HETATM    8  C4  UNL     1     -34.656  15.350  -4.314  1.00 20.00    -0.051 A 
HETATM    9  C1  UNL     1     -34.891  13.944  -4.330  1.00 20.00     0.014 A 
HETATM   10  C2  UNL     1     -35.894  13.596  -5.207  1.00 20.00     0.050 A 
HETATM   11  S11 UNL     1     -36.547  14.961  -6.010  1.00 20.00    -0.113 SA
HETATM   12  C3  UNL     1     -35.489  16.022  -5.182  1.00 20.00     0.056 A 
ENDBRANCH   7   8
ENDBRANCH   4   7
TORSDOF 2
ENDMDL
MODEL 7
REMARK VINA RESULT:      -4.5      1.365      1.610
REMARK  2 active torsions:
REMARK  status: ('A' for Active; 'I' for Inactive)
REMARK    1  A    between atoms: C4_4  and  C10_10 
REMARK    2  A    between atoms: C8_8  and  C10_10 
ROOT
HETATM    1  C5  UNL     1     -33.677   8.403   0.662  1.00 20.00     0.006 C 
HETATM    2  C6  UNL     1     -32.785   9.357  -0.134  1.00 20.00     0.020 C 
HETATM    3  C7  UNL     1     -31.573   8.800   1.834  1.00 20.00     0.025 C 
HETATM    4  C8  UNL     1     -32.942   8.129   1.985  1.00 20.00    -0.009 C 
HETATM    5  C9  UNL     1     -31.827   9.965   0.884  1.00 20.00     0.082 C 
HETATM    6 CL12 UNL     1     -32.594  11.334   1.738  1.00 20.00    -0.125 Cl
ENDROOT
BRANCH   4   7
HETATM    7  C10 UNL     1     -32.835   6.647   2.310  1.00 20.00     0.043 C 
BRANCH   7   8
HETATM    8  C4  UNL     1     -33.470   6.317   3.635  1.00 20.00    -0.051 A 
HETATM    9  C1  UNL     1     -33.519   7.217   4.739  1.00 20.00     0.014 A 
HETATM   10  C2  UNL     1     -34.156   6.666   5.829  1.00 20.00     0.050 A 
HETATM   11  S11 UNL     1     -34.690   5.068   5.520  1.00 20.00    -0.113 SA
HETATM   12  C3  UNL     1     -34.071   5.111   3.926  1.00 20.00     0.056 A 
ENDBRANCH   7   8
ENDBRANCH   4   7
TORSDOF 2
ENDMDL
MODEL 8
REMARK VINA RESULT:      -4.4     10.428     11.159
REMARK  2 active torsions:
REMARK  status: ('A' for Active; 'I' for Inactive)
REMARK    1  A    between atoms: C4_4  and  C10_10 
REMARK    2  A    between atoms: C8_8  and  C10_10 
ROOT
HETATM    1  C5  UNL     1     -35.907  16.563  -4.677  1.00 20.00     0.006 C 
HETATM    2  C6  UNL     1     -35.796  15.383  -5.645  1.00 20.00     0.020 C 
HETATM    3  C7  UNL     1     -34.227  14.968  -3.909  1.00 20.00     0.025 C 
HETATM    4  C8  UNL     1     -34.817  16.351  -3.613  1.00 20.00    -0.009 C 
HETATM    5  C9  UNL     1     -34.411  14.792  -5.411  1.00 20.00     0.082 C 
HETATM    6 CL12 UNL     1     -33.172  15.702  -6.321  1.00 20.00    -0.125 Cl
ENDROOT
BRANCH   4   7
HETATM    7  C10 UNL     1     -35.342  16.473  -2.191  1.00 20.00     0.043 C 
BRANCH   7   8
HETATM    8  C4  UNL     1     -34.437  17.315  -1.330  1.00 20.00    -0.051 A 
HETATM    9  C1  UNL     1     -33.119  17.704  -1.706  1.00 20.00     0.014 A 
HETATM   10  C2  UNL     1     -32.510  18.472  -0.738  1.00 20.00     0.050 A 
HETATM   11  S11 UNL     1     -33.525  18.718   0.619  1.00 20.00    -0.113 SA
HETATM   12  C3  UNL     1     -34.784  17.799  -0.088  1.00 20.00     0.056 A 
ENDBRANCH   7   8
ENDBRANCH   4   7
TORSDOF 2
ENDMDL
MODEL 9
REMARK VINA RESULT:      -4.3      2.856      5.201
REMARK  2 active torsions:
REMARK  status: ('A' for Active; 'I' for Inactive)
REMARK    1  A    between atoms: C4_4  and  C10_10 
REMARK    2  A    between atoms: C8_8  and  C10_10 
ROOT
HETATM    1  C5  UNL     1     -33.635   7.265   5.230  1.00 20.00     0.006 C 
HETATM    2  C6  UNL     1     -33.975   5.834   5.650  1.00 20.00     0.020 C 
HETATM    3  C7  UNL     1     -33.438   5.737   3.337  1.00 20.00     0.025 C 
HETATM    4  C8  UNL     1     -33.394   7.222   3.712  1.00 20.00    -0.009 C 
HETATM    5  C9  UNL     1     -34.374   5.115   4.366  1.00 20.00     0.082 C 
HETATM    6 CL12 UNL     1     -36.082   5.443   3.961  1.00 20.00    -0.125 Cl
ENDROOT
BRANCH   4   7
HETATM    7  C10 UNL     1     -32.094   7.893   3.296  1.00 20.00     0.043 C 
BRANCH   7   8
HETATM    8  C4  UNL     1     -32.270   8.742   2.064  1.00 20.00    -0.051 A 
HETATM    9  C1  UNL     1     -32.351  10.165   2.085  1.00 20.00     0.014 A 
HETATM   10  C2  UNL     1     -32.512  10.693   0.823  1.00 20.00     0.050 A 
HETATM   11  S11 UNL     1     -32.566   9.475  -0.380  1.00 20.00    -0.113 SA
HETATM   12  C3  UNL     1     -32.373   8.238   0.786  1.00 20.00     0.056 A 
ENDBRANCH   7   8
ENDBRANCH   4   7
TORSDOF 2
ENDMDL
