MODEL 1
REMARK VINA RESULT:      -5.7      0.000      0.000
REMARK  2 active torsions:
REMARK  status: ('A' for Active; 'I' for Inactive)
REMARK    1  A    between atoms: C5_5  and  C8_8 
REMARK    2  A    between atoms: C8_8  and  C9_9 
ROOT
HETATM    1  C1  UNL     1     -33.521   6.988   5.854  1.00 20.00     0.002 C 
HETATM    2  C2  UNL     1     -33.339   7.831   4.601  1.00 20.00     0.005 C 
HETATM    3  C3  UNL     1     -34.480   5.812   5.652  1.00 20.00     0.020 C 
HETATM    4  C4  UNL     1     -33.320   5.555   3.404  1.00 20.00     0.024 C 
HETATM    5  C5  UNL     1     -32.776   6.998   3.440  1.00 20.00    -0.013 C 
HETATM    6  C6  UNL     1     -34.606   5.332   4.202  1.00 20.00     0.082 C 
HETATM    7 CL10 UNL     1     -35.995   6.126   3.392  1.00 20.00    -0.125 Cl
ENDROOT
BRANCH   5   8
HETATM    8  C8  UNL     1     -32.980   7.723   2.109  1.00 20.00     0.004 C 
BRANCH   8   9
HETATM    9  C9  UNL     1     -31.981   8.863   1.944  1.00 20.00    -0.004 C 
HETATM   10  C7  UNL     1     -32.596  10.028   1.184  1.00 20.00     0.005 C 
ENDBRANCH   8   9
ENDBRANCH   5   8
TORSDOF 2
ENDMDL
MODEL 2
REMARK VINA RESULT:      -5.6      1.550      2.124
REMARK  2 active torsions:
REMARK  status: ('A' for Active; 'I' for Inactive)
REMARK    1  A    between atoms: C5_5  and  C8_8 
REMARK    2  A    between atoms: C8_8  and  C9_9 
ROOT
HETATM    1  C1  UNL     1     -33.731   4.640   3.322  1.00 20.00     0.002 C 
HETATM    2  C2  UNL     1     -32.622   5.625   2.984  1.00 20.00     0.005 C 
HETATM    3  C3  UNL     1     -34.597   5.093   4.500  1.00 20.00     0.020 C 
HETATM    4  C4  UNL     1     -34.433   7.395   3.434  1.00 20.00     0.024 C 
HETATM    5  C5  UNL     1     -33.189   7.003   2.610  1.00 20.00    -0.013 C 
HETATM    6  C6  UNL     1     -34.619   6.607   4.732  1.00 20.00     0.082 C 
HETATM    7 CL10 UNL     1     -33.380   7.080   5.939  1.00 20.00    -0.125 Cl
ENDROOT
BRANCH   5   8
HETATM    8  C8  UNL     1     -32.096   8.071   2.674  1.00 20.00     0.004 C 
BRANCH   8   9
HETATM    9  C9  UNL     1     -31.873   8.714   1.309  1.00 20.00    -0.004 C 
HETATM   10  C7  UNL     1     -32.639  10.021   1.184  1.00 20.00     0.005 C 
ENDBRANCH   8   9
ENDBRANCH   5   8
TORSDOF 2
ENDMDL
MODEL 3
REMARK VINA RESULT:      -4.5      1.602      4.034
REMARK  2 active torsions:
REMARK  status: ('A' for Active; 'I' for Inactive)
REMARK    1  A    between atoms: C5_5  and  C8_8 
REMARK    2  A    between atoms: C8_8  and  C9_9 
ROOT
HETATM    1  C1  UNL     1     -31.892   8.488   2.761  1.00 20.00     0.002 C 
HETATM    2  C2  UNL     1     -32.002   7.957   4.182  1.00 20.00     0.005 C 
HETATM    3  C3  UNL     1     -32.488   7.539   1.718  1.00 20.00     0.020 C 
HETATM    4  C4  UNL     1     -34.341   7.201   3.425  1.00 20.00     0.024 C 
HETATM    5  C5  UNL     1     -33.466   7.724   4.583  1.00 20.00    -0.013 C 
HETATM    6  C6  UNL     1     -33.564   6.591   2.257  1.00 20.00     0.082 C 
HETATM    7 CL10 UNL     1     -32.841   5.020   2.734  1.00 20.00    -0.125 Cl
ENDROOT
BRANCH   5   8
HETATM    8  C8  UNL     1     -33.551   6.828   5.819  1.00 20.00     0.004 C 
BRANCH   8   9
HETATM    9  C9  UNL     1     -34.792   5.943   5.775  1.00 20.00    -0.004 C 
HETATM   10  C7  UNL     1     -34.417   4.478   5.612  1.00 20.00     0.005 C 
ENDBRANCH   8   9
ENDBRANCH   5   8
TORSDOF 2
ENDMDL
MODEL 4
REMARK VINA RESULT:      -4.2     11.479     12.355
REMARK  2 active torsions:
REMARK  status: ('A' for Active; 'I' for Inactive)
REMARK    1  A    between atoms: C5_5  and  C8_8 
REMARK    2  A    between atoms: C8_8  and  C9_9 
ROOT
HETATM    1  C1  UNL     1     -35.163  13.641  -6.179  1.00 20.00     0.002 C 
HETATM    2  C2  UNL     1     -35.634  14.412  -4.954  1.00 20.00     0.005 C 
HETATM    3  C3  UNL     1     -34.173  14.430  -7.040  1.00 20.00     0.020 C 
HETATM    4  C4  UNL     1     -33.175  15.154  -4.817  1.00 20.00     0.024 C 
HETATM    5  C5  UNL     1     -34.458  14.789  -4.041  1.00 20.00    -0.013 C 
HETATM    6  C6  UNL     1     -33.393  15.513  -6.288  1.00 20.00     0.082 C 
HETATM    7 CL10 UNL     1     -34.215  17.100  -6.433  1.00 20.00    -0.125 Cl
ENDROOT
BRANCH   5   8
HETATM    8  C8  UNL     1     -34.868  15.886  -3.058  1.00 20.00     0.004 C 
BRANCH   8   9
HETATM    9  C9  UNL     1     -33.670  16.733  -2.645  1.00 20.00    -0.004 C 
HETATM   10  C7  UNL     1     -33.899  17.388  -1.292  1.00 20.00     0.005 C 
ENDBRANCH   8   9
ENDBRANCH   5   8
TORSDOF 2
ENDMDL
MODEL 5
REMARK VINA RESULT:      -4.1     11.448     12.329
REMARK  2 active torsions:
REMARK  status: ('A' for Active; 'I' for Inactive)
REMARK    1  A    between atoms: C5_5  and  C8_8 
REMARK    2  A    between atoms: C8_8  and  C9_9 
ROOT
HETATM    1  C1  UNL     1     -35.170  13.848  -5.224  1.00 20.00     0.002 C 
HETATM    2  C2  UNL     1     -35.055  14.736  -3.994  1.00 20.00     0.005 C 
HETATM    3  C3  UNL     1     -34.929  14.603  -6.534  1.00 20.00     0.020 C 
HETATM    4  C4  UNL     1     -33.057  15.753  -5.254  1.00 20.00     0.024 C 
HETATM    5  C5  UNL     1     -33.660  15.369  -3.887  1.00 20.00    -0.013 C 
HETATM    6  C6  UNL     1     -34.069  15.864  -6.395  1.00 20.00     0.082 C 
HETATM    7 CL10 UNL     1     -35.103  17.314  -6.180  1.00 20.00    -0.125 Cl
ENDROOT
BRANCH   5   8
HETATM    8  C8  UNL     1     -33.677  16.549  -2.914  1.00 20.00     0.004 C 
BRANCH   8   9
HETATM    9  C9  UNL     1     -34.990  16.607  -2.140  1.00 20.00    -0.004 C 
HETATM   10  C7  UNL     1     -34.826  17.369  -0.835  1.00 20.00     0.005 C 
ENDBRANCH   8   9
ENDBRANCH   5   8
TORSDOF 2
ENDMDL
MODEL 6
REMARK VINA RESULT:      -4.0     11.287     12.288
REMARK  2 active torsions:
REMARK  status: ('A' for Active; 'I' for Inactive)
REMARK    1  A    between atoms: C5_5  and  C8_8 
REMARK    2  A    between atoms: C8_8  and  C9_9 
ROOT
HETATM    1  C1  UNL     1     -33.898  16.918  -6.029  1.00 20.00     0.002 C 
HETATM    2  C2  UNL     1     -33.867  17.238  -4.542  1.00 20.00     0.005 C 
HETATM    3  C3  UNL     1     -33.671  15.433  -6.328  1.00 20.00     0.020 C 
HETATM    4  C4  UNL     1     -35.182  15.039  -4.321  1.00 20.00     0.024 C 
HETATM    5  C5  UNL     1     -34.951  16.464  -3.778  1.00 20.00    -0.013 C 
HETATM    6  C6  UNL     1     -34.044  14.487  -5.182  1.00 20.00     0.082 C 
HETATM    7 CL10 UNL     1     -32.609  14.123  -4.171  1.00 20.00    -0.125 Cl
ENDROOT
BRANCH   5   8
HETATM    8  C8  UNL     1     -34.660  16.468  -2.277  1.00 20.00     0.004 C 
BRANCH   8   9
HETATM    9  C9  UNL     1     -33.440  17.324  -1.954  1.00 20.00    -0.004 C 
HETATM   10  C7  UNL     1     -33.621  18.067  -0.640  1.00 20.00     0.005 C 
ENDBRANCH   8   9
ENDBRANCH   5   8
TORSDOF 2
ENDMDL
MODEL 7
REMARK VINA RESULT:      -3.9     11.157     11.998
REMARK  2 active torsions:
REMARK  status: ('A' for Active; 'I' for Inactive)
REMARK    1  A    between atoms: C5_5  and  C8_8 
REMARK    2  A    between atoms: C8_8  and  C9_9 
ROOT
HETATM    1  C1  UNL     1     -33.398  18.262  -0.383  1.00 20.00     0.002 C 
HETATM    2  C2  UNL     1     -33.079  17.865  -1.816  1.00 20.00     0.005 C 
HETATM    3  C3  UNL     1     -34.853  18.697  -0.190  1.00 20.00     0.020 C 
HETATM    4  C4  UNL     1     -35.395  16.750  -1.733  1.00 20.00     0.024 C 
HETATM    5  C5  UNL     1     -33.955  16.693  -2.283  1.00 20.00    -0.013 C 
HETATM    6  C6  UNL     1     -35.833  18.122  -1.218  1.00 20.00     0.082 C 
HETATM    7 CL10 UNL     1     -36.060  19.263  -2.583  1.00 20.00    -0.125 Cl
ENDROOT
BRANCH   5   8
HETATM    8  C8  UNL     1     -33.926  16.573  -3.808  1.00 20.00     0.004 C 
BRANCH   8   9
HETATM    9  C9  UNL     1     -33.386  15.215  -4.243  1.00 20.00    -0.004 C 
HETATM   10  C7  UNL     1     -34.471  14.150  -4.196  1.00 20.00     0.005 C 
ENDBRANCH   8   9
ENDBRANCH   5   8
TORSDOF 2
ENDMDL
MODEL 8
REMARK VINA RESULT:      -3.9     11.493     12.123
REMARK  2 active torsions:
REMARK  status: ('A' for Active; 'I' for Inactive)
REMARK    1  A    between atoms: C5_5  and  C8_8 
REMARK    2  A    between atoms: C8_8  and  C9_9 
ROOT
HETATM    1  C1  UNL     1     -34.302  16.930  -1.722  1.00 20.00     0.002 C 
HETATM    2  C2  UNL     1     -33.422  16.922  -2.964  1.00 20.00     0.005 C 
HETATM    3  C3  UNL     1     -35.797  16.869  -2.046  1.00 20.00     0.020 C 
HETATM    4  C4  UNL     1     -35.108  15.174  -3.811  1.00 20.00     0.024 C 
HETATM    5  C5  UNL     1     -33.641  15.652  -3.800  1.00 20.00    -0.013 C 
HETATM    6  C6  UNL     1     -36.132  16.233  -3.398  1.00 20.00     0.082 C 
HETATM    7 CL10 UNL     1     -36.285  17.490  -4.668  1.00 20.00    -0.125 Cl
ENDROOT
BRANCH   5   8
HETATM    8  C8  UNL     1     -33.084  15.834  -5.212  1.00 20.00     0.004 C 
BRANCH   8   9
HETATM    9  C9  UNL     1     -33.920  15.076  -6.237  1.00 20.00    -0.004 C 
HETATM   10  C7  UNL     1     -34.026  15.850  -7.541  1.00 20.00     0.005 C 
ENDBRANCH   8   9
ENDBRANCH   5   8
TORSDOF 2
ENDMDL
MODEL 9
REMARK VINA RESULT:      -3.9     11.218     11.987
REMARK  2 active torsions:
REMARK  status: ('A' for Active; 'I' for Inactive)
REMARK    1  A    between atoms: C5_5  and  C8_8 
REMARK    2  A    between atoms: C8_8  and  C9_9 
ROOT
HETATM    1  C1  UNL     1     -36.980  15.141  -4.423  1.00 20.00     0.002 C 
HETATM    2  C2  UNL     1     -36.047  16.165  -3.794  1.00 20.00     0.005 C 
HETATM    3  C3  UNL     1     -36.361  14.424  -5.625  1.00 20.00     0.020 C 
HETATM    4  C4  UNL     1     -34.248  14.376  -4.212  1.00 20.00     0.024 C 
HETATM    5  C5  UNL     1     -34.749  15.512  -3.297  1.00 20.00    -0.013 C 
HETATM    6  C6  UNL     1     -34.829  14.386  -5.627  1.00 20.00     0.082 C 
HETATM    7 CL10 UNL     1     -34.164  15.758  -6.571  1.00 20.00    -0.125 Cl
ENDROOT
BRANCH   5   8
HETATM    8  C8  UNL     1     -33.673  16.570  -3.051  1.00 20.00     0.004 C 
BRANCH   8   9
HETATM    9  C9  UNL     1     -34.001  17.417  -1.826  1.00 20.00    -0.004 C 
HETATM   10  C7  UNL     1     -32.757  18.098  -1.279  1.00 20.00     0.005 C 
ENDBRANCH   8   9
ENDBRANCH   5   8
TORSDOF 2
ENDMDL
