MODEL 1
REMARK VINA RESULT:      -5.9      0.000      0.000
REMARK  2 active torsions:
REMARK  status: ('A' for Active; 'I' for Inactive)
REMARK    1  A    between atoms: C2_2  and  C10_10 
REMARK    2  A    between atoms: C7_7  and  C10_10 
ROOT
HETATM    1  C1  UNL     1     -32.522   9.130   0.941  1.00 20.00    -0.111 C 
HETATM    2  C2  UNL     1     -32.349   8.314   1.806  1.00 20.00    -0.107 C 
HETATM    3  C9  UNL     1     -32.731  10.123  -0.112  1.00 20.00     0.112 C 
ENDROOT
BRANCH   2   4
HETATM    4  C10 UNL     1     -32.150   7.322   2.864  1.00 20.00     0.098 C 
BRANCH   4   5
HETATM    5  C7  UNL     1     -33.256   6.264   2.838  1.00 20.00    -0.002 C 
HETATM    6  C4  UNL     1     -32.746   4.935   3.411  1.00 20.00     0.005 C 
HETATM    7  C3  UNL     1     -33.895   4.006   3.772  1.00 20.00     0.002 C 
HETATM    8  C5  UNL     1     -34.841   4.602   4.819  1.00 20.00     0.020 C 
HETATM    9  C8  UNL     1     -34.852   6.133   4.873  1.00 20.00     0.082 C 
HETATM   10  C6  UNL     1     -34.551   6.763   3.512  1.00 20.00     0.025 C 
HETATM   11 CL11 UNL     1     -33.700   6.730   6.111  1.00 20.00    -0.125 Cl
ENDBRANCH   4   5
ENDBRANCH   2   4
TORSDOF 2
ENDMDL
MODEL 2
REMARK VINA RESULT:      -5.2      1.589      2.109
REMARK  2 active torsions:
REMARK  status: ('A' for Active; 'I' for Inactive)
REMARK    1  A    between atoms: C2_2  and  C10_10 
REMARK    2  A    between atoms: C7_7  and  C10_10 
ROOT
HETATM    1  C1  UNL     1     -32.565   9.519   1.602  1.00 20.00    -0.111 C 
HETATM    2  C2  UNL     1     -32.711   8.335   1.743  1.00 20.00    -0.107 C 
HETATM    3  C9  UNL     1     -32.387  10.960   1.432  1.00 20.00     0.112 C 
ENDROOT
BRANCH   2   4
HETATM    4  C10 UNL     1     -32.899   6.892   1.909  1.00 20.00     0.098 C 
BRANCH   4   5
HETATM    5  C7  UNL     1     -32.754   6.486   3.377  1.00 20.00    -0.002 C 
HETATM    6  C4  UNL     1     -33.196   7.630   4.300  1.00 20.00     0.005 C 
HETATM    7  C3  UNL     1     -33.449   7.137   5.717  1.00 20.00     0.002 C 
HETATM    8  C5  UNL     1     -34.540   6.065   5.792  1.00 20.00     0.020 C 
HETATM    9  C8  UNL     1     -34.748   5.272   4.498  1.00 20.00     0.082 C 
HETATM   10  C6  UNL     1     -33.461   5.148   3.681  1.00 20.00     0.025 C 
HETATM   11 CL11 UNL     1     -36.053   6.005   3.510  1.00 20.00    -0.125 Cl
ENDBRANCH   4   5
ENDBRANCH   2   4
TORSDOF 2
ENDMDL
MODEL 3
REMARK VINA RESULT:      -4.6     11.460     12.125
REMARK  2 active torsions:
REMARK  status: ('A' for Active; 'I' for Inactive)
REMARK    1  A    between atoms: C2_2  and  C10_10 
REMARK    2  A    between atoms: C7_7  and  C10_10 
ROOT
HETATM    1  C1  UNL     1     -34.669  17.371  -0.828  1.00 20.00    -0.111 C 
HETATM    2  C2  UNL     1     -34.243  16.990  -1.885  1.00 20.00    -0.107 C 
HETATM    3  C9  UNL     1     -35.188  17.835   0.457  1.00 20.00     0.112 C 
ENDROOT
BRANCH   2   4
HETATM    4  C10 UNL     1     -33.730  16.515  -3.173  1.00 20.00     0.098 C 
BRANCH   4   5
HETATM    5  C7  UNL     1     -34.425  15.218  -3.594  1.00 20.00    -0.002 C 
HETATM    6  C4  UNL     1     -35.826  15.512  -4.148  1.00 20.00     0.005 C 
HETATM    7  C3  UNL     1     -36.373  14.330  -4.934  1.00 20.00     0.002 C 
HETATM    8  C5  UNL     1     -35.498  13.951  -6.132  1.00 20.00     0.020 C 
HETATM    9  C8  UNL     1     -34.027  14.362  -6.005  1.00 20.00     0.082 C 
HETATM   10  C6  UNL     1     -33.553  14.379  -4.551  1.00 20.00     0.025 C 
HETATM   11 CL11 UNL     1     -33.749  15.958  -6.776  1.00 20.00    -0.125 Cl
ENDBRANCH   4   5
ENDBRANCH   2   4
TORSDOF 2
ENDMDL
MODEL 4
REMARK VINA RESULT:      -4.5     11.775     12.628
REMARK  2 active torsions:
REMARK  status: ('A' for Active; 'I' for Inactive)
REMARK    1  A    between atoms: C2_2  and  C10_10 
REMARK    2  A    between atoms: C7_7  and  C10_10 
ROOT
HETATM    1  C1  UNL     1     -33.372  17.446  -1.706  1.00 20.00    -0.111 C 
HETATM    2  C2  UNL     1     -34.124  16.742  -2.324  1.00 20.00    -0.107 C 
HETATM    3  C9  UNL     1     -32.458  18.303  -0.952  1.00 20.00     0.112 C 
ENDROOT
BRANCH   2   4
HETATM    4  C10 UNL     1     -35.043  15.892  -3.085  1.00 20.00     0.098 C 
BRANCH   4   5
HETATM    5  C7  UNL     1     -34.287  15.060  -4.123  1.00 20.00    -0.002 C 
HETATM    6  C4  UNL     1     -35.269  14.351  -5.066  1.00 20.00     0.005 C 
HETATM    7  C3  UNL     1     -34.573  13.858  -6.327  1.00 20.00     0.002 C 
HETATM    8  C5  UNL     1     -33.925  14.987  -7.133  1.00 20.00     0.020 C 
HETATM    9  C8  UNL     1     -33.561  16.230  -6.315  1.00 20.00     0.082 C 
HETATM   10  C6  UNL     1     -33.218  15.889  -4.864  1.00 20.00     0.025 C 
HETATM   11 CL11 UNL     1     -34.883  17.440  -6.382  1.00 20.00    -0.125 Cl
ENDBRANCH   4   5
ENDBRANCH   2   4
TORSDOF 2
ENDMDL
MODEL 5
REMARK VINA RESULT:      -4.4     11.599     12.495
REMARK  2 active torsions:
REMARK  status: ('A' for Active; 'I' for Inactive)
REMARK    1  A    between atoms: C2_2  and  C10_10 
REMARK    2  A    between atoms: C7_7  and  C10_10 
ROOT
HETATM    1  C1  UNL     1     -33.216  17.677  -1.354  1.00 20.00    -0.111 C 
HETATM    2  C2  UNL     1     -33.957  17.014  -2.029  1.00 20.00    -0.107 C 
HETATM    3  C9  UNL     1     -32.316  18.485  -0.534  1.00 20.00     0.112 C 
ENDROOT
BRANCH   2   4
HETATM    4  C10 UNL     1     -34.852  16.195  -2.850  1.00 20.00     0.098 C 
BRANCH   4   5
HETATM    5  C7  UNL     1     -34.623  16.458  -4.339  1.00 20.00    -0.002 C 
HETATM    6  C4  UNL     1     -33.344  15.758  -4.821  1.00 20.00     0.005 C 
HETATM    7  C3  UNL     1     -33.302  15.656  -6.338  1.00 20.00     0.002 C 
HETATM    8  C5  UNL     1     -34.479  14.869  -6.919  1.00 20.00     0.020 C 
HETATM    9  C8  UNL     1     -35.731  14.847  -6.036  1.00 20.00     0.082 C 
HETATM   10  C6  UNL     1     -35.864  16.112  -5.187  1.00 20.00     0.025 C 
HETATM   11 CL11 UNL     1     -35.745  13.386  -4.996  1.00 20.00    -0.125 Cl
ENDBRANCH   4   5
ENDBRANCH   2   4
TORSDOF 2
ENDMDL
MODEL 6
REMARK VINA RESULT:      -4.4     11.171     12.278
REMARK  2 active torsions:
REMARK  status: ('A' for Active; 'I' for Inactive)
REMARK    1  A    between atoms: C2_2  and  C10_10 
REMARK    2  A    between atoms: C7_7  and  C10_10 
ROOT
HETATM    1  C1  UNL     1     -35.065  17.412  -0.348  1.00 20.00    -0.111 C 
HETATM    2  C2  UNL     1     -34.335  17.248  -1.288  1.00 20.00    -0.107 C 
HETATM    3  C9  UNL     1     -35.952  17.612   0.796  1.00 20.00     0.112 C 
ENDROOT
BRANCH   2   4
HETATM    4  C10 UNL     1     -33.453  17.041  -2.440  1.00 20.00     0.098 C 
BRANCH   4   5
HETATM    5  C7  UNL     1     -34.264  16.740  -3.702  1.00 20.00    -0.002 C 
HETATM    6  C4  UNL     1     -33.456  17.093  -4.959  1.00 20.00     0.005 C 
HETATM    7  C3  UNL     1     -34.048  16.446  -6.202  1.00 20.00     0.002 C 
HETATM    8  C5  UNL     1     -34.088  14.918  -6.120  1.00 20.00     0.020 C 
HETATM    9  C8  UNL     1     -34.114  14.354  -4.696  1.00 20.00     0.082 C 
HETATM   10  C6  UNL     1     -34.809  15.297  -3.712  1.00 20.00     0.025 C 
HETATM   11 CL11 UNL     1     -32.454  13.972  -4.137  1.00 20.00    -0.125 Cl
ENDBRANCH   4   5
ENDBRANCH   2   4
TORSDOF 2
ENDMDL
MODEL 7
REMARK VINA RESULT:      -4.2     11.564     12.284
REMARK  2 active torsions:
REMARK  status: ('A' for Active; 'I' for Inactive)
REMARK    1  A    between atoms: C2_2  and  C10_10 
REMARK    2  A    between atoms: C7_7  and  C10_10 
ROOT
HETATM    1  C1  UNL     1     -35.155  14.552  -4.682  1.00 20.00    -0.111 C 
HETATM    2  C2  UNL     1     -34.531  15.477  -4.238  1.00 20.00    -0.107 C 
HETATM    3  C9  UNL     1     -35.914  13.425  -5.224  1.00 20.00     0.112 C 
ENDROOT
BRANCH   2   4
HETATM    4  C10 UNL     1     -33.777  16.613  -3.701  1.00 20.00     0.098 C 
BRANCH   4   5
HETATM    5  C7  UNL     1     -33.944  16.713  -2.184  1.00 20.00    -0.002 C 
HETATM    6  C4  UNL     1     -33.129  17.889  -1.627  1.00 20.00     0.005 C 
HETATM    7  C3  UNL     1     -33.579  18.263  -0.223  1.00 20.00     0.002 C 
HETATM    8  C5  UNL     1     -35.051  18.679  -0.156  1.00 20.00     0.020 C 
HETATM    9  C8  UNL     1     -35.928  18.106  -1.274  1.00 20.00     0.082 C 
HETATM   10  C6  UNL     1     -35.428  16.746  -1.765  1.00 20.00     0.025 C 
HETATM   11 CL11 UNL     1     -36.046  19.263  -2.640  1.00 20.00    -0.125 Cl
ENDBRANCH   4   5
ENDBRANCH   2   4
TORSDOF 2
ENDMDL
MODEL 8
REMARK VINA RESULT:      -4.2     11.394     12.557
REMARK  2 active torsions:
REMARK  status: ('A' for Active; 'I' for Inactive)
REMARK    1  A    between atoms: C2_2  and  C10_10 
REMARK    2  A    between atoms: C7_7  and  C10_10 
ROOT
HETATM    1  C1  UNL     1     -33.665  16.872  -2.406  1.00 20.00    -0.111 C 
HETATM    2  C2  UNL     1     -33.856  15.939  -3.138  1.00 20.00    -0.107 C 
HETATM    3  C9  UNL     1     -33.432  18.009  -1.516  1.00 20.00     0.112 C 
ENDROOT
BRANCH   2   4
HETATM    4  C10 UNL     1     -34.089  14.794  -4.021  1.00 20.00     0.098 C 
BRANCH   4   5
HETATM    5  C7  UNL     1     -35.504  14.829  -4.601  1.00 20.00    -0.002 C 
HETATM    6  C4  UNL     1     -35.686  16.057  -5.505  1.00 20.00     0.005 C 
HETATM    7  C3  UNL     1     -36.908  15.913  -6.400  1.00 20.00     0.002 C 
HETATM    8  C5  UNL     1     -36.833  14.695  -7.325  1.00 20.00     0.020 C 
HETATM    9  C8  UNL     1     -35.933  13.563  -6.819  1.00 20.00     0.082 C 
HETATM   10  C6  UNL     1     -35.880  13.502  -5.291  1.00 20.00     0.025 C 
HETATM   11 CL11 UNL     1     -34.281  13.718  -7.500  1.00 20.00    -0.125 Cl
ENDBRANCH   4   5
ENDBRANCH   2   4
TORSDOF 2
ENDMDL
MODEL 9
REMARK VINA RESULT:      -4.1     11.553     12.720
REMARK  2 active torsions:
REMARK  status: ('A' for Active; 'I' for Inactive)
REMARK    1  A    between atoms: C2_2  and  C10_10 
REMARK    2  A    between atoms: C7_7  and  C10_10 
ROOT
HETATM    1  C1  UNL     1     -34.871  16.798  -1.712  1.00 20.00    -0.111 C 
HETATM    2  C2  UNL     1     -34.313  16.319  -2.662  1.00 20.00    -0.107 C 
HETATM    3  C9  UNL     1     -35.551  17.381  -0.556  1.00 20.00     0.112 C 
ENDROOT
BRANCH   2   4
HETATM    4  C10 UNL     1     -33.623  15.732  -3.813  1.00 20.00     0.098 C 
BRANCH   4   5
HETATM    5  C7  UNL     1     -34.235  16.222  -5.126  1.00 20.00    -0.002 C 
HETATM    6  C4  UNL     1     -33.538  15.564  -6.326  1.00 20.00     0.005 C 
HETATM    7  C3  UNL     1     -34.363  15.706  -7.596  1.00 20.00     0.002 C 
HETATM    8  C5  UNL     1     -35.748  15.063  -7.486  1.00 20.00     0.020 C 
HETATM    9  C8  UNL     1     -36.286  14.944  -6.056  1.00 20.00     0.082 C 
HETATM   10  C6  UNL     1     -35.769  16.060  -5.147  1.00 20.00     0.025 C 
HETATM   11 CL11 UNL     1     -35.891  13.336  -5.365  1.00 20.00    -0.125 Cl
ENDBRANCH   4   5
ENDBRANCH   2   4
TORSDOF 2
ENDMDL
