MODEL 1
REMARK VINA RESULT:      -5.9      0.000      0.000
REMARK  2 active torsions:
REMARK  status: ('A' for Active; 'I' for Inactive)
REMARK    1  A    between atoms: C6_6  and  C9_9 
REMARK    2  A    between atoms: C8_8  and  C9_9 
ROOT
HETATM    1  C1  UNL     1     -32.927  10.185   0.455  1.00 20.00     0.012 C 
HETATM    2  C2  UNL     1     -32.292   9.324   0.999  1.00 20.00    -0.117 C 
HETATM    3  C8  UNL     1     -31.513   8.270   1.661  1.00 20.00     0.093 C 
ENDROOT
BRANCH   3   4
HETATM    4  C9  UNL     1     -31.866   8.196   3.137  1.00 20.00     0.017 C 
BRANCH   4   5
HETATM    5  C6  UNL     1     -33.218   7.529   3.342  1.00 20.00    -0.012 C 
HETATM    6  C3  UNL     1     -33.312   6.168   2.640  1.00 20.00     0.006 C 
HETATM    7  C4  UNL     1     -34.234   5.353   3.534  1.00 20.00     0.020 C 
HETATM    8  C7  UNL     1     -33.762   5.751   4.922  1.00 20.00     0.082 C 
HETATM    9  C5  UNL     1     -33.538   7.259   4.823  1.00 20.00     0.024 C 
HETATM   10 CL10 UNL     1     -34.929   5.317   6.180  1.00 20.00    -0.125 Cl
ENDBRANCH   4   5
ENDBRANCH   3   4
TORSDOF 2
ENDMDL
MODEL 2
REMARK VINA RESULT:      -5.3      2.673      4.849
REMARK  2 active torsions:
REMARK  status: ('A' for Active; 'I' for Inactive)
REMARK    1  A    between atoms: C6_6  and  C9_9 
REMARK    2  A    between atoms: C8_8  and  C9_9 
ROOT
HETATM    1  C1  UNL     1     -34.381   6.502   6.116  1.00 20.00     0.012 C 
HETATM    2  C2  UNL     1     -34.379   5.934   5.059  1.00 20.00    -0.117 C 
HETATM    3  C8  UNL     1     -34.381   5.238   3.766  1.00 20.00     0.093 C 
ENDROOT
BRANCH   3   4
HETATM    4  C9  UNL     1     -33.274   5.773   2.874  1.00 20.00     0.017 C 
BRANCH   4   5
HETATM    5  C6  UNL     1     -33.151   7.284   3.004  1.00 20.00    -0.012 C 
HETATM    6  C3  UNL     1     -31.750   7.720   3.452  1.00 20.00     0.006 C 
HETATM    7  C4  UNL     1     -31.548   9.069   2.778  1.00 20.00     0.020 C 
HETATM    8  C7  UNL     1     -32.147   8.827   1.403  1.00 20.00     0.082 C 
HETATM    9  C5  UNL     1     -33.418   8.026   1.682  1.00 20.00     0.024 C 
HETATM   10 CL10 UNL     1     -32.469  10.335   0.534  1.00 20.00    -0.125 Cl
ENDBRANCH   4   5
ENDBRANCH   3   4
TORSDOF 2
ENDMDL
MODEL 3
REMARK VINA RESULT:      -4.5      2.659      4.728
REMARK  2 active torsions:
REMARK  status: ('A' for Active; 'I' for Inactive)
REMARK    1  A    between atoms: C6_6  and  C9_9 
REMARK    2  A    between atoms: C8_8  and  C9_9 
ROOT
HETATM    1  C1  UNL     1     -34.403   4.264   4.864  1.00 20.00     0.012 C 
HETATM    2  C2  UNL     1     -34.380   5.351   5.371  1.00 20.00    -0.117 C 
HETATM    3  C8  UNL     1     -34.353   6.680   5.995  1.00 20.00     0.093 C 
ENDROOT
BRANCH   3   4
HETATM    4  C9  UNL     1     -33.224   7.516   5.416  1.00 20.00     0.017 C 
BRANCH   4   5
HETATM    5  C6  UNL     1     -32.931   7.115   3.977  1.00 20.00    -0.012 C 
HETATM    6  C3  UNL     1     -34.130   7.347   3.049  1.00 20.00     0.006 C 
HETATM    7  C4  UNL     1     -33.500   7.692   1.708  1.00 20.00     0.020 C 
HETATM    8  C7  UNL     1     -32.347   8.590   2.123  1.00 20.00     0.082 C 
HETATM    9  C5  UNL     1     -31.763   7.905   3.358  1.00 20.00     0.024 C 
HETATM   10 CL10 UNL     1     -31.154   8.795   0.832  1.00 20.00    -0.125 Cl
ENDBRANCH   4   5
ENDBRANCH   3   4
TORSDOF 2
ENDMDL
MODEL 4
REMARK VINA RESULT:      -4.2     10.751     11.405
REMARK  2 active torsions:
REMARK  status: ('A' for Active; 'I' for Inactive)
REMARK    1  A    between atoms: C6_6  and  C9_9 
REMARK    2  A    between atoms: C8_8  and  C9_9 
ROOT
HETATM    1  C1  UNL     1     -34.056  18.477   0.488  1.00 20.00     0.012 C 
HETATM    2  C2  UNL     1     -34.357  17.767  -0.433  1.00 20.00    -0.117 C 
HETATM    3  C8  UNL     1     -34.728  16.900  -1.557  1.00 20.00     0.093 C 
ENDROOT
BRANCH   3   4
HETATM    4  C9  UNL     1     -33.609  16.851  -2.583  1.00 20.00     0.017 C 
BRANCH   4   5
HETATM    5  C6  UNL     1     -34.127  16.386  -3.936  1.00 20.00    -0.012 C 
HETATM    6  C3  UNL     1     -33.068  15.617  -4.735  1.00 20.00     0.006 C 
HETATM    7  C4  UNL     1     -33.871  14.607  -5.540  1.00 20.00     0.020 C 
HETATM    8  C7  UNL     1     -34.910  14.152  -4.528  1.00 20.00     0.082 C 
HETATM    9  C5  UNL     1     -35.336  15.440  -3.824  1.00 20.00     0.024 C 
HETATM   10 CL10 UNL     1     -36.268  13.311  -5.289  1.00 20.00    -0.125 Cl
ENDBRANCH   4   5
ENDBRANCH   3   4
TORSDOF 2
ENDMDL
MODEL 5
REMARK VINA RESULT:      -4.2      2.727      4.395
REMARK  2 active torsions:
REMARK  status: ('A' for Active; 'I' for Inactive)
REMARK    1  A    between atoms: C6_6  and  C9_9 
REMARK    2  A    between atoms: C8_8  and  C9_9 
ROOT
HETATM    1  C1  UNL     1     -32.849   4.041   2.237  1.00 20.00     0.012 C 
HETATM    2  C2  UNL     1     -33.503   4.246   3.223  1.00 20.00    -0.117 C 
HETATM    3  C8  UNL     1     -34.300   4.495   4.430  1.00 20.00     0.093 C 
ENDROOT
BRANCH   3   4
HETATM    4  C9  UNL     1     -35.311   5.601   4.180  1.00 20.00     0.017 C 
BRANCH   4   5
HETATM    5  C6  UNL     1     -34.668   6.972   4.328  1.00 20.00    -0.012 C 
HETATM    6  C3  UNL     1     -33.735   7.053   5.543  1.00 20.00     0.006 C 
HETATM    7  C4  UNL     1     -32.652   8.032   5.115  1.00 20.00     0.020 C 
HETATM    8  C7  UNL     1     -32.410   7.622   3.671  1.00 20.00     0.082 C 
HETATM    9  C5  UNL     1     -33.810   7.369   3.113  1.00 20.00     0.024 C 
HETATM   10 CL10 UNL     1     -31.528   8.857   2.760  1.00 20.00    -0.125 Cl
ENDBRANCH   4   5
ENDBRANCH   3   4
TORSDOF 2
ENDMDL
MODEL 6
REMARK VINA RESULT:      -4.2      2.641      4.504
REMARK  2 active torsions:
REMARK  status: ('A' for Active; 'I' for Inactive)
REMARK    1  A    between atoms: C6_6  and  C9_9 
REMARK    2  A    between atoms: C8_8  and  C9_9 
ROOT
HETATM    1  C1  UNL     1     -33.729   7.269   6.230  1.00 20.00     0.012 C 
HETATM    2  C2  UNL     1     -34.229   6.250   5.838  1.00 20.00    -0.117 C 
HETATM    3  C8  UNL     1     -34.845   5.005   5.361  1.00 20.00     0.093 C 
ENDROOT
BRANCH   3   4
HETATM    4  C9  UNL     1     -33.927   4.304   4.374  1.00 20.00     0.017 C 
BRANCH   4   5
HETATM    5  C6  UNL     1     -33.815   5.093   3.078  1.00 20.00    -0.012 C 
HETATM    6  C3  UNL     1     -34.902   6.168   2.951  1.00 20.00     0.006 C 
HETATM    7  C4  UNL     1     -34.231   7.284   2.165  1.00 20.00     0.020 C 
HETATM    8  C7  UNL     1     -32.841   7.310   2.778  1.00 20.00     0.082 C 
HETATM    9  C5  UNL     1     -32.474   5.836   2.939  1.00 20.00     0.024 C 
HETATM   10 CL10 UNL     1     -31.680   8.195   1.778  1.00 20.00    -0.125 Cl
ENDBRANCH   4   5
ENDBRANCH   3   4
TORSDOF 2
ENDMDL
MODEL 7
REMARK VINA RESULT:      -4.1      2.703      4.929
REMARK  2 active torsions:
REMARK  status: ('A' for Active; 'I' for Inactive)
REMARK    1  A    between atoms: C6_6  and  C9_9 
REMARK    2  A    between atoms: C8_8  and  C9_9 
ROOT
HETATM    1  C1  UNL     1     -34.630   5.063   5.712  1.00 20.00     0.012 C 
HETATM    2  C2  UNL     1     -34.398   5.910   4.894  1.00 20.00    -0.117 C 
HETATM    3  C8  UNL     1     -34.115   6.949   3.896  1.00 20.00     0.093 C 
ENDROOT
BRANCH   3   4
HETATM    4  C9  UNL     1     -33.107   6.446   2.877  1.00 20.00     0.017 C 
BRANCH   4   5
HETATM    5  C6  UNL     1     -32.140   7.549   2.474  1.00 20.00    -0.012 C 
HETATM    6  C3  UNL     1     -31.914   7.605   0.958  1.00 20.00     0.006 C 
HETATM    7  C4  UNL     1     -31.673   9.080   0.674  1.00 20.00     0.020 C 
HETATM    8  C7  UNL     1     -32.699   9.747   1.574  1.00 20.00     0.082 C 
HETATM    9  C5  UNL     1     -32.627   8.953   2.878  1.00 20.00     0.024 C 
HETATM   10 CL10 UNL     1     -32.371  11.470   1.808  1.00 20.00    -0.125 Cl
ENDBRANCH   4   5
ENDBRANCH   3   4
TORSDOF 2
ENDMDL
MODEL 8
REMARK VINA RESULT:      -4.1     10.838     11.583
REMARK  2 active torsions:
REMARK  status: ('A' for Active; 'I' for Inactive)
REMARK    1  A    between atoms: C6_6  and  C9_9 
REMARK    2  A    between atoms: C8_8  and  C9_9 
ROOT
HETATM    1  C1  UNL     1     -33.493  14.905  -4.163  1.00 20.00     0.012 C 
HETATM    2  C2  UNL     1     -34.423  15.464  -3.649  1.00 20.00    -0.117 C 
HETATM    3  C8  UNL     1     -35.563  16.143  -3.021  1.00 20.00     0.093 C 
ENDROOT
BRANCH   3   4
HETATM    4  C9  UNL     1     -35.138  17.494  -2.470  1.00 20.00     0.017 C 
BRANCH   4   5
HETATM    5  C6  UNL     1     -34.071  17.334  -1.397  1.00 20.00    -0.012 C 
HETATM    6  C3  UNL     1     -32.819  18.171  -1.688  1.00 20.00     0.006 C 
HETATM    7  C4  UNL     1     -32.297  18.549  -0.310  1.00 20.00     0.020 C 
HETATM    8  C7  UNL     1     -33.582  18.866   0.438  1.00 20.00     0.082 C 
HETATM    9  C5  UNL     1     -34.551  17.770  -0.001  1.00 20.00     0.024 C 
HETATM   10 CL10 UNL     1     -33.348  18.906   2.192  1.00 20.00    -0.125 Cl
ENDBRANCH   4   5
ENDBRANCH   3   4
TORSDOF 2
ENDMDL
MODEL 9
REMARK VINA RESULT:      -4.1     10.928     11.383
REMARK  2 active torsions:
REMARK  status: ('A' for Active; 'I' for Inactive)
REMARK    1  A    between atoms: C6_6  and  C9_9 
REMARK    2  A    between atoms: C8_8  and  C9_9 
ROOT
HETATM    1  C1  UNL     1     -35.967  14.516  -4.636  1.00 20.00     0.012 C 
HETATM    2  C2  UNL     1     -34.910  15.008  -4.352  1.00 20.00    -0.117 C 
HETATM    3  C8  UNL     1     -33.615  15.608  -4.006  1.00 20.00     0.093 C 
ENDROOT
BRANCH   3   4
HETATM    4  C9  UNL     1     -33.813  16.988  -3.402  1.00 20.00     0.017 C 
BRANCH   4   5
HETATM    5  C6  UNL     1     -33.766  16.930  -1.882  1.00 20.00    -0.012 C 
HETATM    6  C3  UNL     1     -33.003  18.115  -1.276  1.00 20.00     0.006 C 
HETATM    7  C4  UNL     1     -33.698  18.361   0.055  1.00 20.00     0.020 C 
HETATM    8  C7  UNL     1     -35.160  18.174  -0.314  1.00 20.00     0.082 C 
HETATM    9  C5  UNL     1     -35.162  16.955  -1.235  1.00 20.00     0.024 C 
HETATM   10 CL10 UNL     1     -36.190  17.954   1.109  1.00 20.00    -0.125 Cl
ENDBRANCH   4   5
ENDBRANCH   3   4
TORSDOF 2
ENDMDL
