MODEL 1
REMARK VINA RESULT:      -5.7      0.000      0.000
REMARK  1 active torsions:
REMARK  status: ('A' for Active; 'I' for Inactive)
REMARK    1  A    between atoms: C4_4  and  C8_8 
ROOT
HETATM    1  C1  UNL     1     -33.614   7.707   4.488  1.00 20.00     0.006 C 
HETATM    2  C2  UNL     1     -34.096   6.419   5.163  1.00 20.00     0.020 C 
HETATM    3  C3  UNL     1     -33.420   5.836   2.951  1.00 20.00     0.025 C 
HETATM    4  C4  UNL     1     -33.416   7.364   3.002  1.00 20.00    -0.010 C 
HETATM    5  C5  UNL     1     -34.447   5.481   4.014  1.00 20.00     0.082 C 
HETATM    6 CL9  UNL     1     -34.370   3.778   4.484  1.00 20.00    -0.125 Cl
ENDROOT
BRANCH   4   7
HETATM    7  C8  UNL     1     -32.158   7.976   2.409  1.00 20.00    -0.019 C 
HETATM    8  C6  UNL     1     -32.506   9.155   1.500  1.00 20.00     0.010 C 
HETATM    9  C7  UNL     1     -31.199   8.420   3.513  1.00 20.00     0.010 C 
ENDBRANCH   4   7
TORSDOF 1
ENDMDL
MODEL 2
REMARK VINA RESULT:      -5.4      2.351      4.043
REMARK  1 active torsions:
REMARK  status: ('A' for Active; 'I' for Inactive)
REMARK    1  A    between atoms: C4_4  and  C8_8 
ROOT
HETATM    1  C1  UNL     1     -33.718   5.262   3.107  1.00 20.00     0.006 C 
HETATM    2  C2  UNL     1     -32.651   5.939   2.240  1.00 20.00     0.020 C 
HETATM    3  C3  UNL     1     -33.553   7.618   3.675  1.00 20.00     0.025 C 
HETATM    4  C4  UNL     1     -34.452   6.393   3.844  1.00 20.00    -0.010 C 
HETATM    5  C5  UNL     1     -33.003   7.421   2.271  1.00 20.00     0.082 C 
HETATM    6 CL9  UNL     1     -31.606   8.455   1.943  1.00 20.00    -0.125 Cl
ENDROOT
BRANCH   4   7
HETATM    7  C8  UNL     1     -34.746   6.068   5.300  1.00 20.00    -0.019 C 
HETATM    8  C6  UNL     1     -34.462   4.595   5.594  1.00 20.00     0.010 C 
HETATM    9  C7  UNL     1     -33.930   6.965   6.230  1.00 20.00     0.010 C 
ENDBRANCH   4   7
TORSDOF 1
ENDMDL
MODEL 3
REMARK VINA RESULT:      -5.3      2.582      4.057
REMARK  1 active torsions:
REMARK  status: ('A' for Active; 'I' for Inactive)
REMARK    1  A    between atoms: C4_4  and  C8_8 
ROOT
HETATM    1  C1  UNL     1     -31.889   7.908   3.991  1.00 20.00     0.006 C 
HETATM    2  C2  UNL     1     -31.484   8.842   2.845  1.00 20.00     0.020 C 
HETATM    3  C3  UNL     1     -33.444   7.679   2.139  1.00 20.00     0.025 C 
HETATM    4  C4  UNL     1     -32.995   6.999   3.433  1.00 20.00    -0.010 C 
HETATM    5  C5  UNL     1     -32.138   8.246   1.604  1.00 20.00     0.082 C 
HETATM    6 CL9  UNL     1     -32.396   9.449   0.333  1.00 20.00    -0.125 Cl
ENDROOT
BRANCH   4   7
HETATM    7  C8  UNL     1     -34.134   6.771   4.412  1.00 20.00    -0.019 C 
HETATM    8  C6  UNL     1     -34.545   5.299   4.432  1.00 20.00     0.010 C 
HETATM    9  C7  UNL     1     -33.743   7.235   5.815  1.00 20.00     0.010 C 
ENDBRANCH   4   7
TORSDOF 1
ENDMDL
MODEL 4
REMARK VINA RESULT:      -5.1      0.582      1.298
REMARK  1 active torsions:
REMARK  status: ('A' for Active; 'I' for Inactive)
REMARK    1  A    between atoms: C4_4  and  C8_8 
ROOT
HETATM    1  C1  UNL     1     -33.780   7.620   5.089  1.00 20.00     0.006 C 
HETATM    2  C2  UNL     1     -34.083   6.181   5.518  1.00 20.00     0.020 C 
HETATM    3  C3  UNL     1     -33.589   6.123   3.185  1.00 20.00     0.025 C 
HETATM    4  C4  UNL     1     -33.706   7.602   3.553  1.00 20.00    -0.010 C 
HETATM    5  C5  UNL     1     -34.471   5.460   4.233  1.00 20.00     0.082 C 
HETATM    6 CL9  UNL     1     -34.206   3.715   4.330  1.00 20.00    -0.125 Cl
ENDROOT
BRANCH   4   7
HETATM    7  C8  UNL     1     -32.570   8.444   2.998  1.00 20.00    -0.019 C 
HETATM    8  C6  UNL     1     -31.260   8.132   3.722  1.00 20.00     0.010 C 
HETATM    9  C7  UNL     1     -32.414   8.219   1.494  1.00 20.00     0.010 C 
ENDBRANCH   4   7
TORSDOF 1
ENDMDL
MODEL 5
REMARK VINA RESULT:      -5.0      2.626      4.100
REMARK  1 active torsions:
REMARK  status: ('A' for Active; 'I' for Inactive)
REMARK    1  A    between atoms: C4_4  and  C8_8 
ROOT
HETATM    1  C1  UNL     1     -31.720   8.006   3.803  1.00 20.00     0.006 C 
HETATM    2  C2  UNL     1     -31.650   9.121   2.755  1.00 20.00     0.020 C 
HETATM    3  C3  UNL     1     -33.375   7.624   2.067  1.00 20.00     0.025 C 
HETATM    4  C4  UNL     1     -32.656   6.932   3.225  1.00 20.00    -0.010 C 
HETATM    5  C5  UNL     1     -32.286   8.526   1.505  1.00 20.00     0.082 C 
HETATM    6 CL9  UNL     1     -32.930   9.765   0.420  1.00 20.00    -0.125 Cl
ENDROOT
BRANCH   4   7
HETATM    7  C8  UNL     1     -33.610   6.350   4.254  1.00 20.00    -0.019 C 
HETATM    8  C6  UNL     1     -33.758   7.293   5.449  1.00 20.00     0.010 C 
HETATM    9  C7  UNL     1     -34.975   6.066   3.628  1.00 20.00     0.010 C 
ENDBRANCH   4   7
TORSDOF 1
ENDMDL
MODEL 6
REMARK VINA RESULT:      -4.6      1.870      2.873
REMARK  1 active torsions:
REMARK  status: ('A' for Active; 'I' for Inactive)
REMARK    1  A    between atoms: C4_4  and  C8_8 
ROOT
HETATM    1  C1  UNL     1     -32.968   7.206   1.578  1.00 20.00     0.006 C 
HETATM    2  C2  UNL     1     -33.451   6.767   2.964  1.00 20.00     0.020 C 
HETATM    3  C3  UNL     1     -32.160   8.749   3.271  1.00 20.00     0.025 C 
HETATM    4  C4  UNL     1     -31.947   8.330   1.816  1.00 20.00    -0.010 C 
HETATM    5  C5  UNL     1     -32.486   7.424   3.943  1.00 20.00     0.082 C 
HETATM    6 CL9  UNL     1     -33.194   7.639   5.549  1.00 20.00    -0.125 Cl
ENDROOT
BRANCH   4   7
HETATM    7  C8  UNL     1     -32.087   9.485   0.838  1.00 20.00    -0.019 C 
HETATM    8  C6  UNL     1     -32.885   9.057  -0.394  1.00 20.00     0.010 C 
HETATM    9  C7  UNL     1     -32.750  10.687   1.511  1.00 20.00     0.010 C 
ENDBRANCH   4   7
TORSDOF 1
ENDMDL
MODEL 7
REMARK VINA RESULT:      -4.4      1.662      2.333
REMARK  1 active torsions:
REMARK  status: ('A' for Active; 'I' for Inactive)
REMARK    1  A    between atoms: C4_4  and  C8_8 
ROOT
HETATM    1  C1  UNL     1     -33.603   6.519   2.222  1.00 20.00     0.006 C 
HETATM    2  C2  UNL     1     -34.158   6.278   3.629  1.00 20.00     0.020 C 
HETATM    3  C3  UNL     1     -32.715   8.173   3.763  1.00 20.00     0.025 C 
HETATM    4  C4  UNL     1     -32.498   7.578   2.372  1.00 20.00    -0.010 C 
HETATM    5  C5  UNL     1     -33.168   6.962   4.564  1.00 20.00     0.082 C 
HETATM    6 CL9  UNL     1     -33.899   7.412   6.111  1.00 20.00    -0.125 Cl
ENDROOT
BRANCH   4   7
HETATM    7  C8  UNL     1     -32.515   8.623   1.269  1.00 20.00    -0.019 C 
HETATM    8  C6  UNL     1     -32.775  10.014   1.845  1.00 20.00     0.010 C 
HETATM    9  C7  UNL     1     -31.202   8.606   0.487  1.00 20.00     0.010 C 
ENDBRANCH   4   7
TORSDOF 1
ENDMDL
MODEL 8
REMARK VINA RESULT:      -4.2      1.773      2.668
REMARK  1 active torsions:
REMARK  status: ('A' for Active; 'I' for Inactive)
REMARK    1  A    between atoms: C4_4  and  C8_8 
ROOT
HETATM    1  C1  UNL     1     -34.532   5.376   4.754  1.00 20.00     0.006 C 
HETATM    2  C2  UNL     1     -34.051   4.138   3.991  1.00 20.00     0.020 C 
HETATM    3  C3  UNL     1     -33.161   6.042   2.863  1.00 20.00     0.025 C 
HETATM    4  C4  UNL     1     -34.160   6.587   3.885  1.00 20.00    -0.010 C 
HETATM    5  C5  UNL     1     -33.703   4.647   2.597  1.00 20.00     0.082 C 
HETATM    6 CL9  UNL     1     -32.528   3.613   1.774  1.00 20.00    -0.125 Cl
ENDROOT
BRANCH   4   7
HETATM    7  C8  UNL     1     -33.612   7.755   4.687  1.00 20.00    -0.019 C 
HETATM    8  C6  UNL     1     -33.619   7.436   6.182  1.00 20.00     0.010 C 
HETATM    9  C7  UNL     1     -32.199   8.114   4.225  1.00 20.00     0.010 C 
ENDBRANCH   4   7
TORSDOF 1
ENDMDL
MODEL 9
REMARK VINA RESULT:      -4.0     11.152     11.719
REMARK  1 active torsions:
REMARK  status: ('A' for Active; 'I' for Inactive)
REMARK    1  A    between atoms: C4_4  and  C8_8 
ROOT
HETATM    1  C1  UNL     1     -36.354  16.723  -3.186  1.00 20.00     0.006 C 
HETATM    2  C2  UNL     1     -36.878  15.569  -4.046  1.00 20.00     0.020 C 
HETATM    3  C3  UNL     1     -34.563  15.152  -3.656  1.00 20.00     0.025 C 
HETATM    4  C4  UNL     1     -34.825  16.570  -3.149  1.00 20.00    -0.010 C 
HETATM    5  C5  UNL     1     -35.641  14.985  -4.716  1.00 20.00     0.082 C 
HETATM    6 CL9  UNL     1     -35.864  13.296  -5.190  1.00 20.00    -0.125 Cl
ENDROOT
BRANCH   4   7
HETATM    7  C8  UNL     1     -34.229  16.830  -1.776  1.00 20.00    -0.019 C 
HETATM    8  C6  UNL     1     -33.171  17.932  -1.844  1.00 20.00     0.010 C 
HETATM    9  C7  UNL     1     -35.321  17.201  -0.773  1.00 20.00     0.010 C 
ENDBRANCH   4   7
TORSDOF 1
ENDMDL
