MODEL 1
REMARK VINA RESULT:      -5.5      0.000      0.000
REMARK  1 active torsions:
REMARK  status: ('A' for Active; 'I' for Inactive)
REMARK    1  A    between atoms: C4_4  and  C7_7 
ROOT
HETATM    1  C1  UNL     1     -33.669   7.193   5.705  1.00 20.00     0.006 C 
HETATM    2  C2  UNL     1     -32.721   7.984   4.799  1.00 20.00     0.020 C 
HETATM    3  C3  UNL     1     -33.771   6.331   3.437  1.00 20.00     0.024 C 
HETATM    4  C4  UNL     1     -34.508   6.302   4.776  1.00 20.00    -0.013 C 
HETATM    5  C5  UNL     1     -33.249   7.759   3.388  1.00 20.00     0.082 C 
HETATM    6 CL8  UNL     1     -31.998   7.978   2.156  1.00 20.00    -0.125 Cl
ENDROOT
BRANCH   4   7
HETATM    7  C7  UNL     1     -34.709   4.895   5.315  1.00 20.00     0.000 C 
HETATM    8  C6  UNL     1     -34.142   3.862   4.396  1.00 20.00     0.005 C 
ENDBRANCH   4   7
TORSDOF 1
ENDMDL
MODEL 2
REMARK VINA RESULT:      -5.5      2.370      4.037
REMARK  1 active torsions:
REMARK  status: ('A' for Active; 'I' for Inactive)
REMARK    1  A    between atoms: C4_4  and  C7_7 
ROOT
HETATM    1  C1  UNL     1     -33.130   5.817   2.482  1.00 20.00     0.006 C 
HETATM    2  C2  UNL     1     -33.793   4.906   3.520  1.00 20.00     0.020 C 
HETATM    3  C3  UNL     1     -33.614   7.072   4.503  1.00 20.00     0.024 C 
HETATM    4  C4  UNL     1     -33.241   7.248   3.031  1.00 20.00    -0.013 C 
HETATM    5  C5  UNL     1     -34.524   5.854   4.462  1.00 20.00     0.082 C 
HETATM    6 CL8  UNL     1     -34.782   5.148   6.063  1.00 20.00    -0.125 Cl
ENDROOT
BRANCH   4   7
HETATM    7  C7  UNL     1     -31.976   8.066   2.833  1.00 20.00     0.000 C 
HETATM    8  C6  UNL     1     -31.978   8.784   1.521  1.00 20.00     0.005 C 
ENDBRANCH   4   7
TORSDOF 1
ENDMDL
MODEL 3
REMARK VINA RESULT:      -4.7      2.261      4.052
REMARK  1 active torsions:
REMARK  status: ('A' for Active; 'I' for Inactive)
REMARK    1  A    between atoms: C4_4  and  C7_7 
ROOT
HETATM    1  C1  UNL     1     -31.932   8.301   3.764  1.00 20.00     0.006 C 
HETATM    2  C2  UNL     1     -33.053   7.595   4.533  1.00 20.00     0.020 C 
HETATM    3  C3  UNL     1     -33.277   6.971   2.241  1.00 20.00     0.024 C 
HETATM    4  C4  UNL     1     -31.941   7.706   2.347  1.00 20.00    -0.013 C 
HETATM    5  C5  UNL     1     -33.455   6.422   3.649  1.00 20.00     0.082 C 
HETATM    6 CL8  UNL     1     -35.111   5.880   3.958  1.00 20.00    -0.125 Cl
ENDROOT
BRANCH   4   7
HETATM    7  C7  UNL     1     -31.747   8.747   1.257  1.00 20.00     0.000 C 
HETATM    8  C6  UNL     1     -32.730   9.866   1.374  1.00 20.00     0.005 C 
ENDBRANCH   4   7
TORSDOF 1
ENDMDL
MODEL 4
REMARK VINA RESULT:      -4.5      1.175      1.424
REMARK  1 active torsions:
REMARK  status: ('A' for Active; 'I' for Inactive)
REMARK    1  A    between atoms: C4_4  and  C7_7 
ROOT
HETATM    1  C1  UNL     1     -32.749   7.637   4.644  1.00 20.00     0.006 C 
HETATM    2  C2  UNL     1     -31.750   8.283   3.679  1.00 20.00     0.020 C 
HETATM    3  C3  UNL     1     -33.365   7.136   2.349  1.00 20.00     0.024 C 
HETATM    4  C4  UNL     1     -33.906   7.112   3.779  1.00 20.00    -0.013 C 
HETATM    5  C5  UNL     1     -32.496   8.384   2.354  1.00 20.00     0.082 C 
HETATM    6 CL8  UNL     1     -31.400   8.450   0.966  1.00 20.00    -0.125 Cl
ENDROOT
BRANCH   4   7
HETATM    7  C7  UNL     1     -34.399   5.739   4.206  1.00 20.00     0.000 C 
HETATM    8  C6  UNL     1     -33.734   4.645   3.435  1.00 20.00     0.005 C 
ENDBRANCH   4   7
TORSDOF 1
ENDMDL
MODEL 5
REMARK VINA RESULT:      -4.3      1.059      2.048
REMARK  1 active torsions:
REMARK  status: ('A' for Active; 'I' for Inactive)
REMARK    1  A    between atoms: C4_4  and  C7_7 
ROOT
HETATM    1  C1  UNL     1     -33.714   5.830   3.084  1.00 20.00     0.006 C 
HETATM    2  C2  UNL     1     -33.264   6.756   1.951  1.00 20.00     0.020 C 
HETATM    3  C3  UNL     1     -32.887   7.922   3.997  1.00 20.00     0.024 C 
HETATM    4  C4  UNL     1     -33.246   6.489   4.391  1.00 20.00    -0.013 C 
HETATM    5  C5  UNL     1     -32.300   7.737   2.606  1.00 20.00     0.082 C 
HETATM    6 CL8  UNL     1     -32.178   9.261   1.716  1.00 20.00    -0.125 Cl
ENDROOT
BRANCH   4   7
HETATM    7  C7  UNL     1     -34.280   6.419   5.503  1.00 20.00     0.000 C 
HETATM    8  C6  UNL     1     -34.705   5.014   5.780  1.00 20.00     0.005 C 
ENDBRANCH   4   7
TORSDOF 1
ENDMDL
MODEL 6
REMARK VINA RESULT:      -4.1      1.808      2.741
REMARK  1 active torsions:
REMARK  status: ('A' for Active; 'I' for Inactive)
REMARK    1  A    between atoms: C4_4  and  C7_7 
ROOT
HETATM    1  C1  UNL     1     -33.651   7.176   3.686  1.00 20.00     0.006 C 
HETATM    2  C2  UNL     1     -32.923   6.411   2.577  1.00 20.00     0.020 C 
HETATM    3  C3  UNL     1     -33.985   4.787   3.966  1.00 20.00     0.024 C 
HETATM    4  C4  UNL     1     -34.520   6.144   4.423  1.00 20.00    -0.013 C 
HETATM    5  C5  UNL     1     -33.619   5.057   2.514  1.00 20.00     0.082 C 
HETATM    6 CL8  UNL     1     -32.582   3.796   1.833  1.00 20.00    -0.125 Cl
ENDROOT
BRANCH   4   7
HETATM    7  C7  UNL     1     -34.501   6.313   5.933  1.00 20.00     0.000 C 
HETATM    8  C6  UNL     1     -33.666   7.479   6.353  1.00 20.00     0.005 C 
ENDBRANCH   4   7
TORSDOF 1
ENDMDL
MODEL 7
REMARK VINA RESULT:      -4.0      2.014      2.815
REMARK  1 active torsions:
REMARK  status: ('A' for Active; 'I' for Inactive)
REMARK    1  A    between atoms: C4_4  and  C7_7 
ROOT
HETATM    1  C1  UNL     1     -34.818   5.033   4.420  1.00 20.00     0.006 C 
HETATM    2  C2  UNL     1     -34.427   5.687   5.749  1.00 20.00     0.020 C 
HETATM    3  C3  UNL     1     -33.643   7.118   4.009  1.00 20.00     0.024 C 
HETATM    4  C4  UNL     1     -34.525   6.073   3.326  1.00 20.00    -0.013 C 
HETATM    5  C5  UNL     1     -34.222   7.159   5.415  1.00 20.00     0.082 C 
HETATM    6 CL8  UNL     1     -33.147   7.967   6.565  1.00 20.00    -0.125 Cl
ENDROOT
BRANCH   4   7
HETATM    7  C7  UNL     1     -33.884   5.474   2.085  1.00 20.00     0.000 C 
HETATM    8  C6  UNL     1     -32.846   4.456   2.431  1.00 20.00     0.005 C 
ENDBRANCH   4   7
TORSDOF 1
ENDMDL
MODEL 8
REMARK VINA RESULT:      -3.8     12.220     12.672
REMARK  1 active torsions:
REMARK  status: ('A' for Active; 'I' for Inactive)
REMARK    1  A    between atoms: C4_4  and  C7_7 
ROOT
HETATM    1  C1  UNL     1     -34.305  18.255   0.339  1.00 20.00     0.006 C 
HETATM    2  C2  UNL     1     -33.343  18.631   1.470  1.00 20.00     0.020 C 
HETATM    3  C3  UNL     1     -32.022  18.299  -0.489  1.00 20.00     0.024 C 
HETATM    4  C4  UNL     1     -33.478  18.281  -0.957  1.00 20.00    -0.013 C 
HETATM    5  C5  UNL     1     -32.098  19.154   0.766  1.00 20.00     0.082 C 
HETATM    6 CL8  UNL     1     -30.646  19.012   1.768  1.00 20.00    -0.125 Cl
ENDROOT
BRANCH   4   7
HETATM    7  C7  UNL     1     -33.789  17.124  -1.891  1.00 20.00     0.000 C 
HETATM    8  C6  UNL     1     -35.225  16.718  -1.816  1.00 20.00     0.005 C 
ENDBRANCH   4   7
TORSDOF 1
ENDMDL
MODEL 9
REMARK VINA RESULT:      -3.8     12.104     12.429
REMARK  1 active torsions:
REMARK  status: ('A' for Active; 'I' for Inactive)
REMARK    1  A    between atoms: C4_4  and  C7_7 
ROOT
HETATM    1  C1  UNL     1     -35.385  17.115  -1.033  1.00 20.00     0.006 C 
HETATM    2  C2  UNL     1     -34.448  17.779  -0.020  1.00 20.00     0.020 C 
HETATM    3  C3  UNL     1     -33.186  17.431  -2.015  1.00 20.00     0.024 C 
HETATM    4  C4  UNL     1     -34.638  17.119  -2.377  1.00 20.00    -0.013 C 
HETATM    5  C5  UNL     1     -33.345  18.410  -0.861  1.00 20.00     0.082 C 
HETATM    6 CL8  UNL     1     -31.844  18.630   0.049  1.00 20.00    -0.125 Cl
ENDROOT
BRANCH   4   7
HETATM    7  C7  UNL     1     -34.792  15.820  -3.152  1.00 20.00     0.000 C 
HETATM    8  C6  UNL     1     -33.563  15.492  -3.937  1.00 20.00     0.005 C 
ENDBRANCH   4   7
TORSDOF 1
ENDMDL
