MODEL 1
REMARK VINA RESULT:      -5.8      0.000      0.000
REMARK  2 active torsions:
REMARK  status: ('A' for Active; 'I' for Inactive)
REMARK    1  A    between atoms: C6_6  and  C7_7 
REMARK    2  A    between atoms: C8_8  and  O9_9 
ROOT
HETATM    1  C3  UNL     1     -33.930   7.275   5.207  1.00 20.00     0.007 C 
HETATM    2  C4  UNL     1     -33.778   5.811   5.618  1.00 20.00     0.032 C 
HETATM    3  C5  UNL     1     -34.657   5.990   3.344  1.00 20.00     0.036 C 
HETATM    4  C7  UNL     1     -33.893   7.269   3.680  1.00 20.00    -0.008 C 
HETATM    5  C8  UNL     1     -34.223   4.985   4.409  1.00 20.00     0.118 C 
ENDROOT
BRANCH   4   6
HETATM    6  C6  UNL     1     -32.467   7.257   3.133  1.00 20.00    -0.010 A 
HETATM    7  C1  UNL     1     -32.034   8.279   2.121  1.00 20.00     0.005 A 
HETATM    8  C2  UNL     1     -31.497   8.337   3.523  1.00 20.00     0.005 A 
ENDBRANCH   4   6
BRANCH   5   9
HETATM    9  O9  UNL     1     -35.306   4.130   4.738  1.00 20.00    -0.396 OA
HETATM   10  H23 UNL     1     -35.931   4.662   5.254  1.00 20.00     0.210 HD
ENDBRANCH   5   9
TORSDOF 2
ENDMDL
MODEL 2
REMARK VINA RESULT:      -4.8      1.801      2.869
REMARK  2 active torsions:
REMARK  status: ('A' for Active; 'I' for Inactive)
REMARK    1  A    between atoms: C6_6  and  C7_7 
REMARK    2  A    between atoms: C8_8  and  O9_9 
ROOT
HETATM    1  C3  UNL     1     -32.913   6.401   2.607  1.00 20.00     0.007 C 
HETATM    2  C4  UNL     1     -33.904   6.570   3.757  1.00 20.00     0.032 C 
HETATM    3  C5  UNL     1     -32.037   8.133   3.980  1.00 20.00     0.036 C 
HETATM    4  C7  UNL     1     -32.176   7.736   2.512  1.00 20.00    -0.008 C 
HETATM    5  C8  UNL     1     -33.352   7.702   4.627  1.00 20.00     0.118 C 
ENDROOT
BRANCH   4   6
HETATM    6  C6  UNL     1     -32.953   8.771   1.700  1.00 20.00    -0.010 A 
HETATM    7  C1  UNL     1     -32.316  10.082   1.335  1.00 20.00     0.005 A 
HETATM    8  C2  UNL     1     -32.575   9.052   0.273  1.00 20.00     0.005 A 
ENDBRANCH   4   6
BRANCH   5   9
HETATM    9  O9  UNL     1     -33.117   7.265   5.956  1.00 20.00    -0.396 OA
HETATM   10  H23 UNL     1     -33.886   7.541   6.478  1.00 20.00     0.210 HD
ENDBRANCH   5   9
TORSDOF 2
ENDMDL
MODEL 3
REMARK VINA RESULT:      -4.7      2.583      4.094
REMARK  2 active torsions:
REMARK  status: ('A' for Active; 'I' for Inactive)
REMARK    1  A    between atoms: C6_6  and  C7_7 
REMARK    2  A    between atoms: C8_8  and  O9_9 
ROOT
HETATM    1  C3  UNL     1     -31.471   8.039   3.639  1.00 20.00     0.007 C 
HETATM    2  C4  UNL     1     -31.824   9.262   2.794  1.00 20.00     0.032 C 
HETATM    3  C5  UNL     1     -32.830   7.240   1.860  1.00 20.00     0.036 C 
HETATM    4  C7  UNL     1     -32.571   7.019   3.349  1.00 20.00    -0.008 C 
HETATM    5  C8  UNL     1     -32.719   8.750   1.663  1.00 20.00     0.118 C 
ENDROOT
BRANCH   4   6
HETATM    6  C6  UNL     1     -33.819   7.255   4.198  1.00 20.00    -0.010 A 
HETATM    7  C1  UNL     1     -34.386   6.144   5.037  1.00 20.00     0.005 A 
HETATM    8  C2  UNL     1     -33.714   7.315   5.696  1.00 20.00     0.005 A 
ENDBRANCH   4   6
BRANCH   5   9
HETATM    9  O9  UNL     1     -32.158   9.032   0.392  1.00 20.00    -0.396 OA
HETATM   10  H23 UNL     1     -31.879   9.961   0.413  1.00 20.00     0.210 HD
ENDBRANCH   5   9
TORSDOF 2
ENDMDL
MODEL 4
REMARK VINA RESULT:      -4.2      2.272      4.054
REMARK  2 active torsions:
REMARK  status: ('A' for Active; 'I' for Inactive)
REMARK    1  A    between atoms: C6_6  and  C7_7 
REMARK    2  A    between atoms: C8_8  and  O9_9 
ROOT
HETATM    1  C3  UNL     1     -34.228   6.472   2.666  1.00 20.00     0.007 C 
HETATM    2  C4  UNL     1     -32.775   6.708   2.257  1.00 20.00     0.032 C 
HETATM    3  C5  UNL     1     -33.296   7.878   4.340  1.00 20.00     0.036 C 
HETATM    4  C7  UNL     1     -34.266   6.711   4.174  1.00 20.00    -0.008 C 
HETATM    5  C8  UNL     1     -32.169   7.594   3.349  1.00 20.00     0.118 C 
ENDROOT
BRANCH   4   6
HETATM    6  C6  UNL     1     -33.836   5.479   4.968  1.00 20.00    -0.010 A 
HETATM    7  C1  UNL     1     -34.812   4.783   5.875  1.00 20.00     0.005 A 
HETATM    8  C2  UNL     1     -34.365   4.120   4.602  1.00 20.00     0.005 A 
ENDBRANCH   4   6
BRANCH   5   9
HETATM    9  O9  UNL     1     -31.677   8.811   2.813  1.00 20.00    -0.396 OA
HETATM   10  H23 UNL     1     -30.806   8.958   3.215  1.00 20.00     0.210 HD
ENDBRANCH   5   9
TORSDOF 2
ENDMDL
MODEL 5
REMARK VINA RESULT:      -4.1     11.814     12.377
REMARK  2 active torsions:
REMARK  status: ('A' for Active; 'I' for Inactive)
REMARK    1  A    between atoms: C6_6  and  C7_7 
REMARK    2  A    between atoms: C8_8  and  O9_9 
ROOT
HETATM    1  C3  UNL     1     -35.487  16.004  -4.129  1.00 20.00     0.007 C 
HETATM    2  C4  UNL     1     -35.190  14.513  -4.288  1.00 20.00     0.032 C 
HETATM    3  C5  UNL     1     -33.240  15.861  -4.887  1.00 20.00     0.036 C 
HETATM    4  C7  UNL     1     -34.125  16.668  -3.941  1.00 20.00    -0.008 C 
HETATM    5  C8  UNL     1     -33.734  14.422  -4.753  1.00 20.00     0.118 C 
ENDROOT
BRANCH   4   6
HETATM    6  C6  UNL     1     -33.642  16.604  -2.493  1.00 20.00    -0.010 A 
HETATM    7  C1  UNL     1     -33.230  17.858  -1.775  1.00 20.00     0.005 A 
HETATM    8  C2  UNL     1     -34.497  17.150  -1.385  1.00 20.00     0.005 A 
ENDBRANCH   4   6
BRANCH   5   9
HETATM    9  O9  UNL     1     -33.631  13.756  -6.001  1.00 20.00    -0.396 OA
HETATM   10  H23 UNL     1     -32.835  13.204  -5.955  1.00 20.00     0.210 HD
ENDBRANCH   5   9
TORSDOF 2
ENDMDL
MODEL 6
REMARK VINA RESULT:      -4.0     11.156     12.399
REMARK  2 active torsions:
REMARK  status: ('A' for Active; 'I' for Inactive)
REMARK    1  A    between atoms: C6_6  and  C7_7 
REMARK    2  A    between atoms: C8_8  and  O9_9 
ROOT
HETATM    1  C3  UNL     1     -33.349  15.527  -5.583  1.00 20.00     0.007 C 
HETATM    2  C4  UNL     1     -34.690  15.071  -6.157  1.00 20.00     0.032 C 
HETATM    3  C5  UNL     1     -34.249  13.995  -4.006  1.00 20.00     0.036 C 
HETATM    4  C7  UNL     1     -33.456  15.297  -4.077  1.00 20.00    -0.008 C 
HETATM    5  C8  UNL     1     -35.280  14.102  -5.129  1.00 20.00     0.118 C 
ENDROOT
BRANCH   4   6
HETATM    6  C6  UNL     1     -34.162  16.449  -3.363  1.00 20.00    -0.010 A 
HETATM    7  C1  UNL     1     -33.546  17.076  -2.144  1.00 20.00     0.005 A 
HETATM    8  C2  UNL     1     -33.602  17.841  -3.436  1.00 20.00     0.005 A 
ENDBRANCH   4   6
BRANCH   5   9
HETATM    9  O9  UNL     1     -35.512  12.824  -5.697  1.00 20.00    -0.396 OA
HETATM   10  H23 UNL     1     -35.085  12.827  -6.568  1.00 20.00     0.210 HD
ENDBRANCH   5   9
TORSDOF 2
ENDMDL
MODEL 7
REMARK VINA RESULT:      -3.8     11.489     12.587
REMARK  2 active torsions:
REMARK  status: ('A' for Active; 'I' for Inactive)
REMARK    1  A    between atoms: C6_6  and  C7_7 
REMARK    2  A    between atoms: C8_8  and  O9_9 
ROOT
HETATM    1  C3  UNL     1     -35.004  13.899  -4.369  1.00 20.00     0.007 C 
HETATM    2  C4  UNL     1     -35.992  13.450  -5.444  1.00 20.00     0.032 C 
HETATM    3  C5  UNL     1     -36.819  15.431  -4.272  1.00 20.00     0.036 C 
HETATM    4  C7  UNL     1     -35.298  15.381  -4.145  1.00 20.00    -0.008 C 
HETATM    5  C8  UNL     1     -37.149  14.452  -5.398  1.00 20.00     0.118 C 
ENDROOT
BRANCH   4   6
HETATM    6  C6  UNL     1     -34.598  16.272  -5.169  1.00 20.00    -0.010 A 
HETATM    7  C1  UNL     1     -33.506  17.210  -4.737  1.00 20.00     0.005 A 
HETATM    8  C2  UNL     1     -33.174  15.999  -5.562  1.00 20.00     0.005 A 
ENDBRANCH   4   6
BRANCH   5   9
HETATM    9  O9  UNL     1     -38.382  13.805  -5.130  1.00 20.00    -0.396 OA
HETATM   10  H23 UNL     1     -38.790  13.621  -5.991  1.00 20.00     0.210 HD
ENDBRANCH   5   9
TORSDOF 2
ENDMDL
MODEL 8
REMARK VINA RESULT:      -3.7      1.956      2.735
REMARK  2 active torsions:
REMARK  status: ('A' for Active; 'I' for Inactive)
REMARK    1  A    between atoms: C6_6  and  C7_7 
REMARK    2  A    between atoms: C8_8  and  O9_9 
ROOT
HETATM    1  C3  UNL     1     -35.025   5.475   4.093  1.00 20.00     0.007 C 
HETATM    2  C4  UNL     1     -34.131   4.253   3.885  1.00 20.00     0.032 C 
HETATM    3  C5  UNL     1     -33.285   6.176   2.634  1.00 20.00     0.036 C 
HETATM    4  C7  UNL     1     -34.135   6.680   3.798  1.00 20.00    -0.008 C 
HETATM    5  C8  UNL     1     -32.998   4.713   2.965  1.00 20.00     0.118 C 
ENDROOT
BRANCH   4   6
HETATM    6  C6  UNL     1     -33.289   7.085   5.004  1.00 20.00    -0.010 A 
HETATM    7  C1  UNL     1     -33.582   8.362   5.741  1.00 20.00     0.005 A 
HETATM    8  C2  UNL     1     -33.873   7.038   6.388  1.00 20.00     0.005 A 
ENDBRANCH   4   6
BRANCH   5   9
HETATM    9  O9  UNL     1     -32.956   3.946   1.772  1.00 20.00    -0.396 OA
HETATM   10  H23 UNL     1     -33.878   3.779   1.519  1.00 20.00     0.210 HD
ENDBRANCH   5   9
TORSDOF 2
ENDMDL
MODEL 9
REMARK VINA RESULT:      -3.6     11.633     12.542
REMARK  2 active torsions:
REMARK  status: ('A' for Active; 'I' for Inactive)
REMARK    1  A    between atoms: C6_6  and  C7_7 
REMARK    2  A    between atoms: C8_8  and  O9_9 
ROOT
HETATM    1  C3  UNL     1     -35.759  15.822  -5.960  1.00 20.00     0.007 C 
HETATM    2  C4  UNL     1     -37.092  15.884  -5.216  1.00 20.00     0.032 C 
HETATM    3  C5  UNL     1     -36.383  13.567  -5.546  1.00 20.00     0.036 C 
HETATM    4  C7  UNL     1     -35.153  14.470  -5.589  1.00 20.00    -0.008 C 
HETATM    5  C8  UNL     1     -37.481  14.431  -4.929  1.00 20.00     0.118 C 
ENDROOT
BRANCH   4   6
HETATM    6  C6  UNL     1     -34.414  14.512  -4.253  1.00 20.00    -0.010 A 
HETATM    7  C1  UNL     1     -32.916  14.389  -4.210  1.00 20.00     0.005 A 
HETATM    8  C2  UNL     1     -33.572  15.703  -3.891  1.00 20.00     0.005 A 
ENDBRANCH   4   6
BRANCH   5   9
HETATM    9  O9  UNL     1     -38.735  14.108  -5.508  1.00 20.00    -0.396 OA
HETATM   10  H23 UNL     1     -39.126  14.944  -5.805  1.00 20.00     0.210 HD
ENDBRANCH   5   9
TORSDOF 2
ENDMDL
