MODEL 1
REMARK VINA RESULT:      -5.4      0.000      0.000
REMARK  3 active torsions:
REMARK  status: ('A' for Active; 'I' for Inactive)
REMARK    1  A    between atoms: C3_3  and  C5_5 
REMARK    2  A    between atoms: C5_5  and  C6_6 
REMARK    3  A    between atoms: C6_6  and  C7_7 
ROOT
HETATM    1  C5  UNL     1     -31.746   8.244   1.958  1.00 20.00     0.006 C 
ENDROOT
BRANCH   1   2
HETATM    2  C3  UNL     1     -32.831   9.127   1.421  1.00 20.00    -0.014 A 
HETATM    3  C1  UNL     1     -32.513  10.524   0.963  1.00 20.00     0.005 A 
HETATM    4  C2  UNL     1     -32.875   9.467  -0.042  1.00 20.00     0.005 A 
ENDBRANCH   1   2
BRANCH   1   5
HETATM    5  C6  UNL     1     -32.019   7.833   3.410  1.00 20.00     0.015 C 
BRANCH   5   6
HETATM    6  C7  UNL     1     -33.416   7.245   3.619  1.00 20.00     0.053 C 
HETATM    7  C4  UNL     1     -33.539   5.857   3.007  1.00 20.00     0.022 C 
HETATM    8 BR8  UNL     1     -33.805   7.094   5.535  1.00 20.00    -0.092 Br
ENDBRANCH   5   6
ENDBRANCH   1   5
TORSDOF 3
ENDMDL
MODEL 2
REMARK VINA RESULT:      -5.3      1.043      1.215
REMARK  3 active torsions:
REMARK  status: ('A' for Active; 'I' for Inactive)
REMARK    1  A    between atoms: C3_3  and  C5_5 
REMARK    2  A    between atoms: C5_5  and  C6_6 
REMARK    3  A    between atoms: C6_6  and  C7_7 
ROOT
HETATM    1  C5  UNL     1     -32.344   7.890   2.869  1.00 20.00     0.006 C 
ENDROOT
BRANCH   1   2
HETATM    2  C3  UNL     1     -32.739   8.538   1.577  1.00 20.00    -0.014 A 
HETATM    3  C1  UNL     1     -32.526  10.013   1.373  1.00 20.00     0.005 A 
HETATM    4  C2  UNL     1     -31.686   9.021   0.619  1.00 20.00     0.005 A 
ENDBRANCH   1   2
BRANCH   1   5
HETATM    5  C6  UNL     1     -32.983   6.505   3.025  1.00 20.00     0.015 C 
BRANCH   5   6
HETATM    6  C7  UNL     1     -34.174   6.494   3.986  1.00 20.00     0.053 C 
HETATM    7  C4  UNL     1     -34.664   5.078   4.256  1.00 20.00     0.022 C 
HETATM    8 BR8  UNL     1     -33.662   7.290   5.703  1.00 20.00    -0.092 Br
ENDBRANCH   5   6
ENDBRANCH   1   5
TORSDOF 3
ENDMDL
MODEL 3
REMARK VINA RESULT:      -5.2      1.410      2.419
REMARK  3 active torsions:
REMARK  status: ('A' for Active; 'I' for Inactive)
REMARK    1  A    between atoms: C3_3  and  C5_5 
REMARK    2  A    between atoms: C5_5  and  C6_6 
REMARK    3  A    between atoms: C6_6  and  C7_7 
ROOT
HETATM    1  C5  UNL     1     -33.074   6.380   2.851  1.00 20.00     0.006 C 
ENDROOT
BRANCH   1   2
HETATM    2  C3  UNL     1     -32.792   7.846   2.723  1.00 20.00    -0.014 A 
HETATM    3  C1  UNL     1     -31.469   8.406   3.167  1.00 20.00     0.005 A 
HETATM    4  C2  UNL     1     -31.805   8.341   1.703  1.00 20.00     0.005 A 
ENDBRANCH   1   2
BRANCH   1   5
HETATM    5  C6  UNL     1     -34.561   6.111   3.110  1.00 20.00     0.015 C 
BRANCH   5   6
HETATM    6  C7  UNL     1     -34.857   5.683   4.549  1.00 20.00     0.053 C 
HETATM    7  C4  UNL     1     -34.368   4.269   4.826  1.00 20.00     0.022 C 
HETATM    8 BR8  UNL     1     -33.958   6.888   5.809  1.00 20.00    -0.092 Br
ENDBRANCH   5   6
ENDBRANCH   1   5
TORSDOF 3
ENDMDL
MODEL 4
REMARK VINA RESULT:      -5.1      2.502      4.590
REMARK  3 active torsions:
REMARK  status: ('A' for Active; 'I' for Inactive)
REMARK    1  A    between atoms: C3_3  and  C5_5 
REMARK    2  A    between atoms: C5_5  and  C6_6 
REMARK    3  A    between atoms: C6_6  and  C7_7 
ROOT
HETATM    1  C5  UNL     1     -33.286   5.895   3.389  1.00 20.00     0.006 C 
ENDROOT
BRANCH   1   2
HETATM    2  C3  UNL     1     -34.393   6.208   4.348  1.00 20.00    -0.014 A 
HETATM    3  C1  UNL     1     -34.625   5.334   5.550  1.00 20.00     0.005 A 
HETATM    4  C2  UNL     1     -34.080   6.724   5.725  1.00 20.00     0.005 A 
ENDBRANCH   1   2
BRANCH   1   5
HETATM    5  C6  UNL     1     -33.272   6.868   2.204  1.00 20.00     0.015 C 
BRANCH   5   6
HETATM    6  C7  UNL     1     -32.734   8.254   2.565  1.00 20.00     0.053 C 
HETATM    7  C4  UNL     1     -31.462   8.163   3.396  1.00 20.00     0.022 C 
HETATM    8 BR8  UNL     1     -32.318   9.262   0.936  1.00 20.00    -0.092 Br
ENDBRANCH   5   6
ENDBRANCH   1   5
TORSDOF 3
ENDMDL
MODEL 5
REMARK VINA RESULT:      -5.0      1.442      1.864
REMARK  3 active torsions:
REMARK  status: ('A' for Active; 'I' for Inactive)
REMARK    1  A    between atoms: C3_3  and  C5_5 
REMARK    2  A    between atoms: C5_5  and  C6_6 
REMARK    3  A    between atoms: C6_6  and  C7_7 
ROOT
HETATM    1  C5  UNL     1     -32.411   7.486   2.466  1.00 20.00     0.006 C 
ENDROOT
BRANCH   1   2
HETATM    2  C3  UNL     1     -31.930   8.833   2.018  1.00 20.00    -0.014 A 
HETATM    3  C1  UNL     1     -31.738   9.121   0.555  1.00 20.00     0.005 A 
HETATM    4  C2  UNL     1     -32.864   9.772   1.308  1.00 20.00     0.005 A 
ENDBRANCH   1   2
BRANCH   1   5
HETATM    5  C6  UNL     1     -33.594   7.601   3.434  1.00 20.00     0.015 C 
BRANCH   5   6
HETATM    6  C7  UNL     1     -33.499   6.642   4.622  1.00 20.00     0.053 C 
HETATM    7  C4  UNL     1     -33.759   7.354   5.942  1.00 20.00     0.022 C 
HETATM    8 BR8  UNL     1     -34.826   5.210   4.440  1.00 20.00    -0.092 Br
ENDBRANCH   5   6
ENDBRANCH   1   5
TORSDOF 3
ENDMDL
MODEL 6
REMARK VINA RESULT:      -4.7      2.409      4.359
REMARK  3 active torsions:
REMARK  status: ('A' for Active; 'I' for Inactive)
REMARK    1  A    between atoms: C3_3  and  C5_5 
REMARK    2  A    between atoms: C5_5  and  C6_6 
REMARK    3  A    between atoms: C6_6  and  C7_7 
ROOT
HETATM    1  C5  UNL     1     -32.325   7.595   3.124  1.00 20.00     0.006 C 
ENDROOT
BRANCH   1   2
HETATM    2  C3  UNL     1     -33.420   6.693   2.640  1.00 20.00    -0.014 A 
HETATM    3  C1  UNL     1     -33.353   5.213   2.901  1.00 20.00     0.005 A 
HETATM    4  C2  UNL     1     -34.367   6.059   3.619  1.00 20.00     0.005 A 
ENDBRANCH   1   2
BRANCH   1   5
HETATM    5  C6  UNL     1     -31.786   8.484   1.997  1.00 20.00     0.015 C 
BRANCH   5   6
HETATM    6  C7  UNL     1     -32.854   9.383   1.372  1.00 20.00     0.053 C 
HETATM    7  C4  UNL     1     -32.549  10.857   1.595  1.00 20.00     0.022 C 
HETATM    8 BR8  UNL     1     -32.949   9.074  -0.562  1.00 20.00    -0.092 Br
ENDBRANCH   5   6
ENDBRANCH   1   5
TORSDOF 3
ENDMDL
MODEL 7
REMARK VINA RESULT:      -4.7      1.888      4.585
REMARK  3 active torsions:
REMARK  status: ('A' for Active; 'I' for Inactive)
REMARK    1  A    between atoms: C3_3  and  C5_5 
REMARK    2  A    between atoms: C5_5  and  C6_6 
REMARK    3  A    between atoms: C6_6  and  C7_7 
ROOT
HETATM    1  C5  UNL     1     -33.726   5.738   3.092  1.00 20.00     0.006 C 
ENDROOT
BRANCH   1   2
HETATM    2  C3  UNL     1     -34.726   5.635   4.203  1.00 20.00    -0.014 A 
HETATM    3  C1  UNL     1     -34.514   4.655   5.324  1.00 20.00     0.005 A 
HETATM    4  C2  UNL     1     -34.380   6.129   5.580  1.00 20.00     0.005 A 
ENDBRANCH   1   2
BRANCH   1   5
HETATM    5  C6  UNL     1     -33.741   7.129   2.446  1.00 20.00     0.015 C 
BRANCH   5   6
HETATM    6  C7  UNL     1     -32.341   7.694   2.195  1.00 20.00     0.053 C 
HETATM    7  C4  UNL     1     -32.378   8.888   1.251  1.00 20.00     0.022 C 
HETATM    8 BR8  UNL     1     -31.541   8.287   3.884  1.00 20.00    -0.092 Br
ENDBRANCH   5   6
ENDBRANCH   1   5
TORSDOF 3
ENDMDL
MODEL 8
REMARK VINA RESULT:      -3.4     10.022     10.814
REMARK  3 active torsions:
REMARK  status: ('A' for Active; 'I' for Inactive)
REMARK    1  A    between atoms: C3_3  and  C5_5 
REMARK    2  A    between atoms: C5_5  and  C6_6 
REMARK    3  A    between atoms: C6_6  and  C7_7 
ROOT
HETATM    1  C5  UNL     1     -34.628  16.891  -1.892  1.00 20.00     0.006 C 
ENDROOT
BRANCH   1   2
HETATM    2  C3  UNL     1     -33.262  17.505  -1.841  1.00 20.00    -0.014 A 
HETATM    3  C1  UNL     1     -33.095  18.993  -1.982  1.00 20.00     0.005 A 
HETATM    4  C2  UNL     1     -32.848  18.331  -0.656  1.00 20.00     0.005 A 
ENDBRANCH   1   2
BRANCH   1   5
HETATM    5  C6  UNL     1     -34.771  15.929  -3.078  1.00 20.00     0.015 C 
BRANCH   5   6
HETATM    6  C7  UNL     1     -33.530  15.883  -3.972  1.00 20.00     0.053 C 
HETATM    7  C4  UNL     1     -33.191  14.458  -4.387  1.00 20.00     0.022 C 
HETATM    8 BR8  UNL     1     -33.834  16.929  -5.602  1.00 20.00    -0.092 Br
ENDBRANCH   5   6
ENDBRANCH   1   5
TORSDOF 3
ENDMDL
MODEL 9
REMARK VINA RESULT:      -3.4      9.844     10.536
REMARK  3 active torsions:
REMARK  status: ('A' for Active; 'I' for Inactive)
REMARK    1  A    between atoms: C3_3  and  C5_5 
REMARK    2  A    between atoms: C5_5  and  C6_6 
REMARK    3  A    between atoms: C6_6  and  C7_7 
ROOT
HETATM    1  C5  UNL     1     -34.933  16.299  -2.592  1.00 20.00     0.006 C 
ENDROOT
BRANCH   1   2
HETATM    2  C3  UNL     1     -35.093  17.501  -1.712  1.00 20.00    -0.014 A 
HETATM    3  C1  UNL     1     -35.447  17.335  -0.260  1.00 20.00     0.005 A 
HETATM    4  C2  UNL     1     -34.074  17.804  -0.650  1.00 20.00     0.005 A 
ENDBRANCH   1   2
BRANCH   1   5
HETATM    5  C6  UNL     1     -33.584  16.310  -3.322  1.00 20.00     0.015 C 
BRANCH   5   6
HETATM    6  C7  UNL     1     -33.420  15.150  -4.306  1.00 20.00     0.053 C 
HETATM    7  C4  UNL     1     -34.564  14.152  -4.193  1.00 20.00     0.022 C 
HETATM    8 BR8  UNL     1     -33.390  15.825  -6.147  1.00 20.00    -0.092 Br
ENDBRANCH   5   6
ENDBRANCH   1   5
TORSDOF 3
ENDMDL
