MODEL 1
REMARK VINA RESULT:      -5.4      0.000      0.000
REMARK  2 active torsions:
REMARK  status: ('A' for Active; 'I' for Inactive)
REMARK    1  A    between atoms: C6_6  and  C7_7 
REMARK    2  A    between atoms: C8_8  and  O9_9 
ROOT
HETATM    1  C3  UNL     1     -34.138   6.034   3.080  1.00 20.00     0.007 C 
HETATM    2  C4  UNL     1     -35.284   5.670   4.013  1.00 20.00     0.032 C 
HETATM    3  C5  UNL     1     -33.648   7.022   5.231  1.00 20.00     0.036 C 
HETATM    4  C7  UNL     1     -33.572   7.298   3.722  1.00 20.00    -0.008 C 
HETATM    5  C8  UNL     1     -34.717   5.935   5.404  1.00 20.00     0.118 C 
ENDROOT
BRANCH   4   6
HETATM    6  C6  UNL     1     -32.171   7.634   3.244  1.00 20.00    -0.010 A 
HETATM    7  C1  UNL     1     -31.943   8.100   1.833  1.00 20.00     0.005 A 
HETATM    8  C2  UNL     1     -31.784   9.063   2.976  1.00 20.00     0.005 A 
ENDBRANCH   4   6
BRANCH   5   9
HETATM    9  O9  UNL     1     -34.109   4.740   5.888  1.00 20.00    -0.396 OA
HETATM   10  H23 UNL     1     -33.851   4.914   6.807  1.00 20.00     0.210 HD
ENDBRANCH   5   9
TORSDOF 2
ENDMDL
MODEL 2
REMARK VINA RESULT:      -5.2      1.196      1.910
REMARK  2 active torsions:
REMARK  status: ('A' for Active; 'I' for Inactive)
REMARK    1  A    between atoms: C6_6  and  C7_7 
REMARK    2  A    between atoms: C8_8  and  O9_9 
ROOT
HETATM    1  C3  UNL     1     -33.579   7.774   4.282  1.00 20.00     0.007 C 
HETATM    2  C4  UNL     1     -33.882   6.595   5.196  1.00 20.00     0.032 C 
HETATM    3  C5  UNL     1     -33.587   5.788   2.905  1.00 20.00     0.036 C 
HETATM    4  C7  UNL     1     -32.845   7.116   3.118  1.00 20.00    -0.008 C 
HETATM    5  C8  UNL     1     -34.294   5.487   4.232  1.00 20.00     0.118 C 
ENDROOT
BRANCH   4   6
HETATM    6  C6  UNL     1     -32.801   7.985   1.873  1.00 20.00    -0.010 A 
HETATM    7  C1  UNL     1     -32.421   9.436   1.975  1.00 20.00     0.005 A 
HETATM    8  C2  UNL     1     -31.482   8.457   1.326  1.00 20.00     0.005 A 
ENDBRANCH   4   6
BRANCH   5   9
HETATM    9  O9  UNL     1     -35.706   5.542   4.045  1.00 20.00    -0.396 OA
HETATM   10  H23 UNL     1     -36.092   5.752   4.909  1.00 20.00     0.210 HD
ENDBRANCH   5   9
TORSDOF 2
ENDMDL
MODEL 3
REMARK VINA RESULT:      -4.3     11.540     11.977
REMARK  2 active torsions:
REMARK  status: ('A' for Active; 'I' for Inactive)
REMARK    1  A    between atoms: C6_6  and  C7_7 
REMARK    2  A    between atoms: C8_8  and  O9_9 
ROOT
HETATM    1  C3  UNL     1     -33.788  14.873  -4.333  1.00 20.00     0.007 C 
HETATM    2  C4  UNL     1     -34.236  14.265  -5.654  1.00 20.00     0.032 C 
HETATM    3  C5  UNL     1     -36.197  15.045  -4.416  1.00 20.00     0.036 C 
HETATM    4  C7  UNL     1     -34.938  15.815  -3.990  1.00 20.00    -0.008 C 
HETATM    5  C8  UNL     1     -35.726  14.014  -5.450  1.00 20.00     0.118 C 
ENDROOT
BRANCH   4   6
HETATM    6  C6  UNL     1     -34.954  16.230  -2.529  1.00 20.00    -0.010 A 
HETATM    7  C1  UNL     1     -33.808  17.011  -1.951  1.00 20.00     0.005 A 
HETATM    8  C2  UNL     1     -35.142  17.674  -2.155  1.00 20.00     0.005 A 
ENDBRANCH   4   6
BRANCH   5   9
HETATM    9  O9  UNL     1     -35.904  12.700  -4.929  1.00 20.00    -0.396 OA
HETATM   10  H23 UNL     1     -36.282  12.802  -4.041  1.00 20.00     0.210 HD
ENDBRANCH   5   9
TORSDOF 2
ENDMDL
MODEL 4
REMARK VINA RESULT:      -4.1      2.298      4.065
REMARK  2 active torsions:
REMARK  status: ('A' for Active; 'I' for Inactive)
REMARK    1  A    between atoms: C6_6  and  C7_7 
REMARK    2  A    between atoms: C8_8  and  O9_9 
ROOT
HETATM    1  C3  UNL     1     -33.285   6.889   2.310  1.00 20.00     0.007 C 
HETATM    2  C4  UNL     1     -32.010   7.475   1.721  1.00 20.00     0.032 C 
HETATM    3  C5  UNL     1     -32.200   8.145   4.066  1.00 20.00     0.036 C 
HETATM    4  C7  UNL     1     -32.975   6.846   3.803  1.00 20.00    -0.008 C 
HETATM    5  C8  UNL     1     -31.625   8.571   2.709  1.00 20.00     0.118 C 
ENDROOT
BRANCH   4   6
HETATM    6  C6  UNL     1     -34.217   6.704   4.666  1.00 20.00    -0.010 A 
HETATM    7  C1  UNL     1     -35.188   5.583   4.418  1.00 20.00     0.005 A 
HETATM    8  C2  UNL     1     -34.328   5.573   5.652  1.00 20.00     0.005 A 
ENDBRANCH   4   6
BRANCH   5   9
HETATM    9  O9  UNL     1     -32.228   9.794   2.297  1.00 20.00    -0.396 OA
HETATM   10  H23 UNL     1     -32.504   9.671   1.375  1.00 20.00     0.210 HD
ENDBRANCH   5   9
TORSDOF 2
ENDMDL
MODEL 5
REMARK VINA RESULT:      -4.1     11.752     12.716
REMARK  2 active torsions:
REMARK  status: ('A' for Active; 'I' for Inactive)
REMARK    1  A    between atoms: C6_6  and  C7_7 
REMARK    2  A    between atoms: C8_8  and  O9_9 
ROOT
HETATM    1  C3  UNL     1     -33.217  16.085  -5.278  1.00 20.00     0.007 C 
HETATM    2  C4  UNL     1     -33.646  15.733  -6.695  1.00 20.00     0.032 C 
HETATM    3  C5  UNL     1     -35.244  14.782  -5.106  1.00 20.00     0.036 C 
HETATM    4  C7  UNL     1     -34.526  15.996  -4.500  1.00 20.00    -0.008 C 
HETATM    5  C8  UNL     1     -34.635  14.588  -6.500  1.00 20.00     0.118 C 
ENDROOT
BRANCH   4   6
HETATM    6  C6  UNL     1     -34.321  15.885  -2.999  1.00 20.00    -0.010 A 
HETATM    7  C1  UNL     1     -33.681  17.011  -2.236  1.00 20.00     0.005 A 
HETATM    8  C2  UNL     1     -35.146  16.719  -2.058  1.00 20.00     0.005 A 
ENDBRANCH   4   6
BRANCH   5   9
HETATM    9  O9  UNL     1     -33.924  13.354  -6.543  1.00 20.00    -0.396 OA
HETATM   10  H23 UNL     1     -33.444  13.340  -7.386  1.00 20.00     0.210 HD
ENDBRANCH   5   9
TORSDOF 2
ENDMDL
MODEL 6
REMARK VINA RESULT:      -3.9     11.345     12.356
REMARK  2 active torsions:
REMARK  status: ('A' for Active; 'I' for Inactive)
REMARK    1  A    between atoms: C6_6  and  C7_7 
REMARK    2  A    between atoms: C8_8  and  O9_9 
ROOT
HETATM    1  C3  UNL     1     -34.809  16.369  -5.174  1.00 20.00     0.007 C 
HETATM    2  C4  UNL     1     -35.559  15.332  -5.998  1.00 20.00     0.032 C 
HETATM    3  C5  UNL     1     -34.552  14.245  -4.052  1.00 20.00     0.036 C 
HETATM    4  C7  UNL     1     -34.785  15.739  -3.785  1.00 20.00    -0.008 C 
HETATM    5  C8  UNL     1     -35.005  14.003  -5.497  1.00 20.00     0.118 C 
ENDROOT
BRANCH   4   6
HETATM    6  C6  UNL     1     -33.741  16.355  -2.869  1.00 20.00    -0.010 A 
HETATM    7  C1  UNL     1     -33.624  17.849  -2.751  1.00 20.00     0.005 A 
HETATM    8  C2  UNL     1     -34.160  17.044  -1.600  1.00 20.00     0.005 A 
ENDBRANCH   4   6
BRANCH   5   9
HETATM    9  O9  UNL     1     -33.881  13.642  -6.296  1.00 20.00    -0.396 OA
HETATM   10  H23 UNL     1     -34.143  13.778  -7.220  1.00 20.00     0.210 HD
ENDBRANCH   5   9
TORSDOF 2
ENDMDL
MODEL 7
REMARK VINA RESULT:      -3.8     11.877     12.685
REMARK  2 active torsions:
REMARK  status: ('A' for Active; 'I' for Inactive)
REMARK    1  A    between atoms: C6_6  and  C7_7 
REMARK    2  A    between atoms: C8_8  and  O9_9 
ROOT
HETATM    1  C3  UNL     1     -34.503  15.025  -3.777  1.00 20.00     0.007 C 
HETATM    2  C4  UNL     1     -33.782  14.442  -4.984  1.00 20.00     0.032 C 
HETATM    3  C5  UNL     1     -33.335  16.844  -4.858  1.00 20.00     0.036 C 
HETATM    4  C7  UNL     1     -33.688  16.279  -3.474  1.00 20.00    -0.008 C 
HETATM    5  C8  UNL     1     -33.448  15.665  -5.832  1.00 20.00     0.118 C 
ENDROOT
BRANCH   4   6
HETATM    6  C6  UNL     1     -34.426  17.272  -2.592  1.00 20.00    -0.010 A 
HETATM    7  C1  UNL     1     -35.280  16.785  -1.455  1.00 20.00     0.005 A 
HETATM    8  C2  UNL     1     -33.985  17.496  -1.172  1.00 20.00     0.005 A 
ENDBRANCH   4   6
BRANCH   5   9
HETATM    9  O9  UNL     1     -34.519  15.898  -6.743  1.00 20.00    -0.396 OA
HETATM   10  H23 UNL     1     -34.797  15.030  -7.073  1.00 20.00     0.210 HD
ENDBRANCH   5   9
TORSDOF 2
ENDMDL
MODEL 8
REMARK VINA RESULT:      -3.8      1.915      3.948
REMARK  2 active torsions:
REMARK  status: ('A' for Active; 'I' for Inactive)
REMARK    1  A    between atoms: C6_6  and  C7_7 
REMARK    2  A    between atoms: C8_8  and  O9_9 
ROOT
HETATM    1  C3  UNL     1     -33.365   7.152   5.217  1.00 20.00     0.007 C 
HETATM    2  C4  UNL     1     -32.664   8.295   4.498  1.00 20.00     0.032 C 
HETATM    3  C5  UNL     1     -33.802   6.882   2.856  1.00 20.00     0.036 C 
HETATM    4  C7  UNL     1     -34.467   6.763   4.235  1.00 20.00    -0.008 C 
HETATM    5  C8  UNL     1     -32.611   7.830   3.046  1.00 20.00     0.118 C 
ENDROOT
BRANCH   4   6
HETATM    6  C6  UNL     1     -35.047   5.386   4.504  1.00 20.00    -0.010 A 
HETATM    7  C1  UNL     1     -34.204   4.157   4.307  1.00 20.00     0.005 A 
HETATM    8  C2  UNL     1     -34.587   4.591   5.695  1.00 20.00     0.005 A 
ENDBRANCH   4   6
BRANCH   5   9
HETATM    9  O9  UNL     1     -31.395   7.118   2.835  1.00 20.00    -0.396 OA
HETATM   10  H23 UNL     1     -31.482   6.667   1.981  1.00 20.00     0.210 HD
ENDBRANCH   5   9
TORSDOF 2
ENDMDL
MODEL 9
REMARK VINA RESULT:      -3.7      1.894      3.243
REMARK  2 active torsions:
REMARK  status: ('A' for Active; 'I' for Inactive)
REMARK    1  A    between atoms: C6_6  and  C7_7 
REMARK    2  A    between atoms: C8_8  and  O9_9 
ROOT
HETATM    1  C3  UNL     1     -31.817   9.018   2.944  1.00 20.00     0.007 C 
HETATM    2  C4  UNL     1     -31.552   7.920   3.964  1.00 20.00     0.032 C 
HETATM    3  C5  UNL     1     -33.346   7.210   2.460  1.00 20.00     0.036 C 
HETATM    4  C7  UNL     1     -32.444   8.251   1.783  1.00 20.00    -0.008 C 
HETATM    5  C8  UNL     1     -32.795   7.041   3.882  1.00 20.00     0.118 C 
ENDROOT
BRANCH   4   6
HETATM    6  C6  UNL     1     -33.189   9.148   0.809  1.00 20.00    -0.010 A 
HETATM    7  C1  UNL     1     -32.510  10.351   0.216  1.00 20.00     0.005 A 
HETATM    8  C2  UNL     1     -32.816   9.159  -0.647  1.00 20.00     0.005 A 
ENDBRANCH   4   6
BRANCH   5   9
HETATM    9  O9  UNL     1     -33.754   7.511   4.825  1.00 20.00    -0.396 OA
HETATM   10  H23 UNL     1     -33.999   6.751   5.375  1.00 20.00     0.210 HD
ENDBRANCH   5   9
TORSDOF 2
ENDMDL
