MODEL 1
REMARK VINA RESULT:      -6.1      0.000      0.000
REMARK  7 active torsions:
REMARK  status: ('A' for Active; 'I' for Inactive)
REMARK    1  A    between atoms: C4_4  and  C8_8 
REMARK    2  A    between atoms: C5_5  and  C6_6 
REMARK    3  A    between atoms: C5_5  and  C7_7 
REMARK    4  A    between atoms: C6_6  and  C9_9 
REMARK    5  A    between atoms: C7_7  and  C10_10 
REMARK    6  A    between atoms: C8_8  and  C11_11 
REMARK    7  A    between atoms: C9_9  and  C11_11 
ROOT
HETATM    1  C6  UNL     1     -31.910   7.688   3.563  1.00 20.00     0.001 C 
ENDROOT
BRANCH   1   2
HETATM    2  C5  UNL     1     -31.354   8.797   2.662  1.00 20.00     0.000 C 
BRANCH   2   3
HETATM    3  C7  UNL     1     -31.621   8.555   1.173  1.00 20.00     0.004 C 
BRANCH   3   4
HETATM    4  C10 UNL     1     -32.235   9.772   0.457  1.00 20.00    -0.023 C 
HETATM    5  C2  UNL     1     -32.881  10.706   1.483  1.00 20.00     0.009 C 
HETATM    6  C3  UNL     1     -33.268   9.370  -0.597  1.00 20.00     0.009 C 
ENDBRANCH   3   4
ENDBRANCH   2   3
ENDBRANCH   1   2
BRANCH   1   7
HETATM    7  C9  UNL     1     -33.248   7.122   3.069  1.00 20.00     0.020 C 
BRANCH   7   8
HETATM    8  C11 UNL     1     -34.348   7.124   4.143  1.00 20.00     0.082 C 
HETATM    9 CL12 UNL     1     -33.616   7.287   5.777  1.00 20.00    -0.125 Cl
BRANCH   8  10
HETATM   10  C8  UNL     1     -35.208   5.850   4.133  1.00 20.00     0.020 C 
BRANCH  10  11
HETATM   11  C4  UNL     1     -34.681   4.753   5.062  1.00 20.00    -0.003 C 
HETATM   12  C1  UNL     1     -33.879   3.713   4.292  1.00 20.00     0.005 C 
ENDBRANCH  10  11
ENDBRANCH   8  10
ENDBRANCH   7   8
ENDBRANCH   1   7
TORSDOF 7
ENDMDL
MODEL 2
REMARK VINA RESULT:      -5.9      1.499      2.302
REMARK  7 active torsions:
REMARK  status: ('A' for Active; 'I' for Inactive)
REMARK    1  A    between atoms: C4_4  and  C8_8 
REMARK    2  A    between atoms: C5_5  and  C6_6 
REMARK    3  A    between atoms: C5_5  and  C7_7 
REMARK    4  A    between atoms: C6_6  and  C9_9 
REMARK    5  A    between atoms: C7_7  and  C10_10 
REMARK    6  A    between atoms: C8_8  and  C11_11 
REMARK    7  A    between atoms: C9_9  and  C11_11 
ROOT
HETATM    1  C6  UNL     1     -33.263   6.541   2.331  1.00 20.00     0.001 C 
ENDROOT
BRANCH   1   2
HETATM    2  C5  UNL     1     -32.172   7.530   2.759  1.00 20.00     0.000 C 
BRANCH   2   3
HETATM    3  C7  UNL     1     -31.719   8.457   1.626  1.00 20.00     0.004 C 
BRANCH   3   4
HETATM    4  C10 UNL     1     -32.844   9.368   1.097  1.00 20.00    -0.023 C 
HETATM    5  C2  UNL     1     -32.958   9.221  -0.423  1.00 20.00     0.009 C 
HETATM    6  C3  UNL     1     -32.623  10.837   1.459  1.00 20.00     0.009 C 
ENDBRANCH   3   4
ENDBRANCH   2   3
ENDBRANCH   1   2
BRANCH   1   7
HETATM    7  C9  UNL     1     -33.162   5.186   3.044  1.00 20.00     0.020 C 
BRANCH   7   8
HETATM    8  C11 UNL     1     -34.397   4.849   3.895  1.00 20.00     0.082 C 
HETATM    9 CL12 UNL     1     -35.733   5.994   3.527  1.00 20.00    -0.125 Cl
BRANCH   8  10
HETATM   10  C8  UNL     1     -34.125   4.907   5.408  1.00 20.00     0.020 C 
BRANCH  10  11
HETATM   11  C4  UNL     1     -34.644   6.186   6.070  1.00 20.00    -0.003 C 
HETATM   12  C1  UNL     1     -33.618   7.307   5.990  1.00 20.00     0.005 C 
ENDBRANCH  10  11
ENDBRANCH   8  10
ENDBRANCH   7   8
ENDBRANCH   1   7
TORSDOF 7
ENDMDL
MODEL 3
REMARK VINA RESULT:      -5.6      1.421      5.494
REMARK  7 active torsions:
REMARK  status: ('A' for Active; 'I' for Inactive)
REMARK    1  A    between atoms: C4_4  and  C8_8 
REMARK    2  A    between atoms: C5_5  and  C6_6 
REMARK    3  A    between atoms: C5_5  and  C7_7 
REMARK    4  A    between atoms: C6_6  and  C9_9 
REMARK    5  A    between atoms: C7_7  and  C10_10 
REMARK    6  A    between atoms: C8_8  and  C11_11 
REMARK    7  A    between atoms: C9_9  and  C11_11 
ROOT
HETATM    1  C6  UNL     1     -32.776   5.853   2.603  1.00 20.00     0.001 C 
ENDROOT
BRANCH   1   2
HETATM    2  C5  UNL     1     -33.916   5.033   3.219  1.00 20.00     0.000 C 
BRANCH   2   3
HETATM    3  C7  UNL     1     -34.983   5.897   3.898  1.00 20.00     0.004 C 
BRANCH   3   4
HETATM    4  C10 UNL     1     -34.853   5.932   5.433  1.00 20.00    -0.023 C 
HETATM    5  C2  UNL     1     -33.924   7.075   5.849  1.00 20.00     0.009 C 
HETATM    6  C3  UNL     1     -34.336   4.612   6.005  1.00 20.00     0.009 C 
ENDBRANCH   3   4
ENDBRANCH   2   3
ENDBRANCH   1   2
BRANCH   1   7
HETATM    7  C9  UNL     1     -33.184   7.294   2.264  1.00 20.00     0.020 C 
BRANCH   7   8
HETATM    8  C11 UNL     1     -31.998   8.272   2.224  1.00 20.00     0.082 C 
HETATM    9 CL12 UNL     1     -31.264   8.421   3.858  1.00 20.00    -0.125 Cl
BRANCH   8  10
HETATM   10  C8  UNL     1     -32.391   9.681   1.749  1.00 20.00     0.020 C 
BRANCH  10  11
HETATM   11  C4  UNL     1     -32.112   9.921   0.263  1.00 20.00    -0.003 C 
HETATM   12  C1  UNL     1     -33.259   9.421  -0.604  1.00 20.00     0.005 C 
ENDBRANCH  10  11
ENDBRANCH   8  10
ENDBRANCH   7   8
ENDBRANCH   1   7
TORSDOF 7
ENDMDL
MODEL 4
REMARK VINA RESULT:      -5.2      1.461      5.357
REMARK  7 active torsions:
REMARK  status: ('A' for Active; 'I' for Inactive)
REMARK    1  A    between atoms: C4_4  and  C8_8 
REMARK    2  A    between atoms: C5_5  and  C6_6 
REMARK    3  A    between atoms: C5_5  and  C7_7 
REMARK    4  A    between atoms: C6_6  and  C9_9 
REMARK    5  A    between atoms: C7_7  and  C10_10 
REMARK    6  A    between atoms: C8_8  and  C11_11 
REMARK    7  A    between atoms: C9_9  and  C11_11 
ROOT
HETATM    1  C6  UNL     1     -32.501   8.233   5.241  1.00 20.00     0.001 C 
ENDROOT
BRANCH   1   2
HETATM    2  C5  UNL     1     -33.896   7.626   5.047  1.00 20.00     0.000 C 
BRANCH   2   3
HETATM    3  C7  UNL     1     -34.088   6.303   5.794  1.00 20.00     0.004 C 
BRANCH   3   4
HETATM    4  C10 UNL     1     -34.943   5.283   5.018  1.00 20.00    -0.023 C 
HETATM    5  C2  UNL     1     -34.100   4.052   4.675  1.00 20.00     0.009 C 
HETATM    6  C3  UNL     1     -35.538   5.874   3.739  1.00 20.00     0.009 C 
ENDBRANCH   3   4
ENDBRANCH   2   3
ENDBRANCH   1   2
BRANCH   1   7
HETATM    7  C9  UNL     1     -31.630   8.159   3.980  1.00 20.00     0.020 C 
BRANCH   7   8
HETATM    8  C11 UNL     1     -32.432   7.887   2.697  1.00 20.00     0.082 C 
HETATM    9 CL12 UNL     1     -32.467   6.123   2.352  1.00 20.00    -0.125 Cl
BRANCH   8  10
HETATM   10  C8  UNL     1     -31.859   8.601   1.461  1.00 20.00     0.020 C 
BRANCH  10  11
HETATM   11  C4  UNL     1     -32.724   9.769   0.979  1.00 20.00    -0.003 C 
HETATM   12  C1  UNL     1     -33.157   9.578  -0.467  1.00 20.00     0.005 C 
ENDBRANCH  10  11
ENDBRANCH   8  10
ENDBRANCH   7   8
ENDBRANCH   1   7
TORSDOF 7
ENDMDL
MODEL 5
REMARK VINA RESULT:      -4.9      1.564      5.532
REMARK  7 active torsions:
REMARK  status: ('A' for Active; 'I' for Inactive)
REMARK    1  A    between atoms: C4_4  and  C8_8 
REMARK    2  A    between atoms: C5_5  and  C6_6 
REMARK    3  A    between atoms: C5_5  and  C7_7 
REMARK    4  A    between atoms: C6_6  and  C9_9 
REMARK    5  A    between atoms: C7_7  and  C10_10 
REMARK    6  A    between atoms: C8_8  and  C11_11 
REMARK    7  A    between atoms: C9_9  and  C11_11 
ROOT
HETATM    1  C6  UNL     1     -32.973   6.711   2.219  1.00 20.00     0.001 C 
ENDROOT
BRANCH   1   2
HETATM    2  C5  UNL     1     -33.724   5.593   2.952  1.00 20.00     0.000 C 
BRANCH   2   3
HETATM    3  C7  UNL     1     -34.946   6.095   3.727  1.00 20.00     0.004 C 
BRANCH   3   4
HETATM    4  C10 UNL     1     -34.870   5.807   5.239  1.00 20.00    -0.023 C 
HETATM    5  C2  UNL     1     -34.021   6.877   5.930  1.00 20.00     0.009 C 
HETATM    6  C3  UNL     1     -34.300   4.421   5.540  1.00 20.00     0.009 C 
ENDBRANCH   3   4
ENDBRANCH   2   3
ENDBRANCH   1   2
BRANCH   1   7
HETATM    7  C9  UNL     1     -32.185   7.629   3.162  1.00 20.00     0.020 C 
BRANCH   7   8
HETATM    8  C11 UNL     1     -31.432   8.755   2.433  1.00 20.00     0.082 C 
HETATM    9 CL12 UNL     1     -32.128  10.352   2.876  1.00 20.00    -0.125 Cl
BRANCH   8  10
HETATM   10  C8  UNL     1     -31.481   8.623   0.902  1.00 20.00     0.020 C 
BRANCH  10  11
HETATM   11  C4  UNL     1     -32.162   9.808   0.211  1.00 20.00    -0.003 C 
HETATM   12  C1  UNL     1     -33.352   9.354  -0.621  1.00 20.00     0.005 C 
ENDBRANCH  10  11
ENDBRANCH   8  10
ENDBRANCH   7   8
ENDBRANCH   1   7
TORSDOF 7
ENDMDL
MODEL 6
REMARK VINA RESULT:      -4.6      1.975      5.351
REMARK  7 active torsions:
REMARK  status: ('A' for Active; 'I' for Inactive)
REMARK    1  A    between atoms: C4_4  and  C8_8 
REMARK    2  A    between atoms: C5_5  and  C6_6 
REMARK    3  A    between atoms: C5_5  and  C7_7 
REMARK    4  A    between atoms: C6_6  and  C9_9 
REMARK    5  A    between atoms: C7_7  and  C10_10 
REMARK    6  A    between atoms: C8_8  and  C11_11 
REMARK    7  A    between atoms: C9_9  and  C11_11 
ROOT
HETATM    1  C6  UNL     1     -32.424   8.439   4.473  1.00 20.00     0.001 C 
ENDROOT
BRANCH   1   2
HETATM    2  C5  UNL     1     -33.193   7.223   5.004  1.00 20.00     0.000 C 
BRANCH   2   3
HETATM    3  C7  UNL     1     -34.436   6.886   4.176  1.00 20.00     0.004 C 
BRANCH   3   4
HETATM    4  C10 UNL     1     -34.497   5.409   3.740  1.00 20.00    -0.023 C 
HETATM    5  C2  UNL     1     -34.580   4.507   4.974  1.00 20.00     0.009 C 
HETATM    6  C3  UNL     1     -33.297   5.004   2.884  1.00 20.00     0.009 C 
ENDBRANCH   3   4
ENDBRANCH   2   3
ENDBRANCH   1   2
BRANCH   1   7
HETATM    7  C9  UNL     1     -31.465   8.092   3.326  1.00 20.00     0.020 C 
BRANCH   7   8
HETATM    8  C11 UNL     1     -32.050   8.375   1.932  1.00 20.00     0.082 C 
HETATM    9 CL12 UNL     1     -30.744   8.349   0.697  1.00 20.00    -0.125 Cl
BRANCH   8  10
HETATM   10  C8  UNL     1     -32.765   9.733   1.840  1.00 20.00     0.020 C 
BRANCH  10  11
HETATM   11  C4  UNL     1     -32.701  10.361   0.445  1.00 20.00    -0.003 C 
HETATM   12  C1  UNL     1     -33.341   9.457  -0.599  1.00 20.00     0.005 C 
ENDBRANCH  10  11
ENDBRANCH   8  10
ENDBRANCH   7   8
ENDBRANCH   1   7
TORSDOF 7
ENDMDL
MODEL 7
REMARK VINA RESULT:      -4.2     10.365     11.365
REMARK  7 active torsions:
REMARK  status: ('A' for Active; 'I' for Inactive)
REMARK    1  A    between atoms: C4_4  and  C8_8 
REMARK    2  A    between atoms: C5_5  and  C6_6 
REMARK    3  A    between atoms: C5_5  and  C7_7 
REMARK    4  A    between atoms: C6_6  and  C9_9 
REMARK    5  A    between atoms: C7_7  and  C10_10 
REMARK    6  A    between atoms: C8_8  and  C11_11 
REMARK    7  A    between atoms: C9_9  and  C11_11 
ROOT
HETATM    1  C6  UNL     1     -34.797  16.266  -2.639  1.00 20.00     0.001 C 
ENDROOT
BRANCH   1   2
HETATM    2  C5  UNL     1     -34.560  17.124  -1.391  1.00 20.00     0.000 C 
BRANCH   2   3
HETATM    3  C7  UNL     1     -33.173  17.774  -1.359  1.00 20.00     0.004 C 
BRANCH   3   4
HETATM    4  C10 UNL     1     -32.984  18.750  -0.182  1.00 20.00    -0.023 C 
HETATM    5  C2  UNL     1     -31.564  18.621   0.376  1.00 20.00     0.009 C 
HETATM    6  C3  UNL     1     -34.001  18.519   0.936  1.00 20.00     0.009 C 
ENDBRANCH   3   4
ENDBRANCH   2   3
ENDBRANCH   1   2
BRANCH   1   7
HETATM    7  C9  UNL     1     -33.593  16.240  -3.591  1.00 20.00     0.020 C 
BRANCH   7   8
HETATM    8  C11 UNL     1     -33.513  14.962  -4.442  1.00 20.00     0.082 C 
HETATM    9 CL12 UNL     1     -33.580  15.378  -6.190  1.00 20.00    -0.125 Cl
BRANCH   8  10
HETATM   10  C8  UNL     1     -34.647  13.966  -4.148  1.00 20.00     0.020 C 
BRANCH  10  11
HETATM   11  C4  UNL     1     -35.570  13.722  -5.345  1.00 20.00    -0.003 C 
HETATM   12  C1  UNL     1     -36.959  14.293  -5.099  1.00 20.00     0.005 C 
ENDBRANCH  10  11
ENDBRANCH   8  10
ENDBRANCH   7   8
ENDBRANCH   1   7
TORSDOF 7
ENDMDL
MODEL 8
REMARK VINA RESULT:      -4.1     10.694     11.930
REMARK  7 active torsions:
REMARK  status: ('A' for Active; 'I' for Inactive)
REMARK    1  A    between atoms: C4_4  and  C8_8 
REMARK    2  A    between atoms: C5_5  and  C6_6 
REMARK    3  A    between atoms: C5_5  and  C7_7 
REMARK    4  A    between atoms: C6_6  and  C9_9 
REMARK    5  A    between atoms: C7_7  and  C10_10 
REMARK    6  A    between atoms: C8_8  and  C11_11 
REMARK    7  A    between atoms: C9_9  and  C11_11 
ROOT
HETATM    1  C6  UNL     1     -33.263  15.902  -6.588  1.00 20.00     0.001 C 
ENDROOT
BRANCH   1   2
HETATM    2  C5  UNL     1     -34.157  15.235  -7.640  1.00 20.00     0.000 C 
BRANCH   2   3
HETATM    3  C7  UNL     1     -34.463  13.767  -7.329  1.00 20.00     0.004 C 
BRANCH   3   4
HETATM    4  C10 UNL     1     -35.912  13.532  -6.862  1.00 20.00    -0.023 C 
HETATM    5  C2  UNL     1     -36.799  14.694  -7.316  1.00 20.00     0.009 C 
HETATM    6  C3  UNL     1     -36.016  13.365  -5.345  1.00 20.00     0.009 C 
ENDBRANCH   3   4
ENDBRANCH   2   3
ENDBRANCH   1   2
BRANCH   1   7
HETATM    7  C9  UNL     1     -34.057  16.554  -5.448  1.00 20.00     0.020 C 
BRANCH   7   8
HETATM    8  C11 UNL     1     -33.622  16.080  -4.051  1.00 20.00     0.082 C 
HETATM    9 CL12 UNL     1     -32.835  14.468  -4.162  1.00 20.00    -0.125 Cl
BRANCH   8  10
HETATM   10  C8  UNL     1     -34.791  15.970  -3.058  1.00 20.00     0.020 C 
BRANCH  10  11
HETATM   11  C4  UNL     1     -34.608  16.832  -1.806  1.00 20.00    -0.003 C 
HETATM   12  C1  UNL     1     -33.251  17.520  -1.800  1.00 20.00     0.005 C 
ENDBRANCH  10  11
ENDBRANCH   8  10
ENDBRANCH   7   8
ENDBRANCH   1   7
TORSDOF 7
ENDMDL
MODEL 9
REMARK VINA RESULT:      -4.1     10.468     11.482
REMARK  7 active torsions:
REMARK  status: ('A' for Active; 'I' for Inactive)
REMARK    1  A    between atoms: C4_4  and  C8_8 
REMARK    2  A    between atoms: C5_5  and  C6_6 
REMARK    3  A    between atoms: C5_5  and  C7_7 
REMARK    4  A    between atoms: C6_6  and  C9_9 
REMARK    5  A    between atoms: C7_7  and  C10_10 
REMARK    6  A    between atoms: C8_8  and  C11_11 
REMARK    7  A    between atoms: C9_9  and  C11_11 
ROOT
HETATM    1  C6  UNL     1     -33.609  14.882  -4.587  1.00 20.00     0.001 C 
ENDROOT
BRANCH   1   2
HETATM    2  C5  UNL     1     -33.652  16.210  -3.823  1.00 20.00     0.000 C 
BRANCH   2   3
HETATM    3  C7  UNL     1     -34.675  16.219  -2.683  1.00 20.00     0.004 C 
BRANCH   3   4
HETATM    4  C10 UNL     1     -34.566  17.458  -1.774  1.00 20.00    -0.023 C 
HETATM    5  C2  UNL     1     -33.095  17.748  -1.467  1.00 20.00     0.009 C 
HETATM    6  C3  UNL     1     -35.344  17.293  -0.468  1.00 20.00     0.009 C 
ENDBRANCH   3   4
ENDBRANCH   2   3
ENDBRANCH   1   2
BRANCH   1   7
HETATM    7  C9  UNL     1     -34.818  13.982  -4.300  1.00 20.00     0.020 C 
BRANCH   7   8
HETATM    8  C11 UNL     1     -35.602  13.588  -5.563  1.00 20.00     0.082 C 
HETATM    9 CL12 UNL     1     -34.503  13.550  -6.986  1.00 20.00    -0.125 Cl
BRANCH   8  10
HETATM   10  C8  UNL     1     -36.759  14.549  -5.882  1.00 20.00     0.020 C 
BRANCH  10  11
HETATM   11  C4  UNL     1     -37.647  14.854  -4.672  1.00 20.00    -0.003 C 
HETATM   12  C1  UNL     1     -37.833  16.353  -4.487  1.00 20.00     0.005 C 
ENDBRANCH  10  11
ENDBRANCH   8  10
ENDBRANCH   7   8
ENDBRANCH   1   7
TORSDOF 7
ENDMDL
