MODEL 1
REMARK VINA RESULT:      -5.1      0.000      0.000
REMARK  1 active torsions:
REMARK  status: ('A' for Active; 'I' for Inactive)
REMARK    1  A    between atoms: C4_4  and  C8_8 
ROOT
HETATM    1  C1  UNL     1     -34.506   4.395   5.133  1.00 20.00     0.135 A 
HETATM    2  C2  UNL     1     -34.524   5.590   5.819  1.00 20.00     0.136 A 
HETATM    3  C3  UNL     1     -33.697   5.470   3.284  1.00 20.00     0.143 A 
HETATM    4  C4  UNL     1     -33.716   6.665   3.969  1.00 20.00     0.056 A 
HETATM    5  N10 UNL     1     -34.092   4.314   3.853  1.00 20.00    -0.270 NA
HETATM    6  N11 UNL     1     -34.129   6.746   5.250  1.00 20.00    -0.262 NA
ENDROOT
BRANCH   4   7
HETATM    7  C8  UNL     1     -33.265   7.942   3.298  1.00 20.00     0.041 C 
HETATM    8  C5  UNL     1     -31.842   8.403   3.684  1.00 20.00     0.012 C 
HETATM    9  C6  UNL     1     -31.059   8.481   2.374  1.00 20.00     0.021 C 
HETATM   10  C9  UNL     1     -32.114   8.724   1.303  1.00 20.00     0.083 C 
HETATM   11  C7  UNL     1     -33.264   7.835   1.761  1.00 20.00     0.031 C 
HETATM   12 CL12 UNL     1     -32.607  10.441   1.271  1.00 20.00    -0.125 Cl
ENDBRANCH   4   7
TORSDOF 1
ENDMDL
MODEL 2
REMARK VINA RESULT:      -4.8     11.048     12.101
REMARK  1 active torsions:
REMARK  status: ('A' for Active; 'I' for Inactive)
REMARK    1  A    between atoms: C4_4  and  C8_8 
ROOT
HETATM    1  C1  UNL     1     -35.422  12.980  -6.734  1.00 20.00     0.135 A 
HETATM    2  C2  UNL     1     -34.495  13.905  -7.164  1.00 20.00     0.136 A 
HETATM    3  C3  UNL     1     -35.293  13.837  -4.618  1.00 20.00     0.143 A 
HETATM    4  C4  UNL     1     -34.366  14.760  -5.047  1.00 20.00     0.056 A 
HETATM    5  N10 UNL     1     -35.838  12.930  -5.453  1.00 20.00    -0.270 NA
HETATM    6  N11 UNL     1     -33.951  14.812  -6.329  1.00 20.00    -0.262 NA
ENDROOT
BRANCH   4   7
HETATM    7  C8  UNL     1     -33.776  15.762  -4.081  1.00 20.00     0.041 C 
HETATM    8  C5  UNL     1     -33.419  17.127  -4.711  1.00 20.00     0.012 C 
HETATM    9  C6  UNL     1     -34.215  18.169  -3.927  1.00 20.00     0.021 C 
HETATM   10  C9  UNL     1     -34.443  17.539  -2.559  1.00 20.00     0.083 C 
HETATM   11  C7  UNL     1     -34.722  16.081  -2.907  1.00 20.00     0.031 C 
HETATM   12 CL12 UNL     1     -32.984  17.683  -1.538  1.00 20.00    -0.125 Cl
ENDBRANCH   4   7
TORSDOF 1
ENDMDL
MODEL 3
REMARK VINA RESULT:      -4.7     10.828     11.773
REMARK  1 active torsions:
REMARK  status: ('A' for Active; 'I' for Inactive)
REMARK    1  A    between atoms: C4_4  and  C8_8 
ROOT
HETATM    1  C1  UNL     1     -36.565  13.635  -5.207  1.00 20.00     0.135 A 
HETATM    2  C2  UNL     1     -37.000  14.883  -4.819  1.00 20.00     0.136 A 
HETATM    3  C3  UNL     1     -34.521  14.057  -4.272  1.00 20.00     0.143 A 
HETATM    4  C4  UNL     1     -34.955  15.306  -3.885  1.00 20.00     0.056 A 
HETATM    5  N10 UNL     1     -35.317  13.199  -4.940  1.00 20.00    -0.270 NA
HETATM    6  N11 UNL     1     -36.203  15.741  -4.151  1.00 20.00    -0.262 NA
ENDROOT
BRANCH   4   7
HETATM    7  C8  UNL     1     -34.033  16.241  -3.138  1.00 20.00     0.041 C 
HETATM    8  C5  UNL     1     -33.578  17.476  -3.947  1.00 20.00     0.012 C 
HETATM    9  C6  UNL     1     -34.025  18.693  -3.137  1.00 20.00     0.021 C 
HETATM   10  C9  UNL     1     -34.090  18.201  -1.697  1.00 20.00     0.083 C 
HETATM   11  C7  UNL     1     -34.671  16.799  -1.851  1.00 20.00     0.031 C 
HETATM   12 CL12 UNL     1     -32.461  18.140  -0.968  1.00 20.00    -0.125 Cl
ENDBRANCH   4   7
TORSDOF 1
ENDMDL
MODEL 4
REMARK VINA RESULT:      -4.6     11.589     12.110
REMARK  1 active torsions:
REMARK  status: ('A' for Active; 'I' for Inactive)
REMARK    1  A    between atoms: C4_4  and  C8_8 
ROOT
HETATM    1  C1  UNL     1     -31.198  18.858   2.544  1.00 20.00     0.135 A 
HETATM    2  C2  UNL     1     -32.552  18.762   2.782  1.00 20.00     0.136 A 
HETATM    3  C3  UNL     1     -31.583  18.702   0.295  1.00 20.00     0.143 A 
HETATM    4  C4  UNL     1     -32.936  18.604   0.533  1.00 20.00     0.056 A 
HETATM    5  N10 UNL     1     -30.690  18.830   1.296  1.00 20.00    -0.270 NA
HETATM    6  N11 UNL     1     -33.445  18.634   1.781  1.00 20.00    -0.262 NA
ENDROOT
BRANCH   4   7
HETATM    7  C8  UNL     1     -33.909  18.461  -0.615  1.00 20.00     0.041 C 
HETATM    8  C5  UNL     1     -33.284  17.930  -1.924  1.00 20.00     0.012 C 
HETATM    9  C6  UNL     1     -34.058  16.658  -2.269  1.00 20.00     0.021 C 
HETATM   10  C9  UNL     1     -35.423  16.844  -1.620  1.00 20.00     0.083 C 
HETATM   11  C7  UNL     1     -35.072  17.504  -0.291  1.00 20.00     0.031 C 
HETATM   12 CL12 UNL     1     -36.461  17.911  -2.608  1.00 20.00    -0.125 Cl
ENDBRANCH   4   7
TORSDOF 1
ENDMDL
MODEL 5
REMARK VINA RESULT:      -4.6      3.115      5.006
REMARK  1 active torsions:
REMARK  status: ('A' for Active; 'I' for Inactive)
REMARK    1  A    between atoms: C4_4  and  C8_8 
ROOT
HETATM    1  C1  UNL     1     -32.245  10.140   0.636  1.00 20.00     0.135 A 
HETATM    2  C2  UNL     1     -31.444   9.020   0.603  1.00 20.00     0.136 A 
HETATM    3  C3  UNL     1     -33.519   9.180   2.276  1.00 20.00     0.143 A 
HETATM    4  C4  UNL     1     -32.718   8.059   2.242  1.00 20.00     0.056 A 
HETATM    5  N10 UNL     1     -33.297  10.240   1.474  1.00 20.00    -0.270 NA
HETATM    6  N11 UNL     1     -31.665   7.960   1.405  1.00 20.00    -0.262 NA
ENDROOT
BRANCH   4   7
HETATM    7  C8  UNL     1     -32.998   6.889   3.156  1.00 20.00     0.041 C 
HETATM    8  C5  UNL     1     -33.015   7.240   4.661  1.00 20.00     0.012 C 
HETATM    9  C6  UNL     1     -34.397   6.828   5.168  1.00 20.00     0.021 C 
HETATM   10  C9  UNL     1     -34.847   5.722   4.223  1.00 20.00     0.083 C 
HETATM   11  C7  UNL     1     -34.357   6.223   2.869  1.00 20.00     0.031 C 
HETATM   12 CL12 UNL     1     -34.075   4.168   4.645  1.00 20.00    -0.125 Cl
ENDBRANCH   4   7
TORSDOF 1
ENDMDL
MODEL 6
REMARK VINA RESULT:      -4.6      3.130      4.870
REMARK  1 active torsions:
REMARK  status: ('A' for Active; 'I' for Inactive)
REMARK    1  A    between atoms: C4_4  and  C8_8 
ROOT
HETATM    1  C1  UNL     1     -32.219  10.108   0.579  1.00 20.00     0.135 A 
HETATM    2  C2  UNL     1     -33.263  10.159   1.477  1.00 20.00     0.136 A 
HETATM    3  C3  UNL     1     -31.670   8.021   1.338  1.00 20.00     0.143 A 
HETATM    4  C4  UNL     1     -32.712   8.073   2.237  1.00 20.00     0.056 A 
HETATM    5  N10 UNL     1     -31.404   9.038   0.494  1.00 20.00    -0.270 NA
HETATM    6  N11 UNL     1     -33.529   9.143   2.322  1.00 20.00    -0.262 NA
ENDROOT
BRANCH   4   7
HETATM    7  C8  UNL     1     -32.980   6.914   3.169  1.00 20.00     0.041 C 
HETATM    8  C5  UNL     1     -33.000   7.287   4.668  1.00 20.00     0.012 C 
HETATM    9  C6  UNL     1     -34.377   6.870   5.183  1.00 20.00     0.021 C 
HETATM   10  C9  UNL     1     -34.817   5.746   4.254  1.00 20.00     0.083 C 
HETATM   11  C7  UNL     1     -34.333   6.231   2.893  1.00 20.00     0.031 C 
HETATM   12 CL12 UNL     1     -34.031   4.205   4.699  1.00 20.00    -0.125 Cl
ENDBRANCH   4   7
TORSDOF 1
ENDMDL
MODEL 7
REMARK VINA RESULT:      -4.5     11.093     12.098
REMARK  1 active torsions:
REMARK  status: ('A' for Active; 'I' for Inactive)
REMARK    1  A    between atoms: C4_4  and  C8_8 
ROOT
HETATM    1  C1  UNL     1     -33.961  14.705  -6.347  1.00 20.00     0.135 A 
HETATM    2  C2  UNL     1     -33.591  15.995  -6.036  1.00 20.00     0.136 A 
HETATM    3  C3  UNL     1     -34.675  14.393  -4.196  1.00 20.00     0.143 A 
HETATM    4  C4  UNL     1     -34.303  15.682  -3.885  1.00 20.00     0.056 A 
HETATM    5  N10 UNL     1     -34.511  13.881  -5.432  1.00 20.00    -0.270 NA
HETATM    6  N11 UNL     1     -33.756  16.507  -4.800  1.00 20.00    -0.262 NA
ENDROOT
BRANCH   4   7
HETATM    7  C8  UNL     1     -34.503  16.222  -2.487  1.00 20.00     0.041 C 
HETATM    8  C5  UNL     1     -33.419  17.221  -2.025  1.00 20.00     0.012 C 
HETATM    9  C6  UNL     1     -34.163  18.510  -1.676  1.00 20.00     0.021 C 
HETATM   10  C9  UNL     1     -35.570  18.060  -1.305  1.00 20.00     0.083 C 
HETATM   11  C7  UNL     1     -35.846  16.958  -2.322  1.00 20.00     0.031 C 
HETATM   12 CL12 UNL     1     -35.618  17.417   0.361  1.00 20.00    -0.125 Cl
ENDBRANCH   4   7
TORSDOF 1
ENDMDL
MODEL 8
REMARK VINA RESULT:      -4.3     11.329     12.076
REMARK  1 active torsions:
REMARK  status: ('A' for Active; 'I' for Inactive)
REMARK    1  A    between atoms: C4_4  and  C8_8 
ROOT
HETATM    1  C1  UNL     1     -32.960  18.859  -0.016  1.00 20.00     0.135 A 
HETATM    2  C2  UNL     1     -34.177  18.303   0.312  1.00 20.00     0.136 A 
HETATM    3  C3  UNL     1     -32.962  17.697  -1.986  1.00 20.00     0.143 A 
HETATM    4  C4  UNL     1     -34.178  17.140  -1.657  1.00 20.00     0.056 A 
HETATM    5  N10 UNL     1     -32.331  18.566  -1.172  1.00 20.00    -0.270 NA
HETATM    6  N11 UNL     1     -34.809  17.434  -0.502  1.00 20.00    -0.262 NA
ENDROOT
BRANCH   4   7
HETATM    7  C8  UNL     1     -34.856  16.169  -2.596  1.00 20.00     0.041 C 
HETATM    8  C5  UNL     1     -36.074  16.748  -3.349  1.00 20.00     0.012 C 
HETATM    9  C6  UNL     1     -35.757  16.592  -4.836  1.00 20.00     0.021 C 
HETATM   10  C9  UNL     1     -34.792  15.417  -4.909  1.00 20.00     0.083 C 
HETATM   11  C7  UNL     1     -33.907  15.638  -3.687  1.00 20.00     0.031 C 
HETATM   12 CL12 UNL     1     -35.666  13.864  -4.790  1.00 20.00    -0.125 Cl
ENDBRANCH   4   7
TORSDOF 1
ENDMDL
MODEL 9
REMARK VINA RESULT:      -4.2      1.082      1.580
REMARK  1 active torsions:
REMARK  status: ('A' for Active; 'I' for Inactive)
REMARK    1  A    between atoms: C4_4  and  C8_8 
ROOT
HETATM    1  C1  UNL     1     -34.719   4.951   5.630  1.00 20.00     0.135 A 
HETATM    2  C2  UNL     1     -34.330   6.264   5.783  1.00 20.00     0.136 A 
HETATM    3  C3  UNL     1     -33.898   4.957   3.495  1.00 20.00     0.143 A 
HETATM    4  C4  UNL     1     -33.510   6.270   3.647  1.00 20.00     0.056 A 
HETATM    5  N10 UNL     1     -34.509   4.274   4.483  1.00 20.00    -0.270 NA
HETATM    6  N11 UNL     1     -33.718   6.948   4.794  1.00 20.00    -0.262 NA
ENDROOT
BRANCH   4   7
HETATM    7  C8  UNL     1     -32.827   7.005   2.517  1.00 20.00     0.041 C 
HETATM    8  C5  UNL     1     -33.779   7.820   1.613  1.00 20.00     0.012 C 
HETATM    9  C6  UNL     1     -33.278   9.262   1.674  1.00 20.00     0.021 C 
HETATM   10  C9  UNL     1     -31.796   9.147   2.004  1.00 20.00     0.083 C 
HETATM   11  C7  UNL     1     -31.767   8.006   3.014  1.00 20.00     0.031 C 
HETATM   12 CL12 UNL     1     -30.847   8.734   0.548  1.00 20.00    -0.125 Cl
ENDBRANCH   4   7
TORSDOF 1
ENDMDL
