MODEL 1
REMARK VINA RESULT:      -5.8      0.000      0.000
REMARK  4 active torsions:
REMARK  status: ('A' for Active; 'I' for Inactive)
REMARK    1  A    between atoms: C2_2  and  C5_5 
REMARK    2  A    between atoms: C5_5  and  C6_6 
REMARK    3  A    between atoms: C6_6  and  C7_7 
REMARK    4  A    between atoms: C7_7  and  C8_8 
ROOT
HETATM    1  C1  UNL     1     -32.469   9.216   1.343  1.00 20.00    -0.111 C 
HETATM    2  C2  UNL     1     -32.387   8.366   2.188  1.00 20.00    -0.107 C 
HETATM    3  C3  UNL     1     -32.571  10.248   0.313  1.00 20.00     0.112 C 
ENDROOT
BRANCH   2   4
HETATM    4  C5  UNL     1     -32.287   7.327   3.222  1.00 20.00     0.094 C 
BRANCH   4   5
HETATM    5  C6  UNL     1     -33.130   6.093   2.888  1.00 20.00     0.014 C 
BRANCH   5   6
HETATM    6  C7  UNL     1     -34.600   6.248   3.308  1.00 20.00     0.020 C 
BRANCH   6   7
HETATM    7  C8  UNL     1     -34.904   5.639   4.683  1.00 20.00     0.078 C 
HETATM    8  C4  UNL     1     -34.335   4.229   4.797  1.00 20.00     0.026 C 
HETATM    9 CL9  UNL     1     -34.221   6.645   5.996  1.00 20.00    -0.125 Cl
ENDBRANCH   6   7
ENDBRANCH   5   6
ENDBRANCH   4   5
ENDBRANCH   2   4
TORSDOF 4
ENDMDL
MODEL 2
REMARK VINA RESULT:      -5.3      1.331      1.555
REMARK  4 active torsions:
REMARK  status: ('A' for Active; 'I' for Inactive)
REMARK    1  A    between atoms: C2_2  and  C5_5 
REMARK    2  A    between atoms: C5_5  and  C6_6 
REMARK    3  A    between atoms: C6_6  and  C7_7 
REMARK    4  A    between atoms: C7_7  and  C8_8 
ROOT
HETATM    1  C1  UNL     1     -32.466   9.156   1.382  1.00 20.00    -0.111 C 
HETATM    2  C2  UNL     1     -32.436   8.329   2.253  1.00 20.00    -0.107 C 
HETATM    3  C3  UNL     1     -32.504  10.164   0.324  1.00 20.00     0.112 C 
ENDROOT
BRANCH   2   4
HETATM    4  C5  UNL     1     -32.399   7.319   3.318  1.00 20.00     0.094 C 
BRANCH   4   5
HETATM    5  C6  UNL     1     -32.786   7.898   4.682  1.00 20.00     0.014 C 
BRANCH   5   6
HETATM    6  C7  UNL     1     -33.867   7.070   5.393  1.00 20.00     0.020 C 
BRANCH   6   7
HETATM    7  C8  UNL     1     -34.246   5.791   4.634  1.00 20.00     0.078 C 
HETATM    8  C4  UNL     1     -34.551   4.650   5.598  1.00 20.00     0.026 C 
HETATM    9 CL9  UNL     1     -35.674   6.062   3.591  1.00 20.00    -0.125 Cl
ENDBRANCH   6   7
ENDBRANCH   5   6
ENDBRANCH   4   5
ENDBRANCH   2   4
TORSDOF 4
ENDMDL
MODEL 3
REMARK VINA RESULT:      -5.2      2.264      5.308
REMARK  4 active torsions:
REMARK  status: ('A' for Active; 'I' for Inactive)
REMARK    1  A    between atoms: C2_2  and  C5_5 
REMARK    2  A    between atoms: C5_5  and  C6_6 
REMARK    3  A    between atoms: C6_6  and  C7_7 
REMARK    4  A    between atoms: C7_7  and  C8_8 
ROOT
HETATM    1  C1  UNL     1     -34.207   5.664   4.451  1.00 20.00    -0.111 C 
HETATM    2  C2  UNL     1     -33.770   6.161   3.449  1.00 20.00    -0.107 C 
HETATM    3  C3  UNL     1     -34.736   5.057   5.671  1.00 20.00     0.112 C 
ENDROOT
BRANCH   2   4
HETATM    4  C5  UNL     1     -33.236   6.771   2.224  1.00 20.00     0.094 C 
BRANCH   4   5
HETATM    5  C6  UNL     1     -32.498   8.083   2.502  1.00 20.00     0.014 C 
BRANCH   5   6
HETATM    6  C7  UNL     1     -31.589   8.511   1.341  1.00 20.00     0.020 C 
BRANCH   6   7
HETATM    7  C8  UNL     1     -32.128   9.719   0.563  1.00 20.00     0.078 C 
HETATM    8  C4  UNL     1     -33.160   9.289  -0.473  1.00 20.00     0.026 C 
HETATM    9 CL9  UNL     1     -32.879  10.909   1.667  1.00 20.00    -0.125 Cl
ENDBRANCH   6   7
ENDBRANCH   5   6
ENDBRANCH   4   5
ENDBRANCH   2   4
TORSDOF 4
ENDMDL
MODEL 4
REMARK VINA RESULT:      -5.1      2.573      5.450
REMARK  4 active torsions:
REMARK  status: ('A' for Active; 'I' for Inactive)
REMARK    1  A    between atoms: C2_2  and  C5_5 
REMARK    2  A    between atoms: C5_5  and  C6_6 
REMARK    3  A    between atoms: C6_6  and  C7_7 
REMARK    4  A    between atoms: C7_7  and  C8_8 
ROOT
HETATM    1  C1  UNL     1     -34.286   5.636   4.735  1.00 20.00    -0.111 C 
HETATM    2  C2  UNL     1     -33.863   6.161   3.741  1.00 20.00    -0.107 C 
HETATM    3  C3  UNL     1     -34.799   5.002   5.949  1.00 20.00     0.112 C 
ENDROOT
BRANCH   2   4
HETATM    4  C5  UNL     1     -33.348   6.801   2.524  1.00 20.00     0.094 C 
BRANCH   4   5
HETATM    5  C6  UNL     1     -32.137   7.694   2.806  1.00 20.00     0.014 C 
BRANCH   5   6
HETATM    6  C7  UNL     1     -31.726   8.538   1.591  1.00 20.00     0.020 C 
BRANCH   6   7
HETATM    7  C8  UNL     1     -32.846   9.459   1.087  1.00 20.00     0.078 C 
HETATM    8  C4  UNL     1     -32.535  10.919   1.392  1.00 20.00     0.026 C 
HETATM    9 CL9  UNL     1     -33.083   9.275  -0.677  1.00 20.00    -0.125 Cl
ENDBRANCH   6   7
ENDBRANCH   5   6
ENDBRANCH   4   5
ENDBRANCH   2   4
TORSDOF 4
ENDMDL
MODEL 5
REMARK VINA RESULT:      -4.8      1.898      2.746
REMARK  4 active torsions:
REMARK  status: ('A' for Active; 'I' for Inactive)
REMARK    1  A    between atoms: C2_2  and  C5_5 
REMARK    2  A    between atoms: C5_5  and  C6_6 
REMARK    3  A    between atoms: C6_6  and  C7_7 
REMARK    4  A    between atoms: C7_7  and  C8_8 
ROOT
HETATM    1  C1  UNL     1     -32.366   7.959   3.482  1.00 20.00    -0.111 C 
HETATM    2  C2  UNL     1     -32.763   7.746   4.596  1.00 20.00    -0.107 C 
HETATM    3  C3  UNL     1     -31.878   8.219   2.129  1.00 20.00     0.112 C 
ENDROOT
BRANCH   2   4
HETATM    4  C5  UNL     1     -33.250   7.485   5.957  1.00 20.00     0.094 C 
BRANCH   4   5
HETATM    5  C6  UNL     1     -34.465   6.554   5.969  1.00 20.00     0.014 C 
BRANCH   5   6
HETATM    6  C7  UNL     1     -34.121   5.122   5.535  1.00 20.00     0.020 C 
BRANCH   6   7
HETATM    7  C8  UNL     1     -34.628   4.778   4.128  1.00 20.00     0.078 C 
HETATM    8  C4  UNL     1     -35.530   5.880   3.585  1.00 20.00     0.026 C 
HETATM    9 CL9  UNL     1     -33.265   4.537   2.995  1.00 20.00    -0.125 Cl
ENDBRANCH   6   7
ENDBRANCH   5   6
ENDBRANCH   4   5
ENDBRANCH   2   4
TORSDOF 4
ENDMDL
MODEL 6
REMARK VINA RESULT:      -4.5      2.598      5.352
REMARK  4 active torsions:
REMARK  status: ('A' for Active; 'I' for Inactive)
REMARK    1  A    between atoms: C2_2  and  C5_5 
REMARK    2  A    between atoms: C5_5  and  C6_6 
REMARK    3  A    between atoms: C6_6  and  C7_7 
REMARK    4  A    between atoms: C7_7  and  C8_8 
ROOT
HETATM    1  C1  UNL     1     -34.254   5.597   4.636  1.00 20.00    -0.111 C 
HETATM    2  C2  UNL     1     -33.827   6.069   3.617  1.00 20.00    -0.107 C 
HETATM    3  C3  UNL     1     -34.769   5.022   5.877  1.00 20.00     0.112 C 
ENDROOT
BRANCH   2   4
HETATM    4  C5  UNL     1     -33.306   6.647   2.371  1.00 20.00     0.094 C 
BRANCH   4   5
HETATM    5  C6  UNL     1     -32.300   7.772   2.630  1.00 20.00     0.014 C 
BRANCH   5   6
HETATM    6  C7  UNL     1     -32.781   9.131   2.100  1.00 20.00     0.020 C 
BRANCH   6   7
HETATM    7  C8  UNL     1     -32.138   9.521   0.762  1.00 20.00     0.078 C 
HETATM    8  C4  UNL     1     -31.006   8.567   0.398  1.00 20.00     0.026 C 
HETATM    9 CL9  UNL     1     -33.346   9.514  -0.557  1.00 20.00    -0.125 Cl
ENDBRANCH   6   7
ENDBRANCH   5   6
ENDBRANCH   4   5
ENDBRANCH   2   4
TORSDOF 4
ENDMDL
MODEL 7
REMARK VINA RESULT:      -3.8      1.947      4.485
REMARK  4 active torsions:
REMARK  status: ('A' for Active; 'I' for Inactive)
REMARK    1  A    between atoms: C2_2  and  C5_5 
REMARK    2  A    between atoms: C5_5  and  C6_6 
REMARK    3  A    between atoms: C6_6  and  C7_7 
REMARK    4  A    between atoms: C7_7  and  C8_8 
ROOT
HETATM    1  C1  UNL     1     -34.009   6.785   5.607  1.00 20.00    -0.111 C 
HETATM    2  C2  UNL     1     -34.009   6.022   4.679  1.00 20.00    -0.107 C 
HETATM    3  C3  UNL     1     -34.010   7.717   6.734  1.00 20.00     0.112 C 
ENDROOT
BRANCH   2   4
HETATM    4  C5  UNL     1     -34.010   5.088   3.545  1.00 20.00     0.094 C 
BRANCH   4   5
HETATM    5  C6  UNL     1     -33.235   5.635   2.343  1.00 20.00     0.014 C 
BRANCH   5   6
HETATM    6  C7  UNL     1     -33.372   7.157   2.191  1.00 20.00     0.020 C 
BRANCH   6   7
HETATM    7  C8  UNL     1     -32.023   7.876   2.058  1.00 20.00     0.078 C 
HETATM    8  C4  UNL     1     -32.146   9.118   1.183  1.00 20.00     0.026 C 
HETATM    9 CL9  UNL     1     -31.392   8.359   3.661  1.00 20.00    -0.125 Cl
ENDBRANCH   6   7
ENDBRANCH   5   6
ENDBRANCH   4   5
ENDBRANCH   2   4
TORSDOF 4
ENDMDL
MODEL 8
REMARK VINA RESULT:      -3.8     11.036     11.655
REMARK  4 active torsions:
REMARK  status: ('A' for Active; 'I' for Inactive)
REMARK    1  A    between atoms: C2_2  and  C5_5 
REMARK    2  A    between atoms: C5_5  and  C6_6 
REMARK    3  A    between atoms: C6_6  and  C7_7 
REMARK    4  A    between atoms: C7_7  and  C8_8 
ROOT
HETATM    1  C1  UNL     1     -34.569  16.723  -2.046  1.00 20.00    -0.111 C 
HETATM    2  C2  UNL     1     -34.060  16.322  -3.057  1.00 20.00    -0.107 C 
HETATM    3  C3  UNL     1     -35.192  17.210  -0.816  1.00 20.00     0.112 C 
ENDROOT
BRANCH   2   4
HETATM    4  C5  UNL     1     -33.437  15.831  -4.293  1.00 20.00     0.094 C 
BRANCH   4   5
HETATM    5  C6  UNL     1     -33.700  14.341  -4.523  1.00 20.00     0.014 C 
BRANCH   5   6
HETATM    6  C7  UNL     1     -35.196  13.993  -4.510  1.00 20.00     0.020 C 
BRANCH   6   7
HETATM    7  C8  UNL     1     -35.712  13.488  -5.865  1.00 20.00     0.078 C 
HETATM    8  C4  UNL     1     -36.885  14.330  -6.354  1.00 20.00     0.026 C 
HETATM    9 CL9  UNL     1     -34.418  13.529  -7.100  1.00 20.00    -0.125 Cl
ENDBRANCH   6   7
ENDBRANCH   5   6
ENDBRANCH   4   5
ENDBRANCH   2   4
TORSDOF 4
ENDMDL
MODEL 9
REMARK VINA RESULT:      -3.7     11.332     12.086
REMARK  4 active torsions:
REMARK  status: ('A' for Active; 'I' for Inactive)
REMARK    1  A    between atoms: C2_2  and  C5_5 
REMARK    2  A    between atoms: C5_5  and  C6_6 
REMARK    3  A    between atoms: C6_6  and  C7_7 
REMARK    4  A    between atoms: C7_7  and  C8_8 
ROOT
HETATM    1  C1  UNL     1     -33.155  17.779  -1.278  1.00 20.00    -0.111 C 
HETATM    2  C2  UNL     1     -33.808  17.063  -1.988  1.00 20.00    -0.107 C 
HETATM    3  C3  UNL     1     -32.362  18.649  -0.410  1.00 20.00     0.112 C 
ENDROOT
BRANCH   2   4
HETATM    4  C5  UNL     1     -34.605  16.188  -2.857  1.00 20.00     0.094 C 
BRANCH   4   5
HETATM    5  C6  UNL     1     -33.737  15.404  -3.844  1.00 20.00     0.014 C 
BRANCH   5   6
HETATM    6  C7  UNL     1     -34.550  14.419  -4.697  1.00 20.00     0.020 C 
BRANCH   6   7
HETATM    7  C8  UNL     1     -34.599  14.801  -6.183  1.00 20.00     0.078 C 
HETATM    8  C4  UNL     1     -33.447  15.730  -6.548  1.00 20.00     0.026 C 
HETATM    9 CL9  UNL     1     -34.520  13.347  -7.223  1.00 20.00    -0.125 Cl
ENDBRANCH   6   7
ENDBRANCH   5   6
ENDBRANCH   4   5
ENDBRANCH   2   4
TORSDOF 4
ENDMDL
