MODEL 1
REMARK VINA RESULT:      -5.5      0.000      0.000
REMARK  1 active torsions:
REMARK  status: ('A' for Active; 'I' for Inactive)
REMARK    1  A    between atoms: C6_6  and  C7_7 
ROOT
HETATM    1  C1  UNL     1     -34.520   4.585   4.309  1.00 20.00     0.002 C 
HETATM    2  C2  UNL     1     -34.787   5.681   3.273  1.00 20.00     0.006 C 
HETATM    3  C5  UNL     1     -34.034   5.292   5.576  1.00 20.00     0.020 C 
HETATM    4  C7  UNL     1     -34.081   6.934   3.803  1.00 20.00     0.008 C 
HETATM    5  C8  UNL     1     -34.285   6.773   5.314  1.00 20.00     0.086 C 
HETATM    6 CL9  UNL     1     -33.280   7.820   6.328  1.00 20.00    -0.125 Cl
ENDROOT
BRANCH   4   7
HETATM    7  C6  UNL     1     -32.643   6.982   3.348  1.00 20.00    -0.009 A 
HETATM    8  C3  UNL     1     -32.245   7.849   2.187  1.00 20.00     0.005 A 
HETATM    9  C4  UNL     1     -31.817   8.216   3.580  1.00 20.00     0.005 A 
ENDBRANCH   4   7
TORSDOF 1
ENDMDL
MODEL 2
REMARK VINA RESULT:      -4.5      2.238      3.413
REMARK  1 active torsions:
REMARK  status: ('A' for Active; 'I' for Inactive)
REMARK    1  A    between atoms: C6_6  and  C7_7 
ROOT
HETATM    1  C1  UNL     1     -32.538   8.103   4.736  1.00 20.00     0.002 C 
HETATM    2  C2  UNL     1     -31.502   8.301   3.624  1.00 20.00     0.006 C 
HETATM    3  C5  UNL     1     -33.590   7.139   4.184  1.00 20.00     0.020 C 
HETATM    4  C7  UNL     1     -32.168   7.790   2.341  1.00 20.00     0.008 C 
HETATM    5  C8  UNL     1     -32.993   6.616   2.883  1.00 20.00     0.086 C 
HETATM    6 CL9  UNL     1     -34.224   5.984   1.778  1.00 20.00    -0.125 Cl
ENDROOT
BRANCH   4   7
HETATM    7  C6  UNL     1     -32.964   8.880   1.669  1.00 20.00    -0.009 A 
HETATM    8  C3  UNL     1     -32.288  10.150   1.231  1.00 20.00     0.005 A 
HETATM    9  C4  UNL     1     -32.773   9.164   0.205  1.00 20.00     0.005 A 
ENDBRANCH   4   7
TORSDOF 1
ENDMDL
MODEL 3
REMARK VINA RESULT:      -4.2      1.892      3.033
REMARK  1 active torsions:
REMARK  status: ('A' for Active; 'I' for Inactive)
REMARK    1  A    between atoms: C6_6  and  C7_7 
ROOT
HETATM    1  C1  UNL     1     -33.989   6.881   5.982  1.00 20.00     0.002 C 
HETATM    2  C2  UNL     1     -34.880   6.082   5.026  1.00 20.00     0.006 C 
HETATM    3  C5  UNL     1     -33.058   7.724   5.108  1.00 20.00     0.020 C 
HETATM    4  C7  UNL     1     -34.195   6.161   3.657  1.00 20.00     0.008 C 
HETATM    5  C8  UNL     1     -33.615   7.580   3.696  1.00 20.00     0.086 C 
HETATM    6 CL9  UNL     1     -32.408   7.938   2.452  1.00 20.00    -0.125 Cl
ENDROOT
BRANCH   4   7
HETATM    7  C6  UNL     1     -33.182   5.056   3.490  1.00 20.00    -0.009 A 
HETATM    8  C3  UNL     1     -33.633   3.625   3.392  1.00 20.00     0.005 A 
HETATM    9  C4  UNL     1     -33.071   4.321   2.183  1.00 20.00     0.005 A 
ENDBRANCH   4   7
TORSDOF 1
ENDMDL
MODEL 4
REMARK VINA RESULT:      -4.2      2.049      2.764
REMARK  1 active torsions:
REMARK  status: ('A' for Active; 'I' for Inactive)
REMARK    1  A    between atoms: C6_6  and  C7_7 
ROOT
HETATM    1  C1  UNL     1     -34.328   7.204   4.897  1.00 20.00     0.002 C 
HETATM    2  C2  UNL     1     -32.926   7.792   4.704  1.00 20.00     0.006 C 
HETATM    3  C5  UNL     1     -34.430   6.002   3.955  1.00 20.00     0.020 C 
HETATM    4  C7  UNL     1     -32.401   7.191   3.395  1.00 20.00     0.008 C 
HETATM    5  C8  UNL     1     -33.008   5.784   3.450  1.00 20.00     0.086 C 
HETATM    6 CL9  UNL     1     -32.962   4.881   1.928  1.00 20.00    -0.125 Cl
ENDROOT
BRANCH   4   7
HETATM    7  C6  UNL     1     -32.815   8.025   2.208  1.00 20.00    -0.009 A 
HETATM    8  C3  UNL     1     -32.263   9.412   2.029  1.00 20.00     0.005 A 
HETATM    9  C4  UNL     1     -31.835   8.307   1.103  1.00 20.00     0.005 A 
ENDBRANCH   4   7
TORSDOF 1
ENDMDL
MODEL 5
REMARK VINA RESULT:      -4.1      1.866      3.852
REMARK  1 active torsions:
REMARK  status: ('A' for Active; 'I' for Inactive)
REMARK    1  A    between atoms: C6_6  and  C7_7 
ROOT
HETATM    1  C1  UNL     1     -31.858   8.077   4.145  1.00 20.00     0.002 C 
HETATM    2  C2  UNL     1     -33.094   8.034   5.049  1.00 20.00     0.006 C 
HETATM    3  C5  UNL     1     -32.253   7.393   2.835  1.00 20.00     0.020 C 
HETATM    4  C7  UNL     1     -34.030   6.993   4.424  1.00 20.00     0.008 C 
HETATM    5  C8  UNL     1     -33.764   7.215   2.930  1.00 20.00     0.086 C 
HETATM    6 CL9  UNL     1     -34.365   5.940   1.858  1.00 20.00    -0.125 Cl
ENDROOT
BRANCH   4   7
HETATM    7  C6  UNL     1     -33.721   5.607   4.934  1.00 20.00    -0.009 A 
HETATM    8  C3  UNL     1     -34.640   4.943   5.922  1.00 20.00     0.005 A 
HETATM    9  C4  UNL     1     -34.565   4.439   4.508  1.00 20.00     0.005 A 
ENDBRANCH   4   7
TORSDOF 1
ENDMDL
MODEL 6
REMARK VINA RESULT:      -3.9     11.751     12.366
REMARK  1 active torsions:
REMARK  status: ('A' for Active; 'I' for Inactive)
REMARK    1  A    between atoms: C6_6  and  C7_7 
ROOT
HETATM    1  C1  UNL     1     -33.440  14.443  -4.456  1.00 20.00     0.002 C 
HETATM    2  C2  UNL     1     -33.338  15.958  -4.248  1.00 20.00     0.006 C 
HETATM    3  C5  UNL     1     -34.932  14.109  -4.499  1.00 20.00     0.020 C 
HETATM    4  C7  UNL     1     -34.726  16.406  -3.776  1.00 20.00     0.008 C 
HETATM    5  C8  UNL     1     -35.631  15.461  -4.575  1.00 20.00     0.086 C 
HETATM    6 CL9  UNL     1     -37.314  15.387  -4.032  1.00 20.00    -0.125 Cl
ENDROOT
BRANCH   4   7
HETATM    7  C6  UNL     1     -34.850  16.301  -2.276  1.00 20.00    -0.009 A 
HETATM    8  C3  UNL     1     -34.216  17.337  -1.390  1.00 20.00     0.005 A 
HETATM    9  C4  UNL     1     -35.713  17.272  -1.519  1.00 20.00     0.005 A 
ENDBRANCH   4   7
TORSDOF 1
ENDMDL
MODEL 7
REMARK VINA RESULT:      -3.9      1.502      3.189
REMARK  1 active torsions:
REMARK  status: ('A' for Active; 'I' for Inactive)
REMARK    1  A    between atoms: C6_6  and  C7_7 
ROOT
HETATM    1  C1  UNL     1     -33.951   6.537   1.522  1.00 20.00     0.002 C 
HETATM    2  C2  UNL     1     -33.715   5.498   2.623  1.00 20.00     0.006 C 
HETATM    3  C5  UNL     1     -33.064   7.738   1.859  1.00 20.00     0.020 C 
HETATM    4  C7  UNL     1     -33.030   6.254   3.767  1.00 20.00     0.008 C 
HETATM    5  C8  UNL     1     -32.163   7.249   2.987  1.00 20.00     0.086 C 
HETATM    6 CL9  UNL     1     -31.493   8.580   3.943  1.00 20.00    -0.125 Cl
ENDROOT
BRANCH   4   7
HETATM    7  C6  UNL     1     -34.045   6.874   4.695  1.00 20.00    -0.009 A 
HETATM    8  C3  UNL     1     -34.521   6.121   5.906  1.00 20.00     0.005 A 
HETATM    9  C4  UNL     1     -33.636   7.326   6.069  1.00 20.00     0.005 A 
ENDBRANCH   4   7
TORSDOF 1
ENDMDL
MODEL 8
REMARK VINA RESULT:      -3.9      1.967      3.812
REMARK  1 active torsions:
REMARK  status: ('A' for Active; 'I' for Inactive)
REMARK    1  A    between atoms: C6_6  and  C7_7 
ROOT
HETATM    1  C1  UNL     1     -32.308   8.215   3.184  1.00 20.00     0.002 C 
HETATM    2  C2  UNL     1     -33.781   8.116   3.595  1.00 20.00     0.006 C 
HETATM    3  C5  UNL     1     -31.921   6.846   2.619  1.00 20.00     0.020 C 
HETATM    4  C7  UNL     1     -34.098   6.617   3.643  1.00 20.00     0.008 C 
HETATM    5  C8  UNL     1     -33.240   6.095   2.485  1.00 20.00     0.086 C 
HETATM    6 CL9  UNL     1     -33.017   4.339   2.440  1.00 20.00    -0.125 Cl
ENDROOT
BRANCH   4   7
HETATM    7  C6  UNL     1     -33.776   6.035   4.997  1.00 20.00    -0.009 A 
HETATM    8  C3  UNL     1     -34.701   6.266   6.159  1.00 20.00     0.005 A 
HETATM    9  C4  UNL     1     -34.591   4.898   5.545  1.00 20.00     0.005 A 
ENDBRANCH   4   7
TORSDOF 1
ENDMDL
MODEL 9
REMARK VINA RESULT:      -3.7     11.977     12.939
REMARK  1 active torsions:
REMARK  status: ('A' for Active; 'I' for Inactive)
REMARK    1  A    between atoms: C6_6  and  C7_7 
ROOT
HETATM    1  C1  UNL     1     -34.004  17.485  -0.946  1.00 20.00     0.002 C 
HETATM    2  C2  UNL     1     -35.068  16.716  -1.735  1.00 20.00     0.006 C 
HETATM    3  C5  UNL     1     -33.272  18.374  -1.954  1.00 20.00     0.020 C 
HETATM    4  C7  UNL     1     -34.675  16.858  -3.210  1.00 20.00     0.008 C 
HETATM    5  C8  UNL     1     -34.104  18.281  -3.228  1.00 20.00     0.086 C 
HETATM    6 CL9  UNL     1     -33.176  18.704  -4.676  1.00 20.00    -0.125 Cl
ENDROOT
BRANCH   4   7
HETATM    7  C6  UNL     1     -33.714  15.773  -3.625  1.00 20.00    -0.009 A 
HETATM    8  C3  UNL     1     -34.232  14.452  -4.122  1.00 20.00     0.005 A 
HETATM    9  C4  UNL     1     -33.567  15.406  -5.075  1.00 20.00     0.005 A 
ENDBRANCH   4   7
TORSDOF 1
ENDMDL
