MODEL 1
REMARK VINA RESULT:      -5.9      0.000      0.000
REMARK  3 active torsions:
REMARK  status: ('A' for Active; 'I' for Inactive)
REMARK    1  A    between atoms: C1_1  and  C4_4 
REMARK    2  A    between atoms: C1_1  and  C5_5 
REMARK    3  A    between atoms: C5_5  and  C6_6 
ROOT
HETATM    1  C1  UNL     1     -32.888   6.874   3.284  1.00 20.00     0.139 C 
HETATM    2  O7  UNL     1     -32.821   5.785   2.730  1.00 20.00    -0.297 OA
ENDROOT
BRANCH   1   3
HETATM    3  C4  UNL     1     -33.996   7.156   4.242  1.00 20.00     0.056 A 
HETATM    4  C2  UNL     1     -34.403   6.085   5.198  1.00 20.00     0.013 A 
HETATM    5  C3  UNL     1     -33.668   7.293   5.691  1.00 20.00     0.013 A 
ENDBRANCH   1   3
BRANCH   1   6
HETATM    6  C5  UNL     1     -31.908   8.007   3.078  1.00 20.00     0.196 C 
BRANCH   6   7
HETATM    7  C6  UNL     1     -32.090   8.701   1.748  1.00 20.00     0.394 C 
HETATM    8  F8  UNL     1     -32.103  10.043   1.886  1.00 20.00    -0.171 F 
HETATM    9  F9  UNL     1     -33.241   8.328   1.148  1.00 20.00    -0.171 F 
HETATM   10  F10 UNL     1     -31.075   8.387   0.912  1.00 20.00    -0.171 F 
ENDBRANCH   6   7
ENDBRANCH   1   6
TORSDOF 3
ENDMDL
MODEL 2
REMARK VINA RESULT:      -5.7      1.553      1.843
REMARK  3 active torsions:
REMARK  status: ('A' for Active; 'I' for Inactive)
REMARK    1  A    between atoms: C1_1  and  C4_4 
REMARK    2  A    between atoms: C1_1  and  C5_5 
REMARK    3  A    between atoms: C5_5  and  C6_6 
ROOT
HETATM    1  C1  UNL     1     -33.538   6.799   4.166  1.00 20.00     0.139 C 
HETATM    2  O7  UNL     1     -33.294   7.570   5.085  1.00 20.00    -0.297 OA
ENDROOT
BRANCH   1   3
HETATM    3  C4  UNL     1     -34.642   5.805   4.301  1.00 20.00     0.056 A 
HETATM    4  C2  UNL     1     -34.300   4.352   4.298  1.00 20.00     0.013 A 
HETATM    5  C3  UNL     1     -34.742   5.018   5.565  1.00 20.00     0.013 A 
ENDBRANCH   1   3
BRANCH   1   6
HETATM    6  C5  UNL     1     -32.791   6.760   2.851  1.00 20.00     0.196 C 
BRANCH   6   7
HETATM    7  C6  UNL     1     -32.169   8.090   2.496  1.00 20.00     0.394 C 
HETATM    8  F8  UNL     1     -31.274   8.483   3.426  1.00 20.00    -0.171 F 
HETATM    9  F9  UNL     1     -33.103   9.058   2.374  1.00 20.00    -0.171 F 
HETATM   10  F10 UNL     1     -31.516   8.003   1.314  1.00 20.00    -0.171 F 
ENDBRANCH   6   7
ENDBRANCH   1   6
TORSDOF 3
ENDMDL
MODEL 3
REMARK VINA RESULT:      -5.6      2.556      4.058
REMARK  3 active torsions:
REMARK  status: ('A' for Active; 'I' for Inactive)
REMARK    1  A    between atoms: C1_1  and  C4_4 
REMARK    2  A    between atoms: C1_1  and  C5_5 
REMARK    3  A    between atoms: C5_5  and  C6_6 
ROOT
HETATM    1  C1  UNL     1     -32.359   7.999   2.923  1.00 20.00     0.139 C 
HETATM    2  O7  UNL     1     -31.255   8.215   3.404  1.00 20.00    -0.297 OA
ENDROOT
BRANCH   1   3
HETATM    3  C4  UNL     1     -32.689   8.501   1.558  1.00 20.00     0.056 A 
HETATM    4  C2  UNL     1     -32.538   9.960   1.277  1.00 20.00     0.013 A 
HETATM    5  C3  UNL     1     -31.576   8.976   0.685  1.00 20.00     0.013 A 
ENDBRANCH   1   3
BRANCH   1   6
HETATM    6  C5  UNL     1     -33.467   7.237   3.617  1.00 20.00     0.196 C 
BRANCH   6   7
HETATM    7  C6  UNL     1     -33.690   5.866   3.023  1.00 20.00     0.394 C 
HETATM    8  F8  UNL     1     -32.529   5.300   2.633  1.00 20.00    -0.171 F 
HETATM    9  F9  UNL     1     -34.515   5.916   1.955  1.00 20.00    -0.171 F 
HETATM   10  F10 UNL     1     -34.256   5.045   3.937  1.00 20.00    -0.171 F 
ENDBRANCH   6   7
ENDBRANCH   1   6
TORSDOF 3
ENDMDL
MODEL 4
REMARK VINA RESULT:      -5.5      1.783      2.197
REMARK  3 active torsions:
REMARK  status: ('A' for Active; 'I' for Inactive)
REMARK    1  A    between atoms: C1_1  and  C4_4 
REMARK    2  A    between atoms: C1_1  and  C5_5 
REMARK    3  A    between atoms: C5_5  and  C6_6 
ROOT
HETATM    1  C1  UNL     1     -32.111   8.185   2.453  1.00 20.00     0.139 C 
HETATM    2  O7  UNL     1     -31.452   8.425   3.456  1.00 20.00    -0.297 OA
ENDROOT
BRANCH   1   3
HETATM    3  C4  UNL     1     -33.299   7.287   2.540  1.00 20.00     0.056 A 
HETATM    4  C2  UNL     1     -33.089   5.859   2.919  1.00 20.00     0.013 A 
HETATM    5  C3  UNL     1     -33.733   6.806   3.884  1.00 20.00     0.013 A 
ENDBRANCH   1   3
BRANCH   1   6
HETATM    6  C5  UNL     1     -31.820   8.740   1.076  1.00 20.00     0.196 C 
BRANCH   6   7
HETATM    7  C6  UNL     1     -32.711   9.907   0.719  1.00 20.00     0.394 C 
HETATM    8  F8  UNL     1     -33.607  10.163   1.694  1.00 20.00    -0.171 F 
HETATM    9  F9  UNL     1     -33.388   9.681  -0.427  1.00 20.00    -0.171 F 
HETATM   10  F10 UNL     1     -31.972  11.026   0.542  1.00 20.00    -0.171 F 
ENDBRANCH   6   7
ENDBRANCH   1   6
TORSDOF 3
ENDMDL
MODEL 5
REMARK VINA RESULT:      -5.5      2.659      4.188
REMARK  3 active torsions:
REMARK  status: ('A' for Active; 'I' for Inactive)
REMARK    1  A    between atoms: C1_1  and  C4_4 
REMARK    2  A    between atoms: C1_1  and  C5_5 
REMARK    3  A    between atoms: C5_5  and  C6_6 
ROOT
HETATM    1  C1  UNL     1     -32.318   7.763   2.755  1.00 20.00     0.139 C 
HETATM    2  O7  UNL     1     -31.495   8.263   3.509  1.00 20.00    -0.297 OA
ENDROOT
BRANCH   1   3
HETATM    3  C4  UNL     1     -32.776   8.512   1.548  1.00 20.00     0.056 A 
HETATM    4  C2  UNL     1     -32.510   9.978   1.475  1.00 20.00     0.013 A 
HETATM    5  C3  UNL     1     -31.748   9.031   0.600  1.00 20.00     0.013 A 
ENDBRANCH   1   3
BRANCH   1   6
HETATM    6  C5  UNL     1     -32.940   6.396   2.941  1.00 20.00     0.196 C 
BRANCH   6   7
HETATM    7  C6  UNL     1     -34.114   6.415   3.892  1.00 20.00     0.394 C 
HETATM    8  F8  UNL     1     -35.279   6.208   3.245  1.00 20.00    -0.171 F 
HETATM    9  F9  UNL     1     -34.200   7.591   4.550  1.00 20.00    -0.171 F 
HETATM   10  F10 UNL     1     -33.984   5.438   4.819  1.00 20.00    -0.171 F 
ENDBRANCH   6   7
ENDBRANCH   1   6
TORSDOF 3
ENDMDL
MODEL 6
REMARK VINA RESULT:      -5.4      3.237      4.443
REMARK  3 active torsions:
REMARK  status: ('A' for Active; 'I' for Inactive)
REMARK    1  A    between atoms: C1_1  and  C4_4 
REMARK    2  A    between atoms: C1_1  and  C5_5 
REMARK    3  A    between atoms: C5_5  and  C6_6 
ROOT
HETATM    1  C1  UNL     1     -33.552   6.227   3.229  1.00 20.00     0.139 C 
HETATM    2  O7  UNL     1     -32.919   5.342   2.669  1.00 20.00    -0.297 OA
ENDROOT
BRANCH   1   3
HETATM    3  C4  UNL     1     -33.155   7.654   3.048  1.00 20.00     0.056 A 
HETATM    4  C2  UNL     1     -31.767   8.061   3.418  1.00 20.00     0.013 A 
HETATM    5  C3  UNL     1     -32.172   7.990   1.977  1.00 20.00     0.013 A 
ENDBRANCH   1   3
BRANCH   1   6
HETATM    6  C5  UNL     1     -34.750   5.998   4.123  1.00 20.00     0.196 C 
BRANCH   6   7
HETATM    7  C6  UNL     1     -34.363   5.731   5.558  1.00 20.00     0.394 C 
HETATM    8  F8  UNL     1     -33.418   6.595   5.986  1.00 20.00    -0.171 F 
HETATM    9  F9  UNL     1     -33.890   4.476   5.719  1.00 20.00    -0.171 F 
HETATM   10  F10 UNL     1     -35.437   5.868   6.369  1.00 20.00    -0.171 F 
ENDBRANCH   6   7
ENDBRANCH   1   6
TORSDOF 3
ENDMDL
MODEL 7
REMARK VINA RESULT:      -5.3      3.241      4.466
REMARK  3 active torsions:
REMARK  status: ('A' for Active; 'I' for Inactive)
REMARK    1  A    between atoms: C1_1  and  C4_4 
REMARK    2  A    between atoms: C1_1  and  C5_5 
REMARK    3  A    between atoms: C5_5  and  C6_6 
ROOT
HETATM    1  C1  UNL     1     -33.298   6.634   3.180  1.00 20.00     0.139 C 
HETATM    2  O7  UNL     1     -33.325   5.784   2.300  1.00 20.00    -0.297 OA
ENDROOT
BRANCH   1   3
HETATM    3  C4  UNL     1     -32.863   8.025   2.859  1.00 20.00     0.056 A 
HETATM    4  C2  UNL     1     -31.468   8.433   3.199  1.00 20.00     0.013 A 
HETATM    5  C3  UNL     1     -31.864   8.225   1.769  1.00 20.00     0.013 A 
ENDBRANCH   1   3
BRANCH   1   6
HETATM    6  C5  UNL     1     -33.682   6.394   4.624  1.00 20.00     0.196 C 
BRANCH   6   7
HETATM    7  C6  UNL     1     -34.767   5.353   4.772  1.00 20.00     0.394 C 
HETATM    8  F8  UNL     1     -34.333   4.129   4.405  1.00 20.00    -0.171 F 
HETATM    9  F9  UNL     1     -35.851   5.657   4.027  1.00 20.00    -0.171 F 
HETATM   10  F10 UNL     1     -35.168   5.273   6.061  1.00 20.00    -0.171 F 
ENDBRANCH   6   7
ENDBRANCH   1   6
TORSDOF 3
ENDMDL
MODEL 8
REMARK VINA RESULT:      -5.2      3.411      4.590
REMARK  3 active torsions:
REMARK  status: ('A' for Active; 'I' for Inactive)
REMARK    1  A    between atoms: C1_1  and  C4_4 
REMARK    2  A    between atoms: C1_1  and  C5_5 
REMARK    3  A    between atoms: C5_5  and  C6_6 
ROOT
HETATM    1  C1  UNL     1     -33.405   7.071   4.288  1.00 20.00     0.139 C 
HETATM    2  O7  UNL     1     -33.142   7.649   5.333  1.00 20.00    -0.297 OA
ENDROOT
BRANCH   1   3
HETATM    3  C4  UNL     1     -32.477   7.174   3.124  1.00 20.00     0.056 A 
HETATM    4  C2  UNL     1     -32.661   8.300   2.162  1.00 20.00     0.013 A 
HETATM    5  C3  UNL     1     -31.490   8.293   3.098  1.00 20.00     0.013 A 
ENDBRANCH   1   3
BRANCH   1   6
HETATM    6  C5  UNL     1     -34.638   6.224   4.057  1.00 20.00     0.196 C 
BRANCH   6   7
HETATM    7  C6  UNL     1     -34.500   4.829   4.622  1.00 20.00     0.394 C 
HETATM    8  F8  UNL     1     -34.175   4.855   5.931  1.00 20.00    -0.171 F 
HETATM    9  F9  UNL     1     -33.556   4.120   3.966  1.00 20.00    -0.171 F 
HETATM   10  F10 UNL     1     -35.668   4.158   4.505  1.00 20.00    -0.171 F 
ENDBRANCH   6   7
ENDBRANCH   1   6
TORSDOF 3
ENDMDL
MODEL 9
REMARK VINA RESULT:      -5.2      1.560      2.016
REMARK  3 active torsions:
REMARK  status: ('A' for Active; 'I' for Inactive)
REMARK    1  A    between atoms: C1_1  and  C4_4 
REMARK    2  A    between atoms: C1_1  and  C5_5 
REMARK    3  A    between atoms: C5_5  and  C6_6 
ROOT
HETATM    1  C1  UNL     1     -33.846   5.496   3.290  1.00 20.00     0.139 C 
HETATM    2  O7  UNL     1     -33.280   4.412   3.309  1.00 20.00    -0.297 OA
ENDROOT
BRANCH   1   3
HETATM    3  C4  UNL     1     -34.745   5.887   4.415  1.00 20.00     0.056 A 
HETATM    4  C2  UNL     1     -34.662   5.121   5.693  1.00 20.00     0.013 A 
HETATM    5  C3  UNL     1     -34.140   6.524   5.621  1.00 20.00     0.013 A 
ENDBRANCH   1   3
BRANCH   1   6
HETATM    6  C5  UNL     1     -33.712   6.520   2.184  1.00 20.00     0.196 C 
BRANCH   6   7
HETATM    7  C6  UNL     1     -32.739   7.624   2.527  1.00 20.00     0.394 C 
HETATM    8  F8  UNL     1     -32.086   8.067   1.433  1.00 20.00    -0.171 F 
HETATM    9  F9  UNL     1     -31.820   7.213   3.428  1.00 20.00    -0.171 F 
HETATM   10  F10 UNL     1     -33.394   8.677   3.066  1.00 20.00    -0.171 F 
ENDBRANCH   6   7
ENDBRANCH   1   6
TORSDOF 3
ENDMDL
