MODEL 1
REMARK VINA RESULT:      -4.2      0.000      0.000
REMARK  1 active torsions:
REMARK  status: ('A' for Active; 'I' for Inactive)
REMARK    1  A    between atoms: C4_4  and  C9_9 
ROOT
HETATM    1  C1  UNL     1     -32.119   8.636   3.315  1.00 20.00     0.006 C 
HETATM    2  C2  UNL     1     -32.431   7.417   4.188  1.00 20.00     0.016 C 
HETATM    3  C3  UNL     1     -32.913   6.935   1.844  1.00 20.00     0.021 C 
HETATM    4  C4  UNL     1     -32.962   8.448   2.057  1.00 20.00    -0.006 C 
HETATM    5  C5  UNL     1     -33.027   6.365   3.253  1.00 20.00     0.058 C 
HETATM    6 BR10 UNL     1     -34.909   6.061   3.696  1.00 20.00    -0.091 Br
ENDROOT
BRANCH   4   7
HETATM    7  C9  UNL     1     -32.441   9.236   0.866  1.00 20.00    -0.048 C 
HETATM    8  C6  UNL     1     -33.373   9.041  -0.345  1.00 20.00     0.015 C 
HETATM    9  C7  UNL     1     -31.028   8.752   0.491  1.00 20.00     0.015 C 
HETATM   10  C8  UNL     1     -32.380  10.736   1.213  1.00 20.00     0.015 C 
ENDBRANCH   4   7
TORSDOF 1
ENDMDL
MODEL 2
REMARK VINA RESULT:      -4.1      9.557     10.535
REMARK  1 active torsions:
REMARK  status: ('A' for Active; 'I' for Inactive)
REMARK    1  A    between atoms: C4_4  and  C9_9 
ROOT
HETATM    1  C1  UNL     1     -35.008  16.630  -1.834  1.00 20.00     0.006 C 
HETATM    2  C2  UNL     1     -34.774  17.731  -0.797  1.00 20.00     0.016 C 
HETATM    3  C3  UNL     1     -33.383  18.104  -2.768  1.00 20.00     0.021 C 
HETATM    4  C4  UNL     1     -33.748  16.621  -2.695  1.00 20.00    -0.006 C 
HETATM    5  C5  UNL     1     -33.664  18.618  -1.361  1.00 20.00     0.058 C 
HETATM    6 BR10 UNL     1     -32.053  18.461  -0.262  1.00 20.00    -0.091 Br
ENDROOT
BRANCH   4   7
HETATM    7  C9  UNL     1     -33.962  15.991  -4.061  1.00 20.00    -0.048 C 
HETATM    8  C6  UNL     1     -33.059  14.753  -4.218  1.00 20.00     0.015 C 
HETATM    9  C7  UNL     1     -33.617  17.004  -5.169  1.00 20.00     0.015 C 
HETATM   10  C8  UNL     1     -35.432  15.559  -4.218  1.00 20.00     0.015 C 
ENDBRANCH   4   7
TORSDOF 1
ENDMDL
MODEL 3
REMARK VINA RESULT:      -4.1      9.556     10.552
REMARK  1 active torsions:
REMARK  status: ('A' for Active; 'I' for Inactive)
REMARK    1  A    between atoms: C4_4  and  C9_9 
ROOT
HETATM    1  C1  UNL     1     -35.005  16.631  -1.831  1.00 20.00     0.006 C 
HETATM    2  C2  UNL     1     -34.769  17.731  -0.793  1.00 20.00     0.016 C 
HETATM    3  C3  UNL     1     -33.377  18.103  -2.764  1.00 20.00     0.021 C 
HETATM    4  C4  UNL     1     -33.744  16.621  -2.691  1.00 20.00    -0.006 C 
HETATM    5  C5  UNL     1     -33.658  18.617  -1.357  1.00 20.00     0.058 C 
HETATM    6 BR10 UNL     1     -32.047  18.456  -0.257  1.00 20.00    -0.091 Br
ENDROOT
BRANCH   4   7
HETATM    7  C9  UNL     1     -33.959  15.991  -4.057  1.00 20.00    -0.048 C 
HETATM    8  C6  UNL     1     -33.617  17.005  -5.166  1.00 20.00     0.015 C 
HETATM    9  C7  UNL     1     -35.430  15.559  -4.214  1.00 20.00     0.015 C 
HETATM   10  C8  UNL     1     -33.055  14.753  -4.216  1.00 20.00     0.015 C 
ENDBRANCH   4   7
TORSDOF 1
ENDMDL
MODEL 4
REMARK VINA RESULT:      -4.0      9.686     10.412
REMARK  1 active torsions:
REMARK  status: ('A' for Active; 'I' for Inactive)
REMARK    1  A    between atoms: C4_4  and  C9_9 
ROOT
HETATM    1  C1  UNL     1     -33.302  15.686  -3.756  1.00 20.00     0.006 C 
HETATM    2  C2  UNL     1     -33.584  14.894  -5.036  1.00 20.00     0.016 C 
HETATM    3  C3  UNL     1     -35.479  16.330  -4.483  1.00 20.00     0.021 C 
HETATM    4  C4  UNL     1     -34.677  16.061  -3.211  1.00 20.00    -0.006 C 
HETATM    5  C5  UNL     1     -35.016  15.241  -5.443  1.00 20.00     0.058 C 
HETATM    6 BR10 UNL     1     -36.165  13.667  -5.266  1.00 20.00    -0.091 Br
ENDROOT
BRANCH   4   7
HETATM    7  C9  UNL     1     -34.640  17.250  -2.265  1.00 20.00    -0.048 C 
HETATM    8  C6  UNL     1     -35.191  18.503  -2.971  1.00 20.00     0.015 C 
HETATM    9  C7  UNL     1     -33.190  17.526  -1.821  1.00 20.00     0.015 C 
HETATM   10  C8  UNL     1     -35.498  16.960  -1.019  1.00 20.00     0.015 C 
ENDBRANCH   4   7
TORSDOF 1
ENDMDL
MODEL 5
REMARK VINA RESULT:      -3.9      2.176      4.245
REMARK  1 active torsions:
REMARK  status: ('A' for Active; 'I' for Inactive)
REMARK    1  A    between atoms: C4_4  and  C9_9 
ROOT
HETATM    1  C1  UNL     1     -32.134   7.606   4.145  1.00 20.00     0.006 C 
HETATM    2  C2  UNL     1     -31.558   8.744   3.298  1.00 20.00     0.016 C 
HETATM    3  C3  UNL     1     -33.661   7.950   2.347  1.00 20.00     0.021 C 
HETATM    4  C4  UNL     1     -33.055   6.838   3.202  1.00 20.00    -0.006 C 
HETATM    5  C5  UNL     1     -32.492   8.895   2.097  1.00 20.00     0.058 C 
HETATM    6 BR10 UNL     1     -31.562   8.382   0.453  1.00 20.00    -0.091 Br
ENDROOT
BRANCH   4   7
HETATM    7  C9  UNL     1     -34.100   6.010   3.933  1.00 20.00    -0.048 C 
HETATM    8  C6  UNL     1     -33.767   4.511   3.809  1.00 20.00     0.015 C 
HETATM    9  C7  UNL     1     -35.493   6.264   3.325  1.00 20.00     0.015 C 
HETATM   10  C8  UNL     1     -34.129   6.394   5.424  1.00 20.00     0.015 C 
ENDBRANCH   4   7
TORSDOF 1
ENDMDL
MODEL 6
REMARK VINA RESULT:      -3.9      2.176      4.250
REMARK  1 active torsions:
REMARK  status: ('A' for Active; 'I' for Inactive)
REMARK    1  A    between atoms: C4_4  and  C9_9 
ROOT
HETATM    1  C1  UNL     1     -32.123   7.628   4.133  1.00 20.00     0.006 C 
HETATM    2  C2  UNL     1     -31.553   8.766   3.281  1.00 20.00     0.016 C 
HETATM    3  C3  UNL     1     -33.657   7.963   2.338  1.00 20.00     0.021 C 
HETATM    4  C4  UNL     1     -33.045   6.855   3.195  1.00 20.00    -0.006 C 
HETATM    5  C5  UNL     1     -32.491   8.911   2.082  1.00 20.00     0.058 C 
HETATM    6 BR10 UNL     1     -31.564   8.397   0.438  1.00 20.00    -0.091 Br
ENDROOT
BRANCH   4   7
HETATM    7  C9  UNL     1     -34.085   6.026   3.930  1.00 20.00    -0.048 C 
HETATM    8  C6  UNL     1     -35.480   6.270   3.323  1.00 20.00     0.015 C 
HETATM    9  C7  UNL     1     -34.114   6.417   5.420  1.00 20.00     0.015 C 
HETATM   10  C8  UNL     1     -33.745   4.528   3.813  1.00 20.00     0.015 C 
ENDBRANCH   4   7
TORSDOF 1
ENDMDL
MODEL 7
REMARK VINA RESULT:      -3.9      2.176      4.237
REMARK  1 active torsions:
REMARK  status: ('A' for Active; 'I' for Inactive)
REMARK    1  A    between atoms: C4_4  and  C9_9 
ROOT
HETATM    1  C1  UNL     1     -32.124   7.630   4.133  1.00 20.00     0.006 C 
HETATM    2  C2  UNL     1     -31.554   8.767   3.281  1.00 20.00     0.016 C 
HETATM    3  C3  UNL     1     -33.657   7.963   2.337  1.00 20.00     0.021 C 
HETATM    4  C4  UNL     1     -33.045   6.855   3.195  1.00 20.00    -0.006 C 
HETATM    5  C5  UNL     1     -32.491   8.911   2.082  1.00 20.00     0.058 C 
HETATM    6 BR10 UNL     1     -31.563   8.397   0.438  1.00 20.00    -0.091 Br
ENDROOT
BRANCH   4   7
HETATM    7  C9  UNL     1     -34.085   6.026   3.930  1.00 20.00    -0.048 C 
HETATM    8  C6  UNL     1     -34.114   6.415   5.420  1.00 20.00     0.015 C 
HETATM    9  C7  UNL     1     -33.745   4.528   3.812  1.00 20.00     0.015 C 
HETATM   10  C8  UNL     1     -35.480   6.270   3.323  1.00 20.00     0.015 C 
ENDBRANCH   4   7
TORSDOF 1
ENDMDL
MODEL 8
REMARK VINA RESULT:      -3.8      9.455     10.365
REMARK  1 active torsions:
REMARK  status: ('A' for Active; 'I' for Inactive)
REMARK    1  A    between atoms: C4_4  and  C9_9 
ROOT
HETATM    1  C1  UNL     1     -33.406  16.888  -2.638  1.00 20.00     0.006 C 
HETATM    2  C2  UNL     1     -33.903  17.419  -1.291  1.00 20.00     0.016 C 
HETATM    3  C3  UNL     1     -35.692  16.235  -2.455  1.00 20.00     0.021 C 
HETATM    4  C4  UNL     1     -34.665  16.710  -3.482  1.00 20.00    -0.006 C 
HETATM    5  C5  UNL     1     -35.392  17.080  -1.222  1.00 20.00     0.058 C 
HETATM    6 BR10 UNL     1     -36.457  18.720  -1.264  1.00 20.00    -0.091 Br
ENDROOT
BRANCH   4   7
HETATM    7  C9  UNL     1     -34.478  15.737  -4.634  1.00 20.00    -0.048 C 
HETATM    8  C6  UNL     1     -34.524  14.288  -4.113  1.00 20.00     0.015 C 
HETATM    9  C7  UNL     1     -33.117  15.979  -5.314  1.00 20.00     0.015 C 
HETATM   10  C8  UNL     1     -35.597  15.930  -5.674  1.00 20.00     0.015 C 
ENDBRANCH   4   7
TORSDOF 1
ENDMDL
MODEL 9
REMARK VINA RESULT:      -3.8      9.944     10.606
REMARK  1 active torsions:
REMARK  status: ('A' for Active; 'I' for Inactive)
REMARK    1  A    between atoms: C4_4  and  C9_9 
ROOT
HETATM    1  C1  UNL     1     -35.819  15.922  -3.283  1.00 20.00     0.006 C 
HETATM    2  C2  UNL     1     -35.467  14.847  -4.315  1.00 20.00     0.016 C 
HETATM    3  C3  UNL     1     -33.446  15.956  -3.511  1.00 20.00     0.021 C 
HETATM    4  C4  UNL     1     -34.638  16.888  -3.298  1.00 20.00    -0.006 C 
HETATM    5  C5  UNL     1     -33.956  14.939  -4.526  1.00 20.00     0.058 C 
HETATM    6 BR10 UNL     1     -33.566  15.558  -6.341  1.00 20.00    -0.091 Br
ENDROOT
BRANCH   4   7
HETATM    7  C9  UNL     1     -34.529  17.717  -2.029  1.00 20.00    -0.048 C 
HETATM    8  C6  UNL     1     -34.984  19.163  -2.303  1.00 20.00     0.015 C 
HETATM    9  C7  UNL     1     -33.069  17.738  -1.537  1.00 20.00     0.015 C 
HETATM   10  C8  UNL     1     -35.420  17.113  -0.927  1.00 20.00     0.015 C 
ENDBRANCH   4   7
TORSDOF 1
ENDMDL
