MODEL 1
REMARK VINA RESULT:      -6.4      0.000      0.000
REMARK  3 active torsions:
REMARK  status: ('A' for Active; 'I' for Inactive)
REMARK    1  A    between atoms: C4_4  and  C7_7 
REMARK    2  A    between atoms: C7_7  and  C9_9 
REMARK    3  A    between atoms: C8_8  and  C9_9 
ROOT
HETATM    1  C1  UNL     1     -33.389   7.699   5.103  1.00 20.00     0.006 C 
HETATM    2  C2  UNL     1     -34.000   6.358   5.516  1.00 20.00     0.020 C 
HETATM    3  C3  UNL     1     -33.272   6.128   3.257  1.00 20.00     0.024 C 
HETATM    4  C4  UNL     1     -33.150   7.616   3.588  1.00 20.00    -0.013 C 
HETATM    5  C5  UNL     1     -34.372   5.676   4.206  1.00 20.00     0.082 C 
HETATM    6 CL10 UNL     1     -34.450   3.915   4.357  1.00 20.00    -0.125 Cl
ENDROOT
BRANCH   4   7
HETATM    7  C7  UNL     1     -31.821   8.213   3.155  1.00 20.00     0.005 C 
BRANCH   7   8
HETATM    8  C9  UNL     1     -31.766   8.414   1.641  1.00 20.00     0.000 C 
BRANCH   8   9
HETATM    9  C8  UNL     1     -32.522   9.674   1.222  1.00 20.00    -0.005 C 
HETATM   10  C6  UNL     1     -33.030   9.568  -0.208  1.00 20.00     0.005 C 
ENDBRANCH   8   9
ENDBRANCH   7   8
ENDBRANCH   4   7
TORSDOF 3
ENDMDL
MODEL 2
REMARK VINA RESULT:      -5.7      1.495      1.991
REMARK  3 active torsions:
REMARK  status: ('A' for Active; 'I' for Inactive)
REMARK    1  A    between atoms: C4_4  and  C7_7 
REMARK    2  A    between atoms: C7_7  and  C9_9 
REMARK    3  A    between atoms: C8_8  and  C9_9 
ROOT
HETATM    1  C1  UNL     1     -33.876   6.090   2.564  1.00 20.00     0.006 C 
HETATM    2  C2  UNL     1     -34.527   6.084   3.950  1.00 20.00     0.020 C 
HETATM    3  C3  UNL     1     -32.733   7.653   4.027  1.00 20.00     0.024 C 
HETATM    4  C4  UNL     1     -32.586   6.913   2.698  1.00 20.00    -0.013 C 
HETATM    5  C5  UNL     1     -33.458   6.630   4.888  1.00 20.00     0.082 C 
HETATM    6 CL10 UNL     1     -34.145   7.345   6.352  1.00 20.00    -0.125 Cl
ENDROOT
BRANCH   4   7
HETATM    7  C7  UNL     1     -32.342   7.845   1.522  1.00 20.00     0.005 C 
BRANCH   7   8
HETATM    8  C9  UNL     1     -32.221   9.298   1.978  1.00 20.00     0.000 C 
BRANCH   8   9
HETATM    9  C8  UNL     1     -32.629  10.263   0.866  1.00 20.00    -0.005 C 
HETATM   10  C6  UNL     1     -33.108   9.518  -0.370  1.00 20.00     0.005 C 
ENDBRANCH   8   9
ENDBRANCH   7   8
ENDBRANCH   4   7
TORSDOF 3
ENDMDL
MODEL 3
REMARK VINA RESULT:      -5.5      2.677      4.907
REMARK  3 active torsions:
REMARK  status: ('A' for Active; 'I' for Inactive)
REMARK    1  A    between atoms: C4_4  and  C7_7 
REMARK    2  A    between atoms: C7_7  and  C9_9 
REMARK    3  A    between atoms: C8_8  and  C9_9 
ROOT
HETATM    1  C1  UNL     1     -32.006   7.714   3.620  1.00 20.00     0.006 C 
HETATM    2  C2  UNL     1     -31.550   8.977   2.884  1.00 20.00     0.020 C 
HETATM    3  C3  UNL     1     -33.393   8.084   1.663  1.00 20.00     0.024 C 
HETATM    4  C4  UNL     1     -33.022   7.023   2.700  1.00 20.00    -0.013 C 
HETATM    5  C5  UNL     1     -32.073   8.814   1.463  1.00 20.00     0.082 C 
HETATM    6 CL10 UNL     1     -32.279  10.364   0.636  1.00 20.00    -0.125 Cl
ENDROOT
BRANCH   4   7
HETATM    7  C7  UNL     1     -34.228   6.471   3.442  1.00 20.00     0.005 C 
BRANCH   7   8
HETATM    8  C9  UNL     1     -34.120   6.721   4.946  1.00 20.00     0.000 C 
BRANCH   8   9
HETATM    9  C8  UNL     1     -34.483   5.469   5.743  1.00 20.00    -0.005 C 
HETATM   10  C6  UNL     1     -34.426   4.220   4.876  1.00 20.00     0.005 C 
ENDBRANCH   8   9
ENDBRANCH   7   8
ENDBRANCH   4   7
TORSDOF 3
ENDMDL
MODEL 4
REMARK VINA RESULT:      -5.3      2.693      4.904
REMARK  3 active torsions:
REMARK  status: ('A' for Active; 'I' for Inactive)
REMARK    1  A    between atoms: C4_4  and  C7_7 
REMARK    2  A    between atoms: C7_7  and  C9_9 
REMARK    3  A    between atoms: C8_8  and  C9_9 
ROOT
HETATM    1  C1  UNL     1     -32.143   7.566   3.677  1.00 20.00     0.006 C 
HETATM    2  C2  UNL     1     -31.700   8.878   3.023  1.00 20.00     0.020 C 
HETATM    3  C3  UNL     1     -33.320   7.889   1.578  1.00 20.00     0.024 C 
HETATM    4  C4  UNL     1     -32.993   6.829   2.631  1.00 20.00    -0.013 C 
HETATM    5  C5  UNL     1     -32.043   8.716   1.548  1.00 20.00     0.082 C 
HETATM    6 CL10 UNL     1     -32.267  10.270   0.731  1.00 20.00    -0.125 Cl
ENDROOT
BRANCH   4   7
HETATM    7  C7  UNL     1     -34.232   6.172   3.217  1.00 20.00     0.005 C 
BRANCH   7   8
HETATM    8  C9  UNL     1     -33.947   4.738   3.660  1.00 20.00     0.000 C 
BRANCH   8   9
HETATM    9  C8  UNL     1     -34.454   4.485   5.079  1.00 20.00    -0.005 C 
HETATM   10  C6  UNL     1     -34.566   5.780   5.869  1.00 20.00     0.005 C 
ENDBRANCH   8   9
ENDBRANCH   7   8
ENDBRANCH   4   7
TORSDOF 3
ENDMDL
MODEL 5
REMARK VINA RESULT:      -4.8      2.584      4.832
REMARK  3 active torsions:
REMARK  status: ('A' for Active; 'I' for Inactive)
REMARK    1  A    between atoms: C4_4  and  C7_7 
REMARK    2  A    between atoms: C7_7  and  C9_9 
REMARK    3  A    between atoms: C8_8  and  C9_9 
ROOT
HETATM    1  C1  UNL     1     -32.068   9.524   2.980  1.00 20.00     0.006 C 
HETATM    2  C2  UNL     1     -32.343  10.189   1.629  1.00 20.00     0.020 C 
HETATM    3  C3  UNL     1     -32.774   7.858   1.362  1.00 20.00     0.024 C 
HETATM    4  C4  UNL     1     -32.111   8.010   2.732  1.00 20.00    -0.013 C 
HETATM    5  C5  UNL     1     -32.232   9.064   0.608  1.00 20.00     0.082 C 
HETATM    6 CL10 UNL     1     -33.144   9.399  -0.870  1.00 20.00    -0.125 Cl
ENDROOT
BRANCH   4   7
HETATM    7  C7  UNL     1     -32.831   7.241   3.827  1.00 20.00     0.005 C 
BRANCH   7   8
HETATM    8  C9  UNL     1     -33.683   6.112   3.250  1.00 20.00     0.000 C 
BRANCH   8   9
HETATM    9  C8  UNL     1     -34.918   5.853   4.112  1.00 20.00    -0.005 C 
HETATM   10  C6  UNL     1     -34.537   5.521   5.546  1.00 20.00     0.005 C 
ENDBRANCH   8   9
ENDBRANCH   7   8
ENDBRANCH   4   7
TORSDOF 3
ENDMDL
MODEL 6
REMARK VINA RESULT:      -4.3     11.113     11.529
REMARK  3 active torsions:
REMARK  status: ('A' for Active; 'I' for Inactive)
REMARK    1  A    between atoms: C4_4  and  C7_7 
REMARK    2  A    between atoms: C7_7  and  C9_9 
REMARK    3  A    between atoms: C8_8  and  C9_9 
ROOT
HETATM    1  C1  UNL     1     -31.435  18.677   0.549  1.00 20.00     0.006 C 
HETATM    2  C2  UNL     1     -31.464  18.544   2.075  1.00 20.00     0.020 C 
HETATM    3  C3  UNL     1     -33.727  18.479   1.325  1.00 20.00     0.024 C 
HETATM    4  C4  UNL     1     -32.892  18.878   0.107  1.00 20.00    -0.013 C 
HETATM    5  C5  UNL     1     -32.868  18.973   2.479  1.00 20.00     0.082 C 
HETATM    6 CL10 UNL     1     -33.365  18.283   4.031  1.00 20.00    -0.125 Cl
ENDROOT
BRANCH   4   7
HETATM    7  C7  UNL     1     -33.254  18.095  -1.144  1.00 20.00     0.005 C 
BRANCH   7   8
HETATM    8  C9  UNL     1     -34.542  17.296  -0.949  1.00 20.00     0.000 C 
BRANCH   8   9
HETATM    9  C8  UNL     1     -34.941  16.567  -2.232  1.00 20.00    -0.005 C 
HETATM   10  C6  UNL     1     -33.745  16.354  -3.146  1.00 20.00     0.005 C 
ENDBRANCH   8   9
ENDBRANCH   7   8
ENDBRANCH   4   7
TORSDOF 3
ENDMDL
MODEL 7
REMARK VINA RESULT:      -4.2     10.809     11.724
REMARK  3 active torsions:
REMARK  status: ('A' for Active; 'I' for Inactive)
REMARK    1  A    between atoms: C4_4  and  C7_7 
REMARK    2  A    between atoms: C7_7  and  C9_9 
REMARK    3  A    between atoms: C8_8  and  C9_9 
ROOT
HETATM    1  C1  UNL     1     -33.311  16.342  -5.422  1.00 20.00     0.006 C 
HETATM    2  C2  UNL     1     -34.036  15.452  -6.436  1.00 20.00     0.020 C 
HETATM    3  C3  UNL     1     -34.475  14.548  -4.272  1.00 20.00     0.024 C 
HETATM    4  C4  UNL     1     -33.399  15.616  -4.071  1.00 20.00    -0.013 C 
HETATM    5  C5  UNL     1     -34.243  14.126  -5.715  1.00 20.00     0.082 C 
HETATM    6 CL10 UNL     1     -35.602  13.204  -6.374  1.00 20.00    -0.125 Cl
ENDROOT
BRANCH   4   7
HETATM    7  C7  UNL     1     -33.696  16.546  -2.907  1.00 20.00     0.005 C 
BRANCH   7   8
HETATM    8  C9  UNL     1     -35.146  16.415  -2.442  1.00 20.00     0.000 C 
BRANCH   8   9
HETATM    9  C8  UNL     1     -35.356  17.088  -1.087  1.00 20.00    -0.005 C 
HETATM   10  C6  UNL     1     -34.098  17.801  -0.617  1.00 20.00     0.005 C 
ENDBRANCH   8   9
ENDBRANCH   7   8
ENDBRANCH   4   7
TORSDOF 3
ENDMDL
MODEL 8
REMARK VINA RESULT:      -4.2     10.710     11.320
REMARK  3 active torsions:
REMARK  status: ('A' for Active; 'I' for Inactive)
REMARK    1  A    between atoms: C4_4  and  C7_7 
REMARK    2  A    between atoms: C7_7  and  C9_9 
REMARK    3  A    between atoms: C8_8  and  C9_9 
ROOT
HETATM    1  C1  UNL     1     -33.133  17.787  -1.851  1.00 20.00     0.006 C 
HETATM    2  C2  UNL     1     -32.946  18.260  -0.407  1.00 20.00     0.020 C 
HETATM    3  C3  UNL     1     -35.116  17.279  -0.546  1.00 20.00     0.024 C 
HETATM    4  C4  UNL     1     -34.609  17.384  -1.985  1.00 20.00    -0.013 C 
HETATM    5  C5  UNL     1     -34.359  18.403   0.145  1.00 20.00     0.082 C 
HETATM    6 CL10 UNL     1     -34.414  18.269   1.907  1.00 20.00    -0.125 Cl
ENDROOT
BRANCH   4   7
HETATM    7  C7  UNL     1     -34.813  16.106  -2.782  1.00 20.00     0.005 C 
BRANCH   7   8
HETATM    8  C9  UNL     1     -33.652  15.856  -3.743  1.00 20.00     0.000 C 
BRANCH   8   9
HETATM    9  C8  UNL     1     -33.696  14.436  -4.306  1.00 20.00    -0.005 C 
HETATM   10  C6  UNL     1     -35.124  13.986  -4.574  1.00 20.00     0.005 C 
ENDBRANCH   8   9
ENDBRANCH   7   8
ENDBRANCH   4   7
TORSDOF 3
ENDMDL
MODEL 9
REMARK VINA RESULT:      -4.2     10.964     11.752
REMARK  3 active torsions:
REMARK  status: ('A' for Active; 'I' for Inactive)
REMARK    1  A    between atoms: C4_4  and  C7_7 
REMARK    2  A    between atoms: C7_7  and  C9_9 
REMARK    3  A    between atoms: C8_8  and  C9_9 
ROOT
HETATM    1  C1  UNL     1     -33.357  16.357  -4.943  1.00 20.00     0.006 C 
HETATM    2  C2  UNL     1     -33.705  15.607  -6.232  1.00 20.00     0.020 C 
HETATM    3  C3  UNL     1     -34.854  14.510  -4.453  1.00 20.00     0.024 C 
HETATM    4  C4  UNL     1     -33.900  15.503  -3.788  1.00 20.00    -0.013 C 
HETATM    5  C5  UNL     1     -34.153  14.225  -5.773  1.00 20.00     0.082 C 
HETATM    6 CL10 UNL     1     -35.218  13.436  -6.944  1.00 20.00    -0.125 Cl
ENDROOT
BRANCH   4   7
HETATM    7  C7  UNL     1     -34.564  16.323  -2.694  1.00 20.00     0.005 C 
BRANCH   7   8
HETATM    8  C9  UNL     1     -33.575  17.286  -2.040  1.00 20.00     0.000 C 
BRANCH   8   9
HETATM    9  C8  UNL     1     -34.061  17.727  -0.660  1.00 20.00    -0.005 C 
HETATM   10  C6  UNL     1     -35.515  17.340  -0.432  1.00 20.00     0.005 C 
ENDBRANCH   8   9
ENDBRANCH   7   8
ENDBRANCH   4   7
TORSDOF 3
ENDMDL
