MODEL 1
REMARK VINA RESULT:      -6.2      0.000      0.000
REMARK  4 active torsions:
REMARK  status: ('A' for Active; 'I' for Inactive)
REMARK    1  A    between atoms: C1_1  and  C6_6 
REMARK    2  A    between atoms: C1_1  and  C8_8 
REMARK    3  A    between atoms: C7_7  and  C9_9 
REMARK    4  A    between atoms: C8_8  and  C9_9 
ROOT
HETATM    1  C1  UNL     1     -33.178   6.597   3.425  1.00 20.00     0.131 C 
HETATM    2  O10 UNL     1     -33.074   5.626   2.678  1.00 20.00    -0.298 OA
ENDROOT
BRANCH   1   3
HETATM    3  C6  UNL     1     -34.320   6.708   4.401  1.00 20.00     0.055 A 
HETATM    4  C2  UNL     1     -34.524   5.598   5.367  1.00 20.00     0.013 A 
HETATM    5  C3  UNL     1     -33.992   6.918   5.835  1.00 20.00     0.013 A 
ENDBRANCH   1   3
BRANCH   1   6
HETATM    6  C8  UNL     1     -32.183   7.745   3.428  1.00 20.00     0.079 C 
BRANCH   6   7
HETATM    7  C9  UNL     1     -31.807   8.197   2.020  1.00 20.00     0.012 C 
BRANCH   7   8
HETATM    8  C7  UNL     1     -32.873   9.100   1.421  1.00 20.00    -0.014 A 
HETATM    9  C4  UNL     1     -32.522  10.492   0.973  1.00 20.00     0.005 A 
HETATM   10  C5  UNL     1     -32.847   9.434  -0.044  1.00 20.00     0.005 A 
ENDBRANCH   7   8
ENDBRANCH   6   7
ENDBRANCH   1   6
TORSDOF 4
ENDMDL
MODEL 2
REMARK VINA RESULT:      -6.2      1.179      4.862
REMARK  4 active torsions:
REMARK  status: ('A' for Active; 'I' for Inactive)
REMARK    1  A    between atoms: C1_1  and  C6_6 
REMARK    2  A    between atoms: C1_1  and  C8_8 
REMARK    3  A    between atoms: C7_7  and  C9_9 
REMARK    4  A    between atoms: C8_8  and  C9_9 
ROOT
HETATM    1  C1  UNL     1     -32.149   8.232   2.396  1.00 20.00     0.131 C 
HETATM    2  O10 UNL     1     -31.454   8.285   3.408  1.00 20.00    -0.298 OA
ENDROOT
BRANCH   1   3
HETATM    3  C6  UNL     1     -31.853   9.106   1.205  1.00 20.00     0.055 A 
HETATM    4  C2  UNL     1     -32.881   9.203   0.136  1.00 20.00     0.013 A 
HETATM    5  C3  UNL     1     -32.631  10.363   1.053  1.00 20.00     0.013 A 
ENDBRANCH   1   3
BRANCH   1   6
HETATM    6  C8  UNL     1     -33.342   7.301   2.261  1.00 20.00     0.079 C 
BRANCH   6   7
HETATM    7  C9  UNL     1     -33.341   6.194   3.311  1.00 20.00     0.012 C 
BRANCH   7   8
HETATM    8  C7  UNL     1     -34.381   6.447   4.389  1.00 20.00    -0.014 A 
HETATM    9  C4  UNL     1     -34.476   5.534   5.580  1.00 20.00     0.005 A 
HETATM   10  C5  UNL     1     -33.962   6.937   5.746  1.00 20.00     0.005 A 
ENDBRANCH   7   8
ENDBRANCH   6   7
ENDBRANCH   1   6
TORSDOF 4
ENDMDL
MODEL 3
REMARK VINA RESULT:      -6.2      1.295      1.492
REMARK  4 active torsions:
REMARK  status: ('A' for Active; 'I' for Inactive)
REMARK    1  A    between atoms: C1_1  and  C6_6 
REMARK    2  A    between atoms: C1_1  and  C8_8 
REMARK    3  A    between atoms: C7_7  and  C9_9 
REMARK    4  A    between atoms: C8_8  and  C9_9 
ROOT
HETATM    1  C1  UNL     1     -33.566   6.823   4.327  1.00 20.00     0.131 C 
HETATM    2  O10 UNL     1     -33.208   7.587   5.222  1.00 20.00    -0.298 OA
ENDROOT
BRANCH   1   3
HETATM    3  C6  UNL     1     -34.702   5.857   4.539  1.00 20.00     0.055 A 
HETATM    4  C2  UNL     1     -34.424   4.406   4.386  1.00 20.00     0.013 A 
HETATM    5  C3  UNL     1     -34.663   4.991   5.746  1.00 20.00     0.013 A 
ENDBRANCH   1   3
BRANCH   1   6
HETATM    6  C8  UNL     1     -32.908   6.790   2.958  1.00 20.00     0.079 C 
BRANCH   6   7
HETATM    7  C9  UNL     1     -32.167   8.084   2.634  1.00 20.00     0.012 C 
BRANCH   7   8
HETATM    8  C7  UNL     1     -32.786   8.797   1.442  1.00 20.00    -0.014 A 
HETATM    9  C4  UNL     1     -32.609  10.280   1.271  1.00 20.00     0.005 A 
HETATM   10  C5  UNL     1     -31.912   9.327   0.340  1.00 20.00     0.005 A 
ENDBRANCH   7   8
ENDBRANCH   6   7
ENDBRANCH   1   6
TORSDOF 4
ENDMDL
MODEL 4
REMARK VINA RESULT:      -6.1      1.434      4.990
REMARK  4 active torsions:
REMARK  status: ('A' for Active; 'I' for Inactive)
REMARK    1  A    between atoms: C1_1  and  C6_6 
REMARK    2  A    between atoms: C1_1  and  C8_8 
REMARK    3  A    between atoms: C7_7  and  C9_9 
REMARK    4  A    between atoms: C8_8  and  C9_9 
ROOT
HETATM    1  C1  UNL     1     -32.232   8.110   2.937  1.00 20.00     0.131 C 
HETATM    2  O10 UNL     1     -31.076   8.273   3.321  1.00 20.00    -0.298 OA
ENDROOT
BRANCH   1   3
HETATM    3  C6  UNL     1     -32.660   8.540   1.558  1.00 20.00     0.055 A 
HETATM    4  C2  UNL     1     -32.616   9.988   1.232  1.00 20.00     0.013 A 
HETATM    5  C3  UNL     1     -31.615   9.049   0.632  1.00 20.00     0.013 A 
ENDBRANCH   1   3
BRANCH   1   6
HETATM    6  C8  UNL     1     -33.306   7.472   3.801  1.00 20.00     0.079 C 
BRANCH   6   7
HETATM    7  C9  UNL     1     -33.903   6.221   3.163  1.00 20.00     0.012 C 
BRANCH   7   8
HETATM    8  C7  UNL     1     -34.868   5.521   4.106  1.00 20.00    -0.014 A 
HETATM    9  C4  UNL     1     -34.470   4.237   4.780  1.00 20.00     0.005 A 
HETATM   10  C5  UNL     1     -34.600   5.500   5.585  1.00 20.00     0.005 A 
ENDBRANCH   7   8
ENDBRANCH   6   7
ENDBRANCH   1   6
TORSDOF 4
ENDMDL
MODEL 5
REMARK VINA RESULT:      -5.5      1.473      2.207
REMARK  4 active torsions:
REMARK  status: ('A' for Active; 'I' for Inactive)
REMARK    1  A    between atoms: C1_1  and  C6_6 
REMARK    2  A    between atoms: C1_1  and  C8_8 
REMARK    3  A    between atoms: C7_7  and  C9_9 
REMARK    4  A    between atoms: C8_8  and  C9_9 
ROOT
HETATM    1  C1  UNL     1     -34.073   4.780   3.933  1.00 20.00     0.131 C 
HETATM    2  O10 UNL     1     -34.198   3.594   4.230  1.00 20.00    -0.298 OA
ENDROOT
BRANCH   1   3
HETATM    3  C6  UNL     1     -34.756   5.858   4.735  1.00 20.00     0.055 A 
HETATM    4  C2  UNL     1     -34.865   5.674   6.205  1.00 20.00     0.013 A 
HETATM    5  C3  UNL     1     -33.920   6.690   5.638  1.00 20.00     0.013 A 
ENDBRANCH   1   3
BRANCH   1   6
HETATM    6  C8  UNL     1     -33.234   5.253   2.759  1.00 20.00     0.079 C 
BRANCH   6   7
HETATM    7  C9  UNL     1     -33.426   6.737   2.462  1.00 20.00     0.012 C 
BRANCH   7   8
HETATM    8  C7  UNL     1     -32.094   7.446   2.283  1.00 20.00    -0.014 A 
HETATM    9  C4  UNL     1     -32.053   8.923   2.005  1.00 20.00     0.005 A 
HETATM   10  C5  UNL     1     -31.594   8.396   3.335  1.00 20.00     0.005 A 
ENDBRANCH   7   8
ENDBRANCH   6   7
ENDBRANCH   1   6
TORSDOF 4
ENDMDL
MODEL 6
REMARK VINA RESULT:      -4.6      1.476      1.757
REMARK  4 active torsions:
REMARK  status: ('A' for Active; 'I' for Inactive)
REMARK    1  A    between atoms: C1_1  and  C6_6 
REMARK    2  A    between atoms: C1_1  and  C8_8 
REMARK    3  A    between atoms: C7_7  and  C9_9 
REMARK    4  A    between atoms: C8_8  and  C9_9 
ROOT
HETATM    1  C1  UNL     1     -32.764   7.276   3.245  1.00 20.00     0.131 C 
HETATM    2  O10 UNL     1     -32.722   7.561   4.440  1.00 20.00    -0.298 OA
ENDROOT
BRANCH   1   3
HETATM    3  C6  UNL     1     -33.738   6.251   2.725  1.00 20.00     0.055 A 
HETATM    4  C2  UNL     1     -33.498   4.824   3.062  1.00 20.00     0.013 A 
HETATM    5  C3  UNL     1     -34.625   5.573   3.706  1.00 20.00     0.013 A 
ENDBRANCH   1   3
BRANCH   1   6
HETATM    6  C8  UNL     1     -31.859   7.922   2.211  1.00 20.00     0.079 C 
BRANCH   6   7
HETATM    7  C9  UNL     1     -32.127   9.416   2.050  1.00 20.00     0.012 C 
BRANCH   7   8
HETATM    8  C7  UNL     1     -33.068   9.692   0.890  1.00 20.00    -0.014 A 
HETATM    9  C4  UNL     1     -32.546  10.303  -0.381  1.00 20.00     0.005 A 
HETATM   10  C5  UNL     1     -32.988   8.867  -0.364  1.00 20.00     0.005 A 
ENDBRANCH   7   8
ENDBRANCH   6   7
ENDBRANCH   1   6
TORSDOF 4
ENDMDL
MODEL 7
REMARK VINA RESULT:      -4.5      1.260      4.590
REMARK  4 active torsions:
REMARK  status: ('A' for Active; 'I' for Inactive)
REMARK    1  A    between atoms: C1_1  and  C6_6 
REMARK    2  A    between atoms: C1_1  and  C8_8 
REMARK    3  A    between atoms: C7_7  and  C9_9 
REMARK    4  A    between atoms: C8_8  and  C9_9 
ROOT
HETATM    1  C1  UNL     1     -32.934   6.282   2.707  1.00 20.00     0.131 C 
HETATM    2  O10 UNL     1     -32.738   5.075   2.582  1.00 20.00    -0.298 OA
ENDROOT
BRANCH   1   3
HETATM    3  C6  UNL     1     -31.833   7.279   2.453  1.00 20.00     0.055 A 
HETATM    4  C2  UNL     1     -32.216   8.668   2.093  1.00 20.00     0.013 A 
HETATM    5  C3  UNL     1     -31.639   8.369   3.444  1.00 20.00     0.013 A 
ENDBRANCH   1   3
BRANCH   1   6
HETATM    6  C8  UNL     1     -34.277   6.862   3.119  1.00 20.00     0.079 C 
BRANCH   6   7
HETATM    7  C9  UNL     1     -35.218   5.807   3.693  1.00 20.00     0.012 C 
BRANCH   7   8
HETATM    8  C7  UNL     1     -35.159   5.776   5.212  1.00 20.00    -0.014 A 
HETATM    9  C4  UNL     1     -34.144   4.916   5.913  1.00 20.00     0.005 A 
HETATM   10  C5  UNL     1     -34.007   6.412   5.938  1.00 20.00     0.005 A 
ENDBRANCH   7   8
ENDBRANCH   6   7
ENDBRANCH   1   6
TORSDOF 4
ENDMDL
MODEL 8
REMARK VINA RESULT:      -4.3     10.069     11.481
REMARK  4 active torsions:
REMARK  status: ('A' for Active; 'I' for Inactive)
REMARK    1  A    between atoms: C1_1  and  C6_6 
REMARK    2  A    between atoms: C1_1  and  C8_8 
REMARK    3  A    between atoms: C7_7  and  C9_9 
REMARK    4  A    between atoms: C8_8  and  C9_9 
ROOT
HETATM    1  C1  UNL     1     -35.222  13.746  -5.294  1.00 20.00     0.131 C 
HETATM    2  O10 UNL     1     -35.974  12.777  -5.211  1.00 20.00    -0.298 OA
ENDROOT
BRANCH   1   3
HETATM    3  C6  UNL     1     -35.133  14.553  -6.563  1.00 20.00     0.055 A 
HETATM    4  C2  UNL     1     -33.818  15.144  -6.925  1.00 20.00     0.013 A 
HETATM    5  C3  UNL     1     -34.364  13.982  -7.699  1.00 20.00     0.013 A 
ENDBRANCH   1   3
BRANCH   1   6
HETATM    6  C8  UNL     1     -34.337  14.205  -4.148  1.00 20.00     0.079 C 
BRANCH   6   7
HETATM    7  C9  UNL     1     -34.834  15.497  -3.506  1.00 20.00     0.012 C 
BRANCH   7   8
HETATM    8  C7  UNL     1     -33.679  16.365  -3.035  1.00 20.00    -0.014 A 
HETATM    9  C4  UNL     1     -33.771  17.863  -3.125  1.00 20.00     0.005 A 
HETATM   10  C5  UNL     1     -33.810  17.186  -1.783  1.00 20.00     0.005 A 
ENDBRANCH   7   8
ENDBRANCH   6   7
ENDBRANCH   1   6
TORSDOF 4
ENDMDL
MODEL 9
REMARK VINA RESULT:      -4.2     10.017     11.043
REMARK  4 active torsions:
REMARK  status: ('A' for Active; 'I' for Inactive)
REMARK    1  A    between atoms: C1_1  and  C6_6 
REMARK    2  A    between atoms: C1_1  and  C8_8 
REMARK    3  A    between atoms: C7_7  and  C9_9 
REMARK    4  A    between atoms: C8_8  and  C9_9 
ROOT
HETATM    1  C1  UNL     1     -35.604  13.828  -4.881  1.00 20.00     0.131 C 
HETATM    2  O10 UNL     1     -35.858  12.676  -5.227  1.00 20.00    -0.298 OA
ENDROOT
BRANCH   1   3
HETATM    3  C6  UNL     1     -36.527  14.966  -5.232  1.00 20.00     0.055 A 
HETATM    4  C2  UNL     1     -37.919  14.639  -5.635  1.00 20.00     0.013 A 
HETATM    5  C3  UNL     1     -37.647  15.266  -4.302  1.00 20.00     0.013 A 
ENDBRANCH   1   3
BRANCH   1   6
HETATM    6  C8  UNL     1     -34.364  14.195  -4.084  1.00 20.00     0.079 C 
BRANCH   6   7
HETATM    7  C9  UNL     1     -33.926  15.638  -4.317  1.00 20.00     0.012 C 
BRANCH   7   8
HETATM    8  C7  UNL     1     -33.767  16.390  -3.006  1.00 20.00    -0.014 A 
HETATM    9  C4  UNL     1     -34.386  17.750  -2.833  1.00 20.00     0.005 A 
HETATM   10  C5  UNL     1     -34.944  16.569  -2.088  1.00 20.00     0.005 A 
ENDBRANCH   7   8
ENDBRANCH   6   7
ENDBRANCH   1   6
TORSDOF 4
ENDMDL
