MODEL 1
REMARK VINA RESULT:      -6.5      0.000      0.000
REMARK  2 active torsions:
REMARK  status: ('A' for Active; 'I' for Inactive)
REMARK    1  A    between atoms: C7_7  and  C10_10 
REMARK    2  A    between atoms: C9_9  and  C10_10 
ROOT
HETATM    1  C2  UNL     1     -33.365   7.012   5.252  1.00 20.00     0.006 C 
HETATM    2  C3  UNL     1     -34.538   6.243   5.842  1.00 20.00     0.020 C 
HETATM    3  C5  UNL     1     -34.833   6.183   3.466  1.00 20.00     0.025 C 
HETATM    4  C7  UNL     1     -33.743   7.224   3.780  1.00 20.00    -0.011 C 
HETATM    5  C8  UNL     1     -34.969   5.313   4.715  1.00 20.00     0.082 C 
HETATM    6 CL12 UNL     1     -33.886   3.896   4.612  1.00 20.00    -0.125 Cl
ENDROOT
BRANCH   4   7
HETATM    7  C10 UNL     1     -32.540   7.119   2.853  1.00 20.00     0.036 C 
BRANCH   7   8
HETATM    8  C9  UNL     1     -32.107   8.476   2.335  1.00 20.00     0.121 C 
HETATM    9  C4  UNL     1     -33.268   9.410   2.036  1.00 20.00     0.034 C 
HETATM   10  C1  UNL     1     -32.663  10.319   0.997  1.00 20.00     0.029 C 
HETATM   11  C6  UNL     1     -31.809   9.357   0.198  1.00 20.00     0.168 C 
HETATM   12  O11 UNL     1     -31.390   8.323   1.100  1.00 20.00    -0.386 OA
ENDBRANCH   7   8
ENDBRANCH   4   7
TORSDOF 2
ENDMDL
MODEL 2
REMARK VINA RESULT:      -5.9      2.611      5.180
REMARK  2 active torsions:
REMARK  status: ('A' for Active; 'I' for Inactive)
REMARK    1  A    between atoms: C7_7  and  C10_10 
REMARK    2  A    between atoms: C9_9  and  C10_10 
ROOT
HETATM    1  C2  UNL     1     -33.230   9.563   2.342  1.00 20.00     0.006 C 
HETATM    2  C3  UNL     1     -32.680  10.555   1.327  1.00 20.00     0.020 C 
HETATM    3  C5  UNL     1     -31.353   8.574   1.105  1.00 20.00     0.025 C 
HETATM    4  C7  UNL     1     -32.180   8.445   2.397  1.00 20.00    -0.011 C 
HETATM    5  C8  UNL     1     -32.017   9.673   0.278  1.00 20.00     0.082 C 
HETATM    6 CL12 UNL     1     -33.236   8.975  -0.828  1.00 20.00    -0.125 Cl
ENDROOT
BRANCH   4   7
HETATM    7  C10 UNL     1     -32.810   7.068   2.560  1.00 20.00     0.036 C 
BRANCH   7   8
HETATM    8  C9  UNL     1     -33.844   7.050   3.668  1.00 20.00     0.121 C 
HETATM    9  C4  UNL     1     -33.257   7.280   5.050  1.00 20.00     0.034 C 
HETATM   10  C1  UNL     1     -34.272   6.592   5.927  1.00 20.00     0.029 C 
HETATM   11  C6  UNL     1     -34.641   5.384   5.091  1.00 20.00     0.168 C 
HETATM   12  O11 UNL     1     -34.488   5.766   3.716  1.00 20.00    -0.386 OA
ENDBRANCH   7   8
ENDBRANCH   4   7
TORSDOF 2
ENDMDL
MODEL 3
REMARK VINA RESULT:      -5.4      2.726      5.191
REMARK  2 active torsions:
REMARK  status: ('A' for Active; 'I' for Inactive)
REMARK    1  A    between atoms: C7_7  and  C10_10 
REMARK    2  A    between atoms: C9_9  and  C10_10 
ROOT
HETATM    1  C2  UNL     1     -31.363   8.197   2.585  1.00 20.00     0.006 C 
HETATM    2  C3  UNL     1     -31.193   8.724   1.167  1.00 20.00     0.020 C 
HETATM    3  C5  UNL     1     -33.499   8.111   1.377  1.00 20.00     0.025 C 
HETATM    4  C7  UNL     1     -32.745   7.531   2.587  1.00 20.00    -0.011 C 
HETATM    5  C8  UNL     1     -32.592   9.187   0.781  1.00 20.00     0.082 C 
HETATM    6 CL12 UNL     1     -32.955  10.781   1.501  1.00 20.00    -0.125 Cl
ENDROOT
BRANCH   4   7
HETATM    7  C10 UNL     1     -33.485   7.739   3.901  1.00 20.00     0.036 C 
BRANCH   7   8
HETATM    8  C9  UNL     1     -34.400   6.575   4.223  1.00 20.00     0.121 C 
HETATM    9  C4  UNL     1     -34.307   6.112   5.667  1.00 20.00     0.034 C 
HETATM   10  C1  UNL     1     -34.740   4.672   5.550  1.00 20.00     0.029 C 
HETATM   11  C6  UNL     1     -34.110   4.262   4.235  1.00 20.00     0.168 C 
HETATM   12  O11 UNL     1     -34.050   5.439   3.416  1.00 20.00    -0.386 OA
ENDBRANCH   7   8
ENDBRANCH   4   7
TORSDOF 2
ENDMDL
MODEL 4
REMARK VINA RESULT:      -4.6     10.474     11.465
REMARK  2 active torsions:
REMARK  status: ('A' for Active; 'I' for Inactive)
REMARK    1  A    between atoms: C7_7  and  C10_10 
REMARK    2  A    between atoms: C9_9  and  C10_10 
ROOT
HETATM    1  C2  UNL     1     -34.297  15.205  -6.277  1.00 20.00     0.006 C 
HETATM    2  C3  UNL     1     -34.998  13.868  -6.465  1.00 20.00     0.020 C 
HETATM    3  C5  UNL     1     -34.515  14.042  -4.126  1.00 20.00     0.025 C 
HETATM    4  C7  UNL     1     -33.729  15.147  -4.853  1.00 20.00    -0.011 C 
HETATM    5  C8  UNL     1     -35.599  13.576  -5.096  1.00 20.00     0.082 C 
HETATM    6 CL12 UNL     1     -37.103  14.510  -4.850  1.00 20.00    -0.125 Cl
ENDROOT
BRANCH   4   7
HETATM    7  C10 UNL     1     -33.806  16.493  -4.144  1.00 20.00     0.036 C 
BRANCH   7   8
HETATM    8  C9  UNL     1     -34.143  16.337  -2.675  1.00 20.00     0.121 C 
HETATM    9  C4  UNL     1     -35.544  16.807  -2.320  1.00 20.00     0.034 C 
HETATM   10  C1  UNL     1     -35.384  17.157  -0.863  1.00 20.00     0.029 C 
HETATM   11  C6  UNL     1     -33.996  17.763  -0.836  1.00 20.00     0.168 C 
HETATM   12  O11 UNL     1     -33.243  17.129  -1.880  1.00 20.00    -0.386 OA
ENDBRANCH   7   8
ENDBRANCH   4   7
TORSDOF 2
ENDMDL
MODEL 5
REMARK VINA RESULT:      -4.4     10.911     11.841
REMARK  2 active torsions:
REMARK  status: ('A' for Active; 'I' for Inactive)
REMARK    1  A    between atoms: C7_7  and  C10_10 
REMARK    2  A    between atoms: C9_9  and  C10_10 
ROOT
HETATM    1  C2  UNL     1     -33.916  17.856  -4.180  1.00 20.00     0.006 C 
HETATM    2  C3  UNL     1     -34.466  18.777  -3.100  1.00 20.00     0.020 C 
HETATM    3  C5  UNL     1     -34.686  16.549  -2.249  1.00 20.00     0.025 C 
HETATM    4  C7  UNL     1     -34.353  16.450  -3.749  1.00 20.00    -0.011 C 
HETATM    5  C8  UNL     1     -34.315  17.967  -1.819  1.00 20.00     0.082 C 
HETATM    6 CL12 UNL     1     -32.628  18.021  -1.230  1.00 20.00    -0.125 Cl
ENDROOT
BRANCH   4   7
HETATM    7  C10 UNL     1     -33.296  15.397  -4.052  1.00 20.00     0.036 C 
BRANCH   7   8
HETATM    8  C9  UNL     1     -33.823  14.319  -4.977  1.00 20.00     0.121 C 
HETATM    9  C4  UNL     1     -34.402  14.862  -6.273  1.00 20.00     0.034 C 
HETATM   10  C1  UNL     1     -35.374  13.773  -6.648  1.00 20.00     0.029 C 
HETATM   11  C6  UNL     1     -35.926  13.367  -5.297  1.00 20.00     0.168 C 
HETATM   12  O11 UNL     1     -34.888  13.600  -4.335  1.00 20.00    -0.386 OA
ENDBRANCH   7   8
ENDBRANCH   4   7
TORSDOF 2
ENDMDL
MODEL 6
REMARK VINA RESULT:      -4.4     10.841     11.860
REMARK  2 active torsions:
REMARK  status: ('A' for Active; 'I' for Inactive)
REMARK    1  A    between atoms: C7_7  and  C10_10 
REMARK    2  A    between atoms: C9_9  and  C10_10 
ROOT
HETATM    1  C2  UNL     1     -33.725  16.810  -4.910  1.00 20.00     0.006 C 
HETATM    2  C3  UNL     1     -33.303  15.904  -6.058  1.00 20.00     0.020 C 
HETATM    3  C5  UNL     1     -33.817  14.455  -4.222  1.00 20.00     0.025 C 
HETATM    4  C7  UNL     1     -33.742  15.893  -3.680  1.00 20.00    -0.011 C 
HETATM    5  C8  UNL     1     -33.972  14.574  -5.737  1.00 20.00     0.082 C 
HETATM    6 CL12 UNL     1     -35.700  14.607  -6.190  1.00 20.00    -0.125 Cl
ENDROOT
BRANCH   4   7
HETATM    7  C10 UNL     1     -34.880  16.227  -2.725  1.00 20.00     0.036 C 
BRANCH   7   8
HETATM    8  C9  UNL     1     -34.608  17.497  -1.946  1.00 20.00     0.121 C 
HETATM    9  C4  UNL     1     -33.168  17.627  -1.480  1.00 20.00     0.034 C 
HETATM   10  C1  UNL     1     -33.320  18.520  -0.275  1.00 20.00     0.029 C 
HETATM   11  C6  UNL     1     -34.615  18.017   0.327  1.00 20.00     0.168 C 
HETATM   12  O11 UNL     1     -35.417  17.525  -0.757  1.00 20.00    -0.386 OA
ENDBRANCH   7   8
ENDBRANCH   4   7
TORSDOF 2
ENDMDL
MODEL 7
REMARK VINA RESULT:      -4.3     10.730     11.721
REMARK  2 active torsions:
REMARK  status: ('A' for Active; 'I' for Inactive)
REMARK    1  A    between atoms: C7_7  and  C10_10 
REMARK    2  A    between atoms: C9_9  and  C10_10 
ROOT
HETATM    1  C2  UNL     1     -34.750  13.993  -4.178  1.00 20.00     0.006 C 
HETATM    2  C3  UNL     1     -35.527  13.656  -5.442  1.00 20.00     0.020 C 
HETATM    3  C5  UNL     1     -35.618  16.039  -5.223  1.00 20.00     0.025 C 
HETATM    4  C7  UNL     1     -35.088  15.463  -3.897  1.00 20.00    -0.011 C 
HETATM    5  C8  UNL     1     -35.455  14.934  -6.266  1.00 20.00     0.082 C 
HETATM    6 CL12 UNL     1     -33.873  15.074  -7.085  1.00 20.00    -0.125 Cl
ENDROOT
BRANCH   4   7
HETATM    7  C10 UNL     1     -33.895  16.236  -3.351  1.00 20.00     0.036 C 
BRANCH   7   8
HETATM    8  C9  UNL     1     -34.323  17.328  -2.391  1.00 20.00     0.121 C 
HETATM    9  C4  UNL     1     -33.283  17.646  -1.330  1.00 20.00     0.034 C 
HETATM   10  C1  UNL     1     -34.142  18.196  -0.221  1.00 20.00     0.029 C 
HETATM   11  C6  UNL     1     -35.370  17.313  -0.308  1.00 20.00     0.168 C 
HETATM   12  O11 UNL     1     -35.505  16.921  -1.682  1.00 20.00    -0.386 OA
ENDBRANCH   7   8
ENDBRANCH   4   7
TORSDOF 2
ENDMDL
MODEL 8
REMARK VINA RESULT:      -4.3      1.527      1.951
REMARK  2 active torsions:
REMARK  status: ('A' for Active; 'I' for Inactive)
REMARK    1  A    between atoms: C7_7  and  C10_10 
REMARK    2  A    between atoms: C9_9  and  C10_10 
ROOT
HETATM    1  C2  UNL     1     -34.883   6.607   2.974  1.00 20.00     0.006 C 
HETATM    2  C3  UNL     1     -35.529   5.590   3.904  1.00 20.00     0.020 C 
HETATM    3  C5  UNL     1     -33.175   5.160   3.983  1.00 20.00     0.025 C 
HETATM    4  C7  UNL     1     -33.441   6.113   2.803  1.00 20.00    -0.011 C 
HETATM    5  C8  UNL     1     -34.414   5.223   4.874  1.00 20.00     0.082 C 
HETATM    6 CL12 UNL     1     -34.222   6.483   6.127  1.00 20.00    -0.125 Cl
ENDROOT
BRANCH   4   7
HETATM    7  C10 UNL     1     -32.442   7.260   2.732  1.00 20.00     0.036 C 
BRANCH   7   8
HETATM    8  C9  UNL     1     -32.755   8.210   1.594  1.00 20.00     0.121 C 
HETATM    9  C4  UNL     1     -31.537   8.590   0.768  1.00 20.00     0.034 C 
HETATM   10  C1  UNL     1     -31.955   9.928   0.213  1.00 20.00     0.029 C 
HETATM   11  C6  UNL     1     -32.707  10.531   1.382  1.00 20.00     0.168 C 
HETATM   12  O11 UNL     1     -33.284   9.441   2.114  1.00 20.00    -0.386 OA
ENDBRANCH   7   8
ENDBRANCH   4   7
TORSDOF 2
ENDMDL
MODEL 9
REMARK VINA RESULT:      -4.1      1.548      2.031
REMARK  2 active torsions:
REMARK  status: ('A' for Active; 'I' for Inactive)
REMARK    1  A    between atoms: C7_7  and  C10_10 
REMARK    2  A    between atoms: C9_9  and  C10_10 
ROOT
HETATM    1  C2  UNL     1     -33.012   5.868   2.921  1.00 20.00     0.006 C 
HETATM    2  C3  UNL     1     -33.864   4.749   3.503  1.00 20.00     0.020 C 
HETATM    3  C5  UNL     1     -34.013   6.570   5.050  1.00 20.00     0.025 C 
HETATM    4  C7  UNL     1     -32.873   6.882   4.063  1.00 20.00    -0.011 C 
HETATM    5  C8  UNL     1     -34.857   5.475   4.400  1.00 20.00     0.082 C 
HETATM    6 CL12 UNL     1     -36.178   6.194   3.434  1.00 20.00    -0.125 Cl
ENDROOT
BRANCH   4   7
HETATM    7  C10 UNL     1     -32.899   8.321   3.565  1.00 20.00     0.036 C 
BRANCH   7   8
HETATM    8  C9  UNL     1     -32.822   8.395   2.054  1.00 20.00     0.121 C 
HETATM    9  C4  UNL     1     -31.401   8.490   1.523  1.00 20.00     0.034 C 
HETATM   10  C1  UNL     1     -31.620   9.180   0.200  1.00 20.00     0.029 C 
HETATM   11  C6  UNL     1     -32.721  10.164   0.538  1.00 20.00     0.168 C 
HETATM   12  O11 UNL     1     -33.502   9.572   1.586  1.00 20.00    -0.386 OA
ENDBRANCH   7   8
ENDBRANCH   4   7
TORSDOF 2
ENDMDL
