MODEL 1
REMARK VINA RESULT:      -5.0      0.000      0.000
REMARK  1 active torsions:
REMARK  status: ('A' for Active; 'I' for Inactive)
REMARK    1  A    between atoms: C7_7  and  C8_8 
ROOT
HETATM    1  C1  UNL     1     -33.438   5.169   3.129  1.00 20.00     0.002 C 
HETATM    2  C2  UNL     1     -32.749   6.123   2.158  1.00 20.00     0.005 C 
HETATM    3  C5  UNL     1     -34.736   5.759   3.678  1.00 20.00     0.016 C 
HETATM    4  C6  UNL     1     -33.787   8.101   3.344  1.00 20.00     0.020 C 
HETATM    5  C8  UNL     1     -32.485   7.489   2.801  1.00 20.00    -0.009 C 
HETATM    6  C9  UNL     1     -34.567   7.160   4.259  1.00 20.00     0.058 C 
HETATM    7 BR10 UNL     1     -33.703   7.058   6.018  1.00 20.00    -0.091 Br
ENDROOT
BRANCH   5   8
HETATM    8  C7  UNL     1     -31.826   8.436   1.797  1.00 20.00    -0.010 A 
HETATM    9  C3  UNL     1     -32.527   8.786   0.514  1.00 20.00     0.005 A 
HETATM   10  C4  UNL     1     -32.372   9.821   1.593  1.00 20.00     0.005 A 
ENDBRANCH   5   8
TORSDOF 1
ENDMDL
MODEL 2
REMARK VINA RESULT:      -4.9     10.422     11.387
REMARK  1 active torsions:
REMARK  status: ('A' for Active; 'I' for Inactive)
REMARK    1  A    between atoms: C7_7  and  C8_8 
ROOT
HETATM    1  C1  UNL     1     -35.287  17.306  -0.659  1.00 20.00     0.002 C 
HETATM    2  C2  UNL     1     -35.254  16.572  -1.996  1.00 20.00     0.005 C 
HETATM    3  C5  UNL     1     -34.838  18.761  -0.800  1.00 20.00     0.016 C 
HETATM    4  C6  UNL     1     -33.409  18.101  -2.805  1.00 20.00     0.020 C 
HETATM    5  C8  UNL     1     -33.866  16.642  -2.644  1.00 20.00    -0.009 C 
HETATM    6  C9  UNL     1     -33.499  18.914  -1.515  1.00 20.00     0.058 C 
HETATM    7 BR10 UNL     1     -32.031  18.428  -0.308  1.00 20.00    -0.091 Br
ENDROOT
BRANCH   5   8
HETATM    8  C7  UNL     1     -33.869  15.929  -3.997  1.00 20.00    -0.010 A 
HETATM    9  C3  UNL     1     -33.023  14.705  -4.210  1.00 20.00     0.005 A 
HETATM   10  C4  UNL     1     -34.520  14.582  -4.141  1.00 20.00     0.005 A 
ENDBRANCH   5   8
TORSDOF 1
ENDMDL
MODEL 3
REMARK VINA RESULT:      -4.8     10.939     11.441
REMARK  1 active torsions:
REMARK  status: ('A' for Active; 'I' for Inactive)
REMARK    1  A    between atoms: C7_7  and  C8_8 
ROOT
HETATM    1  C1  UNL     1     -36.287  15.330  -4.314  1.00 20.00     0.002 C 
HETATM    2  C2  UNL     1     -35.579  15.931  -3.104  1.00 20.00     0.005 C 
HETATM    3  C5  UNL     1     -35.513  14.148  -4.896  1.00 20.00     0.016 C 
HETATM    4  C6  UNL     1     -33.347  15.160  -4.011  1.00 20.00     0.020 C 
HETATM    5  C8  UNL     1     -34.142  16.346  -3.439  1.00 20.00    -0.009 C 
HETATM    6  C9  UNL     1     -34.046  14.463  -5.176  1.00 20.00     0.058 C 
HETATM    7 BR10 UNL     1     -33.890  15.548  -6.803  1.00 20.00    -0.091 Br
ENDROOT
BRANCH   5   8
HETATM    8  C7  UNL     1     -33.444  16.911  -2.201  1.00 20.00    -0.010 A 
HETATM    9  C3  UNL     1     -33.261  18.395  -2.047  1.00 20.00     0.005 A 
HETATM   10  C4  UNL     1     -34.233  17.663  -1.165  1.00 20.00     0.005 A 
ENDBRANCH   5   8
TORSDOF 1
ENDMDL
MODEL 4
REMARK VINA RESULT:      -4.7     10.689     11.448
REMARK  1 active torsions:
REMARK  status: ('A' for Active; 'I' for Inactive)
REMARK    1  A    between atoms: C7_7  and  C8_8 
ROOT
HETATM    1  C1  UNL     1     -33.116  14.752  -4.610  1.00 20.00     0.002 C 
HETATM    2  C2  UNL     1     -33.332  15.881  -3.607  1.00 20.00     0.005 C 
HETATM    3  C5  UNL     1     -33.866  15.004  -5.918  1.00 20.00     0.016 C 
HETATM    4  C6  UNL     1     -35.585  16.385  -4.639  1.00 20.00     0.020 C 
HETATM    5  C8  UNL     1     -34.821  16.115  -3.332  1.00 20.00    -0.009 C 
HETATM    6  C9  UNL     1     -35.343  15.329  -5.716  1.00 20.00     0.058 C 
HETATM    7 BR10 UNL     1     -36.341  13.694  -5.293  1.00 20.00    -0.091 Br
ENDROOT
BRANCH   5   8
HETATM    8  C7  UNL     1     -35.011  17.273  -2.351  1.00 20.00    -0.010 A 
HETATM    9  C3  UNL     1     -35.524  17.014  -0.963  1.00 20.00     0.005 A 
HETATM   10  C4  UNL     1     -34.093  17.423  -1.171  1.00 20.00     0.005 A 
ENDBRANCH   5   8
TORSDOF 1
ENDMDL
MODEL 5
REMARK VINA RESULT:      -4.7      1.556      2.133
REMARK  1 active torsions:
REMARK  status: ('A' for Active; 'I' for Inactive)
REMARK    1  A    between atoms: C7_7  and  C8_8 
ROOT
HETATM    1  C1  UNL     1     -33.641   7.404   5.608  1.00 20.00     0.002 C 
HETATM    2  C2  UNL     1     -32.633   8.003   4.632  1.00 20.00     0.005 C 
HETATM    3  C5  UNL     1     -33.814   5.901   5.394  1.00 20.00     0.016 C 
HETATM    4  C6  UNL     1     -33.177   6.200   2.944  1.00 20.00     0.020 C 
HETATM    5  C8  UNL     1     -33.015   7.711   3.177  1.00 20.00    -0.009 C 
HETATM    6  C9  UNL     1     -34.113   5.526   3.945  1.00 20.00     0.058 C 
HETATM    7 BR10 UNL     1     -35.980   5.946   3.513  1.00 20.00    -0.091 Br
ENDROOT
BRANCH   5   8
HETATM    8  C7  UNL     1     -31.971   8.291   2.221  1.00 20.00    -0.010 A 
HETATM    9  C3  UNL     1     -32.358   8.676   0.820  1.00 20.00     0.005 A 
HETATM   10  C4  UNL     1     -32.028   9.741   1.828  1.00 20.00     0.005 A 
ENDBRANCH   5   8
TORSDOF 1
ENDMDL
MODEL 6
REMARK VINA RESULT:      -4.4     10.741     11.854
REMARK  1 active torsions:
REMARK  status: ('A' for Active; 'I' for Inactive)
REMARK    1  A    between atoms: C7_7  and  C8_8 
ROOT
HETATM    1  C1  UNL     1     -33.329  17.140  -4.547  1.00 20.00     0.002 C 
HETATM    2  C2  UNL     1     -33.253  15.952  -5.501  1.00 20.00     0.005 C 
HETATM    3  C5  UNL     1     -33.753  16.713  -3.142  1.00 20.00     0.016 C 
HETATM    4  C6  UNL     1     -35.009  14.736  -4.148  1.00 20.00     0.020 C 
HETATM    5  C8  UNL     1     -34.579  15.185  -5.554  1.00 20.00    -0.009 C 
HETATM    6  C9  UNL     1     -35.024  15.868  -3.124  1.00 20.00     0.058 C 
HETATM    7 BR10 UNL     1     -36.594  17.011  -3.405  1.00 20.00    -0.091 Br
ENDROOT
BRANCH   5   8
HETATM    8  C7  UNL     1     -34.465  13.981  -6.490  1.00 20.00    -0.010 A 
HETATM    9  C3  UNL     1     -35.457  13.790  -7.603  1.00 20.00     0.005 A 
HETATM   10  C4  UNL     1     -34.038  14.170  -7.918  1.00 20.00     0.005 A 
ENDBRANCH   5   8
TORSDOF 1
ENDMDL
MODEL 7
REMARK VINA RESULT:      -4.3     10.968     11.687
REMARK  1 active torsions:
REMARK  status: ('A' for Active; 'I' for Inactive)
REMARK    1  A    between atoms: C7_7  and  C8_8 
ROOT
HETATM    1  C1  UNL     1     -37.926  15.935  -4.640  1.00 20.00     0.002 C 
HETATM    2  C2  UNL     1     -36.821  16.127  -3.605  1.00 20.00     0.005 C 
HETATM    3  C5  UNL     1     -37.994  14.491  -5.135  1.00 20.00     0.016 C 
HETATM    4  C6  UNL     1     -35.508  14.226  -4.633  1.00 20.00     0.020 C 
HETATM    5  C8  UNL     1     -35.457  15.684  -4.146  1.00 20.00    -0.009 C 
HETATM    6  C9  UNL     1     -36.649  13.950  -5.611  1.00 20.00     0.058 C 
HETATM    7 BR10 UNL     1     -36.215  14.685  -7.377  1.00 20.00    -0.091 Br
ENDROOT
BRANCH   5   8
HETATM    8  C7  UNL     1     -34.376  15.854  -3.078  1.00 20.00    -0.010 A 
HETATM    9  C3  UNL     1     -33.548  17.108  -3.032  1.00 20.00     0.005 A 
HETATM   10  C4  UNL     1     -34.565  16.838  -1.959  1.00 20.00     0.005 A 
ENDBRANCH   5   8
TORSDOF 1
ENDMDL
MODEL 8
REMARK VINA RESULT:      -4.3     10.782     11.491
REMARK  1 active torsions:
REMARK  status: ('A' for Active; 'I' for Inactive)
REMARK    1  A    between atoms: C7_7  and  C8_8 
ROOT
HETATM    1  C1  UNL     1     -33.136  18.579  -1.596  1.00 20.00     0.002 C 
HETATM    2  C2  UNL     1     -33.137  17.277  -2.392  1.00 20.00     0.005 C 
HETATM    3  C5  UNL     1     -33.920  18.446  -0.291  1.00 20.00     0.016 C 
HETATM    4  C6  UNL     1     -35.358  16.637  -1.366  1.00 20.00     0.020 C 
HETATM    5  C8  UNL     1     -34.563  16.789  -2.673  1.00 20.00    -0.009 C 
HETATM    6  C9  UNL     1     -35.325  17.883  -0.483  1.00 20.00     0.058 C 
HETATM    7 BR10 UNL     1     -36.508  19.263  -1.221  1.00 20.00    -0.091 Br
ENDROOT
BRANCH   5   8
HETATM    8  C7  UNL     1     -34.535  15.467  -3.441  1.00 20.00    -0.010 A 
HETATM    9  C3  UNL     1     -34.869  15.435  -4.906  1.00 20.00     0.005 A 
HETATM   10  C4  UNL     1     -33.456  15.201  -4.452  1.00 20.00     0.005 A 
ENDBRANCH   5   8
TORSDOF 1
ENDMDL
MODEL 9
REMARK VINA RESULT:      -4.2     10.047     11.664
REMARK  1 active torsions:
REMARK  status: ('A' for Active; 'I' for Inactive)
REMARK    1  A    between atoms: C7_7  and  C8_8 
ROOT
HETATM    1  C1  UNL     1     -35.769  18.628  -3.220  1.00 20.00     0.002 C 
HETATM    2  C2  UNL     1     -35.028  17.537  -3.986  1.00 20.00     0.005 C 
HETATM    3  C5  UNL     1     -34.889  19.263  -2.143  1.00 20.00     0.016 C 
HETATM    4  C6  UNL     1     -33.576  17.085  -1.965  1.00 20.00     0.020 C 
HETATM    5  C8  UNL     1     -34.477  16.461  -3.044  1.00 20.00    -0.009 C 
HETATM    6  C9  UNL     1     -34.234  18.242  -1.217  1.00 20.00     0.058 C 
HETATM    7 BR10 UNL     1     -35.552  17.555   0.064  1.00 20.00    -0.091 Br
ENDROOT
BRANCH   5   8
HETATM    8  C7  UNL     1     -33.709  15.399  -3.833  1.00 20.00    -0.010 A 
HETATM    9  C3  UNL     1     -34.361  14.086  -4.167  1.00 20.00     0.005 A 
HETATM   10  C4  UNL     1     -34.091  15.088  -5.253  1.00 20.00     0.005 A 
ENDBRANCH   5   8
TORSDOF 1
ENDMDL
