MODEL 1
REMARK VINA RESULT:      -6.0      0.000      0.000
REMARK  6 active torsions:
REMARK  status: ('A' for Active; 'I' for Inactive)
REMARK    1  A    between atoms: C2_2  and  C7_7 
REMARK    2  A    between atoms: C5_5  and  C10_10 
REMARK    3  A    between atoms: C7_7  and  C8_8 
REMARK    4  A    between atoms: C8_8  and  C9_9 
REMARK    5  A    between atoms: C9_9  and  C10_10 
REMARK    6  A    between atoms: C10_10  and  O11_11 
ROOT
HETATM    1  C1  UNL     1     -32.602   9.233   0.571  1.00 20.00    -0.111 C 
HETATM    2  C2  UNL     1     -32.105   8.980   1.634  1.00 20.00    -0.107 C 
HETATM    3  C6  UNL     1     -33.207   9.541  -0.724  1.00 20.00     0.112 C 
ENDROOT
BRANCH   2   4
HETATM    4  C7  UNL     1     -31.494   8.672   2.935  1.00 20.00     0.094 C 
BRANCH   4   5
HETATM    5  C8  UNL     1     -32.072   7.384   3.524  1.00 20.00     0.014 C 
BRANCH   5   6
HETATM    6  C9  UNL     1     -33.601   7.429   3.562  1.00 20.00     0.033 C 
BRANCH   6   7
HETATM    7  C10 UNL     1     -34.260   6.104   3.164  1.00 20.00     0.122 C 
BRANCH   7   8
HETATM    8  C5  UNL     1     -35.022   5.465   4.288  1.00 20.00     0.014 A 
HETATM    9  C3  UNL     1     -34.449   4.281   5.016  1.00 20.00     0.007 A 
HETATM   10  C4  UNL     1     -34.544   5.613   5.706  1.00 20.00     0.007 A 
ENDBRANCH   7   8
BRANCH   7  11
HETATM   11  O11 UNL     1     -33.218   5.219   2.750  1.00 20.00    -0.395 OA
HETATM   12  H27 UNL     1     -32.402   5.555   3.148  1.00 20.00     0.210 HD
ENDBRANCH   7  11
ENDBRANCH   6   7
ENDBRANCH   5   6
ENDBRANCH   4   5
ENDBRANCH   2   4
TORSDOF 6
ENDMDL
MODEL 2
REMARK VINA RESULT:      -5.9      1.475      1.744
REMARK  6 active torsions:
REMARK  status: ('A' for Active; 'I' for Inactive)
REMARK    1  A    between atoms: C2_2  and  C7_7 
REMARK    2  A    between atoms: C5_5  and  C10_10 
REMARK    3  A    between atoms: C7_7  and  C8_8 
REMARK    4  A    between atoms: C8_8  and  C9_9 
REMARK    5  A    between atoms: C9_9  and  C10_10 
REMARK    6  A    between atoms: C10_10  and  O11_11 
ROOT
HETATM    1  C1  UNL     1     -32.646   9.295   0.482  1.00 20.00    -0.111 C 
HETATM    2  C2  UNL     1     -32.168   8.904   1.512  1.00 20.00    -0.107 C 
HETATM    3  C6  UNL     1     -33.228   9.772  -0.772  1.00 20.00     0.112 C 
ENDROOT
BRANCH   2   4
HETATM    4  C7  UNL     1     -31.586   8.425   2.773  1.00 20.00     0.094 C 
BRANCH   4   5
HETATM    5  C8  UNL     1     -32.304   7.168   3.268  1.00 20.00     0.014 C 
BRANCH   5   6
HETATM    6  C9  UNL     1     -33.520   7.526   4.124  1.00 20.00     0.033 C 
BRANCH   6   7
HETATM    7  C10 UNL     1     -33.613   6.715   5.421  1.00 20.00     0.122 C 
BRANCH   7   8
HETATM    8  C5  UNL     1     -34.684   5.664   5.384  1.00 20.00     0.014 A 
HETATM    9  C3  UNL     1     -35.355   5.312   4.086  1.00 20.00     0.007 A 
HETATM   10  C4  UNL     1     -34.415   4.335   4.735  1.00 20.00     0.007 A 
ENDBRANCH   7   8
BRANCH   7  11
HETATM   11  O11 UNL     1     -33.904   7.634   6.476  1.00 20.00    -0.395 OA
HETATM   12  H27 UNL     1     -34.818   7.461   6.744  1.00 20.00     0.210 HD
ENDBRANCH   7  11
ENDBRANCH   6   7
ENDBRANCH   5   6
ENDBRANCH   4   5
ENDBRANCH   2   4
TORSDOF 6
ENDMDL
MODEL 3
REMARK VINA RESULT:      -5.5      1.190      1.835
REMARK  6 active torsions:
REMARK  status: ('A' for Active; 'I' for Inactive)
REMARK    1  A    between atoms: C2_2  and  C7_7 
REMARK    2  A    between atoms: C5_5  and  C10_10 
REMARK    3  A    between atoms: C7_7  and  C8_8 
REMARK    4  A    between atoms: C8_8  and  C9_9 
REMARK    5  A    between atoms: C9_9  and  C10_10 
REMARK    6  A    between atoms: C10_10  and  O11_11 
ROOT
HETATM    1  C1  UNL     1     -32.456   9.074   1.370  1.00 20.00    -0.111 C 
HETATM    2  C2  UNL     1     -32.305   8.107   2.065  1.00 20.00    -0.107 C 
HETATM    3  C6  UNL     1     -32.639  10.252   0.523  1.00 20.00     0.112 C 
ENDROOT
BRANCH   2   4
HETATM    4  C7  UNL     1     -32.118   6.925   2.918  1.00 20.00     0.094 C 
BRANCH   4   5
HETATM    5  C8  UNL     1     -33.088   5.807   2.530  1.00 20.00     0.014 C 
BRANCH   5   6
HETATM    6  C9  UNL     1     -34.484   6.063   3.100  1.00 20.00     0.033 C 
BRANCH   6   7
HETATM    7  C10 UNL     1     -34.768   5.286   4.391  1.00 20.00     0.122 C 
BRANCH   7   8
HETATM    8  C5  UNL     1     -34.015   5.817   5.575  1.00 20.00     0.014 A 
HETATM    9  C3  UNL     1     -33.728   7.288   5.693  1.00 20.00     0.007 A 
HETATM   10  C4  UNL     1     -34.724   6.641   6.614  1.00 20.00     0.007 A 
ENDBRANCH   7   8
BRANCH   7  11
HETATM   11  O11 UNL     1     -34.377   3.930   4.164  1.00 20.00    -0.395 OA
HETATM   12  H27 UNL     1     -33.461   3.857   4.468  1.00 20.00     0.210 HD
ENDBRANCH   7  11
ENDBRANCH   6   7
ENDBRANCH   5   6
ENDBRANCH   4   5
ENDBRANCH   2   4
TORSDOF 6
ENDMDL
MODEL 4
REMARK VINA RESULT:      -5.0      1.678      5.189
REMARK  6 active torsions:
REMARK  status: ('A' for Active; 'I' for Inactive)
REMARK    1  A    between atoms: C2_2  and  C7_7 
REMARK    2  A    between atoms: C5_5  and  C10_10 
REMARK    3  A    between atoms: C7_7  and  C8_8 
REMARK    4  A    between atoms: C8_8  and  C9_9 
REMARK    5  A    between atoms: C9_9  and  C10_10 
REMARK    6  A    between atoms: C10_10  and  O11_11 
ROOT
HETATM    1  C1  UNL     1     -34.014   6.912   5.567  1.00 20.00    -0.111 C 
HETATM    2  C2  UNL     1     -34.133   6.230   4.586  1.00 20.00    -0.107 C 
HETATM    3  C6  UNL     1     -33.869   7.741   6.763  1.00 20.00     0.112 C 
ENDROOT
BRANCH   2   4
HETATM    4  C7  UNL     1     -34.282   5.397   3.385  1.00 20.00     0.094 C 
BRANCH   4   5
HETATM    5  C8  UNL     1     -33.907   6.177   2.123  1.00 20.00     0.014 C 
BRANCH   5   6
HETATM    6  C9  UNL     1     -32.480   6.720   2.211  1.00 20.00     0.033 C 
BRANCH   6   7
HETATM    7  C10 UNL     1     -32.416   8.238   2.411  1.00 20.00     0.122 C 
BRANCH   7   8
HETATM    8  C5  UNL     1     -31.963   8.975   1.185  1.00 20.00     0.014 A 
HETATM    9  C3  UNL     1     -32.884   9.123   0.006  1.00 20.00     0.007 A 
HETATM   10  C4  UNL     1     -32.549  10.319   0.852  1.00 20.00     0.007 A 
ENDBRANCH   7   8
BRANCH   7  11
HETATM   11  O11 UNL     1     -31.489   8.488   3.469  1.00 20.00    -0.395 OA
HETATM   12  H27 UNL     1     -30.932   7.699   3.535  1.00 20.00     0.210 HD
ENDBRANCH   7  11
ENDBRANCH   6   7
ENDBRANCH   5   6
ENDBRANCH   4   5
ENDBRANCH   2   4
TORSDOF 6
ENDMDL
MODEL 5
REMARK VINA RESULT:      -5.0     10.826     11.548
REMARK  6 active torsions:
REMARK  status: ('A' for Active; 'I' for Inactive)
REMARK    1  A    between atoms: C2_2  and  C7_7 
REMARK    2  A    between atoms: C5_5  and  C10_10 
REMARK    3  A    between atoms: C7_7  and  C8_8 
REMARK    4  A    between atoms: C8_8  and  C9_9 
REMARK    5  A    between atoms: C9_9  and  C10_10 
REMARK    6  A    between atoms: C10_10  and  O11_11 
ROOT
HETATM    1  C1  UNL     1     -34.739  16.679  -2.061  1.00 20.00    -0.111 C 
HETATM    2  C2  UNL     1     -34.140  16.309  -3.034  1.00 20.00    -0.107 C 
HETATM    3  C6  UNL     1     -35.467  17.131  -0.877  1.00 20.00     0.112 C 
ENDROOT
BRANCH   2   4
HETATM    4  C7  UNL     1     -33.406  15.853  -4.223  1.00 20.00     0.094 C 
BRANCH   4   5
HETATM    5  C8  UNL     1     -33.853  14.451  -4.641  1.00 20.00     0.014 C 
BRANCH   5   6
HETATM    6  C9  UNL     1     -34.802  14.506  -5.839  1.00 20.00     0.033 C 
BRANCH   6   7
HETATM    7  C10 UNL     1     -36.167  13.865  -5.566  1.00 20.00     0.122 C 
BRANCH   7   8
HETATM    8  C5  UNL     1     -37.005  14.652  -4.602  1.00 20.00     0.014 A 
HETATM    9  C3  UNL     1     -37.408  16.064  -4.924  1.00 20.00     0.007 A 
HETATM   10  C4  UNL     1     -38.438  14.969  -4.930  1.00 20.00     0.007 A 
ENDBRANCH   7   8
BRANCH   7  11
HETATM   11  O11 UNL     1     -35.925  12.568  -5.017  1.00 20.00    -0.395 OA
HETATM   12  H27 UNL     1     -35.630  12.709  -4.106  1.00 20.00     0.210 HD
ENDBRANCH   7  11
ENDBRANCH   6   7
ENDBRANCH   5   6
ENDBRANCH   4   5
ENDBRANCH   2   4
TORSDOF 6
ENDMDL
MODEL 6
REMARK VINA RESULT:      -4.9     11.040     11.989
REMARK  6 active torsions:
REMARK  status: ('A' for Active; 'I' for Inactive)
REMARK    1  A    between atoms: C2_2  and  C7_7 
REMARK    2  A    between atoms: C5_5  and  C10_10 
REMARK    3  A    between atoms: C7_7  and  C8_8 
REMARK    4  A    between atoms: C8_8  and  C9_9 
REMARK    5  A    between atoms: C9_9  and  C10_10 
REMARK    6  A    between atoms: C10_10  and  O11_11 
ROOT
HETATM    1  C1  UNL     1     -33.407  17.414  -1.725  1.00 20.00    -0.111 C 
HETATM    2  C2  UNL     1     -33.848  16.663  -2.552  1.00 20.00    -0.107 C 
HETATM    3  C6  UNL     1     -32.870  18.329  -0.719  1.00 20.00     0.112 C 
ENDROOT
BRANCH   2   4
HETATM    4  C7  UNL     1     -34.385  15.743  -3.564  1.00 20.00     0.094 C 
BRANCH   4   5
HETATM    5  C8  UNL     1     -35.914  15.735  -3.546  1.00 20.00     0.014 C 
BRANCH   5   6
HETATM    6  C9  UNL     1     -36.478  14.941  -4.726  1.00 20.00     0.033 C 
BRANCH   6   7
HETATM    7  C10 UNL     1     -35.488  13.926  -5.307  1.00 20.00     0.122 C 
BRANCH   7   8
HETATM    8  C5  UNL     1     -35.372  14.005  -6.801  1.00 20.00     0.014 A 
HETATM    9  C3  UNL     1     -35.309  15.341  -7.487  1.00 20.00     0.007 A 
HETATM   10  C4  UNL     1     -34.089  14.464  -7.436  1.00 20.00     0.007 A 
ENDBRANCH   7   8
BRANCH   7  11
HETATM   11  O11 UNL     1     -35.954  12.624  -4.947  1.00 20.00    -0.395 OA
HETATM   12  H27 UNL     1     -35.632  12.021  -5.632  1.00 20.00     0.210 HD
ENDBRANCH   7  11
ENDBRANCH   6   7
ENDBRANCH   5   6
ENDBRANCH   4   5
ENDBRANCH   2   4
TORSDOF 6
ENDMDL
MODEL 7
REMARK VINA RESULT:      -4.8     10.539     12.037
REMARK  6 active torsions:
REMARK  status: ('A' for Active; 'I' for Inactive)
REMARK    1  A    between atoms: C2_2  and  C7_7 
REMARK    2  A    between atoms: C5_5  and  C10_10 
REMARK    3  A    between atoms: C7_7  and  C8_8 
REMARK    4  A    between atoms: C8_8  and  C9_9 
REMARK    5  A    between atoms: C9_9  and  C10_10 
REMARK    6  A    between atoms: C10_10  and  O11_11 
ROOT
HETATM    1  C1  UNL     1     -33.495  17.261  -1.954  1.00 20.00    -0.111 C 
HETATM    2  C2  UNL     1     -34.227  16.595  -2.635  1.00 20.00    -0.107 C 
HETATM    3  C6  UNL     1     -32.603  18.071  -1.126  1.00 20.00     0.112 C 
ENDROOT
BRANCH   2   4
HETATM    4  C7  UNL     1     -35.121  15.778  -3.467  1.00 20.00     0.094 C 
BRANCH   4   5
HETATM    5  C8  UNL     1     -34.408  14.523  -3.973  1.00 20.00     0.014 C 
BRANCH   5   6
HETATM    6  C9  UNL     1     -34.420  14.456  -5.501  1.00 20.00     0.033 C 
BRANCH   6   7
HETATM    7  C10 UNL     1     -35.548  13.583  -6.064  1.00 20.00     0.122 C 
BRANCH   7   8
HETATM    8  C5  UNL     1     -36.756  14.373  -6.472  1.00 20.00     0.014 A 
HETATM    9  C3  UNL     1     -36.613  15.799  -6.926  1.00 20.00     0.007 A 
HETATM   10  C4  UNL     1     -36.974  14.728  -7.917  1.00 20.00     0.007 A 
ENDBRANCH   7   8
BRANCH   7  11
HETATM   11  O11 UNL     1     -35.922  12.661  -5.038  1.00 20.00    -0.395 OA
HETATM   12  H27 UNL     1     -36.134  11.829  -5.484  1.00 20.00     0.210 HD
ENDBRANCH   7  11
ENDBRANCH   6   7
ENDBRANCH   5   6
ENDBRANCH   4   5
ENDBRANCH   2   4
TORSDOF 6
ENDMDL
MODEL 8
REMARK VINA RESULT:      -4.8      1.975      5.565
REMARK  6 active torsions:
REMARK  status: ('A' for Active; 'I' for Inactive)
REMARK    1  A    between atoms: C2_2  and  C7_7 
REMARK    2  A    between atoms: C5_5  and  C10_10 
REMARK    3  A    between atoms: C7_7  and  C8_8 
REMARK    4  A    between atoms: C8_8  and  C9_9 
REMARK    5  A    between atoms: C9_9  and  C10_10 
REMARK    6  A    between atoms: C10_10  and  O11_11 
ROOT
HETATM    1  C1  UNL     1     -34.273   5.553   4.505  1.00 20.00    -0.111 C 
HETATM    2  C2  UNL     1     -33.807   6.292   3.681  1.00 20.00    -0.107 C 
HETATM    3  C6  UNL     1     -34.840   4.653   5.507  1.00 20.00     0.112 C 
ENDROOT
BRANCH   2   4
HETATM    4  C7  UNL     1     -33.239   7.200   2.674  1.00 20.00     0.094 C 
BRANCH   4   5
HETATM    5  C8  UNL     1     -32.024   7.946   3.229  1.00 20.00     0.014 C 
BRANCH   5   6
HETATM    6  C9  UNL     1     -31.473   8.943   2.209  1.00 20.00     0.033 C 
BRANCH   6   7
HETATM    7  C10 UNL     1     -32.551   9.840   1.589  1.00 20.00     0.122 C 
BRANCH   7   8
HETATM    8  C5  UNL     1     -32.459   9.923   0.093  1.00 20.00     0.014 A 
HETATM    9  C3  UNL     1     -32.582   8.680  -0.744  1.00 20.00     0.007 A 
HETATM   10  C4  UNL     1     -33.683   9.704  -0.752  1.00 20.00     0.007 A 
ENDBRANCH   7   8
BRANCH   7  11
HETATM   11  O11 UNL     1     -32.380  11.148   2.136  1.00 20.00    -0.395 OA
HETATM   12  H27 UNL     1     -32.901  11.173   2.951  1.00 20.00     0.210 HD
ENDBRANCH   7  11
ENDBRANCH   6   7
ENDBRANCH   5   6
ENDBRANCH   4   5
ENDBRANCH   2   4
TORSDOF 6
ENDMDL
MODEL 9
REMARK VINA RESULT:      -4.7     10.665     11.671
REMARK  6 active torsions:
REMARK  status: ('A' for Active; 'I' for Inactive)
REMARK    1  A    between atoms: C2_2  and  C7_7 
REMARK    2  A    between atoms: C5_5  and  C10_10 
REMARK    3  A    between atoms: C7_7  and  C8_8 
REMARK    4  A    between atoms: C8_8  and  C9_9 
REMARK    5  A    between atoms: C9_9  and  C10_10 
REMARK    6  A    between atoms: C10_10  and  O11_11 
ROOT
HETATM    1  C1  UNL     1     -34.170  17.213  -2.062  1.00 20.00    -0.111 C 
HETATM    2  C2  UNL     1     -35.158  16.730  -2.544  1.00 20.00    -0.107 C 
HETATM    3  C6  UNL     1     -32.967  17.800  -1.475  1.00 20.00     0.112 C 
ENDROOT
BRANCH   2   4
HETATM    4  C7  UNL     1     -36.369  16.138  -3.131  1.00 20.00     0.094 C 
BRANCH   4   5
HETATM    5  C8  UNL     1     -36.447  16.419  -4.633  1.00 20.00     0.014 C 
BRANCH   5   6
HETATM    6  C9  UNL     1     -36.293  15.132  -5.445  1.00 20.00     0.033 C 
BRANCH   6   7
HETATM    7  C10 UNL     1     -35.375  14.099  -4.783  1.00 20.00     0.122 C 
BRANCH   7   8
HETATM    8  C5  UNL     1     -33.968  14.141  -5.304  1.00 20.00     0.014 A 
HETATM    9  C3  UNL     1     -33.223  15.446  -5.370  1.00 20.00     0.007 A 
HETATM   10  C4  UNL     1     -32.822  14.402  -4.366  1.00 20.00     0.007 A 
ENDBRANCH   7   8
BRANCH   7  11
HETATM   11  O11 UNL     1     -35.927  12.808  -5.049  1.00 20.00    -0.395 OA
HETATM   12  H27 UNL     1     -35.187  12.186  -5.031  1.00 20.00     0.210 HD
ENDBRANCH   7  11
ENDBRANCH   6   7
ENDBRANCH   5   6
ENDBRANCH   4   5
ENDBRANCH   2   4
TORSDOF 6
ENDMDL
