MODEL 1
REMARK VINA RESULT:      -6.6      0.000      0.000
REMARK  2 active torsions:
REMARK  status: ('A' for Active; 'I' for Inactive)
REMARK    1  A    between atoms: C7_7  and  C10_10 
REMARK    2  A    between atoms: C9_9  and  C10_10 
ROOT
HETATM    1  C1  UNL     1     -32.627  10.524   0.714  1.00 20.00     0.012 C 
HETATM    2  C2  UNL     1     -32.296   9.647   1.465  1.00 20.00    -0.117 C 
HETATM    3  C9  UNL     1     -31.888   8.579   2.388  1.00 20.00     0.093 C 
ENDROOT
BRANCH   3   4
HETATM    4  C10 UNL     1     -32.634   7.300   2.068  1.00 20.00     0.017 C 
BRANCH   4   5
HETATM    5  C7  UNL     1     -33.031   6.568   3.349  1.00 20.00    -0.012 C 
HETATM    6  C4  UNL     1     -33.059   7.539   4.537  1.00 20.00     0.005 C 
HETATM    7  C3  UNL     1     -33.511   6.852   5.823  1.00 20.00     0.002 C 
HETATM    8  C5  UNL     1     -34.862   6.160   5.647  1.00 20.00     0.020 C 
HETATM    9  C8  UNL     1     -34.892   5.200   4.456  1.00 20.00     0.082 C 
HETATM   10  C6  UNL     1     -34.393   5.877   3.176  1.00 20.00     0.024 C 
HETATM   11 CL11 UNL     1     -33.919   3.737   4.809  1.00 20.00    -0.125 Cl
ENDBRANCH   4   5
ENDBRANCH   3   4
TORSDOF 2
ENDMDL
MODEL 2
REMARK VINA RESULT:      -6.3      0.921      1.076
REMARK  2 active torsions:
REMARK  status: ('A' for Active; 'I' for Inactive)
REMARK    1  A    between atoms: C7_7  and  C10_10 
REMARK    2  A    between atoms: C9_9  and  C10_10 
ROOT
HETATM    1  C1  UNL     1     -32.929   9.914  -0.003  1.00 20.00     0.012 C 
HETATM    2  C2  UNL     1     -32.332   9.183   0.740  1.00 20.00    -0.117 C 
HETATM    3  C9  UNL     1     -31.598   8.288   1.644  1.00 20.00     0.093 C 
ENDROOT
BRANCH   3   4
HETATM    4  C10 UNL     1     -31.981   8.571   3.083  1.00 20.00     0.017 C 
BRANCH   4   5
HETATM    5  C7  UNL     1     -32.619   7.340   3.726  1.00 20.00    -0.012 C 
HETATM    6  C4  UNL     1     -33.204   7.693   5.100  1.00 20.00     0.005 C 
HETATM    7  C3  UNL     1     -33.904   6.499   5.744  1.00 20.00     0.002 C 
HETATM    8  C5  UNL     1     -34.974   5.910   4.825  1.00 20.00     0.020 C 
HETATM    9  C8  UNL     1     -34.443   5.567   3.432  1.00 20.00     0.082 C 
HETATM   10  C6  UNL     1     -33.701   6.751   2.806  1.00 20.00     0.024 C 
HETATM   11 CL11 UNL     1     -33.377   4.129   3.507  1.00 20.00    -0.125 Cl
ENDBRANCH   4   5
ENDBRANCH   3   4
TORSDOF 2
ENDMDL
MODEL 3
REMARK VINA RESULT:      -5.6      1.450      2.081
REMARK  2 active torsions:
REMARK  status: ('A' for Active; 'I' for Inactive)
REMARK    1  A    between atoms: C7_7  and  C10_10 
REMARK    2  A    between atoms: C9_9  and  C10_10 
ROOT
HETATM    1  C1  UNL     1     -32.942   9.880   0.082  1.00 20.00     0.012 C 
HETATM    2  C2  UNL     1     -32.268   9.225   0.830  1.00 20.00    -0.117 C 
HETATM    3  C9  UNL     1     -31.440   8.424   1.742  1.00 20.00     0.093 C 
ENDROOT
BRANCH   3   4
HETATM    4  C10 UNL     1     -32.118   8.302   3.091  1.00 20.00     0.017 C 
BRANCH   4   5
HETATM    5  C7  UNL     1     -33.124   7.151   3.091  1.00 20.00    -0.012 C 
HETATM    6  C4  UNL     1     -32.433   5.832   2.719  1.00 20.00     0.005 C 
HETATM    7  C3  UNL     1     -33.397   4.650   2.769  1.00 20.00     0.002 C 
HETATM    8  C5  UNL     1     -34.089   4.544   4.128  1.00 20.00     0.020 C 
HETATM    9  C8  UNL     1     -34.770   5.846   4.555  1.00 20.00     0.082 C 
HETATM   10  C6  UNL     1     -33.815   7.039   4.460  1.00 20.00     0.024 C 
HETATM   11 CL11 UNL     1     -36.236   6.137   3.565  1.00 20.00    -0.125 Cl
ENDBRANCH   4   5
ENDBRANCH   3   4
TORSDOF 2
ENDMDL
MODEL 4
REMARK VINA RESULT:      -4.7      2.414      4.709
REMARK  2 active torsions:
REMARK  status: ('A' for Active; 'I' for Inactive)
REMARK    1  A    between atoms: C7_7  and  C10_10 
REMARK    2  A    between atoms: C9_9  and  C10_10 
ROOT
HETATM    1  C1  UNL     1     -33.619   3.161   4.111  1.00 20.00     0.012 C 
HETATM    2  C2  UNL     1     -34.147   4.147   4.549  1.00 20.00    -0.117 C 
HETATM    3  C9  UNL     1     -34.791   5.351   5.091  1.00 20.00     0.093 C 
ENDROOT
BRANCH   3   4
HETATM    4  C10 UNL     1     -35.197   6.278   3.964  1.00 20.00     0.017 C 
BRANCH   4   5
HETATM    5  C7  UNL     1     -34.118   7.332   3.713  1.00 20.00    -0.012 C 
HETATM    6  C4  UNL     1     -33.262   7.535   4.970  1.00 20.00     0.005 C 
HETATM    7  C3  UNL     1     -32.135   8.538   4.734  1.00 20.00     0.002 C 
HETATM    8  C5  UNL     1     -31.270   8.144   3.537  1.00 20.00     0.020 C 
HETATM    9  C8  UNL     1     -32.085   7.903   2.265  1.00 20.00     0.082 C 
HETATM   10  C6  UNL     1     -33.243   6.933   2.514  1.00 20.00     0.024 C 
HETATM   11 CL11 UNL     1     -32.698   9.456   1.613  1.00 20.00    -0.125 Cl
ENDBRANCH   4   5
ENDBRANCH   3   4
TORSDOF 2
ENDMDL
MODEL 5
REMARK VINA RESULT:      -4.6     11.208     12.197
REMARK  2 active torsions:
REMARK  status: ('A' for Active; 'I' for Inactive)
REMARK    1  A    between atoms: C7_7  and  C10_10 
REMARK    2  A    between atoms: C9_9  and  C10_10 
ROOT
HETATM    1  C1  UNL     1     -33.234  18.110  -0.835  1.00 20.00     0.012 C 
HETATM    2  C2  UNL     1     -33.852  17.398  -1.578  1.00 20.00    -0.117 C 
HETATM    3  C9  UNL     1     -34.614  16.530  -2.487  1.00 20.00     0.093 C 
ENDROOT
BRANCH   3   4
HETATM    4  C10 UNL     1     -33.680  15.868  -3.480  1.00 20.00     0.017 C 
BRANCH   4   5
HETATM    5  C7  UNL     1     -34.447  15.405  -4.719  1.00 20.00    -0.012 C 
HETATM    6  C4  UNL     1     -33.543  15.443  -5.958  1.00 20.00     0.005 C 
HETATM    7  C3  UNL     1     -34.261  14.928  -7.202  1.00 20.00     0.002 C 
HETATM    8  C5  UNL     1     -34.834  13.528  -6.983  1.00 20.00     0.020 C 
HETATM    9  C8  UNL     1     -35.722  13.433  -5.741  1.00 20.00     0.082 C 
HETATM   10  C6  UNL     1     -35.018  13.994  -4.502  1.00 20.00     0.024 C 
HETATM   11 CL11 UNL     1     -37.275  14.285  -6.017  1.00 20.00    -0.125 Cl
ENDBRANCH   4   5
ENDBRANCH   3   4
TORSDOF 2
ENDMDL
MODEL 6
REMARK VINA RESULT:      -4.6     11.294     12.031
REMARK  2 active torsions:
REMARK  status: ('A' for Active; 'I' for Inactive)
REMARK    1  A    between atoms: C7_7  and  C10_10 
REMARK    2  A    between atoms: C9_9  and  C10_10 
ROOT
HETATM    1  C1  UNL     1     -31.511  18.917   0.727  1.00 20.00     0.012 C 
HETATM    2  C2  UNL     1     -32.137  18.567  -0.236  1.00 20.00    -0.117 C 
HETATM    3  C9  UNL     1     -32.898  18.139  -1.417  1.00 20.00     0.093 C 
ENDROOT
BRANCH   3   4
HETATM    4  C10 UNL     1     -34.181  17.455  -0.992  1.00 20.00     0.017 C 
BRANCH   4   5
HETATM    5  C7  UNL     1     -34.722  16.569  -2.114  1.00 20.00    -0.012 C 
HETATM    6  C4  UNL     1     -36.091  17.075  -2.587  1.00 20.00     0.005 C 
HETATM    7  C3  UNL     1     -36.632  16.248  -3.751  1.00 20.00     0.002 C 
HETATM    8  C5  UNL     1     -35.638  16.188  -4.910  1.00 20.00     0.020 C 
HETATM    9  C8  UNL     1     -34.248  15.715  -4.481  1.00 20.00     0.082 C 
HETATM   10  C6  UNL     1     -33.726  16.514  -3.284  1.00 20.00     0.024 C 
HETATM   11 CL11 UNL     1     -34.275  13.963  -4.101  1.00 20.00    -0.125 Cl
ENDBRANCH   4   5
ENDBRANCH   3   4
TORSDOF 2
ENDMDL
MODEL 7
REMARK VINA RESULT:      -4.6     11.137     11.827
REMARK  2 active torsions:
REMARK  status: ('A' for Active; 'I' for Inactive)
REMARK    1  A    between atoms: C7_7  and  C10_10 
REMARK    2  A    between atoms: C9_9  and  C10_10 
ROOT
HETATM    1  C1  UNL     1     -32.677  18.401  -0.818  1.00 20.00     0.012 C 
HETATM    2  C2  UNL     1     -33.699  17.784  -0.957  1.00 20.00    -0.117 C 
HETATM    3  C9  UNL     1     -34.949  17.031  -1.122  1.00 20.00     0.093 C 
ENDROOT
BRANCH   3   4
HETATM    4  C10 UNL     1     -35.381  17.048  -2.574  1.00 20.00     0.017 C 
BRANCH   4   5
HETATM    5  C7  UNL     1     -34.834  15.830  -3.318  1.00 20.00    -0.012 C 
HETATM    6  C4  UNL     1     -35.951  15.135  -4.108  1.00 20.00     0.005 C 
HETATM    7  C3  UNL     1     -35.425  13.948  -4.912  1.00 20.00     0.002 C 
HETATM    8  C5  UNL     1     -34.273  14.355  -5.830  1.00 20.00     0.020 C 
HETATM    9  C8  UNL     1     -33.145  15.078  -5.090  1.00 20.00     0.082 C 
HETATM   10  C6  UNL     1     -33.680  16.239  -4.246  1.00 20.00     0.024 C 
HETATM   11 CL11 UNL     1     -32.235  13.926  -4.062  1.00 20.00    -0.125 Cl
ENDBRANCH   4   5
ENDBRANCH   3   4
TORSDOF 2
ENDMDL
MODEL 8
REMARK VINA RESULT:      -4.3     11.425     11.969
REMARK  2 active torsions:
REMARK  status: ('A' for Active; 'I' for Inactive)
REMARK    1  A    between atoms: C7_7  and  C10_10 
REMARK    2  A    between atoms: C9_9  and  C10_10 
ROOT
HETATM    1  C1  UNL     1     -33.862  18.617   0.792  1.00 20.00     0.012 C 
HETATM    2  C2  UNL     1     -34.267  17.930  -0.106  1.00 20.00    -0.117 C 
HETATM    3  C9  UNL     1     -34.767  17.091  -1.203  1.00 20.00     0.093 C 
ENDROOT
BRANCH   3   4
HETATM    4  C10 UNL     1     -33.731  16.999  -2.304  1.00 20.00     0.017 C 
BRANCH   4   5
HETATM    5  C7  UNL     1     -34.315  16.319  -3.543  1.00 20.00    -0.012 C 
HETATM    6  C4  UNL     1     -33.469  15.102  -3.939  1.00 20.00     0.005 C 
HETATM    7  C3  UNL     1     -34.060  14.364  -5.137  1.00 20.00     0.002 C 
HETATM    8  C5  UNL     1     -35.515  13.966  -4.892  1.00 20.00     0.020 C 
HETATM    9  C8  UNL     1     -36.394  15.144  -4.468  1.00 20.00     0.082 C 
HETATM   10  C6  UNL     1     -35.776  15.912  -3.295  1.00 20.00     0.024 C 
HETATM   11 CL11 UNL     1     -36.678  16.242  -5.855  1.00 20.00    -0.125 Cl
ENDBRANCH   4   5
ENDBRANCH   3   4
TORSDOF 2
ENDMDL
MODEL 9
REMARK VINA RESULT:      -4.3     11.528     12.294
REMARK  2 active torsions:
REMARK  status: ('A' for Active; 'I' for Inactive)
REMARK    1  A    between atoms: C7_7  and  C10_10 
REMARK    2  A    between atoms: C9_9  and  C10_10 
ROOT
HETATM    1  C1  UNL     1     -32.927  18.063  -1.094  1.00 20.00     0.012 C 
HETATM    2  C2  UNL     1     -33.629  17.356  -1.764  1.00 20.00    -0.117 C 
HETATM    3  C9  UNL     1     -34.493  16.495  -2.582  1.00 20.00     0.093 C 
ENDROOT
BRANCH   3   4
HETATM    4  C10 UNL     1     -33.664  15.745  -3.606  1.00 20.00     0.017 C 
BRANCH   4   5
HETATM    5  C7  UNL     1     -34.562  14.979  -4.576  1.00 20.00    -0.012 C 
HETATM    6  C4  UNL     1     -36.031  15.075  -4.140  1.00 20.00     0.005 C 
HETATM    7  C3  UNL     1     -36.963  14.371  -5.122  1.00 20.00     0.002 C 
HETATM    8  C5  UNL     1     -36.778  14.891  -6.547  1.00 20.00     0.020 C 
HETATM    9  C8  UNL     1     -35.323  14.841  -7.018  1.00 20.00     0.082 C 
HETATM   10  C6  UNL     1     -34.382  15.507  -6.009  1.00 20.00     0.024 C 
HETATM   11 CL11 UNL     1     -34.821  13.147  -7.317  1.00 20.00    -0.125 Cl
ENDBRANCH   4   5
ENDBRANCH   3   4
TORSDOF 2
ENDMDL
