MODEL 1
REMARK VINA RESULT:      -5.4      0.000      0.000
REMARK  5 active torsions:
REMARK  status: ('A' for Active; 'I' for Inactive)
REMARK    1  A    between atoms: C2_2  and  C8_8 
REMARK    2  A    between atoms: C3_3  and  C9_9 
REMARK    3  A    between atoms: C3_3  and  C11_11 
REMARK    4  A    between atoms: C8_8  and  C10_10 
REMARK    5  A    between atoms: C9_9  and  C10_10 
ROOT
HETATM    1  C1  UNL     1     -32.490   9.168   0.505  1.00 20.00    -0.111 C 
HETATM    2  C2  UNL     1     -31.832   8.791   1.437  1.00 20.00    -0.107 C 
HETATM    3  C4  UNL     1     -33.287   9.622  -0.633  1.00 20.00     0.112 C 
ENDROOT
BRANCH   2   4
HETATM    4  C8  UNL     1     -31.020   8.335   2.573  1.00 20.00     0.094 C 
BRANCH   4   5
HETATM    5  C10 UNL     1     -31.805   8.338   3.889  1.00 20.00     0.020 C 
BRANCH   5   6
HETATM    6  C9  UNL     1     -33.280   7.952   3.740  1.00 20.00     0.080 C 
BRANCH   6   7
HETATM    7  C3  UNL     1     -33.746   6.932   4.773  1.00 20.00     0.134 C 
HETATM    8  O12 UNL     1     -33.638   7.166   5.980  1.00 20.00    -0.297 OA
BRANCH   7   9
HETATM    9  C11 UNL     1     -34.365   5.615   4.263  1.00 20.00     0.009 C 
HETATM   10  C5  UNL     1     -33.448   4.957   3.224  1.00 20.00     0.022 C 
HETATM   11  C6  UNL     1     -35.723   5.910   3.599  1.00 20.00     0.022 C 
HETATM   12  C7  UNL     1     -34.592   4.673   5.453  1.00 20.00     0.022 C 
ENDBRANCH   7   9
ENDBRANCH   6   7
ENDBRANCH   5   6
ENDBRANCH   4   5
ENDBRANCH   2   4
TORSDOF 5
ENDMDL
MODEL 2
REMARK VINA RESULT:      -5.3      1.302      1.807
REMARK  5 active torsions:
REMARK  status: ('A' for Active; 'I' for Inactive)
REMARK    1  A    between atoms: C2_2  and  C8_8 
REMARK    2  A    between atoms: C3_3  and  C9_9 
REMARK    3  A    between atoms: C3_3  and  C11_11 
REMARK    4  A    between atoms: C8_8  and  C10_10 
REMARK    5  A    between atoms: C9_9  and  C10_10 
ROOT
HETATM    1  C1  UNL     1     -32.497   9.241   0.423  1.00 20.00    -0.111 C 
HETATM    2  C2  UNL     1     -31.822   8.979   1.381  1.00 20.00    -0.107 C 
HETATM    3  C4  UNL     1     -33.314   9.557  -0.748  1.00 20.00     0.112 C 
ENDROOT
BRANCH   2   4
HETATM    4  C8  UNL     1     -30.990   8.664   2.550  1.00 20.00     0.094 C 
BRANCH   4   5
HETATM    5  C10 UNL     1     -31.804   8.059   3.698  1.00 20.00     0.020 C 
BRANCH   5   6
HETATM    6  C9  UNL     1     -33.214   7.612   3.300  1.00 20.00     0.080 C 
BRANCH   6   7
HETATM    7  C3  UNL     1     -33.411   6.101   3.367  1.00 20.00     0.134 C 
HETATM    8  O12 UNL     1     -32.726   5.346   2.672  1.00 20.00    -0.297 OA
BRANCH   7   9
HETATM    9  C11 UNL     1     -34.477   5.552   4.337  1.00 20.00     0.009 C 
HETATM   10  C5  UNL     1     -34.319   6.186   5.725  1.00 20.00     0.022 C 
HETATM   11  C6  UNL     1     -34.309   4.027   4.474  1.00 20.00     0.022 C 
HETATM   12  C7  UNL     1     -35.872   5.846   3.769  1.00 20.00     0.022 C 
ENDBRANCH   7   9
ENDBRANCH   6   7
ENDBRANCH   5   6
ENDBRANCH   4   5
ENDBRANCH   2   4
TORSDOF 5
ENDMDL
MODEL 3
REMARK VINA RESULT:      -4.6     10.893     11.786
REMARK  5 active torsions:
REMARK  status: ('A' for Active; 'I' for Inactive)
REMARK    1  A    between atoms: C2_2  and  C8_8 
REMARK    2  A    between atoms: C3_3  and  C9_9 
REMARK    3  A    between atoms: C3_3  and  C11_11 
REMARK    4  A    between atoms: C8_8  and  C10_10 
REMARK    5  A    between atoms: C9_9  and  C10_10 
ROOT
HETATM    1  C1  UNL     1     -35.482  17.327  -0.189  1.00 20.00    -0.111 C 
HETATM    2  C2  UNL     1     -35.328  16.909  -1.304  1.00 20.00    -0.107 C 
HETATM    3  C4  UNL     1     -35.665  17.834   1.170  1.00 20.00     0.112 C 
ENDROOT
BRANCH   2   4
HETATM    4  C8  UNL     1     -35.140  16.389  -2.665  1.00 20.00     0.094 C 
BRANCH   4   5
HETATM    5  C10 UNL     1     -33.666  16.368  -3.083  1.00 20.00     0.020 C 
BRANCH   5   6
HETATM    6  C9  UNL     1     -33.439  16.047  -4.564  1.00 20.00     0.080 C 
BRANCH   6   7
HETATM    7  C3  UNL     1     -33.773  14.604  -4.927  1.00 20.00     0.134 C 
HETATM    8  O12 UNL     1     -33.135  13.668  -4.439  1.00 20.00    -0.297 OA
BRANCH   7   9
HETATM    9  C11 UNL     1     -34.939  14.356  -5.907  1.00 20.00     0.009 C 
HETATM   10  C5  UNL     1     -35.592  15.683  -6.312  1.00 20.00     0.022 C 
HETATM   11  C6  UNL     1     -36.002  13.475  -5.226  1.00 20.00     0.022 C 
HETATM   12  C7  UNL     1     -34.406  13.620  -7.143  1.00 20.00     0.022 C 
ENDBRANCH   7   9
ENDBRANCH   6   7
ENDBRANCH   5   6
ENDBRANCH   4   5
ENDBRANCH   2   4
TORSDOF 5
ENDMDL
MODEL 4
REMARK VINA RESULT:      -4.6     10.703     12.091
REMARK  5 active torsions:
REMARK  status: ('A' for Active; 'I' for Inactive)
REMARK    1  A    between atoms: C2_2  and  C8_8 
REMARK    2  A    between atoms: C3_3  and  C9_9 
REMARK    3  A    between atoms: C3_3  and  C11_11 
REMARK    4  A    between atoms: C8_8  and  C10_10 
REMARK    5  A    between atoms: C9_9  and  C10_10 
ROOT
HETATM    1  C1  UNL     1     -35.366  17.358  -0.252  1.00 20.00    -0.111 C 
HETATM    2  C2  UNL     1     -34.861  17.039  -1.294  1.00 20.00    -0.107 C 
HETATM    3  C4  UNL     1     -35.986  17.745   1.013  1.00 20.00     0.112 C 
ENDROOT
BRANCH   2   4
HETATM    4  C8  UNL     1     -34.248  16.654  -2.572  1.00 20.00     0.094 C 
BRANCH   4   5
HETATM    5  C10 UNL     1     -35.091  15.630  -3.339  1.00 20.00     0.020 C 
BRANCH   5   6
HETATM    6  C9  UNL     1     -34.273  14.531  -4.025  1.00 20.00     0.080 C 
BRANCH   6   7
HETATM    7  C3  UNL     1     -34.947  13.965  -5.270  1.00 20.00     0.134 C 
HETATM    8  O12 UNL     1     -35.646  12.950  -5.201  1.00 20.00    -0.297 OA
BRANCH   7   9
HETATM    9  C11 UNL     1     -34.739  14.706  -6.607  1.00 20.00     0.009 C 
HETATM   10  C5  UNL     1     -35.971  15.552  -6.949  1.00 20.00     0.022 C 
HETATM   11  C6  UNL     1     -34.523  13.680  -7.734  1.00 20.00     0.022 C 
HETATM   12  C7  UNL     1     -33.491  15.593  -6.499  1.00 20.00     0.022 C 
ENDBRANCH   7   9
ENDBRANCH   6   7
ENDBRANCH   5   6
ENDBRANCH   4   5
ENDBRANCH   2   4
TORSDOF 5
ENDMDL
MODEL 5
REMARK VINA RESULT:      -4.5     10.781     11.950
REMARK  5 active torsions:
REMARK  status: ('A' for Active; 'I' for Inactive)
REMARK    1  A    between atoms: C2_2  and  C8_8 
REMARK    2  A    between atoms: C3_3  and  C9_9 
REMARK    3  A    between atoms: C3_3  and  C11_11 
REMARK    4  A    between atoms: C8_8  and  C10_10 
REMARK    5  A    between atoms: C9_9  and  C10_10 
ROOT
HETATM    1  C1  UNL     1     -34.767  16.853  -1.619  1.00 20.00    -0.111 C 
HETATM    2  C2  UNL     1     -34.155  16.490  -2.587  1.00 20.00    -0.107 C 
HETATM    3  C4  UNL     1     -35.515  17.299  -0.445  1.00 20.00     0.112 C 
ENDROOT
BRANCH   2   4
HETATM    4  C8  UNL     1     -33.403  16.054  -3.771  1.00 20.00     0.094 C 
BRANCH   4   5
HETATM    5  C10 UNL     1     -33.709  14.602  -4.154  1.00 20.00     0.020 C 
BRANCH   5   6
HETATM    6  C9  UNL     1     -34.294  14.435  -5.560  1.00 20.00     0.080 C 
BRANCH   6   7
HETATM    7  C3  UNL     1     -35.718  13.886  -5.560  1.00 20.00     0.134 C 
HETATM    8  O12 UNL     1     -35.945  12.728  -5.203  1.00 20.00    -0.297 OA
BRANCH   7   9
HETATM    9  C11 UNL     1     -36.856  14.828  -6.004  1.00 20.00     0.009 C 
HETATM   10  C5  UNL     1     -37.074  14.731  -7.519  1.00 20.00     0.022 C 
HETATM   11  C6  UNL     1     -36.486  16.281  -5.655  1.00 20.00     0.022 C 
HETATM   12  C7  UNL     1     -38.140  14.451  -5.252  1.00 20.00     0.022 C 
ENDBRANCH   7   9
ENDBRANCH   6   7
ENDBRANCH   5   6
ENDBRANCH   4   5
ENDBRANCH   2   4
TORSDOF 5
ENDMDL
MODEL 6
REMARK VINA RESULT:      -4.4     11.037     12.083
REMARK  5 active torsions:
REMARK  status: ('A' for Active; 'I' for Inactive)
REMARK    1  A    between atoms: C2_2  and  C8_8 
REMARK    2  A    between atoms: C3_3  and  C9_9 
REMARK    3  A    between atoms: C3_3  and  C11_11 
REMARK    4  A    between atoms: C8_8  and  C10_10 
REMARK    5  A    between atoms: C9_9  and  C10_10 
ROOT
HETATM    1  C1  UNL     1     -32.779  18.238  -0.791  1.00 20.00    -0.111 C 
HETATM    2  C2  UNL     1     -33.182  17.626  -1.743  1.00 20.00    -0.107 C 
HETATM    3  C4  UNL     1     -32.287  18.976   0.371  1.00 20.00     0.112 C 
ENDROOT
BRANCH   2   4
HETATM    4  C8  UNL     1     -33.680  16.874  -2.902  1.00 20.00     0.094 C 
BRANCH   4   5
HETATM    5  C10 UNL     1     -35.014  16.177  -2.615  1.00 20.00     0.020 C 
BRANCH   5   6
HETATM    6  C9  UNL     1     -35.727  15.649  -3.864  1.00 20.00     0.080 C 
BRANCH   6   7
HETATM    7  C3  UNL     1     -34.896  14.644  -4.655  1.00 20.00     0.134 C 
HETATM    8  O12 UNL     1     -34.457  13.626  -4.113  1.00 20.00    -0.297 OA
BRANCH   7   9
HETATM    9  C11 UNL     1     -34.637  14.933  -6.148  1.00 20.00     0.009 C 
HETATM   10  C5  UNL     1     -34.530  13.623  -6.938  1.00 20.00     0.022 C 
HETATM   11  C6  UNL     1     -33.312  15.704  -6.298  1.00 20.00     0.022 C 
HETATM   12  C7  UNL     1     -35.778  15.800  -6.696  1.00 20.00     0.022 C 
ENDBRANCH   7   9
ENDBRANCH   6   7
ENDBRANCH   5   6
ENDBRANCH   4   5
ENDBRANCH   2   4
TORSDOF 5
ENDMDL
MODEL 7
REMARK VINA RESULT:      -4.4     10.931     12.126
REMARK  5 active torsions:
REMARK  status: ('A' for Active; 'I' for Inactive)
REMARK    1  A    between atoms: C2_2  and  C8_8 
REMARK    2  A    between atoms: C3_3  and  C9_9 
REMARK    3  A    between atoms: C3_3  and  C11_11 
REMARK    4  A    between atoms: C8_8  and  C10_10 
REMARK    5  A    between atoms: C9_9  and  C10_10 
ROOT
HETATM    1  C1  UNL     1     -35.278  17.303  -0.423  1.00 20.00    -0.111 C 
HETATM    2  C2  UNL     1     -34.750  16.935  -1.437  1.00 20.00    -0.107 C 
HETATM    3  C4  UNL     1     -35.924  17.746   0.812  1.00 20.00     0.112 C 
ENDROOT
BRANCH   2   4
HETATM    4  C8  UNL     1     -34.113  16.486  -2.682  1.00 20.00     0.094 C 
BRANCH   4   5
HETATM    5  C10 UNL     1     -34.978  15.482  -3.451  1.00 20.00     0.020 C 
BRANCH   5   6
HETATM    6  C9  UNL     1     -34.198  14.611  -4.440  1.00 20.00     0.080 C 
BRANCH   6   7
HETATM    7  C3  UNL     1     -35.087  13.927  -5.474  1.00 20.00     0.134 C 
HETATM    8  O12 UNL     1     -35.713  12.903  -5.187  1.00 20.00    -0.297 OA
BRANCH   7   9
HETATM    9  C11 UNL     1     -35.187  14.562  -6.876  1.00 20.00     0.009 C 
HETATM   10  C5  UNL     1     -34.183  13.910  -7.835  1.00 20.00     0.022 C 
HETATM   11  C6  UNL     1     -34.867  16.066  -6.782  1.00 20.00     0.022 C 
HETATM   12  C7  UNL     1     -36.619  14.394  -7.402  1.00 20.00     0.022 C 
ENDBRANCH   7   9
ENDBRANCH   6   7
ENDBRANCH   5   6
ENDBRANCH   4   5
ENDBRANCH   2   4
TORSDOF 5
ENDMDL
MODEL 8
REMARK VINA RESULT:      -4.4     11.211     12.338
REMARK  5 active torsions:
REMARK  status: ('A' for Active; 'I' for Inactive)
REMARK    1  A    between atoms: C2_2  and  C8_8 
REMARK    2  A    between atoms: C3_3  and  C9_9 
REMARK    3  A    between atoms: C3_3  and  C11_11 
REMARK    4  A    between atoms: C8_8  and  C10_10 
REMARK    5  A    between atoms: C9_9  and  C10_10 
ROOT
HETATM    1  C1  UNL     1     -35.271  16.757  -2.679  1.00 20.00    -0.111 C 
HETATM    2  C2  UNL     1     -36.304  16.642  -3.282  1.00 20.00    -0.107 C 
HETATM    3  C4  UNL     1     -34.013  16.903  -1.949  1.00 20.00     0.112 C 
ENDROOT
BRANCH   2   4
HETATM    4  C8  UNL     1     -37.562  16.501  -4.026  1.00 20.00     0.094 C 
BRANCH   4   5
HETATM    5  C10 UNL     1     -37.849  15.047  -4.416  1.00 20.00     0.020 C 
BRANCH   5   6
HETATM    6  C9  UNL     1     -37.302  14.646  -5.789  1.00 20.00     0.080 C 
BRANCH   6   7
HETATM    7  C3  UNL     1     -35.996  13.863  -5.714  1.00 20.00     0.134 C 
HETATM    8  O12 UNL     1     -35.971  12.725  -5.237  1.00 20.00    -0.297 OA
BRANCH   7   9
HETATM    9  C11 UNL     1     -34.719  14.530  -6.265  1.00 20.00     0.009 C 
HETATM   10  C5  UNL     1     -33.631  14.583  -5.184  1.00 20.00     0.022 C 
HETATM   11  C6  UNL     1     -35.041  15.970  -6.704  1.00 20.00     0.022 C 
HETATM   12  C7  UNL     1     -34.226  13.740  -7.484  1.00 20.00     0.022 C 
ENDBRANCH   7   9
ENDBRANCH   6   7
ENDBRANCH   5   6
ENDBRANCH   4   5
ENDBRANCH   2   4
TORSDOF 5
ENDMDL
MODEL 9
REMARK VINA RESULT:      -4.2     11.328     12.347
REMARK  5 active torsions:
REMARK  status: ('A' for Active; 'I' for Inactive)
REMARK    1  A    between atoms: C2_2  and  C8_8 
REMARK    2  A    between atoms: C3_3  and  C9_9 
REMARK    3  A    between atoms: C3_3  and  C11_11 
REMARK    4  A    between atoms: C8_8  and  C10_10 
REMARK    5  A    between atoms: C9_9  and  C10_10 
ROOT
HETATM    1  C1  UNL     1     -33.088  17.719  -1.467  1.00 20.00    -0.111 C 
HETATM    2  C2  UNL     1     -33.640  16.972  -2.228  1.00 20.00    -0.107 C 
HETATM    3  C4  UNL     1     -32.422  18.629  -0.536  1.00 20.00     0.112 C 
ENDROOT
BRANCH   2   4
HETATM    4  C8  UNL     1     -34.320  16.063  -3.160  1.00 20.00     0.094 C 
BRANCH   4   5
HETATM    5  C10 UNL     1     -33.344  15.373  -4.119  1.00 20.00     0.020 C 
BRANCH   5   6
HETATM    6  C9  UNL     1     -33.560  15.726  -5.594  1.00 20.00     0.080 C 
BRANCH   6   7
HETATM    7  C3  UNL     1     -35.022  15.659  -6.024  1.00 20.00     0.134 C 
HETATM    8  O12 UNL     1     -35.738  16.662  -5.976  1.00 20.00    -0.297 OA
BRANCH   7   9
HETATM    9  C11 UNL     1     -35.566  14.308  -6.532  1.00 20.00     0.009 C 
HETATM   10  C5  UNL     1     -36.722  14.530  -7.516  1.00 20.00     0.022 C 
HETATM   11  C6  UNL     1     -36.090  13.485  -5.340  1.00 20.00     0.022 C 
HETATM   12  C7  UNL     1     -34.428  13.531  -7.206  1.00 20.00     0.022 C 
ENDBRANCH   7   9
ENDBRANCH   6   7
ENDBRANCH   5   6
ENDBRANCH   4   5
ENDBRANCH   2   4
TORSDOF 5
ENDMDL
