MODEL 1
REMARK VINA RESULT:      -6.3      0.000      0.000
REMARK  1 active torsions:
REMARK  status: ('A' for Active; 'I' for Inactive)
REMARK    1  A    between atoms: C7_7  and  C8_8 
ROOT
HETATM    1  C1  UNL     1     -32.340   9.560   0.679  1.00 20.00     0.012 C 
HETATM    2  C2  UNL     1     -32.160   8.894   1.660  1.00 20.00    -0.117 C 
HETATM    3  C8  UNL     1     -31.936   8.079   2.861  1.00 20.00     0.098 C 
ENDROOT
BRANCH   3   4
HETATM    4  C7  UNL     1     -33.230   7.454   3.354  1.00 20.00     0.004 C 
HETATM    5  C5  UNL     1     -33.296   7.348   4.879  1.00 20.00     0.083 C 
HETATM    6  C3  UNL     1     -34.248   6.194   5.065  1.00 20.00     0.127 C 
HETATM    7  C4  UNL     1     -34.501   5.449   3.781  1.00 20.00     0.079 C 
HETATM    8  O9  UNL     1     -34.759   5.898   6.139  1.00 20.00    -0.298 OA
HETATM    9  C6  UNL     1     -33.412   6.012   2.876  1.00 20.00     0.013 C 
ENDBRANCH   3   4
TORSDOF 1
ENDMDL
MODEL 2
REMARK VINA RESULT:      -5.5      1.067      1.701
REMARK  1 active torsions:
REMARK  status: ('A' for Active; 'I' for Inactive)
REMARK    1  A    between atoms: C7_7  and  C8_8 
ROOT
HETATM    1  C1  UNL     1     -32.561   9.143   0.772  1.00 20.00     0.012 C 
HETATM    2  C2  UNL     1     -32.108   8.828   1.837  1.00 20.00    -0.117 C 
HETATM    3  C8  UNL     1     -31.549   8.446   3.140  1.00 20.00     0.098 C 
ENDROOT
BRANCH   3   4
HETATM    4  C7  UNL     1     -32.372   7.348   3.792  1.00 20.00     0.004 C 
HETATM    5  C5  UNL     1     -33.562   6.908   2.937  1.00 20.00     0.083 C 
HETATM    6  C3  UNL     1     -34.511   6.377   3.980  1.00 20.00     0.127 C 
HETATM    7  C4  UNL     1     -34.085   6.743   5.378  1.00 20.00     0.079 C 
HETATM    8  O9  UNL     1     -35.512   5.721   3.721  1.00 20.00    -0.298 OA
HETATM    9  C6  UNL     1     -33.009   7.788   5.111  1.00 20.00     0.013 C 
ENDBRANCH   3   4
TORSDOF 1
ENDMDL
MODEL 3
REMARK VINA RESULT:      -5.4      1.237      1.866
REMARK  1 active torsions:
REMARK  status: ('A' for Active; 'I' for Inactive)
REMARK    1  A    between atoms: C7_7  and  C8_8 
ROOT
HETATM    1  C1  UNL     1     -31.437   8.511   1.256  1.00 20.00     0.012 C 
HETATM    2  C2  UNL     1     -32.349   8.424   2.031  1.00 20.00    -0.117 C 
HETATM    3  C8  UNL     1     -33.466   8.322   2.979  1.00 20.00     0.098 C 
ENDROOT
BRANCH   3   4
HETATM    4  C7  UNL     1     -33.350   7.073   3.836  1.00 20.00     0.004 C 
HETATM    5  C5  UNL     1     -34.020   5.852   3.201  1.00 20.00     0.083 C 
HETATM    6  C3  UNL     1     -34.344   5.016   4.413  1.00 20.00     0.127 C 
HETATM    7  C4  UNL     1     -34.180   5.784   5.698  1.00 20.00     0.079 C 
HETATM    8  O9  UNL     1     -34.699   3.844   4.358  1.00 20.00    -0.298 OA
HETATM    9  C6  UNL     1     -34.049   7.215   5.189  1.00 20.00     0.013 C 
ENDBRANCH   3   4
TORSDOF 1
ENDMDL
MODEL 4
REMARK VINA RESULT:      -5.1      2.341      4.265
REMARK  1 active torsions:
REMARK  status: ('A' for Active; 'I' for Inactive)
REMARK    1  A    between atoms: C7_7  and  C8_8 
ROOT
HETATM    1  C1  UNL     1     -33.825   3.542   4.429  1.00 20.00     0.012 C 
HETATM    2  C2  UNL     1     -34.466   4.540   4.247  1.00 20.00    -0.117 C 
HETATM    3  C8  UNL     1     -35.254   5.759   4.023  1.00 20.00     0.098 C 
ENDROOT
BRANCH   3   4
HETATM    4  C7  UNL     1     -34.376   6.998   4.059  1.00 20.00     0.004 C 
HETATM    5  C5  UNL     1     -33.218   6.935   3.060  1.00 20.00     0.083 C 
HETATM    6  C3  UNL     1     -32.209   7.852   3.703  1.00 20.00     0.127 C 
HETATM    7  C4  UNL     1     -32.576   8.201   5.121  1.00 20.00     0.079 C 
HETATM    8  O9  UNL     1     -31.206   8.267   3.135  1.00 20.00    -0.298 OA
HETATM    9  C6  UNL     1     -33.687   7.199   5.409  1.00 20.00     0.013 C 
ENDBRANCH   3   4
TORSDOF 1
ENDMDL
MODEL 5
REMARK VINA RESULT:      -4.8      2.538      4.603
REMARK  1 active torsions:
REMARK  status: ('A' for Active; 'I' for Inactive)
REMARK    1  A    between atoms: C7_7  and  C8_8 
ROOT
HETATM    1  C1  UNL     1     -34.679   5.279   5.589  1.00 20.00     0.012 C 
HETATM    2  C2  UNL     1     -34.337   5.512   4.463  1.00 20.00    -0.117 C 
HETATM    3  C8  UNL     1     -33.920   5.794   3.083  1.00 20.00     0.098 C 
ENDROOT
BRANCH   3   4
HETATM    4  C7  UNL     1     -33.427   7.223   2.936  1.00 20.00     0.004 C 
HETATM    5  C5  UNL     1     -33.142   7.607   1.482  1.00 20.00     0.083 C 
HETATM    6  C3  UNL     1     -32.120   8.703   1.650  1.00 20.00     0.127 C 
HETATM    7  C4  UNL     1     -31.586   8.776   3.056  1.00 20.00     0.079 C 
HETATM    8  O9  UNL     1     -31.767   9.450   0.745  1.00 20.00    -0.298 OA
HETATM    9  C6  UNL     1     -32.098   7.469   3.650  1.00 20.00     0.013 C 
ENDBRANCH   3   4
TORSDOF 1
ENDMDL
MODEL 6
REMARK VINA RESULT:      -4.7     10.695     11.394
REMARK  1 active torsions:
REMARK  status: ('A' for Active; 'I' for Inactive)
REMARK    1  A    between atoms: C7_7  and  C8_8 
ROOT
HETATM    1  C1  UNL     1     -33.885  17.757  -0.879  1.00 20.00     0.012 C 
HETATM    2  C2  UNL     1     -33.782  17.173  -1.922  1.00 20.00    -0.117 C 
HETATM    3  C8  UNL     1     -33.653  16.461  -3.200  1.00 20.00     0.098 C 
ENDROOT
BRANCH   3   4
HETATM    4  C7  UNL     1     -34.802  15.491  -3.410  1.00 20.00     0.004 C 
HETATM    5  C5  UNL     1     -34.382  14.224  -4.160  1.00 20.00     0.083 C 
HETATM    6  C3  UNL     1     -35.683  13.794  -4.788  1.00 20.00     0.127 C 
HETATM    7  C4  UNL     1     -36.741  14.862  -4.699  1.00 20.00     0.079 C 
HETATM    8  O9  UNL     1     -35.859  12.699  -5.308  1.00 20.00    -0.298 OA
HETATM    9  C6  UNL     1     -35.923  16.074  -4.272  1.00 20.00     0.013 C 
ENDBRANCH   3   4
TORSDOF 1
ENDMDL
MODEL 7
REMARK VINA RESULT:      -4.4     10.839     11.609
REMARK  1 active torsions:
REMARK  status: ('A' for Active; 'I' for Inactive)
REMARK    1  A    between atoms: C7_7  and  C8_8 
ROOT
HETATM    1  C1  UNL     1     -35.306  17.036  -1.025  1.00 20.00     0.012 C 
HETATM    2  C2  UNL     1     -34.540  16.831  -1.925  1.00 20.00    -0.117 C 
HETATM    3  C8  UNL     1     -33.599  16.581  -3.024  1.00 20.00     0.098 C 
ENDROOT
BRANCH   3   4
HETATM    4  C7  UNL     1     -34.295  15.939  -4.212  1.00 20.00     0.004 C 
HETATM    5  C5  UNL     1     -34.960  14.606  -3.861  1.00 20.00     0.083 C 
HETATM    6  C3  UNL     1     -34.975  13.910  -5.198  1.00 20.00     0.127 C 
HETATM    7  C4  UNL     1     -34.115  14.611  -6.216  1.00 20.00     0.079 C 
HETATM    8  O9  UNL     1     -35.615  12.891  -5.429  1.00 20.00    -0.298 OA
HETATM    9  C6  UNL     1     -33.330  15.582  -5.343  1.00 20.00     0.013 C 
ENDBRANCH   3   4
TORSDOF 1
ENDMDL
MODEL 8
REMARK VINA RESULT:      -4.2     10.707     11.387
REMARK  1 active torsions:
REMARK  status: ('A' for Active; 'I' for Inactive)
REMARK    1  A    between atoms: C7_7  and  C8_8 
ROOT
HETATM    1  C1  UNL     1     -34.411  14.344  -4.144  1.00 20.00     0.012 C 
HETATM    2  C2  UNL     1     -34.175  15.457  -3.763  1.00 20.00    -0.117 C 
HETATM    3  C8  UNL     1     -33.884  16.820  -3.302  1.00 20.00     0.098 C 
ENDROOT
BRANCH   3   4
HETATM    4  C7  UNL     1     -33.957  16.917  -1.787  1.00 20.00     0.004 C 
HETATM    5  C5  UNL     1     -35.394  16.942  -1.262  1.00 20.00     0.083 C 
HETATM    6  C3  UNL     1     -35.228  17.666   0.050  1.00 20.00     0.127 C 
HETATM    7  C4  UNL     1     -33.872  18.309   0.180  1.00 20.00     0.079 C 
HETATM    8  O9  UNL     1     -36.096  17.721   0.913  1.00 20.00    -0.298 OA
HETATM    9  C6  UNL     1     -33.344  18.209  -1.246  1.00 20.00     0.013 C 
ENDBRANCH   3   4
TORSDOF 1
ENDMDL
MODEL 9
REMARK VINA RESULT:      -4.1     11.192     11.720
REMARK  1 active torsions:
REMARK  status: ('A' for Active; 'I' for Inactive)
REMARK    1  A    between atoms: C7_7  and  C8_8 
ROOT
HETATM    1  C1  UNL     1     -33.741  14.853  -4.272  1.00 20.00     0.012 C 
HETATM    2  C2  UNL     1     -34.522  15.470  -3.602  1.00 20.00    -0.117 C 
HETATM    3  C8  UNL     1     -35.482  16.223  -2.784  1.00 20.00     0.098 C 
ENDROOT
BRANCH   3   4
HETATM    4  C7  UNL     1     -34.804  17.370  -2.054  1.00 20.00     0.004 C 
HETATM    5  C5  UNL     1     -33.279  17.329  -2.169  1.00 20.00     0.083 C 
HETATM    6  C3  UNL     1     -32.857  18.073  -0.927  1.00 20.00     0.127 C 
HETATM    7  C4  UNL     1     -34.001  18.278   0.031  1.00 20.00     0.079 C 
HETATM    8  O9  UNL     1     -31.716  18.466  -0.722  1.00 20.00    -0.298 OA
HETATM    9  C6  UNL     1     -35.060  17.347  -0.546  1.00 20.00     0.013 C 
ENDBRANCH   3   4
TORSDOF 1
ENDMDL
