MODEL 1
REMARK VINA RESULT:      -6.0      0.000      0.000
REMARK  4 active torsions:
REMARK  status: ('A' for Active; 'I' for Inactive)
REMARK    1  A    between atoms: C4_4  and  C6_6 
REMARK    2  A    between atoms: C5_5  and  C8_8 
REMARK    3  A    between atoms: C6_6  and  C7_7 
REMARK    4  A    between atoms: C7_7  and  C8_8 
ROOT
HETATM    1  C1  UNL     1     -32.833  10.286   1.039  1.00 20.00     0.012 C 
HETATM    2  C2  UNL     1     -32.361   9.276   1.486  1.00 20.00    -0.117 C 
HETATM    3  C4  UNL     1     -31.782   8.039   2.029  1.00 20.00     0.093 C 
ENDROOT
BRANCH   3   4
HETATM    4  C6  UNL     1     -32.344   7.691   3.408  1.00 20.00     0.014 C 
BRANCH   4   5
HETATM    5  C7  UNL     1     -33.507   6.689   3.338  1.00 20.00     0.021 C 
BRANCH   5   6
HETATM    6  C8  UNL     1     -34.356   6.663   4.620  1.00 20.00     0.082 C 
HETATM    7 CL9  UNL     1     -33.491   7.463   5.971  1.00 20.00    -0.125 Cl
BRANCH   6   8
HETATM    8  C5  UNL     1     -34.783   5.245   5.026  1.00 20.00     0.016 C 
HETATM    9  C3  UNL     1     -34.137   4.112   4.237  1.00 20.00     0.006 C 
ENDBRANCH   6   8
ENDBRANCH   5   6
ENDBRANCH   4   5
ENDBRANCH   3   4
TORSDOF 4
ENDMDL
MODEL 2
REMARK VINA RESULT:      -5.5      1.916      4.468
REMARK  4 active torsions:
REMARK  status: ('A' for Active; 'I' for Inactive)
REMARK    1  A    between atoms: C4_4  and  C6_6 
REMARK    2  A    between atoms: C5_5  and  C8_8 
REMARK    3  A    between atoms: C6_6  and  C7_7 
REMARK    4  A    between atoms: C7_7  and  C8_8 
ROOT
HETATM    1  C1  UNL     1     -33.665   7.639   6.187  1.00 20.00     0.012 C 
HETATM    2  C2  UNL     1     -34.073   6.522   6.019  1.00 20.00    -0.117 C 
HETATM    3  C4  UNL     1     -34.572   5.154   5.816  1.00 20.00     0.093 C 
ENDROOT
BRANCH   3   4
HETATM    4  C6  UNL     1     -34.844   4.848   4.342  1.00 20.00     0.014 C 
BRANCH   4   5
HETATM    5  C7  UNL     1     -34.784   6.101   3.456  1.00 20.00     0.021 C 
BRANCH   5   6
HETATM    6  C8  UNL     1     -33.568   6.114   2.515  1.00 20.00     0.082 C 
HETATM    7 CL9  UNL     1     -32.800   4.495   2.447  1.00 20.00    -0.125 Cl
BRANCH   6   8
HETATM    8  C5  UNL     1     -32.530   7.181   2.893  1.00 20.00     0.016 C 
HETATM    9  C3  UNL     1     -32.425   8.364   1.937  1.00 20.00     0.006 C 
ENDBRANCH   6   8
ENDBRANCH   5   6
ENDBRANCH   4   5
ENDBRANCH   3   4
TORSDOF 4
ENDMDL
MODEL 3
REMARK VINA RESULT:      -5.5      1.485      4.599
REMARK  4 active torsions:
REMARK  status: ('A' for Active; 'I' for Inactive)
REMARK    1  A    between atoms: C4_4  and  C6_6 
REMARK    2  A    between atoms: C5_5  and  C8_8 
REMARK    3  A    between atoms: C6_6  and  C7_7 
REMARK    4  A    between atoms: C7_7  and  C8_8 
ROOT
HETATM    1  C1  UNL     1     -33.888   7.235   6.039  1.00 20.00     0.012 C 
HETATM    2  C2  UNL     1     -34.066   6.524   5.087  1.00 20.00    -0.117 C 
HETATM    3  C4  UNL     1     -34.286   5.651   3.926  1.00 20.00     0.093 C 
ENDROOT
BRANCH   3   4
HETATM    4  C6  UNL     1     -33.343   5.979   2.766  1.00 20.00     0.014 C 
BRANCH   4   5
HETATM    5  C7  UNL     1     -33.479   7.432   2.285  1.00 20.00     0.021 C 
BRANCH   5   6
HETATM    6  C8  UNL     1     -32.123   8.132   2.097  1.00 20.00     0.082 C 
HETATM    7 CL9  UNL     1     -31.301   8.356   3.675  1.00 20.00    -0.125 Cl
BRANCH   6   8
HETATM    8  C5  UNL     1     -32.240   9.476   1.362  1.00 20.00     0.016 C 
HETATM    9  C3  UNL     1     -32.899   9.418  -0.011  1.00 20.00     0.006 C 
ENDBRANCH   6   8
ENDBRANCH   5   6
ENDBRANCH   4   5
ENDBRANCH   3   4
TORSDOF 4
ENDMDL
MODEL 4
REMARK VINA RESULT:      -5.4      1.784      1.880
REMARK  4 active torsions:
REMARK  status: ('A' for Active; 'I' for Inactive)
REMARK    1  A    between atoms: C4_4  and  C6_6 
REMARK    2  A    between atoms: C5_5  and  C8_8 
REMARK    3  A    between atoms: C6_6  and  C7_7 
REMARK    4  A    between atoms: C7_7  and  C8_8 
ROOT
HETATM    1  C1  UNL     1     -33.104   9.818  -0.100  1.00 20.00     0.012 C 
HETATM    2  C2  UNL     1     -32.332   9.257   0.628  1.00 20.00    -0.117 C 
HETATM    3  C4  UNL     1     -31.383   8.569   1.516  1.00 20.00     0.093 C 
ENDROOT
BRANCH   3   4
HETATM    4  C6  UNL     1     -32.038   8.108   2.819  1.00 20.00     0.014 C 
BRANCH   4   5
HETATM    5  C7  UNL     1     -33.303   7.270   2.582  1.00 20.00     0.021 C 
BRANCH   5   6
HETATM    6  C8  UNL     1     -33.374   6.022   3.478  1.00 20.00     0.082 C 
HETATM    7 CL9  UNL     1     -33.021   4.540   2.534  1.00 20.00    -0.125 Cl
BRANCH   6   8
HETATM    8  C5  UNL     1     -34.721   5.883   4.205  1.00 20.00     0.016 C 
HETATM    9  C3  UNL     1     -34.686   5.090   5.506  1.00 20.00     0.006 C 
ENDBRANCH   6   8
ENDBRANCH   5   6
ENDBRANCH   4   5
ENDBRANCH   3   4
TORSDOF 4
ENDMDL
MODEL 5
REMARK VINA RESULT:      -5.3      1.684      2.068
REMARK  4 active torsions:
REMARK  status: ('A' for Active; 'I' for Inactive)
REMARK    1  A    between atoms: C4_4  and  C6_6 
REMARK    2  A    between atoms: C5_5  and  C8_8 
REMARK    3  A    between atoms: C6_6  and  C7_7 
REMARK    4  A    between atoms: C7_7  and  C8_8 
ROOT
HETATM    1  C1  UNL     1     -32.611  10.025   0.889  1.00 20.00     0.012 C 
HETATM    2  C2  UNL     1     -32.437   9.172   1.717  1.00 20.00    -0.117 C 
HETATM    3  C4  UNL     1     -32.220   8.132   2.731  1.00 20.00     0.093 C 
ENDROOT
BRANCH   3   4
HETATM    4  C6  UNL     1     -32.801   6.780   2.310  1.00 20.00     0.014 C 
BRANCH   4   5
HETATM    5  C7  UNL     1     -34.061   6.404   3.104  1.00 20.00     0.021 C 
BRANCH   5   6
HETATM    6  C8  UNL     1     -33.750   5.603   4.380  1.00 20.00     0.082 C 
HETATM    7 CL9  UNL     1     -34.305   3.906   4.215  1.00 20.00    -0.125 Cl
BRANCH   6   8
HETATM    8  C5  UNL     1     -34.345   6.238   5.645  1.00 20.00     0.016 C 
HETATM    9  C3  UNL     1     -33.670   7.520   6.118  1.00 20.00     0.006 C 
ENDBRANCH   6   8
ENDBRANCH   5   6
ENDBRANCH   4   5
ENDBRANCH   3   4
TORSDOF 4
ENDMDL
MODEL 6
REMARK VINA RESULT:      -5.3      1.400      4.791
REMARK  4 active torsions:
REMARK  status: ('A' for Active; 'I' for Inactive)
REMARK    1  A    between atoms: C4_4  and  C6_6 
REMARK    2  A    between atoms: C5_5  and  C8_8 
REMARK    3  A    between atoms: C6_6  and  C7_7 
REMARK    4  A    between atoms: C7_7  and  C8_8 
ROOT
HETATM    1  C1  UNL     1     -34.393   4.012   4.543  1.00 20.00     0.012 C 
HETATM    2  C2  UNL     1     -34.358   5.064   5.122  1.00 20.00    -0.117 C 
HETATM    3  C4  UNL     1     -34.319   6.350   5.832  1.00 20.00     0.093 C 
ENDROOT
BRANCH   3   4
HETATM    4  C6  UNL     1     -33.562   7.424   5.048  1.00 20.00     0.014 C 
BRANCH   4   5
HETATM    5  C7  UNL     1     -33.751   7.291   3.529  1.00 20.00     0.021 C 
BRANCH   5   6
HETATM    6  C8  UNL     1     -32.504   7.703   2.730  1.00 20.00     0.082 C 
HETATM    7 CL9  UNL     1     -31.229   8.332   3.823  1.00 20.00    -0.125 Cl
BRANCH   6   8
HETATM    8  C5  UNL     1     -32.811   8.726   1.626  1.00 20.00     0.016 C 
HETATM    9  C3  UNL     1     -31.664   9.020   0.666  1.00 20.00     0.006 C 
ENDBRANCH   6   8
ENDBRANCH   5   6
ENDBRANCH   4   5
ENDBRANCH   3   4
TORSDOF 4
ENDMDL
MODEL 7
REMARK VINA RESULT:      -5.2      1.515      1.675
REMARK  4 active torsions:
REMARK  status: ('A' for Active; 'I' for Inactive)
REMARK    1  A    between atoms: C4_4  and  C6_6 
REMARK    2  A    between atoms: C5_5  and  C8_8 
REMARK    3  A    between atoms: C6_6  and  C7_7 
REMARK    4  A    between atoms: C7_7  and  C8_8 
ROOT
HETATM    1  C1  UNL     1     -32.448   9.320   0.554  1.00 20.00     0.012 C 
HETATM    2  C2  UNL     1     -32.149   8.821   1.605  1.00 20.00    -0.117 C 
HETATM    3  C4  UNL     1     -31.779   8.211   2.890  1.00 20.00     0.093 C 
ENDROOT
BRANCH   3   4
HETATM    4  C6  UNL     1     -32.904   7.353   3.471  1.00 20.00     0.014 C 
BRANCH   4   5
HETATM    5  C7  UNL     1     -32.950   5.944   2.861  1.00 20.00     0.021 C 
BRANCH   5   6
HETATM    6  C8  UNL     1     -34.216   5.162   3.249  1.00 20.00     0.082 C 
HETATM    7 CL9  UNL     1     -35.610   6.271   3.456  1.00 20.00    -0.125 Cl
BRANCH   6   8
HETATM    8  C5  UNL     1     -34.026   4.303   4.508  1.00 20.00     0.016 C 
HETATM    9  C3  UNL     1     -34.543   4.915   5.805  1.00 20.00     0.006 C 
ENDBRANCH   6   8
ENDBRANCH   5   6
ENDBRANCH   4   5
ENDBRANCH   3   4
TORSDOF 4
ENDMDL
MODEL 8
REMARK VINA RESULT:      -5.0      2.303      4.273
REMARK  4 active torsions:
REMARK  status: ('A' for Active; 'I' for Inactive)
REMARK    1  A    between atoms: C4_4  and  C6_6 
REMARK    2  A    between atoms: C5_5  and  C8_8 
REMARK    3  A    between atoms: C6_6  and  C7_7 
REMARK    4  A    between atoms: C7_7  and  C8_8 
ROOT
HETATM    1  C1  UNL     1     -34.797   4.738   5.648  1.00 20.00     0.012 C 
HETATM    2  C2  UNL     1     -34.341   5.840   5.800  1.00 20.00    -0.117 C 
HETATM    3  C4  UNL     1     -33.786   7.187   5.990  1.00 20.00     0.093 C 
ENDROOT
BRANCH   3   4
HETATM    4  C6  UNL     1     -33.676   7.960   4.674  1.00 20.00     0.014 C 
BRANCH   4   5
HETATM    5  C7  UNL     1     -32.278   7.865   4.046  1.00 20.00     0.021 C 
BRANCH   5   6
HETATM    6  C8  UNL     1     -32.303   7.340   2.600  1.00 20.00     0.082 C 
HETATM    7 CL9  UNL     1     -32.453   8.694   1.435  1.00 20.00    -0.125 Cl
BRANCH   6   8
HETATM    8  C5  UNL     1     -33.410   6.304   2.359  1.00 20.00     0.016 C 
HETATM    9  C3  UNL     1     -32.994   4.846   2.522  1.00 20.00     0.006 C 
ENDBRANCH   6   8
ENDBRANCH   5   6
ENDBRANCH   4   5
ENDBRANCH   3   4
TORSDOF 4
ENDMDL
MODEL 9
REMARK VINA RESULT:      -4.8      2.069      5.014
REMARK  4 active torsions:
REMARK  status: ('A' for Active; 'I' for Inactive)
REMARK    1  A    between atoms: C4_4  and  C6_6 
REMARK    2  A    between atoms: C5_5  and  C8_8 
REMARK    3  A    between atoms: C6_6  and  C7_7 
REMARK    4  A    between atoms: C7_7  and  C8_8 
ROOT
HETATM    1  C1  UNL     1     -34.758   4.819   4.576  1.00 20.00     0.012 C 
HETATM    2  C2  UNL     1     -34.291   5.903   4.355  1.00 20.00    -0.117 C 
HETATM    3  C4  UNL     1     -33.723   7.232   4.088  1.00 20.00     0.093 C 
ENDROOT
BRANCH   3   4
HETATM    4  C6  UNL     1     -32.858   7.251   2.826  1.00 20.00     0.014 C 
BRANCH   4   5
HETATM    5  C7  UNL     1     -31.844   8.404   2.820  1.00 20.00     0.021 C 
BRANCH   5   6
HETATM    6  C8  UNL     1     -31.894   9.241   1.531  1.00 20.00     0.082 C 
HETATM    7 CL9  UNL     1     -32.700  10.815   1.827  1.00 20.00    -0.125 Cl
BRANCH   6   8
HETATM    8  C5  UNL     1     -32.571   8.506   0.365  1.00 20.00     0.016 C 
HETATM    9  C3  UNL     1     -33.247   9.398  -0.670  1.00 20.00     0.006 C 
ENDBRANCH   6   8
ENDBRANCH   5   6
ENDBRANCH   4   5
ENDBRANCH   3   4
TORSDOF 4
ENDMDL
