MODEL 1
REMARK VINA RESULT:      -7.3      0.000      0.000
REMARK  2 active torsions:
REMARK  status: ('A' for Active; 'I' for Inactive)
REMARK    1  A    between atoms: C9_9  and  C11_11 
REMARK    2  A    between atoms: C10_10  and  C11_11 
ROOT
HETATM    1  C1  UNL     1     -32.867  10.627   1.117  1.00 20.00     0.012 C 
HETATM    2  C2  UNL     1     -32.310   9.584   1.322  1.00 20.00    -0.117 C 
HETATM    3  C10 UNL     1     -31.626   8.308   1.570  1.00 20.00     0.093 C 
ENDROOT
BRANCH   3   4
HETATM    4  C11 UNL     1     -31.969   7.798   2.954  1.00 20.00     0.017 C 
BRANCH   4   5
HETATM    5  C9  UNL     1     -33.222   6.917   2.909  1.00 20.00    -0.007 C 
HETATM    6  C5  UNL     1     -34.249   7.379   3.945  1.00 20.00     0.082 C 
HETATM    7  C3  UNL     1     -34.059   6.731   5.298  1.00 20.00     0.127 C 
HETATM    8  C4  UNL     1     -34.804   5.437   5.530  1.00 20.00     0.078 C 
HETATM    9  O12 UNL     1     -33.309   7.210   6.147  1.00 20.00    -0.298 OA
HETATM   10  C6  UNL     1     -34.149   4.261   4.823  1.00 20.00     0.007 C 
HETATM   11  C7  UNL     1     -33.940   4.452   3.318  1.00 20.00     0.001 C 
HETATM   12  C8  UNL     1     -32.813   5.434   2.990  1.00 20.00     0.005 C 
ENDBRANCH   4   5
ENDBRANCH   3   4
TORSDOF 2
ENDMDL
MODEL 2
REMARK VINA RESULT:      -6.2      1.671      2.348
REMARK  2 active torsions:
REMARK  status: ('A' for Active; 'I' for Inactive)
REMARK    1  A    between atoms: C9_9  and  C11_11 
REMARK    2  A    between atoms: C10_10  and  C11_11 
ROOT
HETATM    1  C1  UNL     1     -33.102   9.488  -0.587  1.00 20.00     0.012 C 
HETATM    2  C2  UNL     1     -32.542   9.066   0.386  1.00 20.00    -0.117 C 
HETATM    3  C10 UNL     1     -31.852   8.549   1.575  1.00 20.00     0.093 C 
ENDROOT
BRANCH   3   4
HETATM    4  C11 UNL     1     -32.718   8.745   2.802  1.00 20.00     0.017 C 
BRANCH   4   5
HETATM    5  C9  UNL     1     -32.518   7.593   3.793  1.00 20.00    -0.007 C 
HETATM    6  C5  UNL     1     -32.575   6.243   3.076  1.00 20.00     0.082 C 
HETATM    7  C3  UNL     1     -33.975   5.681   2.980  1.00 20.00     0.127 C 
HETATM    8  C4  UNL     1     -34.419   4.793   4.119  1.00 20.00     0.078 C 
HETATM    9  O12 UNL     1     -34.725   5.963   2.047  1.00 20.00    -0.298 OA
HETATM   10  C6  UNL     1     -34.774   5.588   5.365  1.00 20.00     0.007 C 
HETATM   11  C7  UNL     1     -33.669   6.525   5.865  1.00 20.00     0.001 C 
HETATM   12  C8  UNL     1     -33.486   7.760   4.980  1.00 20.00     0.005 C 
ENDBRANCH   4   5
ENDBRANCH   3   4
TORSDOF 2
ENDMDL
MODEL 3
REMARK VINA RESULT:      -5.3     11.301     12.451
REMARK  2 active torsions:
REMARK  status: ('A' for Active; 'I' for Inactive)
REMARK    1  A    between atoms: C9_9  and  C11_11 
REMARK    2  A    between atoms: C10_10  and  C11_11 
ROOT
HETATM    1  C1  UNL     1     -35.367  17.293  -0.716  1.00 20.00     0.012 C 
HETATM    2  C2  UNL     1     -34.696  16.969  -1.657  1.00 20.00    -0.117 C 
HETATM    3  C10 UNL     1     -33.872  16.575  -2.807  1.00 20.00     0.093 C 
ENDROOT
BRANCH   3   4
HETATM    4  C11 UNL     1     -34.498  15.388  -3.510  1.00 20.00     0.017 C 
BRANCH   4   5
HETATM    5  C9  UNL     1     -34.794  15.724  -4.975  1.00 20.00    -0.007 C 
HETATM    6  C5  UNL     1     -36.084  15.045  -5.438  1.00 20.00     0.082 C 
HETATM    7  C3  UNL     1     -35.860  13.655  -5.987  1.00 20.00     0.127 C 
HETATM    8  C4  UNL     1     -35.592  13.558  -7.471  1.00 20.00     0.078 C 
HETATM    9  O12 UNL     1     -35.856  12.663  -5.260  1.00 20.00    -0.298 OA
HETATM   10  C6  UNL     1     -34.176  13.978  -7.830  1.00 20.00     0.007 C 
HETATM   11  C7  UNL     1     -33.778  15.376  -7.343  1.00 20.00     0.001 C 
HETATM   12  C8  UNL     1     -33.546  15.438  -5.832  1.00 20.00     0.005 C 
ENDBRANCH   4   5
ENDBRANCH   3   4
TORSDOF 2
ENDMDL
MODEL 4
REMARK VINA RESULT:      -5.0     11.619     12.334
REMARK  2 active torsions:
REMARK  status: ('A' for Active; 'I' for Inactive)
REMARK    1  A    between atoms: C9_9  and  C11_11 
REMARK    2  A    between atoms: C10_10  and  C11_11 
ROOT
HETATM    1  C1  UNL     1     -32.745  18.159  -1.110  1.00 20.00     0.012 C 
HETATM    2  C2  UNL     1     -33.668  17.488  -1.481  1.00 20.00    -0.117 C 
HETATM    3  C10 UNL     1     -34.800  16.668  -1.931  1.00 20.00     0.093 C 
ENDROOT
BRANCH   3   4
HETATM    4  C11 UNL     1     -34.810  16.585  -3.443  1.00 20.00     0.017 C 
BRANCH   4   5
HETATM    5  C9  UNL     1     -34.716  15.127  -3.904  1.00 20.00    -0.007 C 
HETATM    6  C5  UNL     1     -33.479  14.912  -4.779  1.00 20.00     0.082 C 
HETATM    7  C3  UNL     1     -33.737  15.173  -6.245  1.00 20.00     0.127 C 
HETATM    8  C4  UNL     1     -34.193  13.988  -7.065  1.00 20.00     0.078 C 
HETATM    9  O12 UNL     1     -33.621  16.295  -6.735  1.00 20.00    -0.298 OA
HETATM   10  C6  UNL     1     -35.654  13.647  -6.821  1.00 20.00     0.007 C 
HETATM   11  C7  UNL     1     -36.021  13.407  -5.353  1.00 20.00     0.001 C 
HETATM   12  C8  UNL     1     -36.057  14.696  -4.527  1.00 20.00     0.005 C 
ENDBRANCH   4   5
ENDBRANCH   3   4
TORSDOF 2
ENDMDL
MODEL 5
REMARK VINA RESULT:      -4.5     11.260     12.210
REMARK  2 active torsions:
REMARK  status: ('A' for Active; 'I' for Inactive)
REMARK    1  A    between atoms: C9_9  and  C11_11 
REMARK    2  A    between atoms: C10_10  and  C11_11 
ROOT
HETATM    1  C1  UNL     1     -35.535  17.263  -0.446  1.00 20.00     0.012 C 
HETATM    2  C2  UNL     1     -34.577  17.222  -1.167  1.00 20.00    -0.117 C 
HETATM    3  C10 UNL     1     -33.403  17.169  -2.048  1.00 20.00     0.093 C 
ENDROOT
BRANCH   3   4
HETATM    4  C11 UNL     1     -33.692  17.904  -3.341  1.00 20.00     0.017 C 
BRANCH   4   5
HETATM    5  C9  UNL     1     -33.806  16.917  -4.507  1.00 20.00    -0.007 C 
HETATM    6  C5  UNL     1     -35.165  17.048  -5.199  1.00 20.00     0.082 C 
HETATM    7  C3  UNL     1     -36.231  16.171  -4.585  1.00 20.00     0.127 C 
HETATM    8  C4  UNL     1     -36.371  14.782  -5.164  1.00 20.00     0.078 C 
HETATM    9  O12 UNL     1     -36.920  16.552  -3.639  1.00 20.00    -0.298 OA
HETATM   10  C6  UNL     1     -35.266  13.849  -4.695  1.00 20.00     0.007 C 
HETATM   11  C7  UNL     1     -33.844  14.355  -4.953  1.00 20.00     0.001 C 
HETATM   12  C8  UNL     1     -33.439  15.502  -4.023  1.00 20.00     0.005 C 
ENDBRANCH   4   5
ENDBRANCH   3   4
TORSDOF 2
ENDMDL
MODEL 6
REMARK VINA RESULT:      -4.4     11.439     12.732
REMARK  2 active torsions:
REMARK  status: ('A' for Active; 'I' for Inactive)
REMARK    1  A    between atoms: C9_9  and  C11_11 
REMARK    2  A    between atoms: C10_10  and  C11_11 
ROOT
HETATM    1  C1  UNL     1     -35.548  17.170  -0.570  1.00 20.00     0.012 C 
HETATM    2  C2  UNL     1     -34.653  17.139  -1.369  1.00 20.00    -0.117 C 
HETATM    3  C10 UNL     1     -33.555  17.103  -2.344  1.00 20.00     0.093 C 
ENDROOT
BRANCH   3   4
HETATM    4  C11 UNL     1     -33.772  15.970  -3.326  1.00 20.00     0.017 C 
BRANCH   4   5
HETATM    5  C9  UNL     1     -35.095  16.155  -4.077  1.00 20.00    -0.007 C 
HETATM    6  C5  UNL     1     -35.747  14.802  -4.371  1.00 20.00     0.082 C 
HETATM    7  C3  UNL     1     -35.293  14.196  -5.679  1.00 20.00     0.127 C 
HETATM    8  C4  UNL     1     -36.110  14.553  -6.900  1.00 20.00     0.078 C 
HETATM    9  O12 UNL     1     -34.292  13.485  -5.752  1.00 20.00    -0.298 OA
HETATM   10  C6  UNL     1     -35.818  15.960  -7.397  1.00 20.00     0.007 C 
HETATM   11  C7  UNL     1     -35.989  17.061  -6.345  1.00 20.00     0.001 C 
HETATM   12  C8  UNL     1     -34.871  17.066  -5.299  1.00 20.00     0.005 C 
ENDBRANCH   4   5
ENDBRANCH   3   4
TORSDOF 2
ENDMDL
MODEL 7
REMARK VINA RESULT:      -4.4     11.284     12.216
REMARK  2 active torsions:
REMARK  status: ('A' for Active; 'I' for Inactive)
REMARK    1  A    between atoms: C9_9  and  C11_11 
REMARK    2  A    between atoms: C10_10  and  C11_11 
ROOT
HETATM    1  C1  UNL     1     -34.318  14.292  -6.197  1.00 20.00     0.012 C 
HETATM    2  C2  UNL     1     -34.258  14.704  -5.072  1.00 20.00    -0.117 C 
HETATM    3  C10 UNL     1     -34.186  15.205  -3.692  1.00 20.00     0.093 C 
ENDROOT
BRANCH   3   4
HETATM    4  C11 UNL     1     -33.620  16.610  -3.681  1.00 20.00     0.017 C 
BRANCH   4   5
HETATM    5  C9  UNL     1     -34.496  17.536  -2.831  1.00 20.00    -0.007 C 
HETATM    6  C5  UNL     1     -33.726  18.798  -2.434  1.00 20.00     0.082 C 
HETATM    7  C3  UNL     1     -32.951  18.640  -1.146  1.00 20.00     0.127 C 
HETATM    8  C4  UNL     1     -33.681  19.010   0.124  1.00 20.00     0.078 C 
HETATM    9  O12 UNL     1     -31.803  18.199  -1.130  1.00 20.00    -0.298 OA
HETATM   10  C6  UNL     1     -34.683  17.946   0.543  1.00 20.00     0.007 C 
HETATM   11  C7  UNL     1     -35.710  17.572  -0.531  1.00 20.00     0.001 C 
HETATM   12  C8  UNL     1     -35.111  16.737  -1.666  1.00 20.00     0.005 C 
ENDBRANCH   4   5
ENDBRANCH   3   4
TORSDOF 2
ENDMDL
MODEL 8
REMARK VINA RESULT:      -4.3     11.548     12.419
REMARK  2 active torsions:
REMARK  status: ('A' for Active; 'I' for Inactive)
REMARK    1  A    between atoms: C9_9  and  C11_11 
REMARK    2  A    between atoms: C10_10  and  C11_11 
ROOT
HETATM    1  C1  UNL     1     -31.850  18.541   0.017  1.00 20.00     0.012 C 
HETATM    2  C2  UNL     1     -32.809  18.168  -0.600  1.00 20.00    -0.117 C 
HETATM    3  C10 UNL     1     -33.986  17.715  -1.353  1.00 20.00     0.093 C 
ENDROOT
BRANCH   3   4
HETATM    4  C11 UNL     1     -33.553  17.099  -2.668  1.00 20.00     0.017 C 
BRANCH   4   5
HETATM    5  C9  UNL     1     -34.458  15.918  -3.033  1.00 20.00    -0.007 C 
HETATM    6  C5  UNL     1     -33.778  15.010  -4.061  1.00 20.00     0.082 C 
HETATM    7  C3  UNL     1     -34.044  15.427  -5.489  1.00 20.00     0.127 C 
HETATM    8  C4  UNL     1     -35.258  14.815  -6.149  1.00 20.00     0.078 C 
HETATM    9  O12 UNL     1     -33.335  16.248  -6.068  1.00 20.00    -0.298 OA
HETATM   10  C6  UNL     1     -36.555  15.451  -5.673  1.00 20.00     0.007 C 
HETATM   11  C7  UNL     1     -36.755  15.441  -4.154  1.00 20.00     0.001 C 
HETATM   12  C8  UNL     1     -35.853  16.440  -3.425  1.00 20.00     0.005 C 
ENDBRANCH   4   5
ENDBRANCH   3   4
TORSDOF 2
ENDMDL
MODEL 9
REMARK VINA RESULT:      -4.3     11.185     12.263
REMARK  2 active torsions:
REMARK  status: ('A' for Active; 'I' for Inactive)
REMARK    1  A    between atoms: C9_9  and  C11_11 
REMARK    2  A    between atoms: C10_10  and  C11_11 
ROOT
HETATM    1  C1  UNL     1     -33.212  14.345  -4.490  1.00 20.00     0.012 C 
HETATM    2  C2  UNL     1     -33.315  15.523  -4.693  1.00 20.00    -0.117 C 
HETATM    3  C10 UNL     1     -33.439  16.965  -4.945  1.00 20.00     0.093 C 
ENDROOT
BRANCH   3   4
HETATM    4  C11 UNL     1     -34.272  17.611  -3.857  1.00 20.00     0.017 C 
BRANCH   4   5
HETATM    5  C9  UNL     1     -33.740  17.227  -2.472  1.00 20.00    -0.007 C 
HETATM    6  C5  UNL     1     -34.857  16.647  -1.602  1.00 20.00     0.082 C 
HETATM    7  C3  UNL     1     -35.612  17.700  -0.825  1.00 20.00     0.127 C 
HETATM    8  C4  UNL     1     -35.077  18.028   0.550  1.00 20.00     0.078 C 
HETATM    9  O12 UNL     1     -36.583  18.286  -1.300  1.00 20.00    -0.298 OA
HETATM   10  C6  UNL     1     -33.831  18.898   0.491  1.00 20.00     0.007 C 
HETATM   11  C7  UNL     1     -32.693  18.333  -0.364  1.00 20.00     0.001 C 
HETATM   12  C8  UNL     1     -32.974  18.419  -1.867  1.00 20.00     0.005 C 
ENDBRANCH   4   5
ENDBRANCH   3   4
TORSDOF 2
ENDMDL
