MODEL 1
REMARK VINA RESULT:      -6.0      0.000      0.000
REMARK  3 active torsions:
REMARK  status: ('A' for Active; 'I' for Inactive)
REMARK    1  A    between atoms: C5_5  and  C9_9 
REMARK    2  A    between atoms: C9_9  and  C11_11 
REMARK    3  A    between atoms: C10_10  and  C11_11 
ROOT
HETATM    1  C1  UNL     1     -33.943   7.019   5.907  1.00 20.00     0.002 C 
HETATM    2  C2  UNL     1     -32.931   7.376   4.827  1.00 20.00     0.005 C 
HETATM    3  C3  UNL     1     -34.700   5.720   5.613  1.00 20.00     0.020 C 
HETATM    4  C4  UNL     1     -34.779   6.583   3.223  1.00 20.00     0.024 C 
HETATM    5  C5  UNL     1     -33.610   7.562   3.461  1.00 20.00    -0.013 C 
HETATM    6  C6  UNL     1     -34.782   5.350   4.128  1.00 20.00     0.082 C 
HETATM    7 CL12 UNL     1     -33.449   4.237   3.679  1.00 20.00    -0.125 Cl
ENDROOT
BRANCH   5   8
HETATM    8  C9  UNL     1     -32.577   7.512   2.336  1.00 20.00     0.009 C 
BRANCH   8   9
HETATM    9  C11 UNL     1     -32.130   8.902   1.843  1.00 20.00    -0.019 C 
HETATM   10  C8  UNL     1     -33.176   9.977   2.158  1.00 20.00     0.010 C 
BRANCH   9  11
HETATM   11  C10 UNL     1     -31.837   8.820   0.331  1.00 20.00    -0.000 C 
HETATM   12  C7  UNL     1     -32.978   9.320  -0.546  1.00 20.00     0.005 C 
ENDBRANCH   9  11
ENDBRANCH   8   9
ENDBRANCH   5   8
TORSDOF 3
ENDMDL
MODEL 2
REMARK VINA RESULT:      -5.4      1.577      2.090
REMARK  3 active torsions:
REMARK  status: ('A' for Active; 'I' for Inactive)
REMARK    1  A    between atoms: C5_5  and  C9_9 
REMARK    2  A    between atoms: C9_9  and  C11_11 
REMARK    3  A    between atoms: C10_10  and  C11_11 
ROOT
HETATM    1  C1  UNL     1     -33.335   4.075   3.711  1.00 20.00     0.002 C 
HETATM    2  C2  UNL     1     -33.158   5.102   2.602  1.00 20.00     0.005 C 
HETATM    3  C3  UNL     1     -34.536   4.370   4.615  1.00 20.00     0.020 C 
HETATM    4  C4  UNL     1     -33.770   6.789   4.445  1.00 20.00     0.024 C 
HETATM    5  C5  UNL     1     -32.942   6.513   3.172  1.00 20.00    -0.013 C 
HETATM    6  C6  UNL     1     -34.953   5.845   4.661  1.00 20.00     0.082 C 
HETATM    7 CL12 UNL     1     -36.247   6.173   3.464  1.00 20.00    -0.125 Cl
ENDROOT
BRANCH   5   8
HETATM    8  C9  UNL     1     -33.173   7.570   2.093  1.00 20.00     0.009 C 
BRANCH   8   9
HETATM    9  C11 UNL     1     -31.938   8.451   1.815  1.00 20.00    -0.019 C 
HETATM   10  C8  UNL     1     -31.147   8.736   3.096  1.00 20.00     0.010 C 
BRANCH   9  11
HETATM   11  C10 UNL     1     -32.405   9.753   1.133  1.00 20.00    -0.000 C 
HETATM   12  C7  UNL     1     -33.017   9.542  -0.245  1.00 20.00     0.005 C 
ENDBRANCH   9  11
ENDBRANCH   8   9
ENDBRANCH   5   8
TORSDOF 3
ENDMDL
MODEL 3
REMARK VINA RESULT:      -4.7     10.676     11.912
REMARK  3 active torsions:
REMARK  status: ('A' for Active; 'I' for Inactive)
REMARK    1  A    between atoms: C5_5  and  C9_9 
REMARK    2  A    between atoms: C9_9  and  C11_11 
REMARK    3  A    between atoms: C10_10  and  C11_11 
ROOT
HETATM    1  C1  UNL     1     -35.771  13.596  -5.205  1.00 20.00     0.002 C 
HETATM    2  C2  UNL     1     -34.766  14.114  -4.186  1.00 20.00     0.005 C 
HETATM    3  C3  UNL     1     -35.780  14.407  -6.504  1.00 20.00     0.020 C 
HETATM    4  C4  UNL     1     -35.581  16.425  -4.969  1.00 20.00     0.024 C 
HETATM    5  C5  UNL     1     -35.064  15.569  -3.793  1.00 20.00    -0.013 C 
HETATM    6  C6  UNL     1     -35.292  15.853  -6.357  1.00 20.00     0.082 C 
HETATM    7 CL12 UNL     1     -33.542  15.970  -6.734  1.00 20.00    -0.125 Cl
ENDROOT
BRANCH   5   8
HETATM    8  C9  UNL     1     -33.851  16.201  -3.110  1.00 20.00     0.009 C 
BRANCH   8   9
HETATM    9  C11 UNL     1     -34.208  17.375  -2.177  1.00 20.00    -0.019 C 
HETATM   10  C8  UNL     1     -32.980  17.891  -1.420  1.00 20.00     0.010 C 
BRANCH   9  11
HETATM   11  C10 UNL     1     -35.320  16.917  -1.211  1.00 20.00    -0.000 C 
HETATM   12  C7  UNL     1     -35.281  17.607   0.146  1.00 20.00     0.005 C 
ENDBRANCH   9  11
ENDBRANCH   8   9
ENDBRANCH   5   8
TORSDOF 3
ENDMDL
MODEL 4
REMARK VINA RESULT:      -4.7     10.686     11.913
REMARK  3 active torsions:
REMARK  status: ('A' for Active; 'I' for Inactive)
REMARK    1  A    between atoms: C5_5  and  C9_9 
REMARK    2  A    between atoms: C9_9  and  C11_11 
REMARK    3  A    between atoms: C10_10  and  C11_11 
ROOT
HETATM    1  C1  UNL     1     -35.605  13.575  -4.916  1.00 20.00     0.002 C 
HETATM    2  C2  UNL     1     -34.538  14.259  -4.073  1.00 20.00     0.005 C 
HETATM    3  C3  UNL     1     -35.760  14.197  -6.307  1.00 20.00     0.020 C 
HETATM    4  C4  UNL     1     -35.512  16.413  -5.085  1.00 20.00     0.024 C 
HETATM    5  C5  UNL     1     -34.861  15.745  -3.856  1.00 20.00    -0.013 C 
HETATM    6  C6  UNL     1     -35.320  15.662  -6.403  1.00 20.00     0.082 C 
HETATM    7 CL12 UNL     1     -33.616  15.777  -6.951  1.00 20.00    -0.125 Cl
ENDROOT
BRANCH   5   8
HETATM    8  C9  UNL     1     -33.620  16.501  -3.378  1.00 20.00     0.009 C 
BRANCH   8   9
HETATM    9  C11 UNL     1     -33.700  16.955  -1.907  1.00 20.00    -0.019 C 
HETATM   10  C8  UNL     1     -35.145  16.966  -1.396  1.00 20.00     0.010 C 
BRANCH   9  11
HETATM   11  C10 UNL     1     -33.043  18.345  -1.783  1.00 20.00    -0.000 C 
HETATM   12  C7  UNL     1     -32.324  18.570  -0.460  1.00 20.00     0.005 C 
ENDBRANCH   9  11
ENDBRANCH   8   9
ENDBRANCH   5   8
TORSDOF 3
ENDMDL
MODEL 5
REMARK VINA RESULT:      -4.7     10.439     11.708
REMARK  3 active torsions:
REMARK  status: ('A' for Active; 'I' for Inactive)
REMARK    1  A    between atoms: C5_5  and  C9_9 
REMARK    2  A    between atoms: C9_9  and  C11_11 
REMARK    3  A    between atoms: C10_10  and  C11_11 
ROOT
HETATM    1  C1  UNL     1     -34.049  15.191  -6.648  1.00 20.00     0.002 C 
HETATM    2  C2  UNL     1     -34.504  16.146  -5.554  1.00 20.00     0.005 C 
HETATM    3  C3  UNL     1     -34.900  13.920  -6.726  1.00 20.00     0.020 C 
HETATM    4  C4  UNL     1     -34.819  13.991  -4.186  1.00 20.00     0.024 C 
HETATM    5  C5  UNL     1     -34.438  15.487  -4.168  1.00 20.00    -0.013 C 
HETATM    6  C6  UNL     1     -35.604  13.542  -5.419  1.00 20.00     0.082 C 
HETATM    7 CL12 UNL     1     -37.269  14.207  -5.382  1.00 20.00    -0.125 Cl
ENDROOT
BRANCH   5   8
HETATM    8  C9  UNL     1     -35.263  16.280  -3.155  1.00 20.00     0.009 C 
BRANCH   8   9
HETATM    9  C11 UNL     1     -34.482  16.654  -1.879  1.00 20.00    -0.019 C 
HETATM   10  C8  UNL     1     -35.398  17.267  -0.814  1.00 20.00     0.010 C 
BRANCH   9  11
HETATM   11  C10 UNL     1     -33.337  17.613  -2.264  1.00 20.00    -0.000 C 
HETATM   12  C7  UNL     1     -32.652  18.265  -1.071  1.00 20.00     0.005 C 
ENDBRANCH   9  11
ENDBRANCH   8   9
ENDBRANCH   5   8
TORSDOF 3
ENDMDL
MODEL 6
REMARK VINA RESULT:      -4.5      1.923      5.073
REMARK  3 active torsions:
REMARK  status: ('A' for Active; 'I' for Inactive)
REMARK    1  A    between atoms: C5_5  and  C9_9 
REMARK    2  A    between atoms: C9_9  and  C11_11 
REMARK    3  A    between atoms: C10_10  and  C11_11 
ROOT
HETATM    1  C1  UNL     1     -32.844  10.783   1.918  1.00 20.00     0.002 C 
HETATM    2  C2  UNL     1     -33.424   9.504   2.504  1.00 20.00     0.005 C 
HETATM    3  C3  UNL     1     -32.297  10.598   0.499  1.00 20.00     0.020 C 
HETATM    4  C4  UNL     1     -31.387   8.398   1.390  1.00 20.00     0.024 C 
HETATM    5  C5  UNL     1     -32.367   8.393   2.582  1.00 20.00    -0.013 C 
HETATM    6  C6  UNL     1     -31.874   9.165   0.160  1.00 20.00     0.082 C 
HETATM    7 CL12 UNL     1     -33.213   8.283  -0.642  1.00 20.00    -0.125 Cl
ENDROOT
BRANCH   5   8
HETATM    8  C9  UNL     1     -33.032   7.030   2.776  1.00 20.00     0.009 C 
BRANCH   8   9
HETATM    9  C11 UNL     1     -34.072   7.005   3.913  1.00 20.00    -0.019 C 
HETATM   10  C8  UNL     1     -33.433   7.310   5.272  1.00 20.00     0.010 C 
BRANCH   9  11
HETATM   11  C10 UNL     1     -34.773   5.631   3.911  1.00 20.00    -0.000 C 
HETATM   12  C7  UNL     1     -34.629   4.864   5.218  1.00 20.00     0.005 C 
ENDBRANCH   9  11
ENDBRANCH   8   9
ENDBRANCH   5   8
TORSDOF 3
ENDMDL
MODEL 7
REMARK VINA RESULT:      -4.5     10.682     11.975
REMARK  3 active torsions:
REMARK  status: ('A' for Active; 'I' for Inactive)
REMARK    1  A    between atoms: C5_5  and  C9_9 
REMARK    2  A    between atoms: C9_9  and  C11_11 
REMARK    3  A    between atoms: C10_10  and  C11_11 
ROOT
HETATM    1  C1  UNL     1     -33.851  16.608  -6.433  1.00 20.00     0.002 C 
HETATM    2  C2  UNL     1     -34.491  16.937  -5.092  1.00 20.00     0.005 C 
HETATM    3  C3  UNL     1     -33.936  15.120  -6.789  1.00 20.00     0.020 C 
HETATM    4  C4  UNL     1     -33.380  14.743  -4.337  1.00 20.00     0.024 C 
HETATM    5  C5  UNL     1     -33.815  16.171  -3.944  1.00 20.00    -0.013 C 
HETATM    6  C6  UNL     1     -34.064  14.182  -5.584  1.00 20.00     0.082 C 
HETATM    7 CL12 UNL     1     -35.787  13.817  -5.247  1.00 20.00    -0.125 Cl
ENDROOT
BRANCH   5   8
HETATM    8  C9  UNL     1     -34.698  16.182  -2.697  1.00 20.00     0.009 C 
BRANCH   8   9
HETATM    9  C11 UNL     1     -34.536  17.450  -1.835  1.00 20.00    -0.019 C 
HETATM   10  C8  UNL     1     -33.063  17.742  -1.529  1.00 20.00     0.010 C 
BRANCH   9  11
HETATM   11  C10 UNL     1     -35.362  17.278  -0.543  1.00 20.00    -0.000 C 
HETATM   12  C7  UNL     1     -34.819  18.064   0.643  1.00 20.00     0.005 C 
ENDBRANCH   9  11
ENDBRANCH   8   9
ENDBRANCH   5   8
TORSDOF 3
ENDMDL
MODEL 8
REMARK VINA RESULT:      -4.3      2.283      5.199
REMARK  3 active torsions:
REMARK  status: ('A' for Active; 'I' for Inactive)
REMARK    1  A    between atoms: C5_5  and  C9_9 
REMARK    2  A    between atoms: C9_9  and  C11_11 
REMARK    3  A    between atoms: C10_10  and  C11_11 
ROOT
HETATM    1  C1  UNL     1     -31.323   8.660   0.190  1.00 20.00     0.002 C 
HETATM    2  C2  UNL     1     -31.242   8.222   1.646  1.00 20.00     0.005 C 
HETATM    3  C3  UNL     1     -32.132   9.946  -0.005  1.00 20.00     0.020 C 
HETATM    4  C4  UNL     1     -33.714   8.931   1.708  1.00 20.00     0.024 C 
HETATM    5  C5  UNL     1     -32.638   7.956   2.230  1.00 20.00    -0.013 C 
HETATM    6  C6  UNL     1     -33.170  10.219   1.089  1.00 20.00     0.082 C 
HETATM    7 CL12 UNL     1     -32.485  11.286   2.358  1.00 20.00    -0.125 Cl
ENDROOT
BRANCH   5   8
HETATM    8  C9  UNL     1     -32.584   7.922   3.758  1.00 20.00     0.009 C 
BRANCH   8   9
HETATM    9  C11 UNL     1     -33.817   7.262   4.406  1.00 20.00    -0.019 C 
HETATM   10  C8  UNL     1     -33.711   7.243   5.934  1.00 20.00     0.010 C 
BRANCH   9  11
HETATM   11  C10 UNL     1     -33.976   5.840   3.829  1.00 20.00    -0.000 C 
HETATM   12  C7  UNL     1     -34.663   4.865   4.776  1.00 20.00     0.005 C 
ENDBRANCH   9  11
ENDBRANCH   8   9
ENDBRANCH   5   8
TORSDOF 3
ENDMDL
MODEL 9
REMARK VINA RESULT:      -4.3     11.072     11.963
REMARK  3 active torsions:
REMARK  status: ('A' for Active; 'I' for Inactive)
REMARK    1  A    between atoms: C5_5  and  C9_9 
REMARK    2  A    between atoms: C9_9  and  C11_11 
REMARK    3  A    between atoms: C10_10  and  C11_11 
ROOT
HETATM    1  C1  UNL     1     -33.735  16.043  -3.227  1.00 20.00     0.002 C 
HETATM    2  C2  UNL     1     -33.324  17.356  -2.577  1.00 20.00     0.005 C 
HETATM    3  C3  UNL     1     -35.247  15.932  -3.450  1.00 20.00     0.020 C 
HETATM    4  C4  UNL     1     -35.426  16.986  -1.142  1.00 20.00     0.024 C 
HETATM    5  C5  UNL     1     -33.984  17.533  -1.201  1.00 20.00    -0.013 C 
HETATM    6  C6  UNL     1     -36.096  16.788  -2.503  1.00 20.00     0.082 C 
HETATM    7 CL12 UNL     1     -36.478  18.371  -3.252  1.00 20.00    -0.125 Cl
ENDROOT
BRANCH   5   8
HETATM    8  C9  UNL     1     -33.903  18.991  -0.749  1.00 20.00     0.009 C 
BRANCH   8   9
HETATM    9  C11 UNL     1     -33.030  19.202   0.504  1.00 20.00    -0.019 C 
HETATM   10  C8  UNL     1     -31.629  18.609   0.325  1.00 20.00     0.010 C 
BRANCH   9  11
HETATM   11  C10 UNL     1     -33.756  18.589   1.720  1.00 20.00    -0.000 C 
HETATM   12  C7  UNL     1     -32.875  18.443   2.953  1.00 20.00     0.005 C 
ENDBRANCH   9  11
ENDBRANCH   8   9
ENDBRANCH   5   8
TORSDOF 3
ENDMDL
