MODEL 1
REMARK VINA RESULT:      -5.3      0.000      0.000
REMARK  1 active torsions:
REMARK  status: ('A' for Active; 'I' for Inactive)
REMARK    1  A    between atoms: C5_5  and  C8_8 
ROOT
HETATM    1  C1  UNL     1     -34.024   4.969   3.254  1.00 20.00     0.007 C 
HETATM    2  C2  UNL     1     -32.674   5.599   2.900  1.00 20.00     0.041 C 
HETATM    3  C3  UNL     1     -34.305   7.344   3.537  1.00 20.00     0.045 C 
HETATM    4  C4  UNL     1     -32.219   8.072   2.093  1.00 20.00     0.207 A 
HETATM    5  C5  UNL     1     -34.712   5.999   4.161  1.00 20.00    -0.012 C 
HETATM    6  C6  UNL     1     -32.957   7.069   2.941  1.00 20.00     0.083 A 
HETATM    7  O9  UNL     1     -31.890   7.867   3.473  1.00 20.00    -0.375 OA
ENDROOT
BRANCH   5   8
HETATM    8  C8  UNL     1     -34.248   5.882   5.613  1.00 20.00     0.000 C 
HETATM    9  C7  UNL     1     -33.884   7.212   6.194  1.00 20.00     0.005 C 
ENDBRANCH   5   8
TORSDOF 1
ENDMDL
MODEL 2
REMARK VINA RESULT:      -4.4      1.735      3.505
REMARK  1 active torsions:
REMARK  status: ('A' for Active; 'I' for Inactive)
REMARK    1  A    between atoms: C5_5  and  C8_8 
ROOT
HETATM    1  C1  UNL     1     -32.125   6.273   2.661  1.00 20.00     0.007 C 
HETATM    2  C2  UNL     1     -33.391   5.414   2.744  1.00 20.00     0.041 C 
HETATM    3  C3  UNL     1     -33.486   7.258   4.388  1.00 20.00     0.045 C 
HETATM    4  C4  UNL     1     -35.021   5.152   4.805  1.00 20.00     0.207 A 
HETATM    5  C5  UNL     1     -32.538   7.635   3.236  1.00 20.00    -0.012 C 
HETATM    6  C6  UNL     1     -34.113   5.976   3.929  1.00 20.00     0.083 A 
HETATM    7  O9  UNL     1     -35.540   6.022   3.791  1.00 20.00    -0.375 OA
ENDROOT
BRANCH   5   8
HETATM    8  C8  UNL     1     -33.232   8.511   2.192  1.00 20.00     0.000 C 
HETATM    9  C7  UNL     1     -32.261   9.085   1.208  1.00 20.00     0.005 C 
ENDBRANCH   5   8
TORSDOF 1
ENDMDL
MODEL 3
REMARK VINA RESULT:      -4.3      1.729      3.554
REMARK  1 active torsions:
REMARK  status: ('A' for Active; 'I' for Inactive)
REMARK    1  A    between atoms: C5_5  and  C8_8 
ROOT
HETATM    1  C1  UNL     1     -33.695   7.724   5.352  1.00 20.00     0.007 C 
HETATM    2  C2  UNL     1     -33.678   6.239   5.730  1.00 20.00     0.041 C 
HETATM    3  C3  UNL     1     -34.462   6.533   3.404  1.00 20.00     0.045 C 
HETATM    4  C4  UNL     1     -35.092   4.290   4.646  1.00 20.00     0.207 A 
HETATM    5  C5  UNL     1     -33.604   7.739   3.820  1.00 20.00    -0.012 C 
HETATM    6  C6  UNL     1     -34.309   5.574   4.546  1.00 20.00     0.083 A 
HETATM    7  O9  UNL     1     -33.731   4.309   4.195  1.00 20.00    -0.375 OA
ENDROOT
BRANCH   5   8
HETATM    8  C8  UNL     1     -32.161   7.606   3.332  1.00 20.00     0.000 C 
HETATM    9  C7  UNL     1     -31.931   8.347   2.052  1.00 20.00     0.005 C 
ENDBRANCH   5   8
TORSDOF 1
ENDMDL
MODEL 4
REMARK VINA RESULT:      -4.2      1.447      2.926
REMARK  1 active torsions:
REMARK  status: ('A' for Active; 'I' for Inactive)
REMARK    1  A    between atoms: C5_5  and  C8_8 
ROOT
HETATM    1  C1  UNL     1     -32.916   7.246   2.526  1.00 20.00     0.007 C 
HETATM    2  C2  UNL     1     -32.448   7.545   3.954  1.00 20.00     0.041 C 
HETATM    3  C3  UNL     1     -34.652   6.426   3.981  1.00 20.00     0.045 C 
HETATM    4  C4  UNL     1     -33.946   7.817   6.111  1.00 20.00     0.207 A 
HETATM    5  C5  UNL     1     -33.912   6.088   2.676  1.00 20.00    -0.012 C 
HETATM    6  C6  UNL     1     -33.627   7.161   4.792  1.00 20.00     0.083 A 
HETATM    7  O9  UNL     1     -33.294   6.542   6.042  1.00 20.00    -0.375 OA
ENDROOT
BRANCH   5   8
HETATM    8  C8  UNL     1     -33.208   4.734   2.756  1.00 20.00     0.000 C 
HETATM    9  C7  UNL     1     -33.825   3.841   3.787  1.00 20.00     0.005 C 
ENDBRANCH   5   8
TORSDOF 1
ENDMDL
MODEL 5
REMARK VINA RESULT:      -4.2      1.708      2.767
REMARK  1 active torsions:
REMARK  status: ('A' for Active; 'I' for Inactive)
REMARK    1  A    between atoms: C5_5  and  C8_8 
ROOT
HETATM    1  C1  UNL     1     -31.486   8.004   3.719  1.00 20.00     0.007 C 
HETATM    2  C2  UNL     1     -31.711   9.320   2.968  1.00 20.00     0.041 C 
HETATM    3  C3  UNL     1     -32.798   7.447   1.777  1.00 20.00     0.045 C 
HETATM    4  C4  UNL     1     -32.252   9.633   0.403  1.00 20.00     0.207 A 
HETATM    5  C5  UNL     1     -32.636   7.094   3.265  1.00 20.00    -0.012 C 
HETATM    6  C6  UNL     1     -32.387   8.886   1.705  1.00 20.00     0.083 A 
HETATM    7  O9  UNL     1     -33.408   9.780   1.238  1.00 20.00    -0.375 OA
ENDROOT
BRANCH   5   8
HETATM    8  C8  UNL     1     -33.918   7.355   4.055  1.00 20.00     0.000 C 
HETATM    9  C7  UNL     1     -33.699   7.249   5.532  1.00 20.00     0.005 C 
ENDBRANCH   5   8
TORSDOF 1
ENDMDL
MODEL 6
REMARK VINA RESULT:      -4.1      1.673      2.293
REMARK  1 active torsions:
REMARK  status: ('A' for Active; 'I' for Inactive)
REMARK    1  A    between atoms: C5_5  and  C8_8 
ROOT
HETATM    1  C1  UNL     1     -34.829   4.782   5.582  1.00 20.00     0.007 C 
HETATM    2  C2  UNL     1     -33.785   4.129   4.670  1.00 20.00     0.041 C 
HETATM    3  C3  UNL     1     -34.593   6.247   3.684  1.00 20.00     0.045 C 
HETATM    4  C4  UNL     1     -33.480   4.479   2.070  1.00 20.00     0.207 A 
HETATM    5  C5  UNL     1     -34.798   6.270   5.208  1.00 20.00    -0.012 C 
HETATM    6  C6  UNL     1     -33.802   4.996   3.449  1.00 20.00     0.083 A 
HETATM    7  O9  UNL     1     -32.516   5.202   2.847  1.00 20.00    -0.375 OA
ENDROOT
BRANCH   5   8
HETATM    8  C8  UNL     1     -33.670   7.015   5.922  1.00 20.00     0.000 C 
HETATM    9  C7  UNL     1     -32.934   7.936   4.999  1.00 20.00     0.005 C 
ENDBRANCH   5   8
TORSDOF 1
ENDMDL
MODEL 7
REMARK VINA RESULT:      -3.9     11.268     12.307
REMARK  1 active torsions:
REMARK  status: ('A' for Active; 'I' for Inactive)
REMARK    1  A    between atoms: C5_5  and  C8_8 
ROOT
HETATM    1  C1  UNL     1     -33.249  16.072  -5.095  1.00 20.00     0.007 C 
HETATM    2  C2  UNL     1     -34.457  15.750  -5.980  1.00 20.00     0.041 C 
HETATM    3  C3  UNL     1     -34.328  14.171  -4.082  1.00 20.00     0.045 C 
HETATM    4  C4  UNL     1     -35.709  13.436  -6.208  1.00 20.00     0.207 A 
HETATM    5  C5  UNL     1     -33.599  15.477  -3.724  1.00 20.00    -0.012 C 
HETATM    6  C6  UNL     1     -34.986  14.477  -5.394  1.00 20.00     0.083 A 
HETATM    7  O9  UNL     1     -36.417  14.374  -5.386  1.00 20.00    -0.375 OA
ENDROOT
BRANCH   5   8
HETATM    8  C8  UNL     1     -34.483  16.415  -2.902  1.00 20.00     0.000 C 
HETATM    9  C7  UNL     1     -33.702  17.148  -1.856  1.00 20.00     0.005 C 
ENDBRANCH   5   8
TORSDOF 1
ENDMDL
MODEL 8
REMARK VINA RESULT:      -3.8     11.713     12.395
REMARK  1 active torsions:
REMARK  status: ('A' for Active; 'I' for Inactive)
REMARK    1  A    between atoms: C5_5  and  C8_8 
ROOT
HETATM    1  C1  UNL     1     -36.684  14.934  -4.520  1.00 20.00     0.007 C 
HETATM    2  C2  UNL     1     -36.289  13.643  -5.244  1.00 20.00     0.041 C 
HETATM    3  C3  UNL     1     -34.877  15.526  -5.999  1.00 20.00     0.045 C 
HETATM    4  C4  UNL     1     -35.070  13.419  -7.576  1.00 20.00     0.207 A 
HETATM    5  C5  UNL     1     -35.434  15.823  -4.597  1.00 20.00    -0.012 C 
HETATM    6  C6  UNL     1     -35.283  14.106  -6.252  1.00 20.00     0.083 A 
HETATM    7  O9  UNL     1     -34.192  13.198  -6.465  1.00 20.00    -0.375 OA
ENDROOT
BRANCH   5   8
HETATM    8  C8  UNL     1     -34.424  15.486  -3.500  1.00 20.00     0.000 C 
HETATM    9  C7  UNL     1     -34.346  16.560  -2.460  1.00 20.00     0.005 C 
ENDBRANCH   5   8
TORSDOF 1
ENDMDL
MODEL 9
REMARK VINA RESULT:      -3.7     11.901     12.836
REMARK  1 active torsions:
REMARK  status: ('A' for Active; 'I' for Inactive)
REMARK    1  A    between atoms: C5_5  and  C8_8 
ROOT
HETATM    1  C1  UNL     1     -33.337  18.046  -2.995  1.00 20.00     0.007 C 
HETATM    2  C2  UNL     1     -33.800  18.073  -4.456  1.00 20.00     0.041 C 
HETATM    3  C3  UNL     1     -33.558  15.743  -3.667  1.00 20.00     0.045 C 
HETATM    4  C4  UNL     1     -33.502  16.177  -6.270  1.00 20.00     0.207 A 
HETATM    5  C5  UNL     1     -33.789  16.677  -2.467  1.00 20.00    -0.012 C 
HETATM    6  C6  UNL     1     -33.764  16.631  -4.857  1.00 20.00     0.083 A 
HETATM    7  O9  UNL     1     -34.829  16.228  -5.729  1.00 20.00    -0.375 OA
ENDROOT
BRANCH   5   8
HETATM    8  C8  UNL     1     -35.254  16.688  -2.030  1.00 20.00     0.000 C 
HETATM    9  C7  UNL     1     -35.424  17.253  -0.654  1.00 20.00     0.005 C 
ENDBRANCH   5   8
TORSDOF 1
ENDMDL
