MODEL 1
REMARK VINA RESULT:      -5.7      0.000      0.000
REMARK  2 active torsions:
REMARK  status: ('A' for Active; 'I' for Inactive)
REMARK    1  A    between atoms: C2_2  and  C9_9 
REMARK    2  A    between atoms: C7_7  and  C9_9 
ROOT
HETATM    1  C1  UNL     1     -32.365   8.926   1.431  1.00 20.00    -0.111 C 
HETATM    2  C2  UNL     1     -32.491   8.139   2.328  1.00 20.00    -0.107 C 
HETATM    3  C8  UNL     1     -32.209   9.885   0.337  1.00 20.00     0.112 C 
ENDROOT
BRANCH   2   4
HETATM    4  C9  UNL     1     -32.650   7.178   3.426  1.00 20.00     0.099 C 
BRANCH   4   5
HETATM    5  C7  UNL     1     -34.059   7.238   4.017  1.00 20.00     0.004 C 
HETATM    6  C5  UNL     1     -34.072   6.872   5.504  1.00 20.00     0.083 C 
HETATM    7  C3  UNL     1     -34.311   5.384   5.471  1.00 20.00     0.127 C 
HETATM    8  C4  UNL     1     -34.720   4.899   4.105  1.00 20.00     0.079 C 
HETATM    9  O10 UNL     1     -34.190   4.652   6.445  1.00 20.00    -0.298 OA
HETATM   10  C6  UNL     1     -34.996   6.210   3.376  1.00 20.00     0.013 C 
ENDBRANCH   4   5
ENDBRANCH   2   4
TORSDOF 2
ENDMDL
MODEL 2
REMARK VINA RESULT:      -5.3      1.043      1.167
REMARK  2 active torsions:
REMARK  status: ('A' for Active; 'I' for Inactive)
REMARK    1  A    between atoms: C2_2  and  C9_9 
REMARK    2  A    between atoms: C7_7  and  C9_9 
ROOT
HETATM    1  C1  UNL     1     -31.946   8.464   1.974  1.00 20.00    -0.111 C 
HETATM    2  C2  UNL     1     -32.346   8.043   3.025  1.00 20.00    -0.107 C 
HETATM    3  C8  UNL     1     -31.460   8.975   0.693  1.00 20.00     0.112 C 
ENDROOT
BRANCH   2   4
HETATM    4  C9  UNL     1     -32.833   7.533   4.313  1.00 20.00     0.099 C 
BRANCH   4   5
HETATM    5  C7  UNL     1     -34.264   7.007   4.197  1.00 20.00     0.004 C 
HETATM    6  C5  UNL     1     -34.529   5.852   5.166  1.00 20.00     0.083 C 
HETATM    7  C3  UNL     1     -34.179   4.644   4.336  1.00 20.00     0.127 C 
HETATM    8  C4  UNL     1     -34.003   4.981   2.878  1.00 20.00     0.079 C 
HETATM    9  O10 UNL     1     -34.053   3.515   4.793  1.00 20.00    -0.298 OA
HETATM   10  C6  UNL     1     -34.547   6.405   2.818  1.00 20.00     0.013 C 
ENDBRANCH   4   5
ENDBRANCH   2   4
TORSDOF 2
ENDMDL
MODEL 3
REMARK VINA RESULT:      -4.7     11.090     11.800
REMARK  2 active torsions:
REMARK  status: ('A' for Active; 'I' for Inactive)
REMARK    1  A    between atoms: C2_2  and  C9_9 
REMARK    2  A    between atoms: C7_7  and  C9_9 
ROOT
HETATM    1  C1  UNL     1     -33.302  17.723  -1.195  1.00 20.00    -0.111 C 
HETATM    2  C2  UNL     1     -34.155  17.066  -1.726  1.00 20.00    -0.107 C 
HETATM    3  C8  UNL     1     -32.263  18.521  -0.546  1.00 20.00     0.112 C 
ENDROOT
BRANCH   2   4
HETATM    4  C9  UNL     1     -35.198  16.267  -2.380  1.00 20.00     0.099 C 
BRANCH   4   5
HETATM    5  C7  UNL     1     -35.026  16.265  -3.900  1.00 20.00     0.004 C 
HETATM    6  C5  UNL     1     -35.958  15.258  -4.580  1.00 20.00     0.083 C 
HETATM    7  C3  UNL     1     -35.108  14.014  -4.633  1.00 20.00     0.127 C 
HETATM    8  C4  UNL     1     -33.666  14.290  -4.299  1.00 20.00     0.079 C 
HETATM    9  O10 UNL     1     -35.541  12.905  -4.918  1.00 20.00    -0.298 OA
HETATM   10  C6  UNL     1     -33.625  15.814  -4.321  1.00 20.00     0.013 C 
ENDBRANCH   4   5
ENDBRANCH   2   4
TORSDOF 2
ENDMDL
MODEL 4
REMARK VINA RESULT:      -4.6      2.909      5.222
REMARK  2 active torsions:
REMARK  status: ('A' for Active; 'I' for Inactive)
REMARK    1  A    between atoms: C2_2  and  C9_9 
REMARK    2  A    between atoms: C7_7  and  C9_9 
ROOT
HETATM    1  C1  UNL     1     -33.687   7.024   4.763  1.00 20.00    -0.111 C 
HETATM    2  C2  UNL     1     -33.349   7.060   3.611  1.00 20.00    -0.107 C 
HETATM    3  C8  UNL     1     -34.099   6.979   6.165  1.00 20.00     0.112 C 
ENDROOT
BRANCH   2   4
HETATM    4  C9  UNL     1     -32.938   7.107   2.203  1.00 20.00     0.099 C 
BRANCH   4   5
HETATM    5  C7  UNL     1     -31.730   8.025   2.008  1.00 20.00     0.004 C 
HETATM    6  C5  UNL     1     -31.936   9.390   2.670  1.00 20.00     0.083 C 
HETATM    7  C3  UNL     1     -32.544  10.203   1.556  1.00 20.00     0.127 C 
HETATM    8  C4  UNL     1     -32.448   9.511   0.222  1.00 20.00     0.079 C 
HETATM    9  O10 UNL     1     -33.055  11.304   1.716  1.00 20.00    -0.298 OA
HETATM   10  C6  UNL     1     -31.495   8.362   0.533  1.00 20.00     0.013 C 
ENDBRANCH   4   5
ENDBRANCH   2   4
TORSDOF 2
ENDMDL
MODEL 5
REMARK VINA RESULT:      -4.6     11.415     12.076
REMARK  2 active torsions:
REMARK  status: ('A' for Active; 'I' for Inactive)
REMARK    1  A    between atoms: C2_2  and  C9_9 
REMARK    2  A    between atoms: C7_7  and  C9_9 
ROOT
HETATM    1  C1  UNL     1     -34.969  16.986  -1.259  1.00 20.00    -0.111 C 
HETATM    2  C2  UNL     1     -34.513  16.562  -2.285  1.00 20.00    -0.107 C 
HETATM    3  C8  UNL     1     -35.527  17.501  -0.009  1.00 20.00     0.112 C 
ENDROOT
BRANCH   2   4
HETATM    4  C9  UNL     1     -33.950  16.047  -3.539  1.00 20.00     0.099 C 
BRANCH   4   5
HETATM    5  C7  UNL     1     -34.986  16.071  -4.664  1.00 20.00     0.004 C 
HETATM    6  C5  UNL     1     -36.054  14.990  -4.481  1.00 20.00     0.083 C 
HETATM    7  C3  UNL     1     -35.474  13.827  -5.244  1.00 20.00     0.127 C 
HETATM    8  C4  UNL     1     -34.295  14.227  -6.091  1.00 20.00     0.079 C 
HETATM    9  O10 UNL     1     -35.913  12.685  -5.185  1.00 20.00    -0.298 OA
HETATM   10  C6  UNL     1     -34.365  15.749  -6.026  1.00 20.00     0.013 C 
ENDBRANCH   4   5
ENDBRANCH   2   4
TORSDOF 2
ENDMDL
MODEL 6
REMARK VINA RESULT:      -4.5      3.189      5.510
REMARK  2 active torsions:
REMARK  status: ('A' for Active; 'I' for Inactive)
REMARK    1  A    between atoms: C2_2  and  C9_9 
REMARK    2  A    between atoms: C7_7  and  C9_9 
ROOT
HETATM    1  C1  UNL     1     -33.511   7.251   4.770  1.00 20.00    -0.111 C 
HETATM    2  C2  UNL     1     -33.154   7.314   3.625  1.00 20.00    -0.107 C 
HETATM    3  C8  UNL     1     -33.944   7.174   6.164  1.00 20.00     0.112 C 
ENDROOT
BRANCH   2   4
HETATM    4  C9  UNL     1     -32.721   7.393   2.225  1.00 20.00     0.099 C 
BRANCH   4   5
HETATM    5  C7  UNL     1     -32.133   8.767   1.901  1.00 20.00     0.004 C 
HETATM    6  C5  UNL     1     -33.201   9.741   1.397  1.00 20.00     0.083 C 
HETATM    7  C3  UNL     1     -33.150   9.536  -0.095  1.00 20.00     0.127 C 
HETATM    8  C4  UNL     1     -31.950   8.732  -0.523  1.00 20.00     0.079 C 
HETATM    9  O10 UNL     1     -33.988   9.974  -0.873  1.00 20.00    -0.298 OA
HETATM   10  C6  UNL     1     -31.119   8.705   0.755  1.00 20.00     0.013 C 
ENDBRANCH   4   5
ENDBRANCH   2   4
TORSDOF 2
ENDMDL
MODEL 7
REMARK VINA RESULT:      -4.5      2.957      5.421
REMARK  2 active torsions:
REMARK  status: ('A' for Active; 'I' for Inactive)
REMARK    1  A    between atoms: C2_2  and  C9_9 
REMARK    2  A    between atoms: C7_7  and  C9_9 
ROOT
HETATM    1  C1  UNL     1     -34.219   5.669   4.576  1.00 20.00    -0.111 C 
HETATM    2  C2  UNL     1     -33.790   6.177   3.576  1.00 20.00    -0.107 C 
HETATM    3  C8  UNL     1     -34.743   5.051   5.793  1.00 20.00     0.112 C 
ENDROOT
BRANCH   2   4
HETATM    4  C9  UNL     1     -33.260   6.796   2.355  1.00 20.00     0.099 C 
BRANCH   4   5
HETATM    5  C7  UNL     1     -32.791   8.228   2.617  1.00 20.00     0.004 C 
HETATM    6  C5  UNL     1     -33.537   9.242   1.745  1.00 20.00     0.083 C 
HETATM    7  C3  UNL     1     -32.654   9.335   0.527  1.00 20.00     0.127 C 
HETATM    8  C4  UNL     1     -31.316   8.676   0.737  1.00 20.00     0.079 C 
HETATM    9  O10 UNL     1     -32.985   9.886  -0.515  1.00 20.00    -0.298 OA
HETATM   10  C6  UNL     1     -31.320   8.429   2.241  1.00 20.00     0.013 C 
ENDBRANCH   4   5
ENDBRANCH   2   4
TORSDOF 2
ENDMDL
MODEL 8
REMARK VINA RESULT:      -4.4      1.304      1.825
REMARK  2 active torsions:
REMARK  status: ('A' for Active; 'I' for Inactive)
REMARK    1  A    between atoms: C2_2  and  C9_9 
REMARK    2  A    between atoms: C7_7  and  C9_9 
ROOT
HETATM    1  C1  UNL     1     -32.667   9.598   1.388  1.00 20.00    -0.111 C 
HETATM    2  C2  UNL     1     -33.059   8.492   1.642  1.00 20.00    -0.107 C 
HETATM    3  C8  UNL     1     -32.189  10.945   1.078  1.00 20.00     0.112 C 
ENDROOT
BRANCH   2   4
HETATM    4  C9  UNL     1     -33.542   7.142   1.956  1.00 20.00     0.099 C 
BRANCH   4   5
HETATM    5  C7  UNL     1     -32.778   6.538   3.135  1.00 20.00     0.004 C 
HETATM    6  C5  UNL     1     -32.992   5.026   3.240  1.00 20.00     0.083 C 
HETATM    7  C3  UNL     1     -34.183   4.929   4.158  1.00 20.00     0.127 C 
HETATM    8  C4  UNL     1     -34.506   6.243   4.820  1.00 20.00     0.079 C 
HETATM    9  O10 UNL     1     -34.817   3.898   4.347  1.00 20.00    -0.298 OA
HETATM   10  C6  UNL     1     -33.274   7.076   4.479  1.00 20.00     0.013 C 
ENDBRANCH   4   5
ENDBRANCH   2   4
TORSDOF 2
ENDMDL
MODEL 9
REMARK VINA RESULT:      -4.4     11.653     12.481
REMARK  2 active torsions:
REMARK  status: ('A' for Active; 'I' for Inactive)
REMARK    1  A    between atoms: C2_2  and  C9_9 
REMARK    2  A    between atoms: C7_7  and  C9_9 
ROOT
HETATM    1  C1  UNL     1     -33.298  17.578  -1.573  1.00 20.00    -0.111 C 
HETATM    2  C2  UNL     1     -34.018  16.900  -2.254  1.00 20.00    -0.107 C 
HETATM    3  C8  UNL     1     -32.419  18.401  -0.744  1.00 20.00     0.112 C 
ENDROOT
BRANCH   2   4
HETATM    4  C9  UNL     1     -34.904  16.075  -3.085  1.00 20.00     0.099 C 
BRANCH   4   5
HETATM    5  C7  UNL     1     -34.129  14.950  -3.774  1.00 20.00     0.004 C 
HETATM    6  C5  UNL     1     -33.147  15.489  -4.817  1.00 20.00     0.083 C 
HETATM    7  C3  UNL     1     -33.975  15.485  -6.076  1.00 20.00     0.127 C 
HETATM    8  C4  UNL     1     -35.266  14.727  -5.911  1.00 20.00     0.079 C 
HETATM    9  O10 UNL     1     -33.637  16.035  -7.117  1.00 20.00    -0.298 OA
HETATM   10  C6  UNL     1     -35.048  14.025  -4.575  1.00 20.00     0.013 C 
ENDBRANCH   4   5
ENDBRANCH   2   4
TORSDOF 2
ENDMDL
