MODEL 1
REMARK VINA RESULT:      -6.3      0.000      0.000
REMARK  4 active torsions:
REMARK  status: ('A' for Active; 'I' for Inactive)
REMARK    1  A    between atoms: C5_5  and  C6_6 
REMARK    2  A    between atoms: C6_6  and  C7_7 
REMARK    3  A    between atoms: C7_7  and  C9_9 
REMARK    4  A    between atoms: C8_8  and  C9_9 
ROOT
HETATM    1  C1  UNL     1     -33.285   9.790  -0.417  1.00 20.00     0.012 C 
HETATM    2  C2  UNL     1     -32.435   9.300   0.274  1.00 20.00    -0.117 C 
HETATM    3  C5  UNL     1     -31.391   8.697   1.116  1.00 20.00     0.093 C 
ENDROOT
BRANCH   3   4
HETATM    4  C6  UNL     1     -31.900   8.368   2.522  1.00 20.00     0.014 C 
BRANCH   4   5
HETATM    5  C7  UNL     1     -33.143   7.469   2.509  1.00 20.00     0.021 C 
BRANCH   5   6
HETATM    6  C9  UNL     1     -33.109   6.359   3.575  1.00 20.00     0.085 C 
HETATM    7 CL10 UNL     1     -33.201   4.773   2.729  1.00 20.00    -0.125 Cl
BRANCH   6   8
HETATM    8  C8  UNL     1     -34.187   6.468   4.684  1.00 20.00    -0.004 C 
HETATM    9  C3  UNL     1     -34.677   5.088   5.141  1.00 20.00     0.011 C 
HETATM   10  C4  UNL     1     -33.750   7.291   5.898  1.00 20.00     0.011 C 
ENDBRANCH   6   8
ENDBRANCH   5   6
ENDBRANCH   4   5
ENDBRANCH   3   4
TORSDOF 4
ENDMDL
MODEL 2
REMARK VINA RESULT:      -6.2      1.622      1.868
REMARK  4 active torsions:
REMARK  status: ('A' for Active; 'I' for Inactive)
REMARK    1  A    between atoms: C5_5  and  C6_6 
REMARK    2  A    between atoms: C6_6  and  C7_7 
REMARK    3  A    between atoms: C7_7  and  C9_9 
REMARK    4  A    between atoms: C8_8  and  C9_9 
ROOT
HETATM    1  C1  UNL     1     -32.930  10.283   0.875  1.00 20.00     0.012 C 
HETATM    2  C2  UNL     1     -32.261   9.433   1.396  1.00 20.00    -0.117 C 
HETATM    3  C5  UNL     1     -31.441   8.391   2.031  1.00 20.00     0.093 C 
ENDROOT
BRANCH   3   4
HETATM    4  C6  UNL     1     -32.082   7.848   3.310  1.00 20.00     0.014 C 
BRANCH   4   5
HETATM    5  C7  UNL     1     -33.272   6.920   3.030  1.00 20.00     0.021 C 
BRANCH   5   6
HETATM    6  C9  UNL     1     -34.241   6.790   4.219  1.00 20.00     0.085 C 
HETATM    7 CL10 UNL     1     -33.457   7.538   5.657  1.00 20.00    -0.125 Cl
BRANCH   6   8
HETATM    8  C8  UNL     1     -34.725   5.351   4.530  1.00 20.00    -0.004 C 
HETATM    9  C3  UNL     1     -33.982   4.304   3.690  1.00 20.00     0.011 C 
HETATM   10  C4  UNL     1     -34.649   4.975   6.012  1.00 20.00     0.011 C 
ENDBRANCH   6   8
ENDBRANCH   5   6
ENDBRANCH   4   5
ENDBRANCH   3   4
TORSDOF 4
ENDMDL
MODEL 3
REMARK VINA RESULT:      -5.9      1.608      4.949
REMARK  4 active torsions:
REMARK  status: ('A' for Active; 'I' for Inactive)
REMARK    1  A    between atoms: C5_5  and  C6_6 
REMARK    2  A    between atoms: C6_6  and  C7_7 
REMARK    3  A    between atoms: C7_7  and  C9_9 
REMARK    4  A    between atoms: C8_8  and  C9_9 
ROOT
HETATM    1  C1  UNL     1     -33.736   7.313   6.019  1.00 20.00     0.012 C 
HETATM    2  C2  UNL     1     -34.050   6.652   5.068  1.00 20.00    -0.117 C 
HETATM    3  C5  UNL     1     -34.436   5.838   3.906  1.00 20.00     0.093 C 
ENDROOT
BRANCH   3   4
HETATM    4  C6  UNL     1     -33.558   6.120   2.684  1.00 20.00     0.014 C 
BRANCH   4   5
HETATM    5  C7  UNL     1     -33.569   7.598   2.272  1.00 20.00     0.021 C 
BRANCH   5   6
HETATM    6  C9  UNL     1     -32.177   8.142   1.903  1.00 20.00     0.085 C 
HETATM    7 CL10 UNL     1     -31.292   8.484   3.432  1.00 20.00    -0.125 Cl
BRANCH   6   8
HETATM    8  C8  UNL     1     -32.172   9.375   0.963  1.00 20.00    -0.004 C 
HETATM    9  C3  UNL     1     -32.903   9.093  -0.355  1.00 20.00     0.011 C 
HETATM   10  C4  UNL     1     -32.734  10.647   1.604  1.00 20.00     0.011 C 
ENDBRANCH   6   8
ENDBRANCH   5   6
ENDBRANCH   4   5
ENDBRANCH   3   4
TORSDOF 4
ENDMDL
MODEL 4
REMARK VINA RESULT:      -5.7      1.664      2.052
REMARK  4 active torsions:
REMARK  status: ('A' for Active; 'I' for Inactive)
REMARK    1  A    between atoms: C5_5  and  C6_6 
REMARK    2  A    between atoms: C6_6  and  C7_7 
REMARK    3  A    between atoms: C7_7  and  C9_9 
REMARK    4  A    between atoms: C8_8  and  C9_9 
ROOT
HETATM    1  C1  UNL     1     -33.135   9.465  -0.675  1.00 20.00     0.012 C 
HETATM    2  C2  UNL     1     -32.742   9.469   0.459  1.00 20.00    -0.117 C 
HETATM    3  C5  UNL     1     -32.258   9.477   1.847  1.00 20.00     0.093 C 
ENDROOT
BRANCH   3   4
HETATM    4  C6  UNL     1     -31.847   8.083   2.326  1.00 20.00     0.014 C 
BRANCH   4   5
HETATM    5  C7  UNL     1     -32.073   7.880   3.830  1.00 20.00     0.021 C 
BRANCH   5   6
HETATM    6  C9  UNL     1     -33.461   7.309   4.170  1.00 20.00     0.085 C 
HETATM    7 CL10 UNL     1     -33.677   7.402   5.955  1.00 20.00    -0.125 Cl
BRANCH   6   8
HETATM    8  C8  UNL     1     -33.738   5.877   3.645  1.00 20.00    -0.004 C 
HETATM    9  C3  UNL     1     -34.618   5.074   4.611  1.00 20.00     0.011 C 
HETATM   10  C4  UNL     1     -34.340   5.835   2.239  1.00 20.00     0.011 C 
ENDBRANCH   6   8
ENDBRANCH   5   6
ENDBRANCH   4   5
ENDBRANCH   3   4
TORSDOF 4
ENDMDL
MODEL 5
REMARK VINA RESULT:      -5.4      1.719      5.211
REMARK  4 active torsions:
REMARK  status: ('A' for Active; 'I' for Inactive)
REMARK    1  A    between atoms: C5_5  and  C6_6 
REMARK    2  A    between atoms: C6_6  and  C7_7 
REMARK    3  A    between atoms: C7_7  and  C9_9 
REMARK    4  A    between atoms: C8_8  and  C9_9 
ROOT
HETATM    1  C1  UNL     1     -34.805   4.592   4.876  1.00 20.00     0.012 C 
HETATM    2  C2  UNL     1     -34.432   5.702   5.142  1.00 20.00    -0.117 C 
HETATM    3  C5  UNL     1     -33.978   7.061   5.469  1.00 20.00     0.093 C 
ENDROOT
BRANCH   3   4
HETATM    4  C6  UNL     1     -32.963   7.593   4.454  1.00 20.00     0.014 C 
BRANCH   4   5
HETATM    5  C7  UNL     1     -33.470   7.513   3.008  1.00 20.00     0.021 C 
BRANCH   5   6
HETATM    6  C9  UNL     1     -32.506   8.141   1.985  1.00 20.00     0.085 C 
HETATM    7 CL10 UNL     1     -31.024   8.658   2.865  1.00 20.00    -0.125 Cl
BRANCH   6   8
HETATM    8  C8  UNL     1     -33.094   9.303   1.143  1.00 20.00    -0.004 C 
HETATM    9  C3  UNL     1     -32.511  10.660   1.556  1.00 20.00     0.011 C 
HETATM   10  C4  UNL     1     -32.944   9.113  -0.368  1.00 20.00     0.011 C 
ENDBRANCH   6   8
ENDBRANCH   5   6
ENDBRANCH   4   5
ENDBRANCH   3   4
TORSDOF 4
ENDMDL
MODEL 6
REMARK VINA RESULT:      -5.4      1.199      4.656
REMARK  4 active torsions:
REMARK  status: ('A' for Active; 'I' for Inactive)
REMARK    1  A    between atoms: C5_5  and  C6_6 
REMARK    2  A    between atoms: C6_6  and  C7_7 
REMARK    3  A    between atoms: C7_7  and  C9_9 
REMARK    4  A    between atoms: C8_8  and  C9_9 
ROOT
HETATM    1  C1  UNL     1     -33.686   7.623   6.214  1.00 20.00     0.012 C 
HETATM    2  C2  UNL     1     -34.101   6.518   5.994  1.00 20.00    -0.117 C 
HETATM    3  C5  UNL     1     -34.607   5.164   5.728  1.00 20.00     0.093 C 
ENDROOT
BRANCH   3   4
HETATM    4  C6  UNL     1     -34.762   4.887   4.231  1.00 20.00     0.014 C 
BRANCH   4   5
HETATM    5  C7  UNL     1     -34.914   6.170   3.402  1.00 20.00     0.021 C 
BRANCH   5   6
HETATM    6  C9  UNL     1     -33.739   6.419   2.438  1.00 20.00     0.085 C 
HETATM    7 CL10 UNL     1     -32.588   5.045   2.600  1.00 20.00    -0.125 Cl
BRANCH   6   8
HETATM    8  C8  UNL     1     -33.017   7.780   2.608  1.00 20.00    -0.004 C 
HETATM    9  C3  UNL     1     -31.689   7.632   3.361  1.00 20.00     0.011 C 
HETATM   10  C4  UNL     1     -32.786   8.530   1.293  1.00 20.00     0.011 C 
ENDBRANCH   6   8
ENDBRANCH   5   6
ENDBRANCH   4   5
ENDBRANCH   3   4
TORSDOF 4
ENDMDL
MODEL 7
REMARK VINA RESULT:      -5.1      1.211      4.607
REMARK  4 active torsions:
REMARK  status: ('A' for Active; 'I' for Inactive)
REMARK    1  A    between atoms: C5_5  and  C6_6 
REMARK    2  A    between atoms: C6_6  and  C7_7 
REMARK    3  A    between atoms: C7_7  and  C9_9 
REMARK    4  A    between atoms: C8_8  and  C9_9 
ROOT
HETATM    1  C1  UNL     1     -33.625   7.776   6.422  1.00 20.00     0.012 C 
HETATM    2  C2  UNL     1     -34.091   6.735   6.046  1.00 20.00    -0.117 C 
HETATM    3  C5  UNL     1     -34.659   5.459   5.590  1.00 20.00     0.093 C 
ENDROOT
BRANCH   3   4
HETATM    4  C6  UNL     1     -34.878   5.430   4.075  1.00 20.00     0.014 C 
BRANCH   4   5
HETATM    5  C7  UNL     1     -34.434   6.728   3.386  1.00 20.00     0.021 C 
BRANCH   5   6
HETATM    6  C9  UNL     1     -33.388   6.507   2.279  1.00 20.00     0.085 C 
HETATM    7 CL10 UNL     1     -32.733   4.840   2.460  1.00 20.00    -0.125 Cl
BRANCH   6   8
HETATM    8  C8  UNL     1     -32.247   7.555   2.222  1.00 20.00    -0.004 C 
HETATM    9  C3  UNL     1     -32.663   8.812   1.448  1.00 20.00     0.011 C 
HETATM   10  C4  UNL     1     -31.697   7.951   3.595  1.00 20.00     0.011 C 
ENDBRANCH   6   8
ENDBRANCH   5   6
ENDBRANCH   4   5
ENDBRANCH   3   4
TORSDOF 4
ENDMDL
MODEL 8
REMARK VINA RESULT:      -4.9      1.229      4.877
REMARK  4 active torsions:
REMARK  status: ('A' for Active; 'I' for Inactive)
REMARK    1  A    between atoms: C5_5  and  C6_6 
REMARK    2  A    between atoms: C6_6  and  C7_7 
REMARK    3  A    between atoms: C7_7  and  C9_9 
REMARK    4  A    between atoms: C8_8  and  C9_9 
ROOT
HETATM    1  C1  UNL     1     -34.756   4.588   4.447  1.00 20.00     0.012 C 
HETATM    2  C2  UNL     1     -34.416   5.507   5.140  1.00 20.00    -0.117 C 
HETATM    3  C5  UNL     1     -34.001   6.631   5.992  1.00 20.00     0.093 C 
ENDROOT
BRANCH   3   4
HETATM    4  C6  UNL     1     -33.670   7.884   5.177  1.00 20.00     0.014 C 
BRANCH   4   5
HETATM    5  C7  UNL     1     -32.583   7.638   4.123  1.00 20.00     0.021 C 
BRANCH   5   6
HETATM    6  C9  UNL     1     -33.035   7.965   2.689  1.00 20.00     0.085 C 
HETATM    7 CL10 UNL     1     -33.153   6.417   1.778  1.00 20.00    -0.125 Cl
BRANCH   6   8
HETATM    8  C8  UNL     1     -32.157   8.996   1.933  1.00 20.00    -0.004 C 
HETATM    9  C3  UNL     1     -31.415   8.358   0.752  1.00 20.00     0.011 C 
HETATM   10  C4  UNL     1     -32.921  10.234   1.457  1.00 20.00     0.011 C 
ENDBRANCH   6   8
ENDBRANCH   5   6
ENDBRANCH   4   5
ENDBRANCH   3   4
TORSDOF 4
ENDMDL
MODEL 9
REMARK VINA RESULT:      -4.7      2.400      4.554
REMARK  4 active torsions:
REMARK  status: ('A' for Active; 'I' for Inactive)
REMARK    1  A    between atoms: C5_5  and  C6_6 
REMARK    2  A    between atoms: C6_6  and  C7_7 
REMARK    3  A    between atoms: C7_7  and  C9_9 
REMARK    4  A    between atoms: C8_8  and  C9_9 
ROOT
HETATM    1  C1  UNL     1     -34.655   4.661   5.602  1.00 20.00     0.012 C 
HETATM    2  C2  UNL     1     -34.402   5.808   5.847  1.00 20.00    -0.117 C 
HETATM    3  C5  UNL     1     -34.095   7.214   6.149  1.00 20.00     0.093 C 
ENDROOT
BRANCH   3   4
HETATM    4  C6  UNL     1     -32.916   7.739   5.326  1.00 20.00     0.014 C 
BRANCH   4   5
HETATM    5  C7  UNL     1     -33.296   8.047   3.871  1.00 20.00     0.021 C 
BRANCH   5   6
HETATM    6  C9  UNL     1     -32.519   7.203   2.844  1.00 20.00     0.085 C 
HETATM    7 CL10 UNL     1     -31.808   8.326   1.630  1.00 20.00    -0.125 Cl
BRANCH   6   8
HETATM    8  C8  UNL     1     -33.333   6.076   2.157  1.00 20.00    -0.004 C 
HETATM    9  C3  UNL     1     -32.866   4.684   2.599  1.00 20.00     0.011 C 
HETATM   10  C4  UNL     1     -34.847   6.199   2.345  1.00 20.00     0.011 C 
ENDBRANCH   6   8
ENDBRANCH   5   6
ENDBRANCH   4   5
ENDBRANCH   3   4
TORSDOF 4
ENDMDL
