MODEL 1
REMARK VINA RESULT:      -5.8      0.000      0.000
REMARK  1 active torsions:
REMARK  status: ('A' for Active; 'I' for Inactive)
REMARK    1  A    between atoms: C6_6  and  C8_8 
ROOT
HETATM    1  C1  UNL     1     -34.368   4.694   4.236  1.00 20.00     0.064 C 
HETATM    2  C2  UNL     1     -34.071   7.022   5.055  1.00 20.00     0.019 C 
HETATM    3  C3  UNL     1     -32.778   7.652   4.552  1.00 20.00     0.006 C 
HETATM    4  C4  UNL     1     -33.730   6.518   2.679  1.00 20.00     0.024 C 
HETATM    5  C5  UNL     1     -34.554   6.116   3.913  1.00 20.00     0.093 C 
HETATM    6  C6  UNL     1     -33.045   7.831   3.062  1.00 20.00    -0.014 C 
HETATM    7  N9  UNL     1     -34.221   3.572   4.491  1.00 20.00    -0.197 NA
ENDROOT
BRANCH   6   8
HETATM    8  C8  UNL     1     -31.787   8.107   2.257  1.00 20.00     0.000 C 
HETATM    9  C7  UNL     1     -32.036   9.077   1.145  1.00 20.00     0.005 C 
ENDBRANCH   6   8
TORSDOF 1
ENDMDL
MODEL 2
REMARK VINA RESULT:      -5.7      2.689      4.351
REMARK  1 active torsions:
REMARK  status: ('A' for Active; 'I' for Inactive)
REMARK    1  A    between atoms: C6_6  and  C8_8 
ROOT
HETATM    1  C1  UNL     1     -32.458   9.262   1.595  1.00 20.00     0.064 C 
HETATM    2  C2  UNL     1     -31.693   8.191   3.704  1.00 20.00     0.019 C 
HETATM    3  C3  UNL     1     -32.852   7.635   4.524  1.00 20.00     0.006 C 
HETATM    4  C4  UNL     1     -33.295   7.022   2.260  1.00 20.00     0.024 C 
HETATM    5  C5  UNL     1     -32.100   7.988   2.237  1.00 20.00     0.093 C 
HETATM    6  C6  UNL     1     -33.331   6.459   3.682  1.00 20.00    -0.014 C 
HETATM    7  N9  UNL     1     -32.741  10.267   1.089  1.00 20.00    -0.197 NA
ENDROOT
BRANCH   6   8
HETATM    8  C8  UNL     1     -34.702   5.950   4.090  1.00 20.00     0.000 C 
HETATM    9  C7  UNL     1     -34.687   5.331   5.453  1.00 20.00     0.005 C 
ENDBRANCH   6   8
TORSDOF 1
ENDMDL
MODEL 3
REMARK VINA RESULT:      -4.9      2.316      4.286
REMARK  1 active torsions:
REMARK  status: ('A' for Active; 'I' for Inactive)
REMARK    1  A    between atoms: C6_6  and  C8_8 
ROOT
HETATM    1  C1  UNL     1     -31.992   8.009   3.320  1.00 20.00     0.064 C 
HETATM    2  C2  UNL     1     -32.947   6.163   1.957  1.00 20.00     0.019 C 
HETATM    3  C3  UNL     1     -33.248   4.924   2.791  1.00 20.00     0.006 C 
HETATM    4  C4  UNL     1     -34.013   6.783   4.077  1.00 20.00     0.024 C 
HETATM    5  C5  UNL     1     -33.234   7.355   2.882  1.00 20.00     0.093 C 
HETATM    6  C6  UNL     1     -34.422   5.371   3.654  1.00 20.00    -0.014 C 
HETATM    7  N9  UNL     1     -31.012   8.525   3.666  1.00 20.00    -0.197 NA
ENDROOT
BRANCH   6   8
HETATM    8  C8  UNL     1     -34.687   4.447   4.830  1.00 20.00     0.000 C 
HETATM    9  C7  UNL     1     -34.616   5.171   6.138  1.00 20.00     0.005 C 
ENDBRANCH   6   8
TORSDOF 1
ENDMDL
MODEL 4
REMARK VINA RESULT:      -4.5      1.881      2.669
REMARK  1 active torsions:
REMARK  status: ('A' for Active; 'I' for Inactive)
REMARK    1  A    between atoms: C6_6  and  C8_8 
ROOT
HETATM    1  C1  UNL     1     -33.232   7.311   5.091  1.00 20.00     0.064 C 
HETATM    2  C2  UNL     1     -33.150   6.422   2.771  1.00 20.00     0.019 C 
HETATM    3  C3  UNL     1     -33.387   7.507   1.727  1.00 20.00     0.006 C 
HETATM    4  C4  UNL     1     -31.901   8.456   3.337  1.00 20.00     0.024 C 
HETATM    5  C5  UNL     1     -32.382   7.112   3.908  1.00 20.00     0.093 C 
HETATM    6  C6  UNL     1     -32.125   8.356   1.827  1.00 20.00    -0.014 C 
HETATM    7  N9  UNL     1     -33.903   7.468   6.024  1.00 20.00    -0.197 NA
ENDROOT
BRANCH   6   8
HETATM    8  C8  UNL     1     -32.258   9.709   1.150  1.00 20.00     0.000 C 
HETATM    9  C7  UNL     1     -32.987   9.613  -0.154  1.00 20.00     0.005 C 
ENDBRANCH   6   8
TORSDOF 1
ENDMDL
MODEL 5
REMARK VINA RESULT:      -4.2     11.243     12.049
REMARK  1 active torsions:
REMARK  status: ('A' for Active; 'I' for Inactive)
REMARK    1  A    between atoms: C6_6  and  C8_8 
ROOT
HETATM    1  C1  UNL     1     -35.192  13.780  -5.261  1.00 20.00     0.064 C 
HETATM    2  C2  UNL     1     -34.956  16.231  -5.603  1.00 20.00     0.019 C 
HETATM    3  C3  UNL     1     -35.064  17.010  -4.297  1.00 20.00     0.006 C 
HETATM    4  C4  UNL     1     -33.678  15.124  -3.825  1.00 20.00     0.024 C 
HETATM    5  C5  UNL     1     -34.256  14.914  -5.234  1.00 20.00     0.093 C 
HETATM    6  C6  UNL     1     -33.782  16.629  -3.567  1.00 20.00    -0.014 C 
HETATM    7  N9  UNL     1     -35.930  12.885  -5.282  1.00 20.00    -0.197 NA
ENDROOT
BRANCH   6   8
HETATM    8  C8  UNL     1     -33.807  16.982  -2.090  1.00 20.00     0.000 C 
HETATM    9  C7  UNL     1     -35.170  16.809  -1.496  1.00 20.00     0.005 C 
ENDBRANCH   6   8
TORSDOF 1
ENDMDL
MODEL 6
REMARK VINA RESULT:      -4.2     11.123     11.803
REMARK  1 active torsions:
REMARK  status: ('A' for Active; 'I' for Inactive)
REMARK    1  A    between atoms: C6_6  and  C8_8 
ROOT
HETATM    1  C1  UNL     1     -34.569  14.757  -3.943  1.00 20.00     0.064 C 
HETATM    2  C2  UNL     1     -35.782  16.435  -2.566  1.00 20.00     0.019 C 
HETATM    3  C3  UNL     1     -34.938  16.948  -1.404  1.00 20.00     0.006 C 
HETATM    4  C4  UNL     1     -33.486  16.895  -3.298  1.00 20.00     0.024 C 
HETATM    5  C5  UNL     1     -34.789  16.193  -3.713  1.00 20.00     0.093 C 
HETATM    6  C6  UNL     1     -33.863  17.772  -2.103  1.00 20.00    -0.014 C 
HETATM    7  N9  UNL     1     -34.396  13.625  -4.124  1.00 20.00    -0.197 NA
ENDROOT
BRANCH   6   8
HETATM    8  C8  UNL     1     -32.683  18.100  -1.205  1.00 20.00     0.000 C 
HETATM    9  C7  UNL     1     -33.122  18.564   0.149  1.00 20.00     0.005 C 
ENDBRANCH   6   8
TORSDOF 1
ENDMDL
MODEL 7
REMARK VINA RESULT:      -4.1     11.201     12.135
REMARK  1 active torsions:
REMARK  status: ('A' for Active; 'I' for Inactive)
REMARK    1  A    between atoms: C6_6  and  C8_8 
ROOT
HETATM    1  C1  UNL     1     -36.723  14.100  -5.112  1.00 20.00     0.064 C 
HETATM    2  C2  UNL     1     -34.931  15.520  -6.089  1.00 20.00     0.019 C 
HETATM    3  C3  UNL     1     -34.521  16.655  -5.158  1.00 20.00     0.006 C 
HETATM    4  C4  UNL     1     -34.720  14.715  -3.781  1.00 20.00     0.024 C 
HETATM    5  C5  UNL     1     -35.273  14.341  -5.166  1.00 20.00     0.093 C 
HETATM    6  C6  UNL     1     -33.815  15.924  -4.022  1.00 20.00    -0.014 C 
HETATM    7  N9  UNL     1     -37.867  13.910  -5.069  1.00 20.00    -0.197 NA
ENDROOT
BRANCH   6   8
HETATM    8  C8  UNL     1     -33.623  16.784  -2.784  1.00 20.00     0.000 C 
HETATM    9  C7  UNL     1     -34.824  16.755  -1.891  1.00 20.00     0.005 C 
ENDBRANCH   6   8
TORSDOF 1
ENDMDL
MODEL 8
REMARK VINA RESULT:      -4.1     11.886     12.429
REMARK  1 active torsions:
REMARK  status: ('A' for Active; 'I' for Inactive)
REMARK    1  A    between atoms: C6_6  and  C8_8 
ROOT
HETATM    1  C1  UNL     1     -33.201  18.178  -2.532  1.00 20.00     0.064 C 
HETATM    2  C2  UNL     1     -35.163  16.775  -1.931  1.00 20.00     0.019 C 
HETATM    3  C3  UNL     1     -35.883  16.232  -3.160  1.00 20.00     0.006 C 
HETATM    4  C4  UNL     1     -33.551  15.962  -3.592  1.00 20.00     0.024 C 
HETATM    5  C5  UNL     1     -33.675  16.804  -2.312  1.00 20.00     0.093 C 
HETATM    6  C6  UNL     1     -34.885  15.226  -3.721  1.00 20.00    -0.014 C 
HETATM    7  N9  UNL     1     -32.827  19.263  -2.705  1.00 20.00    -0.197 NA
ENDROOT
BRANCH   6   8
HETATM    8  C8  UNL     1     -35.200  14.802  -5.145  1.00 20.00     0.000 C 
HETATM    9  C7  UNL     1     -36.017  13.549  -5.188  1.00 20.00     0.005 C 
ENDBRANCH   6   8
TORSDOF 1
ENDMDL
MODEL 9
REMARK VINA RESULT:      -4.0     11.297     12.095
REMARK  1 active torsions:
REMARK  status: ('A' for Active; 'I' for Inactive)
REMARK    1  A    between atoms: C6_6  and  C8_8 
ROOT
HETATM    1  C1  UNL     1     -37.353  13.908  -5.157  1.00 20.00     0.064 C 
HETATM    2  C2  UNL     1     -35.476  13.703  -6.775  1.00 20.00     0.019 C 
HETATM    3  C3  UNL     1     -34.445  14.813  -6.607  1.00 20.00     0.006 C 
HETATM    4  C4  UNL     1     -34.996  14.090  -4.400  1.00 20.00     0.024 C 
HETATM    5  C5  UNL     1     -35.986  13.405  -5.356  1.00 20.00     0.093 C 
HETATM    6  C6  UNL     1     -33.798  14.478  -5.268  1.00 20.00    -0.014 C 
HETATM    7  N9  UNL     1     -38.431  14.305  -5.000  1.00 20.00    -0.197 NA
ENDROOT
BRANCH   6   8
HETATM    8  C8  UNL     1     -32.986  15.624  -4.691  1.00 20.00     0.000 C 
HETATM    9  C7  UNL     1     -33.667  16.257  -3.518  1.00 20.00     0.005 C 
ENDBRANCH   6   8
TORSDOF 1
ENDMDL
