MODEL 1
REMARK VINA RESULT:      -5.0      0.000      0.000
REMARK  1 active torsions:
REMARK  status: ('A' for Active; 'I' for Inactive)
REMARK    1  A    between atoms: C8_8  and  C9_9 
ROOT
HETATM    1  C1  UNL     1     -31.001   8.596   2.779  1.00 20.00     0.002 C 
HETATM    2  C2  UNL     1     -32.135   7.985   3.606  1.00 20.00     0.005 C 
HETATM    3  C3  UNL     1     -31.303   8.674   1.279  1.00 20.00     0.020 C 
HETATM    4  C5  UNL     1     -33.650   7.752   1.577  1.00 20.00     0.025 C 
HETATM    5  C8  UNL     1     -33.005   7.036   2.780  1.00 20.00    -0.007 C 
HETATM    6  C10 UNL     1     -32.785   8.866   0.970  1.00 20.00     0.082 C 
HETATM    7 CL12 UNL     1     -33.330  10.473   1.556  1.00 20.00    -0.125 Cl
ENDROOT
BRANCH   5   8
HETATM    8  C9  UNL     1     -34.063   6.374   3.642  1.00 20.00     0.015 C 
HETATM    9  C4  UNL     1     -33.952   6.695   5.117  1.00 20.00     0.033 C 
HETATM   10  C6  UNL     1     -34.755   5.570   5.736  1.00 20.00     0.168 C 
HETATM   11  O11 UNL     1     -34.601   4.428   4.879  1.00 20.00    -0.391 OA
HETATM   12  C7  UNL     1     -33.980   4.858   3.658  1.00 20.00     0.172 C 
ENDBRANCH   5   8
TORSDOF 1
ENDMDL
MODEL 2
REMARK VINA RESULT:      -5.0     10.545     11.432
REMARK  1 active torsions:
REMARK  status: ('A' for Active; 'I' for Inactive)
REMARK    1  A    between atoms: C8_8  and  C9_9 
ROOT
HETATM    1  C1  UNL     1     -35.716  17.568  -1.188  1.00 20.00     0.002 C 
HETATM    2  C2  UNL     1     -35.993  16.914  -2.545  1.00 20.00     0.005 C 
HETATM    3  C3  UNL     1     -34.234  17.583  -0.801  1.00 20.00     0.020 C 
HETATM    4  C5  UNL     1     -33.521  16.529  -2.998  1.00 20.00     0.025 C 
HETATM    5  C8  UNL     1     -34.921  15.890  -2.920  1.00 20.00    -0.007 C 
HETATM    6  C10 UNL     1     -33.296  17.675  -2.001  1.00 20.00     0.082 C 
HETATM    7 CL12 UNL     1     -33.496  19.263  -2.815  1.00 20.00    -0.125 Cl
ENDROOT
BRANCH   5   8
HETATM    8  C9  UNL     1     -35.266  15.191  -4.222  1.00 20.00     0.015 C 
HETATM    9  C4  UNL     1     -36.747  14.971  -4.435  1.00 20.00     0.033 C 
HETATM   10  C6  UNL     1     -36.746  13.877  -5.484  1.00 20.00     0.168 C 
HETATM   11  O11 UNL     1     -35.573  13.083  -5.254  1.00 20.00    -0.391 OA
HETATM   12  C7  UNL     1     -34.735  13.771  -4.313  1.00 20.00     0.172 C 
ENDBRANCH   5   8
TORSDOF 1
ENDMDL
MODEL 3
REMARK VINA RESULT:      -4.9     10.821     11.848
REMARK  1 active torsions:
REMARK  status: ('A' for Active; 'I' for Inactive)
REMARK    1  A    between atoms: C8_8  and  C9_9 
ROOT
HETATM    1  C1  UNL     1     -34.385  16.923  -2.130  1.00 20.00     0.002 C 
HETATM    2  C2  UNL     1     -34.713  15.771  -3.084  1.00 20.00     0.005 C 
HETATM    3  C3  UNL     1     -33.427  17.961  -2.721  1.00 20.00     0.020 C 
HETATM    4  C5  UNL     1     -33.345  16.787  -4.971  1.00 20.00     0.025 C 
HETATM    5  C8  UNL     1     -33.601  15.536  -4.107  1.00 20.00    -0.007 C 
HETATM    6  C10 UNL     1     -33.561  18.116  -4.234  1.00 20.00     0.082 C 
HETATM    7 CL12 UNL     1     -35.170  18.804  -4.639  1.00 20.00    -0.125 Cl
ENDROOT
BRANCH   5   8
HETATM    8  C9  UNL     1     -33.907  14.334  -4.980  1.00 20.00     0.015 C 
HETATM    9  C4  UNL     1     -34.141  14.668  -6.437  1.00 20.00     0.033 C 
HETATM   10  C6  UNL     1     -34.878  13.436  -6.920  1.00 20.00     0.168 C 
HETATM   11  O11 UNL     1     -35.636  12.942  -5.805  1.00 20.00    -0.391 OA
HETATM   12  C7  UNL     1     -35.206  13.633  -4.621  1.00 20.00     0.172 C 
ENDBRANCH   5   8
TORSDOF 1
ENDMDL
MODEL 4
REMARK VINA RESULT:      -4.9      3.031      4.872
REMARK  1 active torsions:
REMARK  status: ('A' for Active; 'I' for Inactive)
REMARK    1  A    between atoms: C8_8  and  C9_9 
ROOT
HETATM    1  C1  UNL     1     -33.532   6.983   5.866  1.00 20.00     0.002 C 
HETATM    2  C2  UNL     1     -32.835   7.324   4.546  1.00 20.00     0.005 C 
HETATM    3  C3  UNL     1     -34.855   6.233   5.690  1.00 20.00     0.020 C 
HETATM    4  C5  UNL     1     -34.603   6.127   3.166  1.00 20.00     0.025 C 
HETATM    5  C8  UNL     1     -33.824   7.439   3.385  1.00 20.00    -0.007 C 
HETATM    6  C10 UNL     1     -34.884   5.339   4.453  1.00 20.00     0.082 C 
HETATM    7 CL12 UNL     1     -33.704   3.999   4.638  1.00 20.00    -0.125 Cl
ENDROOT
BRANCH   5   8
HETATM    8  C9  UNL     1     -33.123   7.866   2.110  1.00 20.00     0.015 C 
HETATM    9  C4  UNL     1     -31.615   7.923   2.219  1.00 20.00     0.033 C 
HETATM   10  C6  UNL     1     -31.256   8.811   1.046  1.00 20.00     0.168 C 
HETATM   11  O11 UNL     1     -32.346   9.727   0.869  1.00 20.00    -0.391 OA
HETATM   12  C7  UNL     1     -33.446   9.287   1.681  1.00 20.00     0.172 C 
ENDBRANCH   5   8
TORSDOF 1
ENDMDL
MODEL 5
REMARK VINA RESULT:      -4.7     10.970     11.553
REMARK  1 active torsions:
REMARK  status: ('A' for Active; 'I' for Inactive)
REMARK    1  A    between atoms: C8_8  and  C9_9 
ROOT
HETATM    1  C1  UNL     1     -33.764  14.550  -4.384  1.00 20.00     0.002 C 
HETATM    2  C2  UNL     1     -33.636  15.868  -3.615  1.00 20.00     0.005 C 
HETATM    3  C3  UNL     1     -35.210  14.082  -4.571  1.00 20.00     0.020 C 
HETATM    4  C5  UNL     1     -36.156  16.152  -3.447  1.00 20.00     0.025 C 
HETATM    5  C8  UNL     1     -34.821  16.107  -2.679  1.00 20.00    -0.007 C 
HETATM    6  C10 UNL     1     -36.209  15.232  -4.675  1.00 20.00     0.082 C 
HETATM    7 CL12 UNL     1     -35.910  16.170  -6.176  1.00 20.00    -0.125 Cl
ENDROOT
BRANCH   5   8
HETATM    8  C9  UNL     1     -34.627  17.371  -1.863  1.00 20.00     0.015 C 
HETATM    9  C4  UNL     1     -33.188  17.657  -1.494  1.00 20.00     0.033 C 
HETATM   10  C6  UNL     1     -33.355  18.619  -0.335  1.00 20.00     0.168 C 
HETATM   11  O11 UNL     1     -34.575  18.259   0.331  1.00 20.00    -0.391 OA
HETATM   12  C7  UNL     1     -35.285  17.323  -0.495  1.00 20.00     0.172 C 
ENDBRANCH   5   8
TORSDOF 1
ENDMDL
MODEL 6
REMARK VINA RESULT:      -4.6      2.840      4.729
REMARK  1 active torsions:
REMARK  status: ('A' for Active; 'I' for Inactive)
REMARK    1  A    between atoms: C8_8  and  C9_9 
ROOT
HETATM    1  C1  UNL     1     -33.215   4.731   2.703  1.00 20.00     0.002 C 
HETATM    2  C2  UNL     1     -32.921   6.100   2.083  1.00 20.00     0.005 C 
HETATM    3  C3  UNL     1     -33.665   4.800   4.165  1.00 20.00     0.020 C 
HETATM    4  C5  UNL     1     -33.623   7.338   4.189  1.00 20.00     0.025 C 
HETATM    5  C8  UNL     1     -32.518   7.135   3.134  1.00 20.00    -0.007 C 
HETATM    6  C10 UNL     1     -34.435   6.074   4.502  1.00 20.00     0.082 C 
HETATM    7 CL12 UNL     1     -35.998   6.097   3.618  1.00 20.00    -0.125 Cl
ENDROOT
BRANCH   5   8
HETATM    8  C9  UNL     1     -32.144   8.455   2.486  1.00 20.00     0.015 C 
HETATM    9  C4  UNL     1     -33.327   9.322   2.117  1.00 20.00     0.033 C 
HETATM   10  C6  UNL     1     -32.713  10.261   1.099  1.00 20.00     0.168 C 
HETATM   11  O11 UNL     1     -31.679   9.526   0.427  1.00 20.00    -0.391 OA
HETATM   12  C7  UNL     1     -31.453   8.302   1.142  1.00 20.00     0.172 C 
ENDBRANCH   5   8
TORSDOF 1
ENDMDL
MODEL 7
REMARK VINA RESULT:      -4.6     11.068     12.208
REMARK  1 active torsions:
REMARK  status: ('A' for Active; 'I' for Inactive)
REMARK    1  A    between atoms: C8_8  and  C9_9 
ROOT
HETATM    1  C1  UNL     1     -35.909  13.485  -5.089  1.00 20.00     0.002 C 
HETATM    2  C2  UNL     1     -34.799  14.171  -4.288  1.00 20.00     0.005 C 
HETATM    3  C3  UNL     1     -36.438  14.325  -6.256  1.00 20.00     0.020 C 
HETATM    4  C5  UNL     1     -34.770  16.192  -5.830  1.00 20.00     0.025 C 
HETATM    5  C8  UNL     1     -34.883  15.696  -4.376  1.00 20.00    -0.007 C 
HETATM    6  C10 UNL     1     -35.382  15.242  -6.869  1.00 20.00     0.082 C 
HETATM    7 CL12 UNL     1     -34.100  14.259  -7.653  1.00 20.00    -0.125 Cl
ENDROOT
BRANCH   5   8
HETATM    8  C9  UNL     1     -33.831  16.351  -3.501  1.00 20.00     0.015 C 
HETATM    9  C4  UNL     1     -34.304  16.684  -2.104  1.00 20.00     0.033 C 
HETATM   10  C6  UNL     1     -33.284  17.717  -1.672  1.00 20.00     0.168 C 
HETATM   11  O11 UNL     1     -32.879  18.421  -2.856  1.00 20.00    -0.391 OA
HETATM   12  C7  UNL     1     -33.385  17.715  -4.000  1.00 20.00     0.172 C 
ENDBRANCH   5   8
TORSDOF 1
ENDMDL
MODEL 8
REMARK VINA RESULT:      -4.5     11.149     12.101
REMARK  1 active torsions:
REMARK  status: ('A' for Active; 'I' for Inactive)
REMARK    1  A    between atoms: C8_8  and  C9_9 
ROOT
HETATM    1  C1  UNL     1     -34.356  14.626  -7.400  1.00 20.00     0.002 C 
HETATM    2  C2  UNL     1     -34.119  15.613  -6.254  1.00 20.00     0.005 C 
HETATM    3  C3  UNL     1     -34.964  13.294  -6.953  1.00 20.00     0.020 C 
HETATM    4  C5  UNL     1     -35.148  14.048  -4.535  1.00 20.00     0.025 C 
HETATM    5  C8  UNL     1     -33.923  14.903  -4.914  1.00 20.00    -0.007 C 
HETATM    6  C10 UNL     1     -35.875  13.424  -5.735  1.00 20.00     0.082 C 
HETATM    7 CL12 UNL     1     -37.330  14.388  -6.158  1.00 20.00    -0.125 Cl
ENDROOT
BRANCH   5   8
HETATM    8  C9  UNL     1     -33.599  15.895  -3.812  1.00 20.00     0.015 C 
HETATM    9  C4  UNL     1     -34.721  16.108  -2.820  1.00 20.00     0.033 C 
HETATM   10  C6  UNL     1     -34.327  17.430  -2.193  1.00 20.00     0.168 C 
HETATM   11  O11 UNL     1     -33.643  18.183  -3.207  1.00 20.00    -0.391 OA
HETATM   12  C7  UNL     1     -33.367  17.310  -4.313  1.00 20.00     0.172 C 
ENDBRANCH   5   8
TORSDOF 1
ENDMDL
MODEL 9
REMARK VINA RESULT:      -4.4     10.982     11.899
REMARK  1 active torsions:
REMARK  status: ('A' for Active; 'I' for Inactive)
REMARK    1  A    between atoms: C8_8  and  C9_9 
ROOT
HETATM    1  C1  UNL     1     -34.721  16.729  -6.181  1.00 20.00     0.002 C 
HETATM    2  C2  UNL     1     -34.817  16.968  -4.672  1.00 20.00     0.005 C 
HETATM    3  C3  UNL     1     -33.935  15.470  -6.559  1.00 20.00     0.020 C 
HETATM    4  C5  UNL     1     -33.582  14.812  -4.132  1.00 20.00     0.025 C 
HETATM    5  C8  UNL     1     -33.648  16.336  -3.914  1.00 20.00    -0.007 C 
HETATM    6  C10 UNL     1     -34.045  14.355  -5.522  1.00 20.00     0.082 C 
HETATM    7 CL12 UNL     1     -35.733  13.747  -5.453  1.00 20.00    -0.125 Cl
ENDROOT
BRANCH   5   8
HETATM    8  C9  UNL     1     -33.717  16.664  -2.434  1.00 20.00     0.015 C 
HETATM    9  C4  UNL     1     -35.122  16.731  -1.877  1.00 20.00     0.033 C 
HETATM   10  C6  UNL     1     -34.910  17.525  -0.605  1.00 20.00     0.168 C 
HETATM   11  O11 UNL     1     -33.818  18.424  -0.854  1.00 20.00    -0.391 OA
HETATM   12  C7  UNL     1     -33.191  18.047  -2.089  1.00 20.00     0.172 C 
ENDBRANCH   5   8
TORSDOF 1
ENDMDL
