MODEL 1
REMARK VINA RESULT:      -5.6      0.000      0.000
REMARK  1 active torsions:
REMARK  status: ('A' for Active; 'I' for Inactive)
REMARK    1  A    between atoms: C6_6  and  C7_7 
ROOT
HETATM    1  C3  UNL     1     -33.198   8.003   4.167  1.00 20.00     0.006 C 
HETATM    2  C4  UNL     1     -33.723   6.860   5.023  1.00 20.00     0.020 C 
HETATM    3  C5  UNL     1     -33.286   5.940   2.844  1.00 20.00     0.025 C 
HETATM    4  C7  UNL     1     -32.579   7.303   2.950  1.00 20.00    -0.009 C 
HETATM    5  C8  UNL     1     -34.310   5.925   3.978  1.00 20.00     0.082 C 
HETATM    6 CL9  UNL     1     -34.598   4.300   4.614  1.00 20.00    -0.125 Cl
ENDROOT
BRANCH   4   7
HETATM    7  C6  UNL     1     -32.696   8.134   1.681  1.00 20.00    -0.010 A 
HETATM    8  C1  UNL     1     -32.369   9.602   1.702  1.00 20.00     0.005 A 
HETATM    9  C2  UNL     1     -31.459   8.640   0.990  1.00 20.00     0.005 A 
ENDBRANCH   4   7
TORSDOF 1
ENDMDL
MODEL 2
REMARK VINA RESULT:      -5.3      2.409      4.185
REMARK  1 active torsions:
REMARK  status: ('A' for Active; 'I' for Inactive)
REMARK    1  A    between atoms: C6_6  and  C7_7 
ROOT
HETATM    1  C3  UNL     1     -33.404   7.248   5.137  1.00 20.00     0.006 C 
HETATM    2  C4  UNL     1     -32.434   8.100   4.331  1.00 20.00     0.020 C 
HETATM    3  C5  UNL     1     -33.752   6.869   2.739  1.00 20.00     0.025 C 
HETATM    4  C7  UNL     1     -34.452   6.803   4.109  1.00 20.00    -0.009 C 
HETATM    5  C8  UNL     1     -32.320   7.310   3.037  1.00 20.00     0.082 C 
HETATM    6 CL9  UNL     1     -31.616   8.266   1.725  1.00 20.00    -0.125 Cl
ENDROOT
BRANCH   4   7
HETATM    7  C6  UNL     1     -35.023   5.427   4.420  1.00 20.00    -0.010 A 
HETATM    8  C1  UNL     1     -34.161   4.202   4.295  1.00 20.00     0.005 A 
HETATM    9  C2  UNL     1     -34.585   4.687   5.654  1.00 20.00     0.005 A 
ENDBRANCH   4   7
TORSDOF 1
ENDMDL
MODEL 3
REMARK VINA RESULT:      -5.1      0.939      1.751
REMARK  1 active torsions:
REMARK  status: ('A' for Active; 'I' for Inactive)
REMARK    1  A    between atoms: C6_6  and  C7_7 
ROOT
HETATM    1  C3  UNL     1     -33.067   5.998   2.393  1.00 20.00     0.006 C 
HETATM    2  C4  UNL     1     -33.860   5.190   3.409  1.00 20.00     0.020 C 
HETATM    3  C5  UNL     1     -33.712   7.427   4.280  1.00 20.00     0.025 C 
HETATM    4  C7  UNL     1     -33.335   7.456   2.787  1.00 20.00    -0.009 C 
HETATM    5  C8  UNL     1     -33.606   5.961   4.695  1.00 20.00     0.082 C 
HETATM    6 CL9  UNL     1     -34.751   5.532   5.974  1.00 20.00    -0.125 Cl
ENDROOT
BRANCH   4   7
HETATM    7  C6  UNL     1     -32.152   8.365   2.489  1.00 20.00    -0.010 A 
HETATM    8  C1  UNL     1     -31.589   8.446   1.098  1.00 20.00     0.005 A 
HETATM    9  C2  UNL     1     -32.341   9.614   1.673  1.00 20.00     0.005 A 
ENDBRANCH   4   7
TORSDOF 1
ENDMDL
MODEL 4
REMARK VINA RESULT:      -4.8      2.543      4.197
REMARK  1 active torsions:
REMARK  status: ('A' for Active; 'I' for Inactive)
REMARK    1  A    between atoms: C6_6  and  C7_7 
ROOT
HETATM    1  C3  UNL     1     -32.404   7.835   4.440  1.00 20.00     0.006 C 
HETATM    2  C4  UNL     1     -31.735   8.761   3.435  1.00 20.00     0.020 C 
HETATM    3  C5  UNL     1     -33.227   7.349   2.182  1.00 20.00     0.025 C 
HETATM    4  C7  UNL     1     -33.597   7.251   3.673  1.00 20.00    -0.009 C 
HETATM    5  C8  UNL     1     -31.822   7.949   2.152  1.00 20.00     0.082 C 
HETATM    6 CL9  UNL     1     -31.533   8.934   0.711  1.00 20.00    -0.125 Cl
ENDROOT
BRANCH   4   7
HETATM    7  C6  UNL     1     -33.930   5.832   4.111  1.00 20.00    -0.010 A 
HETATM    8  C1  UNL     1     -34.534   5.578   5.464  1.00 20.00     0.005 A 
HETATM    9  C2  UNL     1     -35.363   5.391   4.223  1.00 20.00     0.005 A 
ENDBRANCH   4   7
TORSDOF 1
ENDMDL
MODEL 5
REMARK VINA RESULT:      -4.3      2.604      4.379
REMARK  1 active torsions:
REMARK  status: ('A' for Active; 'I' for Inactive)
REMARK    1  A    between atoms: C6_6  and  C7_7 
ROOT
HETATM    1  C3  UNL     1     -32.186   6.786   2.872  1.00 20.00     0.006 C 
HETATM    2  C4  UNL     1     -31.656   8.034   2.181  1.00 20.00     0.020 C 
HETATM    3  C5  UNL     1     -33.902   8.539   2.879  1.00 20.00     0.025 C 
HETATM    4  C7  UNL     1     -33.429   7.278   3.625  1.00 20.00    -0.009 C 
HETATM    5  C8  UNL     1     -32.937   8.700   1.705  1.00 20.00     0.082 C 
HETATM    6 CL9  UNL     1     -32.688  10.394   1.257  1.00 20.00    -0.125 Cl
ENDROOT
BRANCH   4   7
HETATM    7  C6  UNL     1     -34.506   6.208   3.727  1.00 20.00    -0.010 A 
HETATM    8  C1  UNL     1     -34.127   4.764   3.904  1.00 20.00     0.005 A 
HETATM    9  C2  UNL     1     -34.767   5.518   5.037  1.00 20.00     0.005 A 
ENDBRANCH   4   7
TORSDOF 1
ENDMDL
MODEL 6
REMARK VINA RESULT:      -4.0     11.141     11.962
REMARK  1 active torsions:
REMARK  status: ('A' for Active; 'I' for Inactive)
REMARK    1  A    between atoms: C6_6  and  C7_7 
ROOT
HETATM    1  C3  UNL     1     -34.786  14.865  -3.841  1.00 20.00     0.006 C 
HETATM    2  C4  UNL     1     -34.648  14.231  -5.217  1.00 20.00     0.020 C 
HETATM    3  C5  UNL     1     -33.370  16.269  -5.269  1.00 20.00     0.025 C 
HETATM    4  C7  UNL     1     -33.669  15.915  -3.801  1.00 20.00    -0.009 C 
HETATM    5  C8  UNL     1     -34.353  15.439  -6.093  1.00 20.00     0.082 C 
HETATM    6 CL9  UNL     1     -33.700  14.981  -7.672  1.00 20.00    -0.125 Cl
ENDROOT
BRANCH   4   7
HETATM    7  C6  UNL     1     -34.042  17.128  -2.961  1.00 20.00    -0.010 A 
HETATM    8  C1  UNL     1     -34.674  16.949  -1.609  1.00 20.00     0.005 A 
HETATM    9  C2  UNL     1     -33.263  17.458  -1.718  1.00 20.00     0.005 A 
ENDBRANCH   4   7
TORSDOF 1
ENDMDL
MODEL 7
REMARK VINA RESULT:      -3.9     11.046     11.889
REMARK  1 active torsions:
REMARK  status: ('A' for Active; 'I' for Inactive)
REMARK    1  A    between atoms: C6_6  and  C7_7 
ROOT
HETATM    1  C3  UNL     1     -33.395  16.507  -5.075  1.00 20.00     0.006 C 
HETATM    2  C4  UNL     1     -33.563  15.733  -6.374  1.00 20.00     0.020 C 
HETATM    3  C5  UNL     1     -34.994  14.676  -4.755  1.00 20.00     0.025 C 
HETATM    4  C7  UNL     1     -34.584  16.059  -4.217  1.00 20.00    -0.009 C 
HETATM    5  C8  UNL     1     -34.000  14.366  -5.873  1.00 20.00     0.082 C 
HETATM    6 CL9  UNL     1     -34.706  13.373  -7.155  1.00 20.00    -0.125 Cl
ENDROOT
BRANCH   4   7
HETATM    7  C6  UNL     1     -34.256  16.047  -2.731  1.00 20.00    -0.010 A 
HETATM    8  C1  UNL     1     -33.665  17.263  -2.075  1.00 20.00     0.005 A 
HETATM    9  C2  UNL     1     -35.079  16.856  -1.767  1.00 20.00     0.005 A 
ENDBRANCH   4   7
TORSDOF 1
ENDMDL
MODEL 8
REMARK VINA RESULT:      -3.8     11.043     11.487
REMARK  1 active torsions:
REMARK  status: ('A' for Active; 'I' for Inactive)
REMARK    1  A    between atoms: C6_6  and  C7_7 
ROOT
HETATM    1  C3  UNL     1     -35.448  16.373  -2.386  1.00 20.00     0.006 C 
HETATM    2  C4  UNL     1     -35.589  17.375  -1.250  1.00 20.00     0.020 C 
HETATM    3  C5  UNL     1     -33.322  17.545  -2.037  1.00 20.00     0.025 C 
HETATM    4  C7  UNL     1     -34.151  16.790  -3.092  1.00 20.00    -0.009 C 
HETATM    5  C8  UNL     1     -34.156  17.498  -0.757  1.00 20.00     0.082 C 
HETATM    6 CL9  UNL     1     -33.915  18.923   0.263  1.00 20.00    -0.125 Cl
ENDROOT
BRANCH   4   7
HETATM    7  C6  UNL     1     -33.411  15.604  -3.693  1.00 20.00    -0.010 A 
HETATM    8  C1  UNL     1     -34.162  14.550  -4.458  1.00 20.00     0.005 A 
HETATM    9  C2  UNL     1     -33.243  15.493  -5.183  1.00 20.00     0.005 A 
ENDBRANCH   4   7
TORSDOF 1
ENDMDL
MODEL 9
REMARK VINA RESULT:      -3.8     11.394     11.958
REMARK  1 active torsions:
REMARK  status: ('A' for Active; 'I' for Inactive)
REMARK    1  A    between atoms: C6_6  and  C7_7 
ROOT
HETATM    1  C3  UNL     1     -35.050  17.016  -1.287  1.00 20.00     0.006 C 
HETATM    2  C4  UNL     1     -35.611  16.385  -2.552  1.00 20.00     0.020 C 
HETATM    3  C5  UNL     1     -33.539  17.439  -3.172  1.00 20.00     0.025 C 
HETATM    4  C7  UNL     1     -33.587  17.318  -1.638  1.00 20.00    -0.009 C 
HETATM    5  C8  UNL     1     -34.981  17.242  -3.639  1.00 20.00     0.082 C 
HETATM    6 CL9  UNL     1     -35.081  16.485  -5.235  1.00 20.00    -0.125 Cl
ENDROOT
BRANCH   4   7
HETATM    7  C6  UNL     1     -33.064  18.558  -0.927  1.00 20.00    -0.010 A 
HETATM    8  C1  UNL     1     -33.156  18.670   0.569  1.00 20.00     0.005 A 
HETATM    9  C2  UNL     1     -31.818  18.481  -0.089  1.00 20.00     0.005 A 
ENDBRANCH   4   7
TORSDOF 1
ENDMDL
