MODEL 1
REMARK VINA RESULT:      -4.7      0.000      0.000
REMARK  2 active torsions:
REMARK  status: ('A' for Active; 'I' for Inactive)
REMARK    1  A    between atoms: C4_4  and  C10_10 
REMARK    2  A    between atoms: C8_8  and  C10_10 
ROOT
HETATM    1  C5  UNL     1     -31.059   8.384   2.333  1.00 20.00     0.006 C 
HETATM    2  C6  UNL     1     -31.101   8.738   0.852  1.00 20.00     0.016 C 
HETATM    3  C7  UNL     1     -33.033   9.704   2.023  1.00 20.00     0.020 C 
HETATM    4  C8  UNL     1     -32.513   8.483   2.788  1.00 20.00    -0.009 C 
HETATM    5  C9  UNL     1     -32.215   9.775   0.732  1.00 20.00     0.058 C 
HETATM    6 BR12 UNL     1     -33.328   9.408  -0.822  1.00 20.00    -0.091 Br
ENDROOT
BRANCH   4   7
HETATM    7  C10 UNL     1     -33.310   7.219   2.470  1.00 20.00     0.043 C 
BRANCH   7   8
HETATM    8  C4  UNL     1     -33.784   6.524   3.720  1.00 20.00    -0.051 A 
HETATM    9  C1  UNL     1     -33.817   7.136   5.006  1.00 20.00     0.014 A 
HETATM   10  C2  UNL     1     -34.293   6.280   5.975  1.00 20.00     0.050 A 
HETATM   11  S11 UNL     1     -34.697   4.745   5.332  1.00 20.00    -0.113 SA
HETATM   12  C3  UNL     1     -34.237   5.223   3.755  1.00 20.00     0.056 A 
ENDBRANCH   7   8
ENDBRANCH   4   7
TORSDOF 2
ENDMDL
MODEL 2
REMARK VINA RESULT:      -4.6     10.514     11.208
REMARK  2 active torsions:
REMARK  status: ('A' for Active; 'I' for Inactive)
REMARK    1  A    between atoms: C4_4  and  C10_10 
REMARK    2  A    between atoms: C8_8  and  C10_10 
ROOT
HETATM    1  C5  UNL     1     -33.958  14.787  -4.082  1.00 20.00     0.006 C 
HETATM    2  C6  UNL     1     -35.149  13.974  -4.574  1.00 20.00     0.016 C 
HETATM    3  C7  UNL     1     -35.504  16.367  -5.003  1.00 20.00     0.020 C 
HETATM    4  C8  UNL     1     -34.528  16.182  -3.837  1.00 20.00    -0.009 C 
HETATM    5  C9  UNL     1     -35.992  14.966  -5.373  1.00 20.00     0.058 C 
HETATM    6 BR12 UNL     1     -37.881  14.750  -4.956  1.00 20.00    -0.091 Br
ENDROOT
BRANCH   4   7
HETATM    7  C10 UNL     1     -35.218  16.301  -2.479  1.00 20.00     0.043 C 
BRANCH   7   8
HETATM    8  C4  UNL     1     -34.445  17.180  -1.531  1.00 20.00    -0.051 A 
HETATM    9  C1  UNL     1     -33.122  17.646  -1.778  1.00 20.00     0.014 A 
HETATM   10  C2  UNL     1     -32.650  18.432  -0.749  1.00 20.00     0.050 A 
HETATM   11  S11 UNL     1     -33.800  18.603   0.508  1.00 20.00    -0.113 SA
HETATM   12  C3  UNL     1     -34.934  17.626  -0.322  1.00 20.00     0.056 A 
ENDBRANCH   7   8
ENDBRANCH   4   7
TORSDOF 2
ENDMDL
MODEL 3
REMARK VINA RESULT:      -4.5      3.094      4.995
REMARK  2 active torsions:
REMARK  status: ('A' for Active; 'I' for Inactive)
REMARK    1  A    between atoms: C4_4  and  C10_10 
REMARK    2  A    between atoms: C8_8  and  C10_10 
ROOT
HETATM    1  C5  UNL     1     -34.335   4.101   4.142  1.00 20.00     0.006 C 
HETATM    2  C6  UNL     1     -34.201   4.739   5.519  1.00 20.00     0.016 C 
HETATM    3  C7  UNL     1     -34.882   6.415   3.857  1.00 20.00     0.020 C 
HETATM    4  C8  UNL     1     -34.147   5.262   3.168  1.00 20.00    -0.009 C 
HETATM    5  C9  UNL     1     -34.793   6.136   5.359  1.00 20.00     0.058 C 
HETATM    6 BR12 UNL     1     -33.677   7.459   6.249  1.00 20.00    -0.091 Br
ENDROOT
BRANCH   4   7
HETATM    7  C10 UNL     1     -32.674   5.581   2.918  1.00 20.00     0.043 C 
BRANCH   7   8
HETATM    8  C4  UNL     1     -32.465   7.031   2.565  1.00 20.00    -0.051 A 
HETATM    9  C1  UNL     1     -31.741   7.951   3.376  1.00 20.00     0.014 A 
HETATM   10  C2  UNL     1     -31.702   9.212   2.821  1.00 20.00     0.050 A 
HETATM   11  S11 UNL     1     -32.538   9.281   1.328  1.00 20.00    -0.113 SA
HETATM   12  C3  UNL     1     -32.953   7.624   1.420  1.00 20.00     0.056 A 
ENDBRANCH   7   8
ENDBRANCH   4   7
TORSDOF 2
ENDMDL
MODEL 4
REMARK VINA RESULT:      -4.5     10.484     11.272
REMARK  2 active torsions:
REMARK  status: ('A' for Active; 'I' for Inactive)
REMARK    1  A    between atoms: C4_4  and  C10_10 
REMARK    2  A    between atoms: C8_8  and  C10_10 
ROOT
HETATM    1  C5  UNL     1     -33.689  14.438  -4.151  1.00 20.00     0.006 C 
HETATM    2  C6  UNL     1     -34.709  14.405  -5.283  1.00 20.00     0.016 C 
HETATM    3  C7  UNL     1     -33.768  16.661  -5.039  1.00 20.00     0.020 C 
HETATM    4  C8  UNL     1     -33.657  15.900  -3.713  1.00 20.00    -0.009 C 
HETATM    5  C9  UNL     1     -34.554  15.751  -5.984  1.00 20.00     0.058 C 
HETATM    6 BR12 UNL     1     -36.297  16.513  -6.398  1.00 20.00    -0.091 Br
ENDROOT
BRANCH   4   7
HETATM    7  C10 UNL     1     -34.793  16.246  -2.752  1.00 20.00     0.043 C 
BRANCH   7   8
HETATM    8  C4  UNL     1     -34.327  17.136  -1.629  1.00 20.00    -0.051 A 
HETATM    9  C1  UNL     1     -33.043  17.751  -1.582  1.00 20.00     0.014 A 
HETATM   10  C2  UNL     1     -32.875  18.512  -0.446  1.00 20.00     0.050 A 
HETATM   11  S11 UNL     1     -34.261  18.482   0.558  1.00 20.00    -0.113 SA
HETATM   12  C3  UNL     1     -35.092  17.450  -0.526  1.00 20.00     0.056 A 
ENDBRANCH   7   8
ENDBRANCH   4   7
TORSDOF 2
ENDMDL
MODEL 5
REMARK VINA RESULT:      -4.4      3.388      5.333
REMARK  2 active torsions:
REMARK  status: ('A' for Active; 'I' for Inactive)
REMARK    1  A    between atoms: C4_4  and  C10_10 
REMARK    2  A    between atoms: C8_8  and  C10_10 
ROOT
HETATM    1  C5  UNL     1     -33.285   4.570   2.623  1.00 20.00     0.006 C 
HETATM    2  C6  UNL     1     -33.568   4.352   4.105  1.00 20.00     0.016 C 
HETATM    3  C7  UNL     1     -34.908   6.221   3.239  1.00 20.00     0.020 C 
HETATM    4  C8  UNL     1     -33.655   6.031   2.379  1.00 20.00    -0.009 C 
HETATM    5  C9  UNL     1     -34.774   5.239   4.404  1.00 20.00     0.058 C 
HETATM    6 BR12 UNL     1     -34.528   6.183   6.088  1.00 20.00    -0.091 Br
ENDROOT
BRANCH   4   7
HETATM    7  C10 UNL     1     -32.532   6.990   2.773  1.00 20.00     0.043 C 
BRANCH   7   8
HETATM    8  C4  UNL     1     -32.539   8.240   1.931  1.00 20.00    -0.051 A 
HETATM    9  C1  UNL     1     -32.872   8.264   0.546  1.00 20.00     0.014 A 
HETATM   10  C2  UNL     1     -32.799   9.534   0.018  1.00 20.00     0.050 A 
HETATM   11  S11 UNL     1     -32.331  10.691   1.191  1.00 20.00    -0.113 SA
HETATM   12  C3  UNL     1     -32.225   9.494   2.409  1.00 20.00     0.056 A 
ENDBRANCH   7   8
ENDBRANCH   4   7
TORSDOF 2
ENDMDL
MODEL 6
REMARK VINA RESULT:      -4.3     10.799     11.803
REMARK  2 active torsions:
REMARK  status: ('A' for Active; 'I' for Inactive)
REMARK    1  A    between atoms: C4_4  and  C10_10 
REMARK    2  A    between atoms: C8_8  and  C10_10 
ROOT
HETATM    1  C5  UNL     1     -35.683  17.302  -1.090  1.00 20.00     0.006 C 
HETATM    2  C6  UNL     1     -34.943  17.739   0.168  1.00 20.00     0.016 C 
HETATM    3  C7  UNL     1     -34.195  19.052  -1.769  1.00 20.00     0.020 C 
HETATM    4  C8  UNL     1     -34.754  17.703  -2.234  1.00 20.00    -0.009 C 
HETATM    5  C9  UNL     1     -34.198  19.007  -0.240  1.00 20.00     0.058 C 
HETATM    6 BR12 UNL     1     -32.383  18.991   0.462  1.00 20.00    -0.091 Br
ENDROOT
BRANCH   4   7
HETATM    7  C10 UNL     1     -33.652  16.674  -2.478  1.00 20.00     0.043 C 
BRANCH   7   8
HETATM    8  C4  UNL     1     -33.776  16.029  -3.835  1.00 20.00    -0.051 A 
HETATM    9  C1  UNL     1     -34.322  14.732  -4.052  1.00 20.00     0.014 A 
HETATM   10  C2  UNL     1     -34.317  14.385  -5.385  1.00 20.00     0.050 A 
HETATM   11  S11 UNL     1     -33.654  15.621  -6.368  1.00 20.00    -0.113 SA
HETATM   12  C3  UNL     1     -33.373  16.625  -5.011  1.00 20.00     0.056 A 
ENDBRANCH   7   8
ENDBRANCH   4   7
TORSDOF 2
ENDMDL
MODEL 7
REMARK VINA RESULT:      -4.3     10.713     11.446
REMARK  2 active torsions:
REMARK  status: ('A' for Active; 'I' for Inactive)
REMARK    1  A    between atoms: C4_4  and  C10_10 
REMARK    2  A    between atoms: C8_8  and  C10_10 
ROOT
HETATM    1  C5  UNL     1     -36.136  16.664  -3.804  1.00 20.00     0.006 C 
HETATM    2  C6  UNL     1     -35.846  16.620  -5.300  1.00 20.00     0.016 C 
HETATM    3  C7  UNL     1     -34.752  14.741  -4.155  1.00 20.00     0.020 C 
HETATM    4  C8  UNL     1     -34.979  15.894  -3.172  1.00 20.00    -0.009 C 
HETATM    5  C9  UNL     1     -35.184  15.264  -5.527  1.00 20.00     0.058 C 
HETATM    6 BR12 UNL     1     -33.657  15.438  -6.721  1.00 20.00    -0.091 Br
ENDROOT
BRANCH   4   7
HETATM    7  C10 UNL     1     -33.731  16.758  -2.995  1.00 20.00     0.043 C 
BRANCH   7   8
HETATM    8  C4  UNL     1     -33.721  17.463  -1.663  1.00 20.00    -0.051 A 
HETATM    9  C1  UNL     1     -34.772  17.372  -0.707  1.00 20.00     0.014 A 
HETATM   10  C2  UNL     1     -34.509  18.115   0.424  1.00 20.00     0.050 A 
HETATM   11  S11 UNL     1     -33.000  18.918   0.327  1.00 20.00    -0.113 SA
HETATM   12  C3  UNL     1     -32.694  18.273  -1.228  1.00 20.00     0.056 A 
ENDBRANCH   7   8
ENDBRANCH   4   7
TORSDOF 2
ENDMDL
MODEL 8
REMARK VINA RESULT:      -4.0     10.720     11.601
REMARK  2 active torsions:
REMARK  status: ('A' for Active; 'I' for Inactive)
REMARK    1  A    between atoms: C4_4  and  C10_10 
REMARK    2  A    between atoms: C8_8  and  C10_10 
ROOT
HETATM    1  C5  UNL     1     -34.594  17.760  -4.145  1.00 20.00     0.006 C 
HETATM    2  C6  UNL     1     -35.379  18.351  -2.981  1.00 20.00     0.016 C 
HETATM    3  C7  UNL     1     -33.402  17.143  -2.162  1.00 20.00     0.020 C 
HETATM    4  C8  UNL     1     -33.823  16.595  -3.529  1.00 20.00    -0.009 C 
HETATM    5  C9  UNL     1     -34.473  18.162  -1.767  1.00 20.00     0.058 C 
HETATM    6 BR12 UNL     1     -35.500  17.537  -0.236  1.00 20.00    -0.091 Br
ENDROOT
BRANCH   4   7
HETATM    7  C10 UNL     1     -34.672  15.331  -3.410  1.00 20.00     0.043 C 
BRANCH   7   8
HETATM    8  C4  UNL     1     -34.838  14.638  -4.738  1.00 20.00    -0.051 A 
HETATM    9  C1  UNL     1     -35.967  13.843  -5.084  1.00 20.00     0.014 A 
HETATM   10  C2  UNL     1     -35.866  13.326  -6.357  1.00 20.00     0.050 A 
HETATM   11  S11 UNL     1     -34.412  13.799  -7.128  1.00 20.00    -0.113 SA
HETATM   12  C3  UNL     1     -33.915  14.698  -5.760  1.00 20.00     0.056 A 
ENDBRANCH   7   8
ENDBRANCH   4   7
TORSDOF 2
ENDMDL
MODEL 9
REMARK VINA RESULT:      -4.0     10.696     11.526
REMARK  2 active torsions:
REMARK  status: ('A' for Active; 'I' for Inactive)
REMARK    1  A    between atoms: C4_4  and  C10_10 
REMARK    2  A    between atoms: C8_8  and  C10_10 
ROOT
HETATM    1  C5  UNL     1     -35.051  18.297  -3.709  1.00 20.00     0.006 C 
HETATM    2  C6  UNL     1     -34.604  17.279  -4.751  1.00 20.00     0.016 C 
HETATM    3  C7  UNL     1     -34.958  16.187  -2.579  1.00 20.00     0.020 C 
HETATM    4  C8  UNL     1     -34.648  17.674  -2.375  1.00 20.00    -0.009 C 
HETATM    5  C9  UNL     1     -34.796  15.923  -4.077  1.00 20.00     0.058 C 
HETATM    6 BR12 UNL     1     -33.270  14.765  -4.421  1.00 20.00    -0.091 Br
ENDROOT
BRANCH   4   7
HETATM    7  C10 UNL     1     -33.178  17.917  -2.038  1.00 20.00     0.043 C 
BRANCH   7   8
HETATM    8  C4  UNL     1     -32.987  18.283  -0.589  1.00 20.00    -0.051 A 
HETATM    9  C1  UNL     1     -31.719  18.550   0.003  1.00 20.00     0.014 A 
HETATM   10  C2  UNL     1     -31.827  18.860   1.342  1.00 20.00     0.050 A 
HETATM   11  S11 UNL     1     -33.453  18.826   1.878  1.00 20.00    -0.113 SA
HETATM   12  C3  UNL     1     -34.016  18.398   0.320  1.00 20.00     0.056 A 
ENDBRANCH   7   8
ENDBRANCH   4   7
TORSDOF 2
ENDMDL
