MODEL 1
REMARK VINA RESULT:      -5.6      0.000      0.000
REMARK  4 active torsions:
REMARK  status: ('A' for Active; 'I' for Inactive)
REMARK    1  A    between atoms: C5_5  and  C8_8 
REMARK    2  A    between atoms: C6_6  and  C7_7 
REMARK    3  A    between atoms: C6_6  and  C8_8 
REMARK    4  A    between atoms: C7_7  and  C9_9 
ROOT
HETATM    1  C6  UNL     1     -33.298   6.939   2.222  1.00 20.00     0.021 C 
ENDROOT
BRANCH   1   2
HETATM    2  C7  UNL     1     -33.054   5.950   3.373  1.00 20.00     0.010 C 
BRANCH   2   3
HETATM    3  C9  UNL     1     -34.240   5.756   4.357  1.00 20.00    -0.051 C 
HETATM    4  C2  UNL     1     -35.540   6.145   3.624  1.00 20.00     0.014 C 
HETATM    5  C3  UNL     1     -34.091   6.658   5.593  1.00 20.00     0.014 C 
HETATM    6  C4  UNL     1     -34.359   4.291   4.810  1.00 20.00     0.014 C 
ENDBRANCH   2   3
ENDBRANCH   1   2
BRANCH   1   7
HETATM    7  C8  UNL     1     -32.646   8.315   2.455  1.00 20.00     0.082 C 
HETATM    8 CL10 UNL     1     -31.355   8.194   3.693  1.00 20.00    -0.125 Cl
BRANCH   7   9
HETATM    9  C5  UNL     1     -32.076   8.874   1.143  1.00 20.00     0.016 C 
HETATM   10  C1  UNL     1     -32.593  10.264   0.795  1.00 20.00     0.006 C 
ENDBRANCH   7   9
ENDBRANCH   1   7
TORSDOF 4
ENDMDL
MODEL 2
REMARK VINA RESULT:      -5.6      0.034      1.366
REMARK  4 active torsions:
REMARK  status: ('A' for Active; 'I' for Inactive)
REMARK    1  A    between atoms: C5_5  and  C8_8 
REMARK    2  A    between atoms: C6_6  and  C7_7 
REMARK    3  A    between atoms: C6_6  and  C8_8 
REMARK    4  A    between atoms: C7_7  and  C9_9 
ROOT
HETATM    1  C6  UNL     1     -33.262   6.921   2.200  1.00 20.00     0.021 C 
ENDROOT
BRANCH   1   2
HETATM    2  C7  UNL     1     -33.052   5.946   3.370  1.00 20.00     0.010 C 
BRANCH   2   3
HETATM    3  C9  UNL     1     -34.263   5.772   4.327  1.00 20.00    -0.051 C 
HETATM    4  C2  UNL     1     -34.333   4.290   4.748  1.00 20.00     0.014 C 
HETATM    5  C3  UNL     1     -35.581   6.143   3.630  1.00 20.00     0.014 C 
HETATM    6  C4  UNL     1     -34.102   6.629   5.595  1.00 20.00     0.014 C 
ENDBRANCH   2   3
ENDBRANCH   1   2
BRANCH   1   7
HETATM    7  C8  UNL     1     -32.638   8.307   2.445  1.00 20.00     0.082 C 
HETATM    8 CL10 UNL     1     -31.356   8.205   3.695  1.00 20.00    -0.125 Cl
BRANCH   7   9
HETATM    9  C5  UNL     1     -32.066   8.883   1.141  1.00 20.00     0.016 C 
HETATM   10  C1  UNL     1     -32.590  10.272   0.804  1.00 20.00     0.006 C 
ENDBRANCH   7   9
ENDBRANCH   1   7
TORSDOF 4
ENDMDL
MODEL 3
REMARK VINA RESULT:      -5.6      0.028      1.368
REMARK  4 active torsions:
REMARK  status: ('A' for Active; 'I' for Inactive)
REMARK    1  A    between atoms: C5_5  and  C8_8 
REMARK    2  A    between atoms: C6_6  and  C7_7 
REMARK    3  A    between atoms: C6_6  and  C8_8 
REMARK    4  A    between atoms: C7_7  and  C9_9 
ROOT
HETATM    1  C6  UNL     1     -33.260   6.929   2.231  1.00 20.00     0.021 C 
ENDROOT
BRANCH   1   2
HETATM    2  C7  UNL     1     -33.039   5.960   3.403  1.00 20.00     0.010 C 
BRANCH   2   3
HETATM    3  C9  UNL     1     -34.261   5.743   4.337  1.00 20.00    -0.051 C 
HETATM    4  C2  UNL     1     -34.087   6.648   5.574  1.00 20.00     0.014 C 
HETATM    5  C3  UNL     1     -34.348   4.283   4.810  1.00 20.00     0.014 C 
HETATM    6  C4  UNL     1     -35.576   6.128   3.637  1.00 20.00     0.014 C 
ENDBRANCH   2   3
ENDBRANCH   1   2
BRANCH   1   7
HETATM    7  C8  UNL     1     -32.627   8.314   2.460  1.00 20.00     0.082 C 
HETATM    8 CL10 UNL     1     -31.337   8.215   3.701  1.00 20.00    -0.125 Cl
BRANCH   7   9
HETATM    9  C5  UNL     1     -32.059   8.875   1.146  1.00 20.00     0.016 C 
HETATM   10  C1  UNL     1     -32.592  10.257   0.791  1.00 20.00     0.006 C 
ENDBRANCH   7   9
ENDBRANCH   1   7
TORSDOF 4
ENDMDL
MODEL 4
REMARK VINA RESULT:      -5.2      1.592      5.065
REMARK  4 active torsions:
REMARK  status: ('A' for Active; 'I' for Inactive)
REMARK    1  A    between atoms: C5_5  and  C8_8 
REMARK    2  A    between atoms: C6_6  and  C7_7 
REMARK    3  A    between atoms: C6_6  and  C8_8 
REMARK    4  A    between atoms: C7_7  and  C9_9 
ROOT
HETATM    1  C6  UNL     1     -32.690   7.412   2.601  1.00 20.00     0.021 C 
ENDROOT
BRANCH   1   2
HETATM    2  C7  UNL     1     -33.377   8.637   1.976  1.00 20.00     0.010 C 
BRANCH   2   3
HETATM    3  C9  UNL     1     -32.551   9.397   0.903  1.00 20.00    -0.051 C 
HETATM    4  C2  UNL     1     -31.171   8.718   0.789  1.00 20.00     0.014 C 
HETATM    5  C3  UNL     1     -32.340  10.867   1.301  1.00 20.00     0.014 C 
HETATM    6  C4  UNL     1     -33.235   9.339  -0.475  1.00 20.00     0.014 C 
ENDBRANCH   2   3
ENDBRANCH   1   2
BRANCH   1   7
HETATM    7  C8  UNL     1     -33.682   6.316   3.035  1.00 20.00     0.082 C 
HETATM    8 CL10 UNL     1     -32.991   4.690   2.729  1.00 20.00    -0.125 Cl
BRANCH   7   9
HETATM    9  C5  UNL     1     -34.043   6.471   4.520  1.00 20.00     0.016 C 
HETATM   10  C1  UNL     1     -34.679   5.226   5.127  1.00 20.00     0.006 C 
ENDBRANCH   7   9
ENDBRANCH   1   7
TORSDOF 4
ENDMDL
MODEL 5
REMARK VINA RESULT:      -5.2      1.581      5.075
REMARK  4 active torsions:
REMARK  status: ('A' for Active; 'I' for Inactive)
REMARK    1  A    between atoms: C5_5  and  C8_8 
REMARK    2  A    between atoms: C6_6  and  C7_7 
REMARK    3  A    between atoms: C6_6  and  C8_8 
REMARK    4  A    between atoms: C7_7  and  C9_9 
ROOT
HETATM    1  C6  UNL     1     -32.648   7.401   2.613  1.00 20.00     0.021 C 
ENDROOT
BRANCH   1   2
HETATM    2  C7  UNL     1     -33.300   8.669   2.038  1.00 20.00     0.010 C 
BRANCH   2   3
HETATM    3  C9  UNL     1     -32.514   9.374   0.899  1.00 20.00    -0.051 C 
HETATM    4  C2  UNL     1     -32.337  10.856   1.284  1.00 20.00     0.014 C 
HETATM    5  C3  UNL     1     -33.281   9.305  -0.431  1.00 20.00     0.014 C 
HETATM    6  C4  UNL     1     -31.119   8.752   0.713  1.00 20.00     0.014 C 
ENDBRANCH   2   3
ENDBRANCH   1   2
BRANCH   1   7
HETATM    7  C8  UNL     1     -33.669   6.318   3.006  1.00 20.00     0.082 C 
HETATM    8 CL10 UNL     1     -32.985   4.684   2.731  1.00 20.00    -0.125 Cl
BRANCH   7   9
HETATM    9  C5  UNL     1     -34.091   6.478   4.475  1.00 20.00     0.016 C 
HETATM   10  C1  UNL     1     -34.653   5.204   5.092  1.00 20.00     0.006 C 
ENDBRANCH   7   9
ENDBRANCH   1   7
TORSDOF 4
ENDMDL
MODEL 6
REMARK VINA RESULT:      -5.2      1.456      4.845
REMARK  4 active torsions:
REMARK  status: ('A' for Active; 'I' for Inactive)
REMARK    1  A    between atoms: C5_5  and  C8_8 
REMARK    2  A    between atoms: C6_6  and  C7_7 
REMARK    3  A    between atoms: C6_6  and  C8_8 
REMARK    4  A    between atoms: C7_7  and  C9_9 
ROOT
HETATM    1  C6  UNL     1     -32.325   7.963   3.104  1.00 20.00     0.021 C 
ENDROOT
BRANCH   1   2
HETATM    2  C7  UNL     1     -33.175   8.308   1.871  1.00 20.00     0.010 C 
BRANCH   2   3
HETATM    3  C9  UNL     1     -32.521   9.279   0.851  1.00 20.00    -0.051 C 
HETATM    4  C2  UNL     1     -31.073   8.812   0.604  1.00 20.00     0.014 C 
HETATM    5  C3  UNL     1     -32.482  10.716   1.398  1.00 20.00     0.014 C 
HETATM    6  C4  UNL     1     -33.270   9.269  -0.493  1.00 20.00     0.014 C 
ENDBRANCH   2   3
ENDBRANCH   1   2
BRANCH   1   7
HETATM    7  C8  UNL     1     -32.949   6.865   3.984  1.00 20.00     0.082 C 
HETATM    8 CL10 UNL     1     -33.401   7.529   5.587  1.00 20.00    -0.125 Cl
BRANCH   7   9
HETATM    9  C5  UNL     1     -34.178   6.251   3.296  1.00 20.00     0.016 C 
HETATM   10  C1  UNL     1     -35.103   5.505   4.249  1.00 20.00     0.006 C 
ENDBRANCH   7   9
ENDBRANCH   1   7
TORSDOF 4
ENDMDL
MODEL 7
REMARK VINA RESULT:      -4.8      1.812      4.663
REMARK  4 active torsions:
REMARK  status: ('A' for Active; 'I' for Inactive)
REMARK    1  A    between atoms: C5_5  and  C8_8 
REMARK    2  A    between atoms: C6_6  and  C7_7 
REMARK    3  A    between atoms: C6_6  and  C8_8 
REMARK    4  A    between atoms: C7_7  and  C9_9 
ROOT
HETATM    1  C6  UNL     1     -32.961   6.591   3.358  1.00 20.00     0.021 C 
ENDROOT
BRANCH   1   2
HETATM    2  C7  UNL     1     -33.264   7.485   2.145  1.00 20.00     0.010 C 
BRANCH   2   3
HETATM    3  C9  UNL     1     -32.260   8.644   1.896  1.00 20.00    -0.051 C 
HETATM    4  C2  UNL     1     -31.311   8.726   3.108  1.00 20.00     0.014 C 
HETATM    5  C3  UNL     1     -32.988   9.990   1.756  1.00 20.00     0.014 C 
HETATM    6  C4  UNL     1     -31.415   8.391   0.635  1.00 20.00     0.014 C 
ENDBRANCH   2   3
ENDBRANCH   1   2
BRANCH   1   7
HETATM    7  C8  UNL     1     -34.214   5.907   3.936  1.00 20.00     0.082 C 
HETATM    8 CL10 UNL     1     -34.072   4.125   3.802  1.00 20.00    -0.125 Cl
BRANCH   7   9
HETATM    9  C5  UNL     1     -34.428   6.316   5.401  1.00 20.00     0.016 C 
HETATM   10  C1  UNL     1     -33.531   7.460   5.853  1.00 20.00     0.006 C 
ENDBRANCH   7   9
ENDBRANCH   1   7
TORSDOF 4
ENDMDL
MODEL 8
REMARK VINA RESULT:      -4.6      1.337      1.759
REMARK  4 active torsions:
REMARK  status: ('A' for Active; 'I' for Inactive)
REMARK    1  A    between atoms: C5_5  and  C8_8 
REMARK    2  A    between atoms: C6_6  and  C7_7 
REMARK    3  A    between atoms: C6_6  and  C8_8 
REMARK    4  A    between atoms: C7_7  and  C9_9 
ROOT
HETATM    1  C6  UNL     1     -32.537   7.083   2.589  1.00 20.00     0.021 C 
ENDROOT
BRANCH   1   2
HETATM    2  C7  UNL     1     -33.346   7.165   3.893  1.00 20.00     0.010 C 
BRANCH   2   3
HETATM    3  C9  UNL     1     -34.268   5.952   4.191  1.00 20.00    -0.051 C 
HETATM    4  C2  UNL     1     -33.626   4.696   3.567  1.00 20.00     0.014 C 
HETATM    5  C3  UNL     1     -35.661   6.146   3.569  1.00 20.00     0.014 C 
HETATM    6  C4  UNL     1     -34.417   5.719   5.704  1.00 20.00     0.014 C 
ENDBRANCH   2   3
ENDBRANCH   1   2
BRANCH   1   7
HETATM    7  C8  UNL     1     -31.906   8.427   2.180  1.00 20.00     0.082 C 
HETATM    8 CL10 UNL     1     -31.124   8.289   0.573  1.00 20.00    -0.125 Cl
BRANCH   7   9
HETATM    9  C5  UNL     1     -32.965   9.540   2.163  1.00 20.00     0.016 C 
HETATM   10  C1  UNL     1     -32.795  10.528   1.015  1.00 20.00     0.006 C 
ENDBRANCH   7   9
ENDBRANCH   1   7
TORSDOF 4
ENDMDL
MODEL 9
REMARK VINA RESULT:      -4.6      1.295      1.395
REMARK  4 active torsions:
REMARK  status: ('A' for Active; 'I' for Inactive)
REMARK    1  A    between atoms: C5_5  and  C8_8 
REMARK    2  A    between atoms: C6_6  and  C7_7 
REMARK    3  A    between atoms: C6_6  and  C8_8 
REMARK    4  A    between atoms: C7_7  and  C9_9 
ROOT
HETATM    1  C6  UNL     1     -32.981   7.487   2.209  1.00 20.00     0.021 C 
ENDROOT
BRANCH   1   2
HETATM    2  C7  UNL     1     -33.322   7.347   3.701  1.00 20.00     0.010 C 
BRANCH   2   3
HETATM    3  C9  UNL     1     -34.138   6.083   4.090  1.00 20.00    -0.051 C 
HETATM    4  C2  UNL     1     -35.556   6.228   3.502  1.00 20.00     0.014 C 
HETATM    5  C3  UNL     1     -34.255   5.945   5.616  1.00 20.00     0.014 C 
HETATM    6  C4  UNL     1     -33.501   4.807   3.513  1.00 20.00     0.014 C 
ENDBRANCH   2   3
ENDBRANCH   1   2
BRANCH   1   7
HETATM    7  C8  UNL     1     -32.219   8.784   1.880  1.00 20.00     0.082 C 
HETATM    8 CL10 UNL     1     -30.864   8.446   0.756  1.00 20.00    -0.125 Cl
BRANCH   7   9
HETATM    9  C5  UNL     1     -33.167   9.829   1.272  1.00 20.00     0.016 C 
HETATM   10  C1  UNL     1     -33.229   9.787  -0.250  1.00 20.00     0.006 C 
ENDBRANCH   7   9
ENDBRANCH   1   7
TORSDOF 4
ENDMDL
