MODEL 1
REMARK VINA RESULT:      -6.6      0.000      0.000
REMARK  3 active torsions:
REMARK  status: ('A' for Active; 'I' for Inactive)
REMARK    1  A    between atoms: C6_6  and  C9_9 
REMARK    2  A    between atoms: C7_7  and  O10_10 
REMARK    3  A    between atoms: C8_8  and  C9_9 
ROOT
HETATM    1  C1  UNL     1     -32.604  10.249   1.109  1.00 20.00     0.012 C 
HETATM    2  C2  UNL     1     -32.489   9.138   1.547  1.00 20.00    -0.117 C 
HETATM    3  C8  UNL     1     -32.348   7.775   2.078  1.00 20.00     0.093 C 
ENDROOT
BRANCH   3   4
HETATM    4  C9  UNL     1     -32.369   7.794   3.597  1.00 20.00     0.017 C 
BRANCH   4   5
HETATM    5  C6  UNL     1     -33.686   7.255   4.131  1.00 20.00    -0.011 C 
HETATM    6  C3  UNL     1     -33.586   6.748   5.568  1.00 20.00     0.007 C 
HETATM    7  C4  UNL     1     -34.806   5.846   5.691  1.00 20.00     0.032 C 
HETATM    8  C7  UNL     1     -34.829   5.099   4.362  1.00 20.00     0.118 C 
HETATM    9  C5  UNL     1     -34.219   6.056   3.331  1.00 20.00     0.036 C 
BRANCH   8  10
HETATM   10  O10 UNL     1     -34.009   3.938   4.448  1.00 20.00    -0.396 OA
HETATM   11  H24 UNL     1     -33.953   3.572   3.552  1.00 20.00     0.210 HD
ENDBRANCH   8  10
ENDBRANCH   4   5
ENDBRANCH   3   4
TORSDOF 3
ENDMDL
MODEL 2
REMARK VINA RESULT:      -5.8      1.259      1.774
REMARK  3 active torsions:
REMARK  status: ('A' for Active; 'I' for Inactive)
REMARK    1  A    between atoms: C6_6  and  C9_9 
REMARK    2  A    between atoms: C7_7  and  O10_10 
REMARK    3  A    between atoms: C8_8  and  C9_9 
ROOT
HETATM    1  C1  UNL     1     -32.951   9.851  -0.084  1.00 20.00     0.012 C 
HETATM    2  C2  UNL     1     -32.442   9.155   0.751  1.00 20.00    -0.117 C 
HETATM    3  C8  UNL     1     -31.814   8.302   1.769  1.00 20.00     0.093 C 
ENDROOT
BRANCH   3   4
HETATM    4  C9  UNL     1     -32.601   8.359   3.067  1.00 20.00     0.017 C 
BRANCH   4   5
HETATM    5  C6  UNL     1     -32.764   6.973   3.669  1.00 20.00    -0.011 C 
HETATM    6  C3  UNL     1     -33.100   5.906   2.629  1.00 20.00     0.007 C 
HETATM    7  C4  UNL     1     -33.686   4.786   3.476  1.00 20.00     0.032 C 
HETATM    8  C7  UNL     1     -34.567   5.523   4.478  1.00 20.00     0.118 C 
HETATM    9  C5  UNL     1     -33.904   6.888   4.696  1.00 20.00     0.036 C 
BRANCH   8  10
HETATM   10  O10 UNL     1     -35.861   5.729   3.922  1.00 20.00    -0.396 OA
HETATM   11  H24 UNL     1     -35.828   5.397   3.011  1.00 20.00     0.210 HD
ENDBRANCH   8  10
ENDBRANCH   4   5
ENDBRANCH   3   4
TORSDOF 3
ENDMDL
MODEL 3
REMARK VINA RESULT:      -5.5      2.614      4.988
REMARK  3 active torsions:
REMARK  status: ('A' for Active; 'I' for Inactive)
REMARK    1  A    between atoms: C6_6  and  C9_9 
REMARK    2  A    between atoms: C7_7  and  O10_10 
REMARK    3  A    between atoms: C8_8  and  C9_9 
ROOT
HETATM    1  C1  UNL     1     -33.764   7.215   6.025  1.00 20.00     0.012 C 
HETATM    2  C2  UNL     1     -33.685   7.193   4.827  1.00 20.00    -0.117 C 
HETATM    3  C8  UNL     1     -33.596   7.166   3.361  1.00 20.00     0.093 C 
ENDROOT
BRANCH   3   4
HETATM    4  C9  UNL     1     -32.147   7.276   2.916  1.00 20.00     0.017 C 
BRANCH   4   5
HETATM    5  C6  UNL     1     -31.894   8.594   2.204  1.00 20.00    -0.011 C 
HETATM    6  C3  UNL     1     -33.095   9.535   2.243  1.00 20.00     0.007 C 
HETATM    7  C4  UNL     1     -32.804  10.499   1.102  1.00 20.00     0.032 C 
HETATM    8  C7  UNL     1     -32.275   9.591  -0.003  1.00 20.00     0.118 C 
HETATM    9  C5  UNL     1     -31.581   8.425   0.709  1.00 20.00     0.036 C 
BRANCH   8  10
HETATM   10  O10 UNL     1     -33.363   9.078  -0.765  1.00 20.00    -0.396 OA
HETATM   11  H24 UNL     1     -33.830   8.449  -0.193  1.00 20.00     0.210 HD
ENDBRANCH   8  10
ENDBRANCH   4   5
ENDBRANCH   3   4
TORSDOF 3
ENDMDL
MODEL 4
REMARK VINA RESULT:      -5.1      2.303      4.619
REMARK  3 active torsions:
REMARK  status: ('A' for Active; 'I' for Inactive)
REMARK    1  A    between atoms: C6_6  and  C9_9 
REMARK    2  A    between atoms: C7_7  and  O10_10 
REMARK    3  A    between atoms: C8_8  and  C9_9 
ROOT
HETATM    1  C1  UNL     1     -34.377   3.923   4.427  1.00 20.00     0.012 C 
HETATM    2  C2  UNL     1     -34.351   4.926   5.087  1.00 20.00    -0.117 C 
HETATM    3  C8  UNL     1     -34.319   6.149   5.899  1.00 20.00     0.093 C 
ENDROOT
BRANCH   3   4
HETATM    4  C9  UNL     1     -34.193   7.374   5.009  1.00 20.00     0.017 C 
BRANCH   4   5
HETATM    5  C6  UNL     1     -32.989   7.258   4.090  1.00 20.00    -0.011 C 
HETATM    6  C3  UNL     1     -31.972   8.379   4.294  1.00 20.00     0.007 C 
HETATM    7  C4  UNL     1     -31.170   8.346   3.001  1.00 20.00     0.032 C 
HETATM    8  C7  UNL     1     -32.236   8.141   1.930  1.00 20.00     0.118 C 
HETATM    9  C5  UNL     1     -33.354   7.333   2.599  1.00 20.00     0.036 C 
BRANCH   8  10
HETATM   10  O10 UNL     1     -32.762   9.401   1.528  1.00 20.00    -0.396 OA
HETATM   11  H24 UNL     1     -33.719   9.364   1.681  1.00 20.00     0.210 HD
ENDBRANCH   8  10
ENDBRANCH   4   5
ENDBRANCH   3   4
TORSDOF 3
ENDMDL
MODEL 5
REMARK VINA RESULT:      -4.8      2.376      4.742
REMARK  3 active torsions:
REMARK  status: ('A' for Active; 'I' for Inactive)
REMARK    1  A    between atoms: C6_6  and  C9_9 
REMARK    2  A    between atoms: C7_7  and  O10_10 
REMARK    3  A    between atoms: C8_8  and  C9_9 
ROOT
HETATM    1  C1  UNL     1     -34.759   5.023   6.110  1.00 20.00     0.012 C 
HETATM    2  C2  UNL     1     -34.423   4.848   4.971  1.00 20.00    -0.117 C 
HETATM    3  C8  UNL     1     -34.011   4.629   3.578  1.00 20.00     0.093 C 
ENDROOT
BRANCH   3   4
HETATM    4  C9  UNL     1     -34.109   5.922   2.786  1.00 20.00     0.017 C 
BRANCH   4   5
HETATM    5  C6  UNL     1     -32.771   6.641   2.748  1.00 20.00    -0.011 C 
HETATM    6  C3  UNL     1     -32.610   7.664   3.870  1.00 20.00     0.007 C 
HETATM    7  C4  UNL     1     -31.493   8.558   3.352  1.00 20.00     0.032 C 
HETATM    8  C7  UNL     1     -31.835   8.732   1.876  1.00 20.00     0.118 C 
HETATM    9  C5  UNL     1     -32.551   7.444   1.456  1.00 20.00     0.036 C 
BRANCH   8  10
HETATM   10  O10 UNL     1     -32.733   9.826   1.716  1.00 20.00    -0.396 OA
HETATM   11  H24 UNL     1     -33.572   9.558   2.123  1.00 20.00     0.210 HD
ENDBRANCH   8  10
ENDBRANCH   4   5
ENDBRANCH   3   4
TORSDOF 3
ENDMDL
MODEL 6
REMARK VINA RESULT:      -4.6     11.432     11.789
REMARK  3 active torsions:
REMARK  status: ('A' for Active; 'I' for Inactive)
REMARK    1  A    between atoms: C6_6  and  C9_9 
REMARK    2  A    between atoms: C7_7  and  O10_10 
REMARK    3  A    between atoms: C8_8  and  C9_9 
ROOT
HETATM    1  C1  UNL     1     -32.703  18.180  -1.012  1.00 20.00     0.012 C 
HETATM    2  C2  UNL     1     -33.493  17.485  -1.591  1.00 20.00    -0.117 C 
HETATM    3  C8  UNL     1     -34.463  16.635  -2.295  1.00 20.00     0.093 C 
ENDROOT
BRANCH   3   4
HETATM    4  C9  UNL     1     -33.817  15.985  -3.507  1.00 20.00     0.017 C 
BRANCH   4   5
HETATM    5  C6  UNL     1     -34.844  15.716  -4.594  1.00 20.00    -0.011 C 
HETATM    6  C3  UNL     1     -36.244  15.454  -4.042  1.00 20.00     0.007 C 
HETATM    7  C4  UNL     1     -36.934  14.748  -5.199  1.00 20.00     0.032 C 
HETATM    8  C7  UNL     1     -35.866  13.793  -5.719  1.00 20.00     0.118 C 
HETATM    9  C5  UNL     1     -34.521  14.474  -5.439  1.00 20.00     0.036 C 
BRANCH   8  10
HETATM   10  O10 UNL     1     -35.917  12.570  -4.991  1.00 20.00    -0.396 OA
HETATM   11  H24 UNL     1     -36.131  11.874  -5.632  1.00 20.00     0.210 HD
ENDBRANCH   8  10
ENDBRANCH   4   5
ENDBRANCH   3   4
TORSDOF 3
ENDMDL
MODEL 7
REMARK VINA RESULT:      -4.4     11.536     12.310
REMARK  3 active torsions:
REMARK  status: ('A' for Active; 'I' for Inactive)
REMARK    1  A    between atoms: C6_6  and  C9_9 
REMARK    2  A    between atoms: C7_7  and  O10_10 
REMARK    3  A    between atoms: C8_8  and  C9_9 
ROOT
HETATM    1  C1  UNL     1     -33.962  17.035  -2.071  1.00 20.00     0.012 C 
HETATM    2  C2  UNL     1     -33.681  16.348  -3.014  1.00 20.00    -0.117 C 
HETATM    3  C8  UNL     1     -33.336  15.502  -4.164  1.00 20.00     0.093 C 
ENDROOT
BRANCH   3   4
HETATM    4  C9  UNL     1     -33.604  16.240  -5.464  1.00 20.00     0.017 C 
BRANCH   4   5
HETATM    5  C6  UNL     1     -34.624  15.500  -6.312  1.00 20.00    -0.011 C 
HETATM    6  C3  UNL     1     -36.052  15.644  -5.791  1.00 20.00     0.007 C 
HETATM    7  C4  UNL     1     -36.770  14.476  -6.451  1.00 20.00     0.032 C 
HETATM    8  C7  UNL     1     -35.769  13.332  -6.332  1.00 20.00     0.118 C 
HETATM    9  C5  UNL     1     -34.381  13.983  -6.366  1.00 20.00     0.036 C 
BRANCH   8  10
HETATM   10  O10 UNL     1     -35.934  12.677  -5.078  1.00 20.00    -0.396 OA
HETATM   11  H24 UNL     1     -35.272  11.969  -5.046  1.00 20.00     0.210 HD
ENDBRANCH   8  10
ENDBRANCH   4   5
ENDBRANCH   3   4
TORSDOF 3
ENDMDL
MODEL 8
REMARK VINA RESULT:      -4.3     11.133     11.965
REMARK  3 active torsions:
REMARK  status: ('A' for Active; 'I' for Inactive)
REMARK    1  A    between atoms: C6_6  and  C9_9 
REMARK    2  A    between atoms: C7_7  and  O10_10 
REMARK    3  A    between atoms: C8_8  and  C9_9 
ROOT
HETATM    1  C1  UNL     1     -31.964  18.504  -0.187  1.00 20.00     0.012 C 
HETATM    2  C2  UNL     1     -32.842  18.138  -0.919  1.00 20.00    -0.117 C 
HETATM    3  C8  UNL     1     -33.921  17.688  -1.810  1.00 20.00     0.093 C 
ENDROOT
BRANCH   3   4
HETATM    4  C9  UNL     1     -33.479  17.773  -3.262  1.00 20.00     0.017 C 
BRANCH   4   5
HETATM    5  C6  UNL     1     -34.139  16.689  -4.097  1.00 20.00    -0.011 C 
HETATM    6  C3  UNL     1     -34.744  15.570  -3.253  1.00 20.00     0.007 C 
HETATM    7  C4  UNL     1     -34.875  14.429  -4.252  1.00 20.00     0.032 C 
HETATM    8  C7  UNL     1     -33.573  14.499  -5.041  1.00 20.00     0.118 C 
HETATM    9  C5  UNL     1     -33.162  15.976  -5.046  1.00 20.00     0.036 C 
BRANCH   8  10
HETATM   10  O10 UNL     1     -32.564  13.747  -4.373  1.00 20.00    -0.396 OA
HETATM   11  H24 UNL     1     -32.322  13.019  -4.966  1.00 20.00     0.210 HD
ENDBRANCH   8  10
ENDBRANCH   4   5
ENDBRANCH   3   4
TORSDOF 3
ENDMDL
MODEL 9
REMARK VINA RESULT:      -4.1     11.274     11.868
REMARK  3 active torsions:
REMARK  status: ('A' for Active; 'I' for Inactive)
REMARK    1  A    between atoms: C6_6  and  C9_9 
REMARK    2  A    between atoms: C7_7  and  O10_10 
REMARK    3  A    between atoms: C8_8  and  C9_9 
ROOT
HETATM    1  C1  UNL     1     -35.528  17.426  -0.168  1.00 20.00     0.012 C 
HETATM    2  C2  UNL     1     -34.571  17.385  -0.892  1.00 20.00    -0.117 C 
HETATM    3  C8  UNL     1     -33.397  17.336  -1.774  1.00 20.00     0.093 C 
ENDROOT
BRANCH   3   4
HETATM    4  C9  UNL     1     -33.821  17.054  -3.205  1.00 20.00     0.017 C 
BRANCH   4   5
HETATM    5  C6  UNL     1     -34.579  15.740  -3.301  1.00 20.00    -0.011 C 
HETATM    6  C3  UNL     1     -33.924  14.740  -4.251  1.00 20.00     0.007 C 
HETATM    7  C4  UNL     1     -35.060  13.776  -4.559  1.00 20.00     0.032 C 
HETATM    8  C7  UNL     1     -36.264  14.694  -4.742  1.00 20.00     0.118 C 
HETATM    9  C5  UNL     1     -36.011  15.904  -3.836  1.00 20.00     0.036 C 
BRANCH   8  10
HETATM   10  O10 UNL     1     -36.327  15.140  -6.092  1.00 20.00    -0.396 OA
HETATM   11  H24 UNL     1     -36.335  14.345  -6.648  1.00 20.00     0.210 HD
ENDBRANCH   8  10
ENDBRANCH   4   5
ENDBRANCH   3   4
TORSDOF 3
ENDMDL
