MODEL 1
REMARK VINA RESULT:      -5.2      0.000      0.000
REMARK  1 active torsions:
REMARK  status: ('A' for Active; 'I' for Inactive)
REMARK    1  A    between atoms: C8_8  and  C9_9 
ROOT
HETATM    1  C1  UNL     1     -33.051   5.995   2.153  1.00 20.00     0.006 C 
HETATM    2  C2  UNL     1     -33.641   5.157   3.292  1.00 20.00     0.020 C 
HETATM    3  C5  UNL     1     -33.485   7.401   4.085  1.00 20.00     0.025 C 
HETATM    4  C8  UNL     1     -33.181   7.463   2.587  1.00 20.00    -0.009 C 
HETATM    5  C10 UNL     1     -34.359   6.160   4.183  1.00 20.00     0.082 C 
HETATM    6 CL12 UNL     1     -34.526   5.586   5.848  1.00 20.00    -0.125 Cl
ENDROOT
BRANCH   4   7
HETATM    7  C9  UNL     1     -31.941   8.301   2.262  1.00 20.00    -0.006 C 
HETATM    8  C3  UNL     1     -32.122   9.764   2.686  1.00 20.00     0.031 C 
HETATM    9  C6  UNL     1     -33.026  10.531   1.726  1.00 20.00     0.168 C 
HETATM   10  O11 UNL     1     -32.541  10.432   0.388  1.00 20.00    -0.391 OA
HETATM   11  C7  UNL     1     -32.519   9.085  -0.081  1.00 20.00     0.168 C 
HETATM   12  C4  UNL     1     -31.587   8.231   0.772  1.00 20.00     0.031 C 
ENDBRANCH   4   7
TORSDOF 1
ENDMDL
MODEL 2
REMARK VINA RESULT:      -4.9      9.981     10.661
REMARK  1 active torsions:
REMARK  status: ('A' for Active; 'I' for Inactive)
REMARK    1  A    between atoms: C8_8  and  C9_9 
ROOT
HETATM    1  C1  UNL     1     -33.420  17.273  -1.957  1.00 20.00     0.006 C 
HETATM    2  C2  UNL     1     -34.009  17.988  -0.738  1.00 20.00     0.020 C 
HETATM    3  C5  UNL     1     -35.820  16.917  -1.861  1.00 20.00     0.025 C 
HETATM    4  C8  UNL     1     -34.546  16.398  -2.528  1.00 20.00    -0.009 C 
HETATM    5  C10 UNL     1     -35.328  17.279  -0.467  1.00 20.00     0.082 C 
HETATM    6 CL12 UNL     1     -36.478  18.299   0.408  1.00 20.00    -0.125 Cl
ENDROOT
BRANCH   4   7
HETATM    7  C9  UNL     1     -34.617  16.425  -4.057  1.00 20.00    -0.006 C 
HETATM    8  C3  UNL     1     -35.685  15.461  -4.591  1.00 20.00     0.031 C 
HETATM    9  C6  UNL     1     -35.227  14.008  -4.530  1.00 20.00     0.168 C 
HETATM   10  O11 UNL     1     -33.986  13.840  -5.213  1.00 20.00    -0.391 OA
HETATM   11  C7  UNL     1     -32.938  14.610  -4.627  1.00 20.00     0.168 C 
HETATM   12  C4  UNL     1     -33.259  16.099  -4.691  1.00 20.00     0.031 C 
ENDBRANCH   4   7
TORSDOF 1
ENDMDL
MODEL 3
REMARK VINA RESULT:      -4.9     10.288     10.982
REMARK  1 active torsions:
REMARK  status: ('A' for Active; 'I' for Inactive)
REMARK    1  A    between atoms: C8_8  and  C9_9 
ROOT
HETATM    1  C1  UNL     1     -35.560  16.676  -1.787  1.00 20.00     0.006 C 
HETATM    2  C2  UNL     1     -34.921  17.495  -0.661  1.00 20.00     0.020 C 
HETATM    3  C5  UNL     1     -33.224  17.108  -2.291  1.00 20.00     0.025 C 
HETATM    4  C8  UNL     1     -34.533  16.643  -2.929  1.00 20.00    -0.009 C 
HETATM    5  C10 UNL     1     -33.706  18.154  -1.297  1.00 20.00     0.082 C 
HETATM    6 CL12 UNL     1     -32.465  18.575  -0.108  1.00 20.00    -0.125 Cl
ENDROOT
BRANCH   4   7
HETATM    7  C9  UNL     1     -34.418  15.270  -3.598  1.00 20.00    -0.006 C 
HETATM    8  C3  UNL     1     -33.164  15.173  -4.477  1.00 20.00     0.031 C 
HETATM    9  C6  UNL     1     -33.329  15.921  -5.795  1.00 20.00     0.168 C 
HETATM   10  O11 UNL     1     -34.489  15.470  -6.491  1.00 20.00    -0.391 OA
HETATM   11  C7  UNL     1     -35.687  15.701  -5.752  1.00 20.00     0.168 C 
HETATM   12  C4  UNL     1     -35.663  14.941  -4.430  1.00 20.00     0.031 C 
ENDBRANCH   4   7
TORSDOF 1
ENDMDL
MODEL 4
REMARK VINA RESULT:      -4.7     10.518     11.208
REMARK  1 active torsions:
REMARK  status: ('A' for Active; 'I' for Inactive)
REMARK    1  A    between atoms: C8_8  and  C9_9 
ROOT
HETATM    1  C1  UNL     1     -35.241  17.508  -0.537  1.00 20.00     0.006 C 
HETATM    2  C2  UNL     1     -34.263  18.100   0.482  1.00 20.00     0.020 C 
HETATM    3  C5  UNL     1     -33.025  17.687  -1.514  1.00 20.00     0.025 C 
HETATM    4  C8  UNL     1     -34.494  17.474  -1.879  1.00 20.00    -0.009 C 
HETATM    5  C10 UNL     1     -33.122  18.665  -0.351  1.00 20.00     0.082 C 
HETATM    6 CL12 UNL     1     -31.610  18.779   0.560  1.00 20.00    -0.125 Cl
ENDROOT
BRANCH   4   7
HETATM    7  C9  UNL     1     -34.733  16.185  -2.671  1.00 20.00    -0.006 C 
HETATM    8  C3  UNL     1     -33.622  15.940  -3.700  1.00 20.00     0.031 C 
HETATM    9  C6  UNL     1     -33.761  16.843  -4.920  1.00 20.00     0.168 C 
HETATM   10  O11 UNL     1     -35.054  16.704  -5.507  1.00 20.00    -0.391 OA
HETATM   11  C7  UNL     1     -36.098  17.085  -4.611  1.00 20.00     0.168 C 
HETATM   12  C4  UNL     1     -36.097  16.197  -3.371  1.00 20.00     0.031 C 
ENDBRANCH   4   7
TORSDOF 1
ENDMDL
MODEL 5
REMARK VINA RESULT:      -4.6     10.370     11.029
REMARK  1 active torsions:
REMARK  status: ('A' for Active; 'I' for Inactive)
REMARK    1  A    between atoms: C8_8  and  C9_9 
ROOT
HETATM    1  C1  UNL     1     -33.703  16.284  -3.190  1.00 20.00     0.006 C 
HETATM    2  C2  UNL     1     -33.589  17.155  -1.936  1.00 20.00     0.020 C 
HETATM    3  C5  UNL     1     -35.915  16.904  -2.401  1.00 20.00     0.025 C 
HETATM    4  C8  UNL     1     -35.192  15.933  -3.336  1.00 20.00    -0.009 C 
HETATM    5  C10 UNL     1     -34.936  17.021  -1.242  1.00 20.00     0.082 C 
HETATM    6 CL12 UNL     1     -35.298  18.399  -0.193  1.00 20.00    -0.125 Cl
ENDROOT
BRANCH   4   7
HETATM    7  C9  UNL     1     -35.692  16.009  -4.781  1.00 20.00    -0.006 C 
HETATM    8  C3  UNL     1     -37.216  16.173  -4.844  1.00 20.00     0.031 C 
HETATM    9  C6  UNL     1     -37.946  14.868  -4.545  1.00 20.00     0.168 C 
HETATM   10  O11 UNL     1     -37.498  13.829  -5.414  1.00 20.00    -0.391 OA
HETATM   11  C7  UNL     1     -36.108  13.551  -5.252  1.00 20.00     0.168 C 
HETATM   12  C4  UNL     1     -35.268  14.778  -5.591  1.00 20.00     0.031 C 
ENDBRANCH   4   7
TORSDOF 1
ENDMDL
MODEL 6
REMARK VINA RESULT:      -4.4     10.122     11.261
REMARK  1 active torsions:
REMARK  status: ('A' for Active; 'I' for Inactive)
REMARK    1  A    between atoms: C8_8  and  C9_9 
ROOT
HETATM    1  C1  UNL     1     -33.579  17.352  -4.617  1.00 20.00     0.006 C 
HETATM    2  C2  UNL     1     -33.401  17.984  -3.233  1.00 20.00     0.020 C 
HETATM    3  C5  UNL     1     -34.902  16.148  -2.974  1.00 20.00     0.025 C 
HETATM    4  C8  UNL     1     -34.347  16.040  -4.394  1.00 20.00    -0.009 C 
HETATM    5  C10 UNL     1     -33.786  16.888  -2.249  1.00 20.00     0.082 C 
HETATM    6 CL12 UNL     1     -34.311  17.534  -0.689  1.00 20.00    -0.125 Cl
ENDROOT
BRANCH   4   7
HETATM    7  C9  UNL     1     -35.434  15.790  -5.444  1.00 20.00    -0.006 C 
HETATM    8  C3  UNL     1     -36.421  14.708  -4.989  1.00 20.00     0.031 C 
HETATM    9  C6  UNL     1     -35.831  13.307  -5.109  1.00 20.00     0.168 C 
HETATM   10  O11 UNL     1     -35.370  13.066  -6.437  1.00 20.00    -0.391 OA
HETATM   11  C7  UNL     1     -34.332  13.966  -6.820  1.00 20.00     0.168 C 
HETATM   12  C4  UNL     1     -34.831  15.407  -6.801  1.00 20.00     0.031 C 
ENDBRANCH   4   7
TORSDOF 1
ENDMDL
MODEL 7
REMARK VINA RESULT:      -4.4     10.605     11.250
REMARK  1 active torsions:
REMARK  status: ('A' for Active; 'I' for Inactive)
REMARK    1  A    between atoms: C8_8  and  C9_9 
ROOT
HETATM    1  C1  UNL     1     -35.477  16.904  -1.576  1.00 20.00     0.006 C 
HETATM    2  C2  UNL     1     -35.277  16.275  -2.958  1.00 20.00     0.020 C 
HETATM    3  C5  UNL     1     -33.268  17.446  -2.427  1.00 20.00     0.025 C 
HETATM    4  C8  UNL     1     -34.104  17.444  -1.147  1.00 20.00    -0.009 C 
HETATM    5  C10 UNL     1     -33.768  16.197  -3.138  1.00 20.00     0.082 C 
HETATM    6 CL12 UNL     1     -33.291  16.156  -4.841  1.00 20.00    -0.125 Cl
ENDROOT
BRANCH   4   7
HETATM    7  C9  UNL     1     -34.178  18.820  -0.479  1.00 20.00    -0.006 C 
HETATM    8  C3  UNL     1     -32.810  19.263   0.054  1.00 20.00     0.031 C 
HETATM    9  C6  UNL     1     -32.434  18.538   1.342  1.00 20.00     0.168 C 
HETATM   10  O11 UNL     1     -33.453  18.696   2.327  1.00 20.00    -0.391 OA
HETATM   11  C7  UNL     1     -34.699  18.141   1.910  1.00 20.00     0.168 C 
HETATM   12  C4  UNL     1     -35.211  18.842   0.655  1.00 20.00     0.031 C 
ENDBRANCH   4   7
TORSDOF 1
ENDMDL
MODEL 8
REMARK VINA RESULT:      -4.3     10.438     11.110
REMARK  1 active torsions:
REMARK  status: ('A' for Active; 'I' for Inactive)
REMARK    1  A    between atoms: C8_8  and  C9_9 
ROOT
HETATM    1  C1  UNL     1     -33.328  16.129  -4.589  1.00 20.00     0.006 C 
HETATM    2  C2  UNL     1     -33.762  14.999  -5.528  1.00 20.00     0.020 C 
HETATM    3  C5  UNL     1     -35.450  15.204  -3.855  1.00 20.00     0.025 C 
HETATM    4  C8  UNL     1     -34.526  16.408  -3.670  1.00 20.00    -0.009 C 
HETATM    5  C10 UNL     1     -35.267  14.884  -5.332  1.00 20.00     0.082 C 
HETATM    6 CL12 UNL     1     -35.884  13.281  -5.754  1.00 20.00    -0.125 Cl
ENDROOT
BRANCH   4   7
HETATM    7  C9  UNL     1     -34.127  16.638  -2.210  1.00 20.00    -0.006 C 
HETATM    8  C3  UNL     1     -35.355  16.864  -1.317  1.00 20.00     0.031 C 
HETATM    9  C6  UNL     1     -35.939  18.262  -1.490  1.00 20.00     0.168 C 
HETATM   10  O11 UNL     1     -34.942  19.257  -1.266  1.00 20.00    -0.391 OA
HETATM   11  C7  UNL     1     -33.865  19.161  -2.196  1.00 20.00     0.168 C 
HETATM   12  C4  UNL     1     -33.157  17.816  -2.067  1.00 20.00     0.031 C 
ENDBRANCH   4   7
TORSDOF 1
ENDMDL
MODEL 9
REMARK VINA RESULT:      -4.0     10.250     11.093
REMARK  1 active torsions:
REMARK  status: ('A' for Active; 'I' for Inactive)
REMARK    1  A    between atoms: C8_8  and  C9_9 
ROOT
HETATM    1  C1  UNL     1     -36.002  16.433  -2.778  1.00 20.00     0.006 C 
HETATM    2  C2  UNL     1     -35.819  15.444  -3.933  1.00 20.00     0.020 C 
HETATM    3  C5  UNL     1     -33.662  16.322  -3.417  1.00 20.00     0.025 C 
HETATM    4  C8  UNL     1     -34.589  16.804  -2.302  1.00 20.00    -0.009 C 
HETATM    5  C10 UNL     1     -34.351  15.045  -3.878  1.00 20.00     0.082 C 
HETATM    6 CL12 UNL     1     -33.745  14.480  -5.441  1.00 20.00    -0.125 Cl
ENDROOT
BRANCH   4   7
HETATM    7  C9  UNL     1     -34.428  18.294  -1.991  1.00 20.00    -0.006 C 
HETATM    8  C3  UNL     1     -32.950  18.700  -1.921  1.00 20.00     0.031 C 
HETATM    9  C6  UNL     1     -32.293  18.248  -0.621  1.00 20.00     0.168 C 
HETATM   10  O11 UNL     1     -33.019  18.730   0.507  1.00 20.00    -0.391 OA
HETATM   11  C7  UNL     1     -34.355  18.230   0.544  1.00 20.00     0.168 C 
HETATM   12  C4  UNL     1     -35.136  18.680  -0.687  1.00 20.00     0.031 C 
ENDBRANCH   4   7
TORSDOF 1
ENDMDL
