MODEL 1
REMARK VINA RESULT:      -5.9      0.000      0.000
REMARK  6 active torsions:
REMARK  status: ('A' for Active; 'I' for Inactive)
REMARK    1  A    between atoms: C4_4  and  C6_6 
REMARK    2  A    between atoms: C5_5  and  C9_9 
REMARK    3  A    between atoms: C6_6  and  C7_7 
REMARK    4  A    between atoms: C7_7  and  C8_8 
REMARK    5  A    between atoms: C8_8  and  C9_9 
REMARK    6  A    between atoms: C9_9  and  O10_10 
ROOT
HETATM    1  C1  UNL     1     -33.692   7.435   6.142  1.00 20.00     0.012 C 
HETATM    2  C2  UNL     1     -34.161   6.436   5.671  1.00 20.00    -0.117 C 
HETATM    3  C4  UNL     1     -34.738   5.212   5.095  1.00 20.00     0.093 C 
ENDROOT
BRANCH   3   4
HETATM    4  C6  UNL     1     -34.091   4.880   3.749  1.00 20.00     0.012 C 
BRANCH   4   5
HETATM    5  C7  UNL     1     -34.004   6.082   2.804  1.00 20.00     0.003 C 
BRANCH   5   6
HETATM    6  C8  UNL     1     -32.566   6.537   2.530  1.00 20.00     0.032 C 
BRANCH   6   7
HETATM    7  C9  UNL     1     -32.406   8.057   2.666  1.00 20.00     0.117 C 
BRANCH   7   8
HETATM    8  C5  UNL     1     -32.018   8.695   1.326  1.00 20.00     0.027 C 
HETATM    9  C3  UNL     1     -32.699  10.040   1.108  1.00 20.00     0.007 C 
ENDBRANCH   7   8
BRANCH   7  10
HETATM   10  O10 UNL     1     -31.407   8.346   3.641  1.00 20.00    -0.396 OA
HETATM   11  H26 UNL     1     -31.873   8.512   4.475  1.00 20.00     0.210 HD
ENDBRANCH   7  10
ENDBRANCH   6   7
ENDBRANCH   5   6
ENDBRANCH   4   5
ENDBRANCH   3   4
TORSDOF 6
ENDMDL
MODEL 2
REMARK VINA RESULT:      -5.8      1.726      4.754
REMARK  6 active torsions:
REMARK  status: ('A' for Active; 'I' for Inactive)
REMARK    1  A    between atoms: C4_4  and  C6_6 
REMARK    2  A    between atoms: C5_5  and  C9_9 
REMARK    3  A    between atoms: C6_6  and  C7_7 
REMARK    4  A    between atoms: C7_7  and  C8_8 
REMARK    5  A    between atoms: C8_8  and  C9_9 
REMARK    6  A    between atoms: C9_9  and  O10_10 
ROOT
HETATM    1  C1  UNL     1     -32.889  10.487   1.086  1.00 20.00     0.012 C 
HETATM    2  C2  UNL     1     -32.353   9.448   1.360  1.00 20.00    -0.117 C 
HETATM    3  C4  UNL     1     -31.694   8.177   1.695  1.00 20.00     0.093 C 
ENDROOT
BRANCH   3   4
HETATM    4  C6  UNL     1     -32.186   7.640   3.040  1.00 20.00     0.012 C 
BRANCH   4   5
HETATM    5  C7  UNL     1     -32.984   6.339   2.921  1.00 20.00     0.003 C 
BRANCH   5   6
HETATM    6  C8  UNL     1     -34.413   6.449   3.462  1.00 20.00     0.032 C 
BRANCH   6   7
HETATM    7  C9  UNL     1     -34.780   5.269   4.371  1.00 20.00     0.117 C 
BRANCH   7   8
HETATM    8  C5  UNL     1     -34.431   5.568   5.835  1.00 20.00     0.027 C 
HETATM    9  C3  UNL     1     -34.027   7.021   6.047  1.00 20.00     0.007 C 
ENDBRANCH   7   8
BRANCH   7  10
HETATM   10  O10 UNL     1     -34.082   4.102   3.942  1.00 20.00    -0.396 OA
HETATM   11  H26 UNL     1     -33.849   4.246   3.012  1.00 20.00     0.210 HD
ENDBRANCH   7  10
ENDBRANCH   6   7
ENDBRANCH   5   6
ENDBRANCH   4   5
ENDBRANCH   3   4
TORSDOF 6
ENDMDL
MODEL 3
REMARK VINA RESULT:      -5.6      1.434      5.009
REMARK  6 active torsions:
REMARK  status: ('A' for Active; 'I' for Inactive)
REMARK    1  A    between atoms: C4_4  and  C6_6 
REMARK    2  A    between atoms: C5_5  and  C9_9 
REMARK    3  A    between atoms: C6_6  and  C7_7 
REMARK    4  A    between atoms: C7_7  and  C8_8 
REMARK    5  A    between atoms: C8_8  and  C9_9 
REMARK    6  A    between atoms: C9_9  and  O10_10 
ROOT
HETATM    1  C1  UNL     1     -33.248   9.564  -0.370  1.00 20.00     0.012 C 
HETATM    2  C2  UNL     1     -32.434   9.145   0.406  1.00 20.00    -0.117 C 
HETATM    3  C4  UNL     1     -31.434   8.633   1.356  1.00 20.00     0.093 C 
ENDROOT
BRANCH   3   4
HETATM    4  C6  UNL     1     -32.073   8.318   2.709  1.00 20.00     0.012 C 
BRANCH   4   5
HETATM    5  C7  UNL     1     -32.809   6.975   2.737  1.00 20.00     0.003 C 
BRANCH   5   6
HETATM    6  C8  UNL     1     -34.043   6.976   3.647  1.00 20.00     0.032 C 
BRANCH   6   7
HETATM    7  C9  UNL     1     -33.702   6.549   5.081  1.00 20.00     0.117 C 
BRANCH   7   8
HETATM    8  C5  UNL     1     -34.552   5.350   5.518  1.00 20.00     0.027 C 
HETATM    9  C3  UNL     1     -34.459   4.188   4.538  1.00 20.00     0.007 C 
ENDBRANCH   7   8
BRANCH   7  10
HETATM   10  O10 UNL     1     -33.923   7.642   5.969  1.00 20.00    -0.396 OA
HETATM   11  H26 UNL     1     -34.052   8.428   5.415  1.00 20.00     0.210 HD
ENDBRANCH   7  10
ENDBRANCH   6   7
ENDBRANCH   5   6
ENDBRANCH   4   5
ENDBRANCH   3   4
TORSDOF 6
ENDMDL
MODEL 4
REMARK VINA RESULT:      -5.6      1.635      5.093
REMARK  6 active torsions:
REMARK  status: ('A' for Active; 'I' for Inactive)
REMARK    1  A    between atoms: C4_4  and  C6_6 
REMARK    2  A    between atoms: C5_5  and  C9_9 
REMARK    3  A    between atoms: C6_6  and  C7_7 
REMARK    4  A    between atoms: C7_7  and  C8_8 
REMARK    5  A    between atoms: C8_8  and  C9_9 
REMARK    6  A    between atoms: C9_9  and  O10_10 
ROOT
HETATM    1  C1  UNL     1     -33.342   9.530  -0.608  1.00 20.00     0.012 C 
HETATM    2  C2  UNL     1     -32.504   9.187   0.180  1.00 20.00    -0.117 C 
HETATM    3  C4  UNL     1     -31.475   8.767   1.144  1.00 20.00     0.093 C 
ENDROOT
BRANCH   3   4
HETATM    4  C6  UNL     1     -32.060   8.643   2.552  1.00 20.00     0.012 C 
BRANCH   4   5
HETATM    5  C7  UNL     1     -32.231   7.193   3.014  1.00 20.00     0.003 C 
BRANCH   5   6
HETATM    6  C8  UNL     1     -33.606   6.909   3.630  1.00 20.00     0.032 C 
BRANCH   6   7
HETATM    7  C9  UNL     1     -34.114   5.503   3.285  1.00 20.00     0.117 C 
BRANCH   7   8
HETATM    8  C5  UNL     1     -34.626   4.777   4.535  1.00 20.00     0.027 C 
HETATM    9  C3  UNL     1     -34.539   5.645   5.784  1.00 20.00     0.007 C 
ENDBRANCH   7   8
BRANCH   7  10
HETATM   10  O10 UNL     1     -33.061   4.748   2.691  1.00 20.00    -0.396 OA
HETATM   11  H26 UNL     1     -33.249   3.815   2.880  1.00 20.00     0.210 HD
ENDBRANCH   7  10
ENDBRANCH   6   7
ENDBRANCH   5   6
ENDBRANCH   4   5
ENDBRANCH   3   4
TORSDOF 6
ENDMDL
MODEL 5
REMARK VINA RESULT:      -5.5      1.356      1.836
REMARK  6 active torsions:
REMARK  status: ('A' for Active; 'I' for Inactive)
REMARK    1  A    between atoms: C4_4  and  C6_6 
REMARK    2  A    between atoms: C5_5  and  C9_9 
REMARK    3  A    between atoms: C6_6  and  C7_7 
REMARK    4  A    between atoms: C7_7  and  C8_8 
REMARK    5  A    between atoms: C8_8  and  C9_9 
REMARK    6  A    between atoms: C9_9  and  O10_10 
ROOT
HETATM    1  C1  UNL     1     -34.599   5.078   5.956  1.00 20.00     0.012 C 
HETATM    2  C2  UNL     1     -34.696   5.516   4.842  1.00 20.00    -0.117 C 
HETATM    3  C4  UNL     1     -34.817   6.055   3.479  1.00 20.00     0.093 C 
ENDROOT
BRANCH   3   4
HETATM    4  C6  UNL     1     -33.574   5.733   2.649  1.00 20.00     0.012 C 
BRANCH   4   5
HETATM    5  C7  UNL     1     -32.460   6.774   2.791  1.00 20.00     0.003 C 
BRANCH   5   6
HETATM    6  C8  UNL     1     -32.968   8.219   2.736  1.00 20.00     0.032 C 
BRANCH   6   7
HETATM    7  C9  UNL     1     -32.065   9.116   1.880  1.00 20.00     0.117 C 
BRANCH   7   8
HETATM    8  C5  UNL     1     -32.895  10.060   1.001  1.00 20.00     0.027 C 
HETATM    9  C3  UNL     1     -33.142   9.488  -0.389  1.00 20.00     0.007 C 
ENDBRANCH   7   8
BRANCH   7  10
HETATM   10  O10 UNL     1     -31.231   8.305   1.056  1.00 20.00    -0.396 OA
HETATM   11  H26 UNL     1     -30.326   8.635   1.169  1.00 20.00     0.210 HD
ENDBRANCH   7  10
ENDBRANCH   6   7
ENDBRANCH   5   6
ENDBRANCH   4   5
ENDBRANCH   3   4
TORSDOF 6
ENDMDL
MODEL 6
REMARK VINA RESULT:      -5.5      0.827      1.785
REMARK  6 active torsions:
REMARK  status: ('A' for Active; 'I' for Inactive)
REMARK    1  A    between atoms: C4_4  and  C6_6 
REMARK    2  A    between atoms: C5_5  and  C9_9 
REMARK    3  A    between atoms: C6_6  and  C7_7 
REMARK    4  A    between atoms: C7_7  and  C8_8 
REMARK    5  A    between atoms: C8_8  and  C9_9 
REMARK    6  A    between atoms: C9_9  and  O10_10 
ROOT
HETATM    1  C1  UNL     1     -34.376   3.858   4.482  1.00 20.00     0.012 C 
HETATM    2  C2  UNL     1     -34.384   4.872   5.125  1.00 20.00    -0.117 C 
HETATM    3  C4  UNL     1     -34.394   6.113   5.915  1.00 20.00     0.093 C 
ENDROOT
BRANCH   3   4
HETATM    4  C6  UNL     1     -33.717   7.254   5.153  1.00 20.00     0.012 C 
BRANCH   4   5
HETATM    5  C7  UNL     1     -34.076   7.289   3.665  1.00 20.00     0.003 C 
BRANCH   5   6
HETATM    6  C8  UNL     1     -32.859   7.157   2.743  1.00 20.00     0.032 C 
BRANCH   6   7
HETATM    7  C9  UNL     1     -32.090   8.478   2.608  1.00 20.00     0.117 C 
BRANCH   7   8
HETATM    8  C5  UNL     1     -31.823   8.815   1.136  1.00 20.00     0.027 C 
HETATM    9  C3  UNL     1     -32.542  10.083   0.693  1.00 20.00     0.007 C 
ENDBRANCH   7   8
BRANCH   7  10
HETATM   10  O10 UNL     1     -30.853   8.384   3.309  1.00 20.00    -0.396 OA
HETATM   11  H26 UNL     1     -30.803   7.482   3.662  1.00 20.00     0.210 HD
ENDBRANCH   7  10
ENDBRANCH   6   7
ENDBRANCH   5   6
ENDBRANCH   4   5
ENDBRANCH   3   4
TORSDOF 6
ENDMDL
MODEL 7
REMARK VINA RESULT:      -5.4      1.838      5.171
REMARK  6 active torsions:
REMARK  status: ('A' for Active; 'I' for Inactive)
REMARK    1  A    between atoms: C4_4  and  C6_6 
REMARK    2  A    between atoms: C5_5  and  C9_9 
REMARK    3  A    between atoms: C6_6  and  C7_7 
REMARK    4  A    between atoms: C7_7  and  C8_8 
REMARK    5  A    between atoms: C8_8  and  C9_9 
REMARK    6  A    between atoms: C9_9  and  O10_10 
ROOT
HETATM    1  C1  UNL     1     -33.248   9.501  -0.768  1.00 20.00     0.012 C 
HETATM    2  C2  UNL     1     -32.759   9.560   0.327  1.00 20.00    -0.117 C 
HETATM    3  C4  UNL     1     -32.162   9.636   1.669  1.00 20.00     0.093 C 
ENDROOT
BRANCH   3   4
HETATM    4  C6  UNL     1     -31.585   8.283   2.090  1.00 20.00     0.012 C 
BRANCH   4   5
HETATM    5  C7  UNL     1     -32.204   7.731   3.377  1.00 20.00     0.003 C 
BRANCH   5   6
HETATM    6  C8  UNL     1     -33.232   6.621   3.131  1.00 20.00     0.032 C 
BRANCH   6   7
HETATM    7  C9  UNL     1     -34.453   6.751   4.051  1.00 20.00     0.117 C 
BRANCH   7   8
HETATM    8  C5  UNL     1     -34.098   6.385   5.498  1.00 20.00     0.027 C 
HETATM    9  C3  UNL     1     -34.527   4.968   5.856  1.00 20.00     0.007 C 
ENDBRANCH   7   8
BRANCH   7  10
HETATM   10  O10 UNL     1     -35.496   5.899   3.584  1.00 20.00    -0.396 OA
HETATM   11  H26 UNL     1     -36.100   5.766   4.331  1.00 20.00     0.210 HD
ENDBRANCH   7  10
ENDBRANCH   6   7
ENDBRANCH   5   6
ENDBRANCH   4   5
ENDBRANCH   3   4
TORSDOF 6
ENDMDL
MODEL 8
REMARK VINA RESULT:      -5.4      1.313      2.096
REMARK  6 active torsions:
REMARK  status: ('A' for Active; 'I' for Inactive)
REMARK    1  A    between atoms: C4_4  and  C6_6 
REMARK    2  A    between atoms: C5_5  and  C9_9 
REMARK    3  A    between atoms: C6_6  and  C7_7 
REMARK    4  A    between atoms: C7_7  and  C8_8 
REMARK    5  A    between atoms: C8_8  and  C9_9 
REMARK    6  A    between atoms: C9_9  and  O10_10 
ROOT
HETATM    1  C1  UNL     1     -34.690   4.670   5.233  1.00 20.00     0.012 C 
HETATM    2  C2  UNL     1     -34.342   5.777   5.544  1.00 20.00    -0.117 C 
HETATM    3  C4  UNL     1     -33.917   7.131   5.929  1.00 20.00     0.093 C 
ENDROOT
BRANCH   3   4
HETATM    4  C6  UNL     1     -32.958   7.720   4.892  1.00 20.00     0.012 C 
BRANCH   4   5
HETATM    5  C7  UNL     1     -33.491   7.647   3.459  1.00 20.00     0.003 C 
BRANCH   5   6
HETATM    6  C8  UNL     1     -32.392   7.432   2.412  1.00 20.00     0.032 C 
BRANCH   6   7
HETATM    7  C9  UNL     1     -31.916   8.755   1.796  1.00 20.00     0.117 C 
BRANCH   7   8
HETATM    8  C5  UNL     1     -33.096   9.565   1.245  1.00 20.00     0.027 C 
HETATM    9  C3  UNL     1     -33.116   9.595  -0.278  1.00 20.00     0.007 C 
ENDBRANCH   7   8
BRANCH   7  10
HETATM   10  O10 UNL     1     -30.989   8.486   0.747  1.00 20.00    -0.396 OA
HETATM   11  H26 UNL     1     -30.108   8.691   1.097  1.00 20.00     0.210 HD
ENDBRANCH   7  10
ENDBRANCH   6   7
ENDBRANCH   5   6
ENDBRANCH   4   5
ENDBRANCH   3   4
TORSDOF 6
ENDMDL
MODEL 9
REMARK VINA RESULT:      -4.3     10.812     11.592
REMARK  6 active torsions:
REMARK  status: ('A' for Active; 'I' for Inactive)
REMARK    1  A    between atoms: C4_4  and  C6_6 
REMARK    2  A    between atoms: C5_5  and  C9_9 
REMARK    3  A    between atoms: C6_6  and  C7_7 
REMARK    4  A    between atoms: C7_7  and  C8_8 
REMARK    5  A    between atoms: C8_8  and  C9_9 
REMARK    6  A    between atoms: C9_9  and  O10_10 
ROOT
HETATM    1  C1  UNL     1     -35.039  17.400  -0.578  1.00 20.00     0.012 C 
HETATM    2  C2  UNL     1     -35.210  16.842  -1.627  1.00 20.00    -0.117 C 
HETATM    3  C4  UNL     1     -35.423  16.161  -2.913  1.00 20.00     0.093 C 
ENDROOT
BRANCH   3   4
HETATM    4  C6  UNL     1     -34.091  15.730  -3.532  1.00 20.00     0.012 C 
BRANCH   4   5
HETATM    5  C7  UNL     1     -34.136  14.335  -4.162  1.00 20.00     0.003 C 
BRANCH   5   6
HETATM    6  C8  UNL     1     -34.404  14.357  -5.671  1.00 20.00     0.032 C 
BRANCH   6   7
HETATM    7  C9  UNL     1     -35.659  13.557  -6.046  1.00 20.00     0.117 C 
BRANCH   7   8
HETATM    8  C5  UNL     1     -36.854  14.485  -6.294  1.00 20.00     0.027 C 
HETATM    9  C3  UNL     1     -37.878  14.422  -5.168  1.00 20.00     0.007 C 
ENDBRANCH   7   8
BRANCH   7  10
HETATM   10  O10 UNL     1     -35.972  12.643  -4.998  1.00 20.00    -0.396 OA
HETATM   11  H26 UNL     1     -35.154  12.163  -4.795  1.00 20.00     0.210 HD
ENDBRANCH   7  10
ENDBRANCH   6   7
ENDBRANCH   5   6
ENDBRANCH   4   5
ENDBRANCH   3   4
TORSDOF 6
ENDMDL
