MODEL 1
REMARK VINA RESULT:      -6.2      0.000      0.000
REMARK  3 active torsions:
REMARK  status: ('A' for Active; 'I' for Inactive)
REMARK    1  A    between atoms: C4_4  and  C7_7 
REMARK    2  A    between atoms: C7_7  and  C9_9 
REMARK    3  A    between atoms: C8_8  and  C9_9 
ROOT
HETATM    1  C1  UNL     1     -33.191   7.137   4.996  1.00 20.00     0.006 C 
HETATM    2  C2  UNL     1     -34.380   6.473   5.694  1.00 20.00     0.020 C 
HETATM    3  C3  UNL     1     -34.727   6.173   3.362  1.00 20.00     0.024 C 
HETATM    4  C4  UNL     1     -33.358   6.851   3.496  1.00 20.00    -0.013 C 
HETATM    5  C5  UNL     1     -34.925   5.461   4.695  1.00 20.00     0.082 C 
HETATM    6 CL10 UNL     1     -33.991   3.940   4.758  1.00 20.00    -0.125 Cl
ENDROOT
BRANCH   4   7
HETATM    7  C7  UNL     1     -33.236   8.098   2.633  1.00 20.00     0.005 C 
BRANCH   7   8
HETATM    8  C9  UNL     1     -31.811   8.278   2.109  1.00 20.00     0.000 C 
BRANCH   8   9
HETATM    9  C8  UNL     1     -31.800   9.049   0.789  1.00 20.00    -0.005 C 
HETATM   10  C6  UNL     1     -32.660  10.300   0.866  1.00 20.00     0.005 C 
ENDBRANCH   8   9
ENDBRANCH   7   8
ENDBRANCH   4   7
TORSDOF 3
ENDMDL
MODEL 2
REMARK VINA RESULT:      -5.7      1.429      1.948
REMARK  3 active torsions:
REMARK  status: ('A' for Active; 'I' for Inactive)
REMARK    1  A    between atoms: C4_4  and  C7_7 
REMARK    2  A    between atoms: C7_7  and  C9_9 
REMARK    3  A    between atoms: C8_8  and  C9_9 
ROOT
HETATM    1  C1  UNL     1     -32.917   6.019   2.276  1.00 20.00     0.006 C 
HETATM    2  C2  UNL     1     -33.403   4.993   3.303  1.00 20.00     0.020 C 
HETATM    3  C3  UNL     1     -33.497   7.109   4.382  1.00 20.00     0.024 C 
HETATM    4  C4  UNL     1     -33.079   7.398   2.935  1.00 20.00    -0.013 C 
HETATM    5  C5  UNL     1     -34.242   5.781   4.300  1.00 20.00     0.082 C 
HETATM    6 CL10 UNL     1     -35.904   6.013   3.689  1.00 20.00    -0.125 Cl
ENDROOT
BRANCH   4   7
HETATM    7  C7  UNL     1     -31.823   8.252   2.848  1.00 20.00     0.005 C 
BRANCH   7   8
HETATM    8  C9  UNL     1     -31.542   8.686   1.410  1.00 20.00     0.000 C 
BRANCH   8   9
HETATM    9  C8  UNL     1     -32.521   9.770   0.957  1.00 20.00    -0.005 C 
HETATM   10  C6  UNL     1     -33.152   9.426  -0.383  1.00 20.00     0.005 C 
ENDBRANCH   8   9
ENDBRANCH   7   8
ENDBRANCH   4   7
TORSDOF 3
ENDMDL
MODEL 3
REMARK VINA RESULT:      -5.3      2.499      4.852
REMARK  3 active torsions:
REMARK  status: ('A' for Active; 'I' for Inactive)
REMARK    1  A    between atoms: C4_4  and  C7_7 
REMARK    2  A    between atoms: C7_7  and  C9_9 
REMARK    3  A    between atoms: C8_8  and  C9_9 
ROOT
HETATM    1  C1  UNL     1     -32.569   8.044   4.233  1.00 20.00     0.006 C 
HETATM    2  C2  UNL     1     -31.321   8.226   3.367  1.00 20.00     0.020 C 
HETATM    3  C3  UNL     1     -33.025   7.426   1.917  1.00 20.00     0.024 C 
HETATM    4  C4  UNL     1     -33.700   7.630   3.278  1.00 20.00    -0.013 C 
HETATM    5  C5  UNL     1     -31.833   8.376   1.940  1.00 20.00     0.082 C 
HETATM    6 CL10 UNL     1     -32.345  10.057   1.623  1.00 20.00    -0.125 Cl
ENDROOT
BRANCH   4   7
HETATM    7  C7  UNL     1     -34.456   6.396   3.748  1.00 20.00     0.005 C 
BRANCH   7   8
HETATM    8  C9  UNL     1     -34.406   6.256   5.269  1.00 20.00     0.000 C 
BRANCH   8   9
HETATM    9  C8  UNL     1     -34.458   4.788   5.693  1.00 20.00    -0.005 C 
HETATM   10  C6  UNL     1     -34.182   3.861   4.520  1.00 20.00     0.005 C 
ENDBRANCH   8   9
ENDBRANCH   7   8
ENDBRANCH   4   7
TORSDOF 3
ENDMDL
MODEL 4
REMARK VINA RESULT:      -5.2      2.496      4.821
REMARK  3 active torsions:
REMARK  status: ('A' for Active; 'I' for Inactive)
REMARK    1  A    between atoms: C4_4  and  C7_7 
REMARK    2  A    between atoms: C7_7  and  C9_9 
REMARK    3  A    between atoms: C8_8  and  C9_9 
ROOT
HETATM    1  C1  UNL     1     -32.227   7.990   3.647  1.00 20.00     0.006 C 
HETATM    2  C2  UNL     1     -31.185   8.665   2.752  1.00 20.00     0.020 C 
HETATM    3  C3  UNL     1     -32.695   7.551   1.292  1.00 20.00     0.024 C 
HETATM    4  C4  UNL     1     -33.264   7.361   2.703  1.00 20.00    -0.013 C 
HETATM    5  C5  UNL     1     -31.855   8.820   1.392  1.00 20.00     0.082 C 
HETATM    6 CL10 UNL     1     -32.886  10.278   1.355  1.00 20.00    -0.125 Cl
ENDROOT
BRANCH   4   7
HETATM    7  C7  UNL     1     -33.556   5.903   3.024  1.00 20.00     0.005 C 
BRANCH   7   8
HETATM    8  C9  UNL     1     -34.893   5.748   3.749  1.00 20.00     0.000 C 
BRANCH   8   9
HETATM    9  C8  UNL     1     -34.689   5.320   5.203  1.00 20.00    -0.005 C 
HETATM   10  C6  UNL     1     -34.247   6.488   6.069  1.00 20.00     0.005 C 
ENDBRANCH   8   9
ENDBRANCH   7   8
ENDBRANCH   4   7
TORSDOF 3
ENDMDL
MODEL 5
REMARK VINA RESULT:      -5.0      2.587      5.102
REMARK  3 active torsions:
REMARK  status: ('A' for Active; 'I' for Inactive)
REMARK    1  A    between atoms: C4_4  and  C7_7 
REMARK    2  A    between atoms: C7_7  and  C9_9 
REMARK    3  A    between atoms: C8_8  and  C9_9 
ROOT
HETATM    1  C1  UNL     1     -33.361   9.609   2.307  1.00 20.00     0.006 C 
HETATM    2  C2  UNL     1     -32.666  10.545   1.316  1.00 20.00     0.020 C 
HETATM    3  C3  UNL     1     -31.510   8.472   1.194  1.00 20.00     0.024 C 
HETATM    4  C4  UNL     1     -32.685   8.238   2.152  1.00 20.00    -0.013 C 
HETATM    5  C5  UNL     1     -31.965   9.633   0.317  1.00 20.00     0.082 C 
HETATM    6 CL10 UNL     1     -33.102   9.080  -0.944  1.00 20.00    -0.125 Cl
ENDROOT
BRANCH   4   7
HETATM    7  C7  UNL     1     -32.247   7.635   3.478  1.00 20.00     0.005 C 
BRANCH   7   8
HETATM    8  C9  UNL     1     -33.449   7.249   4.340  1.00 20.00     0.000 C 
BRANCH   8   9
HETATM    9  C8  UNL     1     -34.312   6.193   3.647  1.00 20.00    -0.005 C 
HETATM   10  C6  UNL     1     -34.726   5.093   4.611  1.00 20.00     0.005 C 
ENDBRANCH   8   9
ENDBRANCH   7   8
ENDBRANCH   4   7
TORSDOF 3
ENDMDL
MODEL 6
REMARK VINA RESULT:      -4.7      2.773      5.235
REMARK  3 active torsions:
REMARK  status: ('A' for Active; 'I' for Inactive)
REMARK    1  A    between atoms: C4_4  and  C7_7 
REMARK    2  A    between atoms: C7_7  and  C9_9 
REMARK    3  A    between atoms: C8_8  and  C9_9 
ROOT
HETATM    1  C1  UNL     1     -31.473   8.330   1.179  1.00 20.00     0.006 C 
HETATM    2  C2  UNL     1     -32.146   9.306   0.211  1.00 20.00     0.020 C 
HETATM    3  C3  UNL     1     -33.587   9.138   2.093  1.00 20.00     0.024 C 
HETATM    4  C4  UNL     1     -32.349   8.303   2.441  1.00 20.00    -0.013 C 
HETATM    5  C5  UNL     1     -33.085  10.146   1.066  1.00 20.00     0.082 C 
HETATM    6 CL10 UNL     1     -32.200  11.482   1.856  1.00 20.00    -0.125 Cl
ENDROOT
BRANCH   4   7
HETATM    7  C7  UNL     1     -32.701   6.894   2.893  1.00 20.00     0.005 C 
BRANCH   7   8
HETATM    8  C9  UNL     1     -33.741   6.910   4.014  1.00 20.00     0.000 C 
BRANCH   8   9
HETATM    9  C8  UNL     1     -34.827   5.860   3.777  1.00 20.00    -0.005 C 
HETATM   10  C6  UNL     1     -34.539   4.579   4.543  1.00 20.00     0.005 C 
ENDBRANCH   8   9
ENDBRANCH   7   8
ENDBRANCH   4   7
TORSDOF 3
ENDMDL
MODEL 7
REMARK VINA RESULT:      -4.3     10.791     11.841
REMARK  3 active torsions:
REMARK  status: ('A' for Active; 'I' for Inactive)
REMARK    1  A    between atoms: C4_4  and  C7_7 
REMARK    2  A    between atoms: C7_7  and  C9_9 
REMARK    3  A    between atoms: C8_8  and  C9_9 
ROOT
HETATM    1  C1  UNL     1     -34.554  14.000  -4.116  1.00 20.00     0.006 C 
HETATM    2  C2  UNL     1     -35.729  13.728  -5.057  1.00 20.00     0.020 C 
HETATM    3  C3  UNL     1     -34.773  15.784  -5.768  1.00 20.00     0.024 C 
HETATM    4  C4  UNL     1     -33.869  15.273  -4.639  1.00 20.00    -0.013 C 
HETATM    5  C5  UNL     1     -35.434  14.527  -6.320  1.00 20.00     0.082 C 
HETATM    6 CL10 UNL     1     -34.319  13.632  -7.391  1.00 20.00    -0.125 Cl
ENDROOT
BRANCH   4   7
HETATM    7  C7  UNL     1     -33.639  16.315  -3.556  1.00 20.00     0.005 C 
BRANCH   7   8
HETATM    8  C9  UNL     1     -34.803  16.358  -2.566  1.00 20.00     0.000 C 
BRANCH   8   9
HETATM    9  C8  UNL     1     -34.444  17.172  -1.322  1.00 20.00    -0.005 C 
HETATM   10  C6  UNL     1     -33.068  17.806  -1.451  1.00 20.00     0.005 C 
ENDBRANCH   8   9
ENDBRANCH   7   8
ENDBRANCH   4   7
TORSDOF 3
ENDMDL
MODEL 8
REMARK VINA RESULT:      -4.2     11.118     11.829
REMARK  3 active torsions:
REMARK  status: ('A' for Active; 'I' for Inactive)
REMARK    1  A    between atoms: C4_4  and  C7_7 
REMARK    2  A    between atoms: C7_7  and  C9_9 
REMARK    3  A    between atoms: C8_8  and  C9_9 
ROOT
HETATM    1  C1  UNL     1     -35.122  16.773  -1.529  1.00 20.00     0.006 C 
HETATM    2  C2  UNL     1     -35.912  16.658  -2.835  1.00 20.00     0.020 C 
HETATM    3  C3  UNL     1     -33.670  17.148  -3.454  1.00 20.00     0.024 C 
HETATM    4  C4  UNL     1     -33.654  16.983  -1.930  1.00 20.00    -0.013 C 
HETATM    5  C5  UNL     1     -34.879  16.338  -3.908  1.00 20.00     0.082 C 
HETATM    6 CL10 UNL     1     -34.510  14.591  -3.933  1.00 20.00    -0.125 Cl
ENDROOT
BRANCH   4   7
HETATM    7  C7  UNL     1     -33.004  18.161  -1.221  1.00 20.00     0.005 C 
BRANCH   7   8
HETATM    8  C9  UNL     1     -33.786  18.561   0.030  1.00 20.00     0.000 C 
BRANCH   8   9
HETATM    9  C8  UNL     1     -32.849  18.829   1.208  1.00 20.00    -0.005 C 
HETATM   10  C6  UNL     1     -31.390  18.719   0.795  1.00 20.00     0.005 C 
ENDBRANCH   8   9
ENDBRANCH   7   8
ENDBRANCH   4   7
TORSDOF 3
ENDMDL
MODEL 9
REMARK VINA RESULT:      -4.1     10.833     11.806
REMARK  3 active torsions:
REMARK  status: ('A' for Active; 'I' for Inactive)
REMARK    1  A    between atoms: C4_4  and  C7_7 
REMARK    2  A    between atoms: C7_7  and  C9_9 
REMARK    3  A    between atoms: C8_8  and  C9_9 
ROOT
HETATM    1  C1  UNL     1     -35.160  16.476  -4.860  1.00 20.00     0.006 C 
HETATM    2  C2  UNL     1     -34.752  15.629  -6.067  1.00 20.00     0.020 C 
HETATM    3  C3  UNL     1     -33.858  14.535  -4.156  1.00 20.00     0.024 C 
HETATM    4  C4  UNL     1     -34.676  15.714  -3.616  1.00 20.00    -0.013 C 
HETATM    5  C5  UNL     1     -34.481  14.236  -5.515  1.00 20.00     0.082 C 
HETATM    6 CL10 UNL     1     -36.002  13.317  -5.337  1.00 20.00    -0.125 Cl
ENDROOT
BRANCH   4   7
HETATM    7  C7  UNL     1     -33.882  16.585  -2.654  1.00 20.00     0.005 C 
BRANCH   7   8
HETATM    8  C9  UNL     1     -34.701  16.933  -1.411  1.00 20.00     0.000 C 
BRANCH   8   9
HETATM    9  C8  UNL     1     -34.001  18.000  -0.568  1.00 20.00    -0.005 C 
HETATM   10  C6  UNL     1     -32.582  18.249  -1.052  1.00 20.00     0.005 C 
ENDBRANCH   8   9
ENDBRANCH   7   8
ENDBRANCH   4   7
TORSDOF 3
ENDMDL
