MODEL 1
REMARK VINA RESULT:      -6.2      0.000      0.000
REMARK  2 active torsions:
REMARK  status: ('A' for Active; 'I' for Inactive)
REMARK    1  A    between atoms: C8_8  and  C10_10 
REMARK    2  A    between atoms: C9_9  and  O11_11 
ROOT
HETATM    1  C1  UNL     1     -32.587  10.087   1.299  1.00 20.00     0.012 C 
HETATM    2  C2  UNL     1     -32.546   8.910   1.535  1.00 20.00    -0.117 C 
HETATM    3  C10 UNL     1     -32.488   7.473   1.807  1.00 20.00     0.097 C 
ENDROOT
BRANCH   3   4
HETATM    4  C8  UNL     1     -33.220   7.137   3.113  1.00 20.00    -0.001 C 
HETATM    5  C5  UNL     1     -32.607   7.961   4.254  1.00 20.00     0.005 C 
HETATM    6  C3  UNL     1     -32.927   7.530   5.684  1.00 20.00     0.000 C 
HETATM    7  C4  UNL     1     -34.339   7.001   5.907  1.00 20.00     0.002 C 
HETATM    8  C6  UNL     1     -34.455   5.509   5.614  1.00 20.00     0.032 C 
HETATM    9  C9  UNL     1     -34.418   5.123   4.137  1.00 20.00     0.118 C 
HETATM   10  C7  UNL     1     -33.198   5.622   3.357  1.00 20.00     0.037 C 
BRANCH   9  11
HETATM   11  O11 UNL     1     -34.421   3.694   4.054  1.00 20.00    -0.396 OA
HETATM   12  H27 UNL     1     -34.778   3.476   3.182  1.00 20.00     0.210 HD
ENDBRANCH   9  11
ENDBRANCH   3   4
TORSDOF 2
ENDMDL
MODEL 2
REMARK VINA RESULT:      -6.0      1.641      2.457
REMARK  2 active torsions:
REMARK  status: ('A' for Active; 'I' for Inactive)
REMARK    1  A    between atoms: C8_8  and  C10_10 
REMARK    2  A    between atoms: C9_9  and  O11_11 
ROOT
HETATM    1  C1  UNL     1     -32.879   9.870   1.107  1.00 20.00     0.012 C 
HETATM    2  C2  UNL     1     -32.270   9.193   1.890  1.00 20.00    -0.117 C 
HETATM    3  C10 UNL     1     -31.513   8.378   2.841  1.00 20.00     0.097 C 
ENDROOT
BRANCH   3   4
HETATM    4  C8  UNL     1     -32.387   7.252   3.408  1.00 20.00    -0.001 C 
HETATM    5  C5  UNL     1     -33.131   6.568   2.253  1.00 20.00     0.005 C 
HETATM    6  C3  UNL     1     -34.316   5.673   2.610  1.00 20.00     0.000 C 
HETATM    7  C4  UNL     1     -34.162   4.867   3.894  1.00 20.00     0.002 C 
HETATM    8  C6  UNL     1     -34.600   5.648   5.129  1.00 20.00     0.032 C 
HETATM    9  C9  UNL     1     -33.652   6.759   5.575  1.00 20.00     0.118 C 
HETATM   10  C7  UNL     1     -33.309   7.800   4.506  1.00 20.00     0.037 C 
BRANCH   9  11
HETATM   11  O11 UNL     1     -34.269   7.454   6.663  1.00 20.00    -0.396 OA
HETATM   12  H27 UNL     1     -34.856   8.113   6.264  1.00 20.00     0.210 HD
ENDBRANCH   9  11
ENDBRANCH   3   4
TORSDOF 2
ENDMDL
MODEL 3
REMARK VINA RESULT:      -5.1     11.249     12.323
REMARK  2 active torsions:
REMARK  status: ('A' for Active; 'I' for Inactive)
REMARK    1  A    between atoms: C8_8  and  C10_10 
REMARK    2  A    between atoms: C9_9  and  O11_11 
ROOT
HETATM    1  C1  UNL     1     -32.765  18.073  -1.206  1.00 20.00     0.012 C 
HETATM    2  C2  UNL     1     -33.647  17.388  -1.647  1.00 20.00    -0.117 C 
HETATM    3  C10 UNL     1     -34.732  16.557  -2.170  1.00 20.00     0.097 C 
ENDROOT
BRANCH   3   4
HETATM    4  C8  UNL     1     -34.343  15.941  -3.520  1.00 20.00    -0.001 C 
HETATM    5  C5  UNL     1     -34.050  17.071  -4.517  1.00 20.00     0.005 C 
HETATM    6  C3  UNL     1     -33.998  16.706  -5.999  1.00 20.00     0.000 C 
HETATM    7  C4  UNL     1     -33.393  15.344  -6.316  1.00 20.00     0.002 C 
HETATM    8  C6  UNL     1     -34.423  14.220  -6.252  1.00 20.00     0.032 C 
HETATM    9  C9  UNL     1     -34.877  13.823  -4.849  1.00 20.00     0.118 C 
HETATM   10  C7  UNL     1     -35.428  14.963  -3.988  1.00 20.00     0.037 C 
BRANCH   9  11
HETATM   11  O11 UNL     1     -35.916  12.848  -4.982  1.00 20.00    -0.396 OA
HETATM   12  H27 UNL     1     -36.194  12.876  -5.909  1.00 20.00     0.210 HD
ENDBRANCH   9  11
ENDBRANCH   3   4
TORSDOF 2
ENDMDL
MODEL 4
REMARK VINA RESULT:      -4.8     11.309     12.618
REMARK  2 active torsions:
REMARK  status: ('A' for Active; 'I' for Inactive)
REMARK    1  A    between atoms: C8_8  and  C10_10 
REMARK    2  A    between atoms: C9_9  and  O11_11 
ROOT
HETATM    1  C1  UNL     1     -35.338  16.996  -1.184  1.00 20.00     0.012 C 
HETATM    2  C2  UNL     1     -34.583  16.726  -2.078  1.00 20.00    -0.117 C 
HETATM    3  C10 UNL     1     -33.649  16.400  -3.156  1.00 20.00     0.097 C 
ENDROOT
BRANCH   3   4
HETATM    4  C8  UNL     1     -34.407  16.008  -4.432  1.00 20.00    -0.001 C 
HETATM    5  C5  UNL     1     -35.236  17.210  -4.907  1.00 20.00     0.005 C 
HETATM    6  C3  UNL     1     -36.335  16.944  -5.934  1.00 20.00     0.000 C 
HETATM    7  C4  UNL     1     -36.011  15.883  -6.979  1.00 20.00     0.002 C 
HETATM    8  C6  UNL     1     -36.352  14.474  -6.504  1.00 20.00     0.032 C 
HETATM    9  C9  UNL     1     -35.414  13.890  -5.450  1.00 20.00     0.118 C 
HETATM   10  C7  UNL     1     -35.233  14.738  -4.188  1.00 20.00     0.037 C 
BRANCH   9  11
HETATM   11  O11 UNL     1     -35.945  12.626  -5.040  1.00 20.00    -0.396 OA
HETATM   12  H27 UNL     1     -36.885  12.773  -4.863  1.00 20.00     0.210 HD
ENDBRANCH   9  11
ENDBRANCH   3   4
TORSDOF 2
ENDMDL
MODEL 5
REMARK VINA RESULT:      -4.6     11.323     12.491
REMARK  2 active torsions:
REMARK  status: ('A' for Active; 'I' for Inactive)
REMARK    1  A    between atoms: C8_8  and  C10_10 
REMARK    2  A    between atoms: C9_9  and  O11_11 
ROOT
HETATM    1  C1  UNL     1     -36.013  17.466  -1.528  1.00 20.00     0.012 C 
HETATM    2  C2  UNL     1     -34.917  17.137  -1.891  1.00 20.00    -0.117 C 
HETATM    3  C10 UNL     1     -33.573  16.744  -2.317  1.00 20.00     0.097 C 
ENDROOT
BRANCH   3   4
HETATM    4  C8  UNL     1     -33.604  16.145  -3.729  1.00 20.00    -0.001 C 
HETATM    5  C5  UNL     1     -33.653  17.288  -4.754  1.00 20.00     0.005 C 
HETATM    6  C3  UNL     1     -34.051  16.933  -6.185  1.00 20.00     0.000 C 
HETATM    7  C4  UNL     1     -33.546  15.586  -6.689  1.00 20.00     0.002 C 
HETATM    8  C6  UNL     1     -34.484  14.439  -6.327  1.00 20.00     0.032 C 
HETATM    9  C9  UNL     1     -34.478  14.023  -4.858  1.00 20.00     0.118 C 
HETATM   10  C7  UNL     1     -34.761  15.145  -3.855  1.00 20.00     0.037 C 
BRANCH   9  11
HETATM   11  O11 UNL     1     -35.488  13.026  -4.678  1.00 20.00    -0.396 OA
HETATM   12  H27 UNL     1     -35.091  12.336  -4.127  1.00 20.00     0.210 HD
ENDBRANCH   9  11
ENDBRANCH   3   4
TORSDOF 2
ENDMDL
MODEL 6
REMARK VINA RESULT:      -4.6     11.655     12.613
REMARK  2 active torsions:
REMARK  status: ('A' for Active; 'I' for Inactive)
REMARK    1  A    between atoms: C8_8  and  C10_10 
REMARK    2  A    between atoms: C9_9  and  O11_11 
ROOT
HETATM    1  C1  UNL     1     -32.755  18.113  -1.328  1.00 20.00     0.012 C 
HETATM    2  C2  UNL     1     -33.738  17.470  -1.578  1.00 20.00    -0.117 C 
HETATM    3  C10 UNL     1     -34.940  16.686  -1.864  1.00 20.00     0.097 C 
ENDROOT
BRANCH   3   4
HETATM    4  C8  UNL     1     -35.043  16.376  -3.363  1.00 20.00    -0.001 C 
HETATM    5  C5  UNL     1     -36.408  15.735  -3.647  1.00 20.00     0.005 C 
HETATM    6  C3  UNL     1     -36.586  15.022  -4.986  1.00 20.00     0.000 C 
HETATM    7  C4  UNL     1     -35.877  15.668  -6.170  1.00 20.00     0.002 C 
HETATM    8  C6  UNL     1     -34.432  15.201  -6.309  1.00 20.00     0.032 C 
HETATM    9  C9  UNL     1     -33.458  15.758  -5.273  1.00 20.00     0.118 C 
HETATM   10  C7  UNL     1     -33.848  15.523  -3.811  1.00 20.00     0.037 C 
BRANCH   9  11
HETATM   11  O11 UNL     1     -32.188  15.131  -5.480  1.00 20.00    -0.396 OA
HETATM   12  H27 UNL     1     -32.369  14.307  -5.953  1.00 20.00     0.210 HD
ENDBRANCH   9  11
ENDBRANCH   3   4
TORSDOF 2
ENDMDL
MODEL 7
REMARK VINA RESULT:      -4.5     11.583     12.202
REMARK  2 active torsions:
REMARK  status: ('A' for Active; 'I' for Inactive)
REMARK    1  A    between atoms: C8_8  and  C10_10 
REMARK    2  A    between atoms: C9_9  and  O11_11 
ROOT
HETATM    1  C1  UNL     1     -35.511  17.393  -0.412  1.00 20.00     0.012 C 
HETATM    2  C2  UNL     1     -34.879  17.023  -1.363  1.00 20.00    -0.117 C 
HETATM    3  C10 UNL     1     -34.095  16.582  -2.518  1.00 20.00     0.097 C 
ENDROOT
BRANCH   3   4
HETATM    4  C8  UNL     1     -34.892  15.583  -3.367  1.00 20.00    -0.001 C 
HETATM    5  C5  UNL     1     -33.949  14.935  -4.391  1.00 20.00     0.005 C 
HETATM    6  C3  UNL     1     -34.587  14.190  -5.562  1.00 20.00     0.000 C 
HETATM    7  C4  UNL     1     -35.864  13.427  -5.233  1.00 20.00     0.002 C 
HETATM    8  C6  UNL     1     -37.109  14.302  -5.336  1.00 20.00     0.032 C 
HETATM    9  C9  UNL     1     -37.291  15.321  -4.213  1.00 20.00     0.118 C 
HETATM   10  C7  UNL     1     -36.112  16.273  -3.991  1.00 20.00     0.037 C 
BRANCH   9  11
HETATM   11  O11 UNL     1     -38.433  16.124  -4.529  1.00 20.00    -0.396 OA
HETATM   12  H27 UNL     1     -38.196  17.033  -4.293  1.00 20.00     0.210 HD
ENDBRANCH   9  11
ENDBRANCH   3   4
TORSDOF 2
ENDMDL
MODEL 8
REMARK VINA RESULT:      -4.5     11.636     12.193
REMARK  2 active torsions:
REMARK  status: ('A' for Active; 'I' for Inactive)
REMARK    1  A    between atoms: C8_8  and  C10_10 
REMARK    2  A    between atoms: C9_9  and  O11_11 
ROOT
HETATM    1  C1  UNL     1     -35.880  13.726  -5.008  1.00 20.00     0.012 C 
HETATM    2  C2  UNL     1     -35.090  14.590  -4.744  1.00 20.00    -0.117 C 
HETATM    3  C10 UNL     1     -34.117  15.640  -4.437  1.00 20.00     0.097 C 
ENDROOT
BRANCH   3   4
HETATM    4  C8  UNL     1     -34.372  16.226  -3.042  1.00 20.00    -0.001 C 
HETATM    5  C5  UNL     1     -35.864  16.565  -2.909  1.00 20.00     0.005 C 
HETATM    6  C3  UNL     1     -36.277  17.481  -1.760  1.00 20.00     0.000 C 
HETATM    7  C4  UNL     1     -35.503  17.291  -0.461  1.00 20.00     0.002 C 
HETATM    8  C6  UNL     1     -34.216  18.110  -0.424  1.00 20.00     0.032 C 
HETATM    9  C9  UNL     1     -33.084  17.598  -1.311  1.00 20.00     0.118 C 
HETATM   10  C7  UNL     1     -33.437  17.417  -2.790  1.00 20.00     0.037 C 
BRANCH   9  11
HETATM   11  O11 UNL     1     -32.010  18.541  -1.242  1.00 20.00    -0.396 OA
HETATM   12  H27 UNL     1     -32.416  19.417  -1.301  1.00 20.00     0.210 HD
ENDBRANCH   9  11
ENDBRANCH   3   4
TORSDOF 2
ENDMDL
MODEL 9
REMARK VINA RESULT:      -4.3     11.183     11.980
REMARK  2 active torsions:
REMARK  status: ('A' for Active; 'I' for Inactive)
REMARK    1  A    between atoms: C8_8  and  C10_10 
REMARK    2  A    between atoms: C9_9  and  O11_11 
ROOT
HETATM    1  C1  UNL     1     -33.813  14.844  -3.986  1.00 20.00     0.012 C 
HETATM    2  C2  UNL     1     -34.595  15.652  -3.565  1.00 20.00    -0.117 C 
HETATM    3  C10 UNL     1     -35.560  16.632  -3.065  1.00 20.00     0.097 C 
ENDROOT
BRANCH   3   4
HETATM    4  C8  UNL     1     -34.938  17.492  -1.957  1.00 20.00    -0.001 C 
HETATM    5  C5  UNL     1     -33.420  17.564  -2.175  1.00 20.00     0.005 C 
HETATM    6  C3  UNL     1     -32.564  18.054  -1.010  1.00 20.00     0.000 C 
HETATM    7  C4  UNL     1     -33.184  19.159  -0.163  1.00 20.00     0.002 C 
HETATM    8  C6  UNL     1     -34.076  18.612   0.947  1.00 20.00     0.032 C 
HETATM    9  C9  UNL     1     -35.420  18.046   0.492  1.00 20.00     0.118 C 
HETATM   10  C7  UNL     1     -35.345  16.954  -0.579  1.00 20.00     0.037 C 
BRANCH   9  11
HETATM   11  O11 UNL     1     -36.067  17.478   1.635  1.00 20.00    -0.396 OA
HETATM   12  H27 UNL     1     -35.612  16.643   1.815  1.00 20.00     0.210 HD
ENDBRANCH   9  11
ENDBRANCH   3   4
TORSDOF 2
ENDMDL
