MODEL 1
REMARK VINA RESULT:      -6.6      0.000      0.000
REMARK  1 active torsions:
REMARK  status: ('A' for Active; 'I' for Inactive)
REMARK    1  A    between atoms: C7_7  and  C9_9 
ROOT
HETATM    1  C1  UNL     1     -32.533   9.535   0.735  1.00 20.00     0.012 C 
HETATM    2  C2  UNL     1     -32.212   8.859   1.674  1.00 20.00    -0.117 C 
HETATM    3  C9  UNL     1     -31.808   8.036   2.817  1.00 20.00     0.097 C 
ENDROOT
BRANCH   3   4
HETATM    4  C7  UNL     1     -33.029   7.510   3.570  1.00 20.00    -0.002 C 
HETATM    5  C4  UNL     1     -32.850   7.695   5.083  1.00 20.00     0.005 C 
HETATM    6  C3  UNL     1     -34.027   7.125   5.870  1.00 20.00     0.002 C 
HETATM    7  C5  UNL     1     -34.279   5.658   5.522  1.00 20.00     0.020 C 
HETATM    8  C8  UNL     1     -34.439   5.419   4.019  1.00 20.00     0.082 C 
HETATM    9  C6  UNL     1     -33.280   6.033   3.227  1.00 20.00     0.025 C 
HETATM   10 CL10 UNL     1     -36.005   6.074   3.445  1.00 20.00    -0.125 Cl
ENDBRANCH   3   4
TORSDOF 1
ENDMDL
MODEL 2
REMARK VINA RESULT:      -5.7      1.435      2.107
REMARK  1 active torsions:
REMARK  status: ('A' for Active; 'I' for Inactive)
REMARK    1  A    between atoms: C7_7  and  C9_9 
ROOT
HETATM    1  C1  UNL     1     -32.716   9.499   0.604  1.00 20.00     0.012 C 
HETATM    2  C2  UNL     1     -32.175   9.014   1.560  1.00 20.00    -0.117 C 
HETATM    3  C9  UNL     1     -31.503   8.430   2.724  1.00 20.00     0.097 C 
ENDROOT
BRANCH   3   4
HETATM    4  C7  UNL     1     -32.380   7.368   3.385  1.00 20.00    -0.002 C 
HETATM    5  C4  UNL     1     -32.640   6.206   2.419  1.00 20.00     0.005 C 
HETATM    6  C3  UNL     1     -33.564   5.154   3.028  1.00 20.00     0.002 C 
HETATM    7  C5  UNL     1     -34.876   5.769   3.513  1.00 20.00     0.020 C 
HETATM    8  C8  UNL     1     -34.666   6.952   4.461  1.00 20.00     0.082 C 
HETATM    9  C6  UNL     1     -33.702   7.984   3.868  1.00 20.00     0.025 C 
HETATM   10 CL10 UNL     1     -34.068   6.380   6.051  1.00 20.00    -0.125 Cl
ENDBRANCH   3   4
TORSDOF 1
ENDMDL
MODEL 3
REMARK VINA RESULT:      -4.4     11.376     12.400
REMARK  1 active torsions:
REMARK  status: ('A' for Active; 'I' for Inactive)
REMARK    1  A    between atoms: C7_7  and  C9_9 
ROOT
HETATM    1  C1  UNL     1     -35.476  17.009  -1.256  1.00 20.00     0.012 C 
HETATM    2  C2  UNL     1     -34.639  16.693  -2.057  1.00 20.00    -0.117 C 
HETATM    3  C9  UNL     1     -33.608  16.311  -3.024  1.00 20.00     0.097 C 
ENDROOT
BRANCH   3   4
HETATM    4  C7  UNL     1     -34.237  15.838  -4.334  1.00 20.00    -0.002 C 
HETATM    5  C4  UNL     1     -34.769  14.406  -4.191  1.00 20.00     0.005 C 
HETATM    6  C3  UNL     1     -35.350  13.880  -5.501  1.00 20.00     0.002 C 
HETATM    7  C5  UNL     1     -34.342  13.980  -6.645  1.00 20.00     0.020 C 
HETATM    8  C8  UNL     1     -33.763  15.387  -6.811  1.00 20.00     0.082 C 
HETATM    9  C6  UNL     1     -33.221  15.931  -5.485  1.00 20.00     0.025 C 
HETATM   10 CL10 UNL     1     -34.999  16.496  -7.484  1.00 20.00    -0.125 Cl
ENDBRANCH   3   4
TORSDOF 1
ENDMDL
MODEL 4
REMARK VINA RESULT:      -4.3      1.986      4.425
REMARK  1 active torsions:
REMARK  status: ('A' for Active; 'I' for Inactive)
REMARK    1  A    between atoms: C7_7  and  C9_9 
ROOT
HETATM    1  C1  UNL     1     -34.755   4.907   5.946  1.00 20.00     0.012 C 
HETATM    2  C2  UNL     1     -34.271   5.999   5.820  1.00 20.00    -0.117 C 
HETATM    3  C9  UNL     1     -33.680   7.332   5.680  1.00 20.00     0.097 C 
ENDROOT
BRANCH   3   4
HETATM    4  C7  UNL     1     -33.455   7.678   4.209  1.00 20.00    -0.002 C 
HETATM    5  C4  UNL     1     -33.683   6.446   3.324  1.00 20.00     0.005 C 
HETATM    6  C3  UNL     1     -33.408   6.742   1.852  1.00 20.00     0.002 C 
HETATM    7  C5  UNL     1     -32.006   7.315   1.646  1.00 20.00     0.020 C 
HETATM    8  C8  UNL     1     -31.722   8.533   2.528  1.00 20.00     0.082 C 
HETATM    9  C6  UNL     1     -32.043   8.248   3.998  1.00 20.00     0.025 C 
HETATM   10 CL10 UNL     1     -32.649   9.954   1.949  1.00 20.00    -0.125 Cl
ENDBRANCH   3   4
TORSDOF 1
ENDMDL
MODEL 5
REMARK VINA RESULT:      -4.3     11.338     12.018
REMARK  1 active torsions:
REMARK  status: ('A' for Active; 'I' for Inactive)
REMARK    1  A    between atoms: C7_7  and  C9_9 
ROOT
HETATM    1  C1  UNL     1     -32.849  17.933  -1.420  1.00 20.00     0.012 C 
HETATM    2  C2  UNL     1     -33.834  17.316  -1.720  1.00 20.00    -0.117 C 
HETATM    3  C9  UNL     1     -35.041  16.564  -2.073  1.00 20.00     0.097 C 
ENDROOT
BRANCH   3   4
HETATM    4  C7  UNL     1     -35.007  16.134  -3.539  1.00 20.00    -0.002 C 
HETATM    5  C4  UNL     1     -36.362  15.551  -3.961  1.00 20.00     0.005 C 
HETATM    6  C3  UNL     1     -36.343  15.055  -5.405  1.00 20.00     0.002 C 
HETATM    7  C5  UNL     1     -35.216  14.051  -5.642  1.00 20.00     0.020 C 
HETATM    8  C8  UNL     1     -33.846  14.579  -5.211  1.00 20.00     0.082 C 
HETATM    9  C6  UNL     1     -33.877  15.119  -3.777  1.00 20.00     0.025 C 
HETATM   10 CL10 UNL     1     -33.279  15.847  -6.344  1.00 20.00    -0.125 Cl
ENDBRANCH   3   4
TORSDOF 1
ENDMDL
MODEL 6
REMARK VINA RESULT:      -4.3     11.166     11.909
REMARK  1 active torsions:
REMARK  status: ('A' for Active; 'I' for Inactive)
REMARK    1  A    between atoms: C7_7  and  C9_9 
ROOT
HETATM    1  C1  UNL     1     -32.931  17.972  -1.152  1.00 20.00     0.012 C 
HETATM    2  C2  UNL     1     -33.922  17.390  -1.501  1.00 20.00    -0.117 C 
HETATM    3  C9  UNL     1     -35.137  16.685  -1.916  1.00 20.00     0.097 C 
ENDROOT
BRANCH   3   4
HETATM    4  C7  UNL     1     -34.863  15.784  -3.120  1.00 20.00    -0.002 C 
HETATM    5  C4  UNL     1     -33.500  16.117  -3.742  1.00 20.00     0.005 C 
HETATM    6  C3  UNL     1     -33.221  15.275  -4.984  1.00 20.00     0.002 C 
HETATM    7  C5  UNL     1     -34.342  15.402  -6.015  1.00 20.00     0.020 C 
HETATM    8  C8  UNL     1     -35.725  15.104  -5.433  1.00 20.00     0.082 C 
HETATM    9  C6  UNL     1     -35.986  15.916  -4.160  1.00 20.00     0.025 C 
HETATM   10 CL10 UNL     1     -35.901  13.351  -5.103  1.00 20.00    -0.125 Cl
ENDBRANCH   3   4
TORSDOF 1
ENDMDL
MODEL 7
REMARK VINA RESULT:      -4.2      2.166      4.328
REMARK  1 active torsions:
REMARK  status: ('A' for Active; 'I' for Inactive)
REMARK    1  A    between atoms: C7_7  and  C9_9 
ROOT
HETATM    1  C1  UNL     1     -34.660   5.492   5.418  1.00 20.00     0.012 C 
HETATM    2  C2  UNL     1     -34.426   5.625   4.247  1.00 20.00    -0.117 C 
HETATM    3  C9  UNL     1     -34.150   5.779   2.817  1.00 20.00     0.097 C 
ENDROOT
BRANCH   3   4
HETATM    4  C7  UNL     1     -33.035   6.796   2.581  1.00 20.00    -0.002 C 
HETATM    5  C4  UNL     1     -32.526   7.357   3.916  1.00 20.00     0.005 C 
HETATM    6  C3  UNL     1     -31.451   8.422   3.713  1.00 20.00     0.002 C 
HETATM    7  C5  UNL     1     -31.935   9.543   2.795  1.00 20.00     0.020 C 
HETATM    8  C8  UNL     1     -32.477   9.030   1.459  1.00 20.00     0.082 C 
HETATM    9  C6  UNL     1     -33.522   7.928   1.663  1.00 20.00     0.025 C 
HETATM   10 CL10 UNL     1     -31.137   8.436   0.427  1.00 20.00    -0.125 Cl
ENDBRANCH   3   4
TORSDOF 1
ENDMDL
MODEL 8
REMARK VINA RESULT:      -4.2     11.151     12.020
REMARK  1 active torsions:
REMARK  status: ('A' for Active; 'I' for Inactive)
REMARK    1  A    between atoms: C7_7  and  C9_9 
ROOT
HETATM    1  C1  UNL     1     -35.382  17.388  -0.228  1.00 20.00     0.012 C 
HETATM    2  C2  UNL     1     -34.656  17.165  -1.159  1.00 20.00    -0.117 C 
HETATM    3  C9  UNL     1     -33.761  16.902  -2.288  1.00 20.00     0.097 C 
ENDROOT
BRANCH   3   4
HETATM    4  C7  UNL     1     -34.427  15.979  -3.309  1.00 20.00    -0.002 C 
HETATM    5  C4  UNL     1     -33.369  15.264  -4.159  1.00 20.00     0.005 C 
HETATM    6  C3  UNL     1     -34.002  14.379  -5.230  1.00 20.00     0.002 C 
HETATM    7  C5  UNL     1     -34.973  15.167  -6.110  1.00 20.00     0.020 C 
HETATM    8  C8  UNL     1     -36.032  15.920  -5.303  1.00 20.00     0.082 C 
HETATM    9  C6  UNL     1     -35.398  16.771  -4.199  1.00 20.00     0.025 C 
HETATM   10 CL10 UNL     1     -37.219  14.772  -4.605  1.00 20.00    -0.125 Cl
ENDBRANCH   3   4
TORSDOF 1
ENDMDL
MODEL 9
REMARK VINA RESULT:      -4.1     11.440     12.288
REMARK  1 active torsions:
REMARK  status: ('A' for Active; 'I' for Inactive)
REMARK    1  A    between atoms: C7_7  and  C9_9 
ROOT
HETATM    1  C1  UNL     1     -35.624  16.836  -5.210  1.00 20.00     0.012 C 
HETATM    2  C2  UNL     1     -34.767  16.441  -4.466  1.00 20.00    -0.117 C 
HETATM    3  C9  UNL     1     -33.719  15.950  -3.568  1.00 20.00     0.097 C 
ENDROOT
BRANCH   3   4
HETATM    4  C7  UNL     1     -33.685  16.760  -2.273  1.00 20.00    -0.002 C 
HETATM    5  C4  UNL     1     -35.066  16.765  -1.604  1.00 20.00     0.005 C 
HETATM    6  C3  UNL     1     -35.082  17.617  -0.337  1.00 20.00     0.002 C 
HETATM    7  C5  UNL     1     -34.598  19.041  -0.609  1.00 20.00     0.020 C 
HETATM    8  C8  UNL     1     -33.234  19.087  -1.301  1.00 20.00     0.082 C 
HETATM    9  C6  UNL     1     -33.205  18.195  -2.546  1.00 20.00     0.025 C 
HETATM   10 CL10 UNL     1     -31.938  18.608  -0.159  1.00 20.00    -0.125 Cl
ENDBRANCH   3   4
TORSDOF 1
ENDMDL
