MODEL 1
REMARK VINA RESULT:      -7.1      0.000      0.000
REMARK  1 active torsions:
REMARK  status: ('A' for Active; 'I' for Inactive)
REMARK    1  A    between atoms: C9_9  and  C10_10 
ROOT
HETATM    1  C1  UNL     1     -32.201   9.532   0.785  1.00 20.00     0.012 C 
HETATM    2  C2  UNL     1     -32.148   8.748   1.692  1.00 20.00    -0.117 C 
HETATM    3  C10 UNL     1     -32.067   7.799   2.803  1.00 20.00     0.098 C 
ENDROOT
BRANCH   3   4
HETATM    4  C9  UNL     1     -33.297   6.886   2.829  1.00 20.00     0.004 C 
HETATM    5  C5  UNL     1     -34.299   7.355   3.886  1.00 20.00     0.083 C 
HETATM    6  C3  UNL     1     -34.048   6.759   5.251  1.00 20.00     0.127 C 
HETATM    7  C4  UNL     1     -34.750   5.455   5.552  1.00 20.00     0.078 C 
HETATM    8  O11 UNL     1     -33.282   7.285   6.058  1.00 20.00    -0.298 OA
HETATM    9  C6  UNL     1     -34.090   4.272   4.861  1.00 20.00     0.007 C 
HETATM   10  C7  UNL     1     -33.937   4.417   3.343  1.00 20.00     0.001 C 
HETATM   11  C8  UNL     1     -32.847   5.417   2.945  1.00 20.00     0.006 C 
ENDBRANCH   3   4
TORSDOF 1
ENDMDL
MODEL 2
REMARK VINA RESULT:      -5.5      1.640      2.372
REMARK  1 active torsions:
REMARK  status: ('A' for Active; 'I' for Inactive)
REMARK    1  A    between atoms: C9_9  and  C10_10 
ROOT
HETATM    1  C1  UNL     1     -31.283   8.661   0.633  1.00 20.00     0.012 C 
HETATM    2  C2  UNL     1     -32.015   8.702   1.584  1.00 20.00    -0.117 C 
HETATM    3  C10 UNL     1     -32.916   8.767   2.736  1.00 20.00     0.098 C 
ENDROOT
BRANCH   3   4
HETATM    4  C9  UNL     1     -32.619   7.633   3.722  1.00 20.00     0.004 C 
HETATM    5  C5  UNL     1     -32.659   6.276   3.017  1.00 20.00     0.083 C 
HETATM    6  C3  UNL     1     -34.038   5.658   2.995  1.00 20.00     0.127 C 
HETATM    7  C4  UNL     1     -34.388   4.761   4.160  1.00 20.00     0.078 C 
HETATM    8  O11 UNL     1     -34.845   5.903   2.099  1.00 20.00    -0.298 OA
HETATM    9  C6  UNL     1     -34.711   5.551   5.418  1.00 20.00     0.007 C 
HETATM   10  C7  UNL     1     -33.622   6.535   5.857  1.00 20.00     0.001 C 
HETATM   11  C8  UNL     1     -33.533   7.770   4.955  1.00 20.00     0.006 C 
ENDBRANCH   3   4
TORSDOF 1
ENDMDL
MODEL 3
REMARK VINA RESULT:      -5.1     11.557     12.764
REMARK  1 active torsions:
REMARK  status: ('A' for Active; 'I' for Inactive)
REMARK    1  A    between atoms: C9_9  and  C10_10 
ROOT
HETATM    1  C1  UNL     1     -33.392  17.456  -2.208  1.00 20.00     0.012 C 
HETATM    2  C2  UNL     1     -33.897  16.533  -2.786  1.00 20.00    -0.117 C 
HETATM    3  C10 UNL     1     -34.511  15.397  -3.474  1.00 20.00     0.098 C 
ENDROOT
BRANCH   3   4
HETATM    4  C9  UNL     1     -34.794  15.738  -4.940  1.00 20.00     0.004 C 
HETATM    5  C5  UNL     1     -36.084  15.067  -5.415  1.00 20.00     0.083 C 
HETATM    6  C3  UNL     1     -35.864  13.677  -5.966  1.00 20.00     0.127 C 
HETATM    7  C4  UNL     1     -35.585  13.581  -7.448  1.00 20.00     0.078 C 
HETATM    8  O11 UNL     1     -35.870  12.683  -5.240  1.00 20.00    -0.298 OA
HETATM    9  C6  UNL     1     -34.164  13.995  -7.796  1.00 20.00     0.007 C 
HETATM   10  C7  UNL     1     -33.762  15.389  -7.302  1.00 20.00     0.001 C 
HETATM   11  C8  UNL     1     -33.542  15.447  -5.788  1.00 20.00     0.006 C 
ENDBRANCH   3   4
TORSDOF 1
ENDMDL
MODEL 4
REMARK VINA RESULT:      -4.9     11.777     12.634
REMARK  1 active torsions:
REMARK  status: ('A' for Active; 'I' for Inactive)
REMARK    1  A    between atoms: C9_9  and  C10_10 
ROOT
HETATM    1  C1  UNL     1     -35.233  17.025  -0.944  1.00 20.00     0.012 C 
HETATM    2  C2  UNL     1     -34.647  16.902  -1.985  1.00 20.00    -0.117 C 
HETATM    3  C10 UNL     1     -33.929  16.769  -3.253  1.00 20.00     0.098 C 
ENDROOT
BRANCH   3   4
HETATM    4  C9  UNL     1     -34.001  15.329  -3.771  1.00 20.00     0.004 C 
HETATM    5  C5  UNL     1     -32.998  15.109  -4.905  1.00 20.00     0.083 C 
HETATM    6  C3  UNL     1     -33.558  15.440  -6.269  1.00 20.00     0.127 C 
HETATM    7  C4  UNL     1     -34.234  14.308  -7.007  1.00 20.00     0.078 C 
HETATM    8  O11 UNL     1     -33.505  16.578  -6.734  1.00 20.00    -0.298 OA
HETATM    9  C6  UNL     1     -35.619  14.006  -6.458  1.00 20.00     0.007 C 
HETATM   10  C7  UNL     1     -35.666  13.718  -4.954  1.00 20.00     0.001 C 
HETATM   11  C8  UNL     1     -35.464  14.972  -4.098  1.00 20.00     0.006 C 
ENDBRANCH   3   4
TORSDOF 1
ENDMDL
MODEL 5
REMARK VINA RESULT:      -4.8     11.542     12.635
REMARK  1 active torsions:
REMARK  status: ('A' for Active; 'I' for Inactive)
REMARK    1  A    between atoms: C9_9  and  C10_10 
ROOT
HETATM    1  C1  UNL     1     -35.249  17.016  -1.161  1.00 20.00     0.012 C 
HETATM    2  C2  UNL     1     -34.524  16.752  -2.081  1.00 20.00    -0.117 C 
HETATM    3  C10 UNL     1     -33.626  16.428  -3.190  1.00 20.00     0.098 C 
ENDROOT
BRANCH   3   4
HETATM    4  C9  UNL     1     -34.374  16.473  -4.526  1.00 20.00     0.004 C 
HETATM    5  C5  UNL     1     -35.547  15.490  -4.526  1.00 20.00     0.083 C 
HETATM    6  C3  UNL     1     -35.162  14.105  -4.990  1.00 20.00     0.127 C 
HETATM    7  C4  UNL     1     -35.287  13.838  -6.473  1.00 20.00     0.078 C 
HETATM    8  O11 UNL     1     -34.732  13.255  -4.212  1.00 20.00    -0.298 OA
HETATM    9  C6  UNL     1     -34.158  14.470  -7.270  1.00 20.00     0.007 C 
HETATM   10  C7  UNL     1     -33.979  15.976  -7.049  1.00 20.00     0.001 C 
HETATM   11  C8  UNL     1     -33.371  16.312  -5.684  1.00 20.00     0.006 C 
ENDBRANCH   3   4
TORSDOF 1
ENDMDL
MODEL 6
REMARK VINA RESULT:      -4.5     11.562     12.313
REMARK  1 active torsions:
REMARK  status: ('A' for Active; 'I' for Inactive)
REMARK    1  A    between atoms: C9_9  and  C10_10 
ROOT
HETATM    1  C1  UNL     1     -33.261  17.705  -1.388  1.00 20.00     0.012 C 
HETATM    2  C2  UNL     1     -34.151  17.069  -1.884  1.00 20.00    -0.117 C 
HETATM    3  C10 UNL     1     -35.243  16.292  -2.471  1.00 20.00     0.098 C 
ENDROOT
BRANCH   3   4
HETATM    4  C9  UNL     1     -35.010  16.073  -3.969  1.00 20.00     0.004 C 
HETATM    5  C5  UNL     1     -36.281  16.372  -4.767  1.00 20.00     0.083 C 
HETATM    6  C3  UNL     1     -37.187  15.172  -4.913  1.00 20.00     0.127 C 
HETATM    7  C4  UNL     1     -36.954  14.301  -6.126  1.00 20.00     0.078 C 
HETATM    8  O11 UNL     1     -38.041  14.897  -4.071  1.00 20.00    -0.298 OA
HETATM    9  C6  UNL     1     -35.728  13.416  -5.972  1.00 20.00     0.007 C 
HETATM   10  C7  UNL     1     -34.432  14.163  -5.638  1.00 20.00     0.001 C 
HETATM   11  C8  UNL     1     -34.394  14.679  -4.198  1.00 20.00     0.006 C 
ENDBRANCH   3   4
TORSDOF 1
ENDMDL
MODEL 7
REMARK VINA RESULT:      -4.3     11.672     13.034
REMARK  1 active torsions:
REMARK  status: ('A' for Active; 'I' for Inactive)
REMARK    1  A    between atoms: C9_9  and  C10_10 
ROOT
HETATM    1  C1  UNL     1     -34.145  17.113  -1.949  1.00 20.00     0.012 C 
HETATM    2  C2  UNL     1     -34.207  16.244  -2.775  1.00 20.00    -0.117 C 
HETATM    3  C10 UNL     1     -34.266  15.180  -3.778  1.00 20.00     0.098 C 
ENDROOT
BRANCH   3   4
HETATM    4  C9  UNL     1     -35.633  15.159  -4.469  1.00 20.00     0.004 C 
HETATM    5  C5  UNL     1     -35.924  13.776  -5.054  1.00 20.00     0.083 C 
HETATM    6  C3  UNL     1     -35.407  13.605  -6.464  1.00 20.00     0.127 C 
HETATM    7  C4  UNL     1     -36.359  13.980  -7.576  1.00 20.00     0.078 C 
HETATM    8  O11 UNL     1     -34.261  13.221  -6.693  1.00 20.00    -0.298 OA
HETATM    9  C6  UNL     1     -36.477  15.486  -7.751  1.00 20.00     0.007 C 
HETATM   10  C7  UNL     1     -36.866  16.252  -6.482  1.00 20.00     0.001 C 
HETATM   11  C8  UNL     1     -35.728  16.334  -5.460  1.00 20.00     0.006 C 
ENDBRANCH   3   4
TORSDOF 1
ENDMDL
MODEL 8
REMARK VINA RESULT:      -4.3     11.742     12.972
REMARK  1 active torsions:
REMARK  status: ('A' for Active; 'I' for Inactive)
REMARK    1  A    between atoms: C9_9  and  C10_10 
ROOT
HETATM    1  C1  UNL     1     -34.786  17.761  -0.021  1.00 20.00     0.012 C 
HETATM    2  C2  UNL     1     -35.095  17.237  -1.056  1.00 20.00    -0.117 C 
HETATM    3  C10 UNL     1     -35.489  16.600  -2.314  1.00 20.00     0.098 C 
ENDROOT
BRANCH   3   4
HETATM    4  C9  UNL     1     -34.257  16.126  -3.092  1.00 20.00     0.004 C 
HETATM    5  C5  UNL     1     -33.687  17.258  -3.949  1.00 20.00     0.083 C 
HETATM    6  C3  UNL     1     -34.308  17.333  -5.325  1.00 20.00     0.127 C 
HETATM    7  C4  UNL     1     -33.629  16.530  -6.410  1.00 20.00     0.078 C 
HETATM    8  O11 UNL     1     -35.333  17.979  -5.541  1.00 20.00    -0.298 OA
HETATM    9  C6  UNL     1     -33.931  15.044  -6.303  1.00 20.00     0.007 C 
HETATM   10  C7  UNL     1     -33.606  14.418  -4.943  1.00 20.00     0.001 C 
HETATM   11  C8  UNL     1     -34.593  14.825  -3.846  1.00 20.00     0.006 C 
ENDBRANCH   3   4
TORSDOF 1
ENDMDL
MODEL 9
REMARK VINA RESULT:      -4.3     11.610     12.956
REMARK  1 active torsions:
REMARK  status: ('A' for Active; 'I' for Inactive)
REMARK    1  A    between atoms: C9_9  and  C10_10 
ROOT
HETATM    1  C1  UNL     1     -35.300  12.837  -7.293  1.00 20.00     0.012 C 
HETATM    2  C2  UNL     1     -34.611  13.807  -7.455  1.00 20.00    -0.117 C 
HETATM    3  C10 UNL     1     -33.763  14.981  -7.667  1.00 20.00     0.098 C 
ENDROOT
BRANCH   3   4
HETATM    4  C9  UNL     1     -34.078  16.072  -6.639  1.00 20.00     0.004 C 
HETATM    5  C5  UNL     1     -33.120  15.989  -5.448  1.00 20.00     0.083 C 
HETATM    6  C3  UNL     1     -33.608  15.066  -4.356  1.00 20.00     0.127 C 
HETATM    7  C4  UNL     1     -34.464  15.696  -3.280  1.00 20.00     0.078 C 
HETATM    8  O11 UNL     1     -33.358  13.862  -4.363  1.00 20.00    -0.298 OA
HETATM    9  C6  UNL     1     -35.884  15.962  -3.755  1.00 20.00     0.007 C 
HETATM   10  C7  UNL     1     -35.988  16.804  -5.031  1.00 20.00     0.001 C 
HETATM   11  C8  UNL     1     -35.578  16.035  -6.290  1.00 20.00     0.006 C 
ENDBRANCH   3   4
TORSDOF 1
ENDMDL
