MODEL 1
REMARK VINA RESULT:      -6.0      0.000      0.000
REMARK  2 active torsions:
REMARK  status: ('A' for Active; 'I' for Inactive)
REMARK    1  A    between atoms: C2_2  and  C9_9 
REMARK    2  A    between atoms: C7_7  and  C9_9 
ROOT
HETATM    1  C3  UNL     1     -33.992   6.598   5.558  1.00 20.00     0.002 C 
HETATM    2  C4  UNL     1     -33.159   7.724   4.952  1.00 20.00     0.005 C 
HETATM    3  C5  UNL     1     -35.026   6.066   4.566  1.00 20.00     0.020 C 
HETATM    4  C6  UNL     1     -33.538   6.767   2.642  1.00 20.00     0.025 C 
HETATM    5  C7  UNL     1     -32.493   7.299   3.637  1.00 20.00    -0.010 C 
HETATM    6  C8  UNL     1     -34.413   5.653   3.227  1.00 20.00     0.082 C 
HETATM    7 CL10 UNL     1     -33.462   4.145   3.413  1.00 20.00    -0.125 Cl
ENDROOT
BRANCH   5   8
HETATM    8  C9  UNL     1     -31.717   8.467   3.026  1.00 20.00     0.031 C 
BRANCH   8   9
HETATM    9  C2  UNL     1     -32.144   8.717   1.614  1.00 20.00    -0.037 C 
HETATM   10  C1  UNL     1     -32.456   9.927   1.134  1.00 20.00     0.007 C 
ENDBRANCH   8   9
ENDBRANCH   5   8
TORSDOF 2
ENDMDL
MODEL 2
REMARK VINA RESULT:      -5.4      2.084      4.123
REMARK  2 active torsions:
REMARK  status: ('A' for Active; 'I' for Inactive)
REMARK    1  A    between atoms: C2_2  and  C9_9 
REMARK    2  A    between atoms: C7_7  and  C9_9 
ROOT
HETATM    1  C3  UNL     1     -32.357   8.441   4.843  1.00 20.00     0.002 C 
HETATM    2  C4  UNL     1     -33.416   7.354   5.012  1.00 20.00     0.005 C 
HETATM    3  C5  UNL     1     -31.386   8.110   3.710  1.00 20.00     0.020 C 
HETATM    4  C6  UNL     1     -33.188   6.748   2.567  1.00 20.00     0.025 C 
HETATM    5  C7  UNL     1     -34.170   7.082   3.703  1.00 20.00    -0.010 C 
HETATM    6  C8  UNL     1     -32.093   7.804   2.388  1.00 20.00     0.082 C 
HETATM    7 CL10 UNL     1     -32.780   9.302   1.685  1.00 20.00    -0.125 Cl
ENDROOT
BRANCH   5   8
HETATM    8  C9  UNL     1     -35.178   5.948   3.890  1.00 20.00     0.031 C 
BRANCH   8   9
HETATM    9  C2  UNL     1     -34.662   4.918   4.844  1.00 20.00    -0.037 C 
HETATM   10  C1  UNL     1     -34.024   3.805   4.465  1.00 20.00     0.007 C 
ENDBRANCH   8   9
ENDBRANCH   5   8
TORSDOF 2
ENDMDL
MODEL 3
REMARK VINA RESULT:      -5.1      1.429      2.070
REMARK  2 active torsions:
REMARK  status: ('A' for Active; 'I' for Inactive)
REMARK    1  A    between atoms: C2_2  and  C9_9 
REMARK    2  A    between atoms: C7_7  and  C9_9 
ROOT
HETATM    1  C3  UNL     1     -33.415   4.586   2.795  1.00 20.00     0.002 C 
HETATM    2  C4  UNL     1     -32.423   5.739   2.662  1.00 20.00     0.005 C 
HETATM    3  C5  UNL     1     -34.072   4.564   4.174  1.00 20.00     0.020 C 
HETATM    4  C6  UNL     1     -33.730   7.064   4.375  1.00 20.00     0.025 C 
HETATM    5  C7  UNL     1     -33.072   7.092   2.985  1.00 20.00    -0.010 C 
HETATM    6  C8  UNL     1     -34.711   5.902   4.554  1.00 20.00     0.082 C 
HETATM    7 CL10 UNL     1     -36.194   6.182   3.587  1.00 20.00    -0.125 Cl
ENDROOT
BRANCH   5   8
HETATM    8  C9  UNL     1     -32.039   8.216   2.902  1.00 20.00     0.031 C 
BRANCH   8   9
HETATM    9  C2  UNL     1     -31.881   8.702   1.496  1.00 20.00    -0.037 C 
HETATM   10  C1  UNL     1     -32.460   9.811   1.022  1.00 20.00     0.007 C 
ENDBRANCH   8   9
ENDBRANCH   5   8
TORSDOF 2
ENDMDL
MODEL 4
REMARK VINA RESULT:      -4.8      0.817      1.085
REMARK  2 active torsions:
REMARK  status: ('A' for Active; 'I' for Inactive)
REMARK    1  A    between atoms: C2_2  and  C9_9 
REMARK    2  A    between atoms: C7_7  and  C9_9 
ROOT
HETATM    1  C3  UNL     1     -33.124   7.264   4.896  1.00 20.00     0.002 C 
HETATM    2  C4  UNL     1     -32.443   8.236   3.936  1.00 20.00     0.005 C 
HETATM    3  C5  UNL     1     -34.392   6.668   4.287  1.00 20.00     0.020 C 
HETATM    4  C6  UNL     1     -33.431   6.993   1.969  1.00 20.00     0.025 C 
HETATM    5  C7  UNL     1     -32.150   7.588   2.577  1.00 20.00    -0.010 C 
HETATM    6  C8  UNL     1     -34.157   6.032   2.916  1.00 20.00     0.082 C 
HETATM    7 CL10 UNL     1     -33.233   4.505   3.085  1.00 20.00    -0.125 Cl
ENDROOT
BRANCH   5   8
HETATM    8  C9  UNL     1     -31.525   8.605   1.621  1.00 20.00     0.031 C 
BRANCH   8   9
HETATM    9  C2  UNL     1     -32.531   9.621   1.182  1.00 20.00    -0.037 C 
HETATM   10  C1  UNL     1     -33.125   9.612  -0.018  1.00 20.00     0.007 C 
ENDBRANCH   8   9
ENDBRANCH   5   8
TORSDOF 2
ENDMDL
MODEL 5
REMARK VINA RESULT:      -4.2     11.110     12.068
REMARK  2 active torsions:
REMARK  status: ('A' for Active; 'I' for Inactive)
REMARK    1  A    between atoms: C2_2  and  C9_9 
REMARK    2  A    between atoms: C7_7  and  C9_9 
ROOT
HETATM    1  C3  UNL     1     -33.958  15.192  -7.061  1.00 20.00     0.002 C 
HETATM    2  C4  UNL     1     -33.377  15.723  -5.753  1.00 20.00     0.005 C 
HETATM    3  C5  UNL     1     -34.499  13.772  -6.900  1.00 20.00     0.020 C 
HETATM    4  C6  UNL     1     -34.930  14.215  -4.446  1.00 20.00     0.025 C 
HETATM    5  C7  UNL     1     -34.391  15.646  -4.603  1.00 20.00    -0.010 C 
HETATM    6  C8  UNL     1     -35.496  13.638  -5.747  1.00 20.00     0.082 C 
HETATM    7 CL10 UNL     1     -37.044  14.439  -6.163  1.00 20.00    -0.125 Cl
ENDROOT
BRANCH   5   8
HETATM    8  C9  UNL     1     -33.759  16.128  -3.297  1.00 20.00     0.031 C 
BRANCH   8   9
HETATM    9  C2  UNL     1     -34.806  16.519  -2.303  1.00 20.00    -0.037 C 
HETATM   10  C1  UNL     1     -34.550  17.202  -1.181  1.00 20.00     0.007 C 
ENDBRANCH   8   9
ENDBRANCH   5   8
TORSDOF 2
ENDMDL
MODEL 6
REMARK VINA RESULT:      -4.1     11.498     12.099
REMARK  2 active torsions:
REMARK  status: ('A' for Active; 'I' for Inactive)
REMARK    1  A    between atoms: C2_2  and  C9_9 
REMARK    2  A    between atoms: C7_7  and  C9_9 
ROOT
HETATM    1  C3  UNL     1     -33.333  17.646  -2.459  1.00 20.00     0.002 C 
HETATM    2  C4  UNL     1     -32.646  18.106  -1.176  1.00 20.00     0.005 C 
HETATM    3  C5  UNL     1     -34.472  16.669  -2.169  1.00 20.00     0.020 C 
HETATM    4  C6  UNL     1     -34.785  17.715   0.115  1.00 20.00     0.025 C 
HETATM    5  C7  UNL     1     -33.643  18.703  -0.174  1.00 20.00    -0.010 C 
HETATM    6  C8  UNL     1     -35.480  17.210  -1.153  1.00 20.00     0.082 C 
HETATM    7 CL10 UNL     1     -36.466  18.516  -1.886  1.00 20.00    -0.125 Cl
ENDROOT
BRANCH   5   8
HETATM    8  C9  UNL     1     -32.932  19.096   1.122  1.00 20.00     0.031 C 
BRANCH   8   9
HETATM    9  C2  UNL     1     -31.465  18.818   1.038  1.00 20.00    -0.037 C 
HETATM   10  C1  UNL     1     -30.665  18.712   2.105  1.00 20.00     0.007 C 
ENDBRANCH   8   9
ENDBRANCH   5   8
TORSDOF 2
ENDMDL
MODEL 7
REMARK VINA RESULT:      -4.1     11.157     11.807
REMARK  2 active torsions:
REMARK  status: ('A' for Active; 'I' for Inactive)
REMARK    1  A    between atoms: C2_2  and  C9_9 
REMARK    2  A    between atoms: C7_7  and  C9_9 
ROOT
HETATM    1  C3  UNL     1     -36.198  15.733  -3.959  1.00 20.00     0.002 C 
HETATM    2  C4  UNL     1     -35.945  16.616  -2.740  1.00 20.00     0.005 C 
HETATM    3  C5  UNL     1     -35.224  16.047  -5.094  1.00 20.00     0.020 C 
HETATM    4  C6  UNL     1     -33.516  16.845  -3.405  1.00 20.00     0.025 C 
HETATM    5  C7  UNL     1     -34.491  16.526  -2.259  1.00 20.00    -0.010 C 
HETATM    6  C8  UNL     1     -33.758  15.995  -4.656  1.00 20.00     0.082 C 
HETATM    7 CL10 UNL     1     -33.251  14.300  -4.368  1.00 20.00    -0.125 Cl
ENDROOT
BRANCH   5   8
HETATM    8  C9  UNL     1     -34.256  17.467  -1.078  1.00 20.00     0.031 C 
BRANCH   8   9
HETATM    9  C2  UNL     1     -32.991  18.247  -1.252  1.00 20.00    -0.037 C 
HETATM   10  C1  UNL     1     -32.177  18.579  -0.244  1.00 20.00     0.007 C 
ENDBRANCH   8   9
ENDBRANCH   5   8
TORSDOF 2
ENDMDL
MODEL 8
REMARK VINA RESULT:      -4.1     11.000     11.765
REMARK  2 active torsions:
REMARK  status: ('A' for Active; 'I' for Inactive)
REMARK    1  A    between atoms: C2_2  and  C9_9 
REMARK    2  A    between atoms: C7_7  and  C9_9 
ROOT
HETATM    1  C3  UNL     1     -33.139  18.286  -0.638  1.00 20.00     0.002 C 
HETATM    2  C4  UNL     1     -33.337  17.457  -1.905  1.00 20.00     0.005 C 
HETATM    3  C5  UNL     1     -34.324  19.217  -0.383  1.00 20.00     0.020 C 
HETATM    4  C6  UNL     1     -35.845  17.616  -1.620  1.00 20.00     0.025 C 
HETATM    5  C7  UNL     1     -34.657  16.674  -1.875  1.00 20.00    -0.010 C 
HETATM    6  C8  UNL     1     -35.668  18.485  -0.371  1.00 20.00     0.082 C 
HETATM    7 CL10 UNL     1     -35.823  17.488   1.110  1.00 20.00    -0.125 Cl
ENDROOT
BRANCH   5   8
HETATM    8  C9  UNL     1     -34.853  15.904  -3.182  1.00 20.00     0.031 C 
BRANCH   8   9
HETATM    9  C2  UNL     1     -33.550  15.689  -3.883  1.00 20.00    -0.037 C 
HETATM   10  C1  UNL     1     -33.160  14.513  -4.388  1.00 20.00     0.007 C 
ENDBRANCH   8   9
ENDBRANCH   5   8
TORSDOF 2
ENDMDL
MODEL 9
REMARK VINA RESULT:      -4.0     10.868     11.985
REMARK  2 active torsions:
REMARK  status: ('A' for Active; 'I' for Inactive)
REMARK    1  A    between atoms: C2_2  and  C9_9 
REMARK    2  A    between atoms: C7_7  and  C9_9 
ROOT
HETATM    1  C3  UNL     1     -35.537  16.614  -5.843  1.00 20.00     0.002 C 
HETATM    2  C4  UNL     1     -35.240  17.163  -4.450  1.00 20.00     0.005 C 
HETATM    3  C5  UNL     1     -34.566  15.498  -6.227  1.00 20.00     0.020 C 
HETATM    4  C6  UNL     1     -34.248  14.935  -3.780  1.00 20.00     0.025 C 
HETATM    5  C7  UNL     1     -35.228  16.054  -3.389  1.00 20.00    -0.010 C 
HETATM    6  C8  UNL     1     -34.498  14.379  -5.185  1.00 20.00     0.082 C 
HETATM    7 CL10 UNL     1     -36.004  13.407  -5.213  1.00 20.00    -0.125 Cl
ENDROOT
BRANCH   5   8
HETATM    8  C9  UNL     1     -34.868  16.627  -2.018  1.00 20.00     0.031 C 
BRANCH   8   9
HETATM    9  C2  UNL     1     -33.479  17.183  -2.013  1.00 20.00    -0.037 C 
HETATM   10  C1  UNL     1     -33.043  18.093  -1.134  1.00 20.00     0.007 C 
ENDBRANCH   8   9
ENDBRANCH   5   8
TORSDOF 2
ENDMDL
