MODEL 1
REMARK VINA RESULT:      -5.9      0.000      0.000
REMARK  4 active torsions:
REMARK  status: ('A' for Active; 'I' for Inactive)
REMARK    1  A    between atoms: C4_4  and  C6_6 
REMARK    2  A    between atoms: C5_5  and  C8_8 
REMARK    3  A    between atoms: C6_6  and  C7_7 
REMARK    4  A    between atoms: C7_7  and  C8_8 
ROOT
HETATM    1  C1  UNL     1     -32.278   9.251   1.076  1.00 20.00     0.012 C 
HETATM    2  C2  UNL     1     -32.228   8.401   1.924  1.00 20.00    -0.117 C 
HETATM    3  C4  UNL     1     -32.165   7.363   2.962  1.00 20.00     0.093 C 
ENDROOT
BRANCH   3   4
HETATM    4  C6  UNL     1     -33.176   6.240   2.723  1.00 20.00     0.014 C 
BRANCH   4   5
HETATM    5  C7  UNL     1     -34.520   6.494   3.424  1.00 20.00     0.021 C 
BRANCH   5   6
HETATM    6  C8  UNL     1     -34.851   5.439   4.490  1.00 20.00     0.082 C 
HETATM    7 CL9  UNL     1     -34.048   3.883   4.104  1.00 20.00    -0.125 Cl
BRANCH   6   8
HETATM    8  C5  UNL     1     -34.488   5.890   5.915  1.00 20.00     0.016 C 
HETATM    9  C3  UNL     1     -33.864   7.275   6.026  1.00 20.00     0.006 C 
ENDBRANCH   6   8
ENDBRANCH   5   6
ENDBRANCH   4   5
ENDBRANCH   3   4
TORSDOF 4
ENDMDL
MODEL 2
REMARK VINA RESULT:      -5.9      0.975      1.471
REMARK  4 active torsions:
REMARK  status: ('A' for Active; 'I' for Inactive)
REMARK    1  A    between atoms: C4_4  and  C6_6 
REMARK    2  A    between atoms: C5_5  and  C8_8 
REMARK    3  A    between atoms: C6_6  and  C7_7 
REMARK    4  A    between atoms: C7_7  and  C8_8 
ROOT
HETATM    1  C1  UNL     1     -32.918   9.520  -0.057  1.00 20.00     0.012 C 
HETATM    2  C2  UNL     1     -32.454   9.214   1.008  1.00 20.00    -0.117 C 
HETATM    3  C4  UNL     1     -31.884   8.844   2.312  1.00 20.00     0.093 C 
ENDROOT
BRANCH   3   4
HETATM    4  C6  UNL     1     -32.217   7.402   2.703  1.00 20.00     0.014 C 
BRANCH   4   5
HETATM    5  C7  UNL     1     -33.561   7.283   3.437  1.00 20.00     0.021 C 
BRANCH   5   6
HETATM    6  C8  UNL     1     -34.199   5.892   3.300  1.00 20.00     0.082 C 
HETATM    7 CL9  UNL     1     -33.031   4.734   2.586  1.00 20.00    -0.125 Cl
BRANCH   6   8
HETATM    8  C5  UNL     1     -34.747   5.349   4.630  1.00 20.00     0.016 C 
HETATM    9  C3  UNL     1     -34.400   6.168   5.866  1.00 20.00     0.006 C 
ENDBRANCH   6   8
ENDBRANCH   5   6
ENDBRANCH   4   5
ENDBRANCH   3   4
TORSDOF 4
ENDMDL
MODEL 3
REMARK VINA RESULT:      -5.7      1.265      2.113
REMARK  4 active torsions:
REMARK  status: ('A' for Active; 'I' for Inactive)
REMARK    1  A    between atoms: C4_4  and  C6_6 
REMARK    2  A    between atoms: C5_5  and  C8_8 
REMARK    3  A    between atoms: C6_6  and  C7_7 
REMARK    4  A    between atoms: C7_7  and  C8_8 
ROOT
HETATM    1  C1  UNL     1     -33.219   9.430  -0.633  1.00 20.00     0.012 C 
HETATM    2  C2  UNL     1     -32.740   9.425   0.468  1.00 20.00    -0.117 C 
HETATM    3  C4  UNL     1     -32.154   9.422   1.816  1.00 20.00     0.093 C 
ENDROOT
BRANCH   3   4
HETATM    4  C6  UNL     1     -31.854   8.007   2.316  1.00 20.00     0.014 C 
BRANCH   4   5
HETATM    5  C7  UNL     1     -32.356   7.767   3.748  1.00 20.00     0.021 C 
BRANCH   5   6
HETATM    6  C8  UNL     1     -33.698   7.020   3.798  1.00 20.00     0.082 C 
HETATM    7 CL9  UNL     1     -33.663   5.595   2.710  1.00 20.00    -0.125 Cl
BRANCH   6   8
HETATM    8  C5  UNL     1     -34.099   6.597   5.221  1.00 20.00     0.016 C 
HETATM    9  C3  UNL     1     -34.668   5.191   5.352  1.00 20.00     0.006 C 
ENDBRANCH   6   8
ENDBRANCH   5   6
ENDBRANCH   4   5
ENDBRANCH   3   4
TORSDOF 4
ENDMDL
MODEL 4
REMARK VINA RESULT:      -5.6      1.717      2.175
REMARK  4 active torsions:
REMARK  status: ('A' for Active; 'I' for Inactive)
REMARK    1  A    between atoms: C4_4  and  C6_6 
REMARK    2  A    between atoms: C5_5  and  C8_8 
REMARK    3  A    between atoms: C6_6  and  C7_7 
REMARK    4  A    between atoms: C7_7  and  C8_8 
ROOT
HETATM    1  C1  UNL     1     -32.607  10.088   0.479  1.00 20.00     0.012 C 
HETATM    2  C2  UNL     1     -32.279   9.424   1.425  1.00 20.00    -0.117 C 
HETATM    3  C4  UNL     1     -31.875   8.615   2.584  1.00 20.00     0.093 C 
ENDROOT
BRANCH   3   4
HETATM    4  C6  UNL     1     -32.576   7.255   2.615  1.00 20.00     0.014 C 
BRANCH   4   5
HETATM    5  C7  UNL     1     -33.848   7.264   3.476  1.00 20.00     0.021 C 
BRANCH   5   6
HETATM    6  C8  UNL     1     -33.682   6.510   4.804  1.00 20.00     0.082 C 
HETATM    7 CL9  UNL     1     -33.788   7.645   6.187  1.00 20.00    -0.125 Cl
BRANCH   6   8
HETATM    8  C5  UNL     1     -34.691   5.362   4.974  1.00 20.00     0.016 C 
HETATM    9  C3  UNL     1     -34.288   4.035   4.345  1.00 20.00     0.006 C 
ENDBRANCH   6   8
ENDBRANCH   5   6
ENDBRANCH   4   5
ENDBRANCH   3   4
TORSDOF 4
ENDMDL
MODEL 5
REMARK VINA RESULT:      -5.6      1.869      4.423
REMARK  4 active torsions:
REMARK  status: ('A' for Active; 'I' for Inactive)
REMARK    1  A    between atoms: C4_4  and  C6_6 
REMARK    2  A    between atoms: C5_5  and  C8_8 
REMARK    3  A    between atoms: C6_6  and  C7_7 
REMARK    4  A    between atoms: C7_7  and  C8_8 
ROOT
HETATM    1  C1  UNL     1     -33.802   7.294   6.168  1.00 20.00     0.012 C 
HETATM    2  C2  UNL     1     -34.172   6.522   5.325  1.00 20.00    -0.117 C 
HETATM    3  C4  UNL     1     -34.626   5.575   4.297  1.00 20.00     0.093 C 
ENDROOT
BRANCH   3   4
HETATM    4  C6  UNL     1     -34.370   6.091   2.879  1.00 20.00     0.014 C 
BRANCH   4   5
HETATM    5  C7  UNL     1     -32.898   6.461   2.640  1.00 20.00     0.021 C 
BRANCH   5   6
HETATM    6  C8  UNL     1     -32.650   7.978   2.650  1.00 20.00     0.082 C 
HETATM    7 CL9  UNL     1     -31.310   8.386   3.768  1.00 20.00    -0.125 Cl
BRANCH   6   8
HETATM    8  C5  UNL     1     -32.374   8.551   1.251  1.00 20.00     0.016 C 
HETATM    9  C3  UNL     1     -32.657  10.038   1.083  1.00 20.00     0.006 C 
ENDBRANCH   6   8
ENDBRANCH   5   6
ENDBRANCH   4   5
ENDBRANCH   3   4
TORSDOF 4
ENDMDL
MODEL 6
REMARK VINA RESULT:      -5.2      1.381      4.346
REMARK  4 active torsions:
REMARK  status: ('A' for Active; 'I' for Inactive)
REMARK    1  A    between atoms: C4_4  and  C6_6 
REMARK    2  A    between atoms: C5_5  and  C8_8 
REMARK    3  A    between atoms: C6_6  and  C7_7 
REMARK    4  A    between atoms: C7_7  and  C8_8 
ROOT
HETATM    1  C1  UNL     1     -34.307   3.944   4.487  1.00 20.00     0.012 C 
HETATM    2  C2  UNL     1     -34.460   4.934   5.150  1.00 20.00    -0.117 C 
HETATM    3  C4  UNL     1     -34.651   6.143   5.963  1.00 20.00     0.093 C 
ENDROOT
BRANCH   3   4
HETATM    4  C6  UNL     1     -33.652   7.246   5.608  1.00 20.00     0.014 C 
BRANCH   4   5
HETATM    5  C7  UNL     1     -33.724   7.657   4.129  1.00 20.00     0.021 C 
BRANCH   5   6
HETATM    6  C8  UNL     1     -32.486   7.232   3.325  1.00 20.00     0.082 C 
HETATM    7 CL9  UNL     1     -32.928   5.997   2.102  1.00 20.00    -0.125 Cl
BRANCH   6   8
HETATM    8  C5  UNL     1     -31.767   8.415   2.657  1.00 20.00     0.016 C 
HETATM    9  C3  UNL     1     -32.501   9.051   1.483  1.00 20.00     0.006 C 
ENDBRANCH   6   8
ENDBRANCH   5   6
ENDBRANCH   4   5
ENDBRANCH   3   4
TORSDOF 4
ENDMDL
MODEL 7
REMARK VINA RESULT:      -5.0      2.398      5.098
REMARK  4 active torsions:
REMARK  status: ('A' for Active; 'I' for Inactive)
REMARK    1  A    between atoms: C4_4  and  C6_6 
REMARK    2  A    between atoms: C5_5  and  C8_8 
REMARK    3  A    between atoms: C6_6  and  C7_7 
REMARK    4  A    between atoms: C7_7  and  C8_8 
ROOT
HETATM    1  C1  UNL     1     -34.668   4.992   5.290  1.00 20.00     0.012 C 
HETATM    2  C2  UNL     1     -34.224   6.090   5.089  1.00 20.00    -0.117 C 
HETATM    3  C4  UNL     1     -33.682   7.435   4.846  1.00 20.00     0.093 C 
ENDROOT
BRANCH   3   4
HETATM    4  C6  UNL     1     -32.578   7.433   3.787  1.00 20.00     0.014 C 
BRANCH   4   5
HETATM    5  C7  UNL     1     -33.071   7.917   2.415  1.00 20.00     0.021 C 
BRANCH   5   6
HETATM    6  C8  UNL     1     -32.200   9.036   1.823  1.00 20.00     0.082 C 
HETATM    7 CL9  UNL     1     -30.934   8.346   0.757  1.00 20.00    -0.125 Cl
BRANCH   6   8
HETATM    8  C5  UNL     1     -33.016  10.097   1.067  1.00 20.00     0.016 C 
HETATM    9  C3  UNL     1     -33.314   9.780  -0.393  1.00 20.00     0.006 C 
ENDBRANCH   6   8
ENDBRANCH   5   6
ENDBRANCH   4   5
ENDBRANCH   3   4
TORSDOF 4
ENDMDL
MODEL 8
REMARK VINA RESULT:      -4.8      1.425      3.850
REMARK  4 active torsions:
REMARK  status: ('A' for Active; 'I' for Inactive)
REMARK    1  A    between atoms: C4_4  and  C6_6 
REMARK    2  A    between atoms: C5_5  and  C8_8 
REMARK    3  A    between atoms: C6_6  and  C7_7 
REMARK    4  A    between atoms: C7_7  and  C8_8 
ROOT
HETATM    1  C1  UNL     1     -33.735   7.517   5.980  1.00 20.00     0.012 C 
HETATM    2  C2  UNL     1     -34.105   6.376   5.917  1.00 20.00    -0.117 C 
HETATM    3  C4  UNL     1     -34.557   4.979   5.844  1.00 20.00     0.093 C 
ENDROOT
BRANCH   3   4
HETATM    4  C6  UNL     1     -34.709   4.492   4.401  1.00 20.00     0.014 C 
BRANCH   4   5
HETATM    5  C7  UNL     1     -33.402   4.593   3.601  1.00 20.00     0.021 C 
BRANCH   5   6
HETATM    6  C8  UNL     1     -33.429   5.707   2.543  1.00 20.00     0.082 C 
HETATM    7 CL9  UNL     1     -35.047   6.476   2.483  1.00 20.00    -0.125 Cl
BRANCH   6   8
HETATM    8  C5  UNL     1     -32.339   6.769   2.760  1.00 20.00     0.016 C 
HETATM    9  C3  UNL     1     -32.682   8.171   2.274  1.00 20.00     0.006 C 
ENDBRANCH   6   8
ENDBRANCH   5   6
ENDBRANCH   4   5
ENDBRANCH   3   4
TORSDOF 4
ENDMDL
MODEL 9
REMARK VINA RESULT:      -4.6      2.262      4.147
REMARK  4 active torsions:
REMARK  status: ('A' for Active; 'I' for Inactive)
REMARK    1  A    between atoms: C4_4  and  C6_6 
REMARK    2  A    between atoms: C5_5  and  C8_8 
REMARK    3  A    between atoms: C6_6  and  C7_7 
REMARK    4  A    between atoms: C7_7  and  C8_8 
ROOT
HETATM    1  C1  UNL     1     -34.736   5.519   5.927  1.00 20.00     0.012 C 
HETATM    2  C2  UNL     1     -34.441   4.966   4.902  1.00 20.00    -0.117 C 
HETATM    3  C4  UNL     1     -34.082   4.286   3.650  1.00 20.00     0.093 C 
ENDROOT
BRANCH   3   4
HETATM    4  C6  UNL     1     -33.094   5.099   2.810  1.00 20.00     0.014 C 
BRANCH   4   5
HETATM    5  C7  UNL     1     -33.438   6.596   2.775  1.00 20.00     0.021 C 
BRANCH   5   6
HETATM    6  C8  UNL     1     -32.212   7.490   2.535  1.00 20.00     0.082 C 
HETATM    7 CL9  UNL     1     -32.575   8.731   1.293  1.00 20.00    -0.125 Cl
BRANCH   6   8
HETATM    8  C5  UNL     1     -31.692   8.155   3.820  1.00 20.00     0.016 C 
HETATM    9  C3  UNL     1     -32.653   8.138   5.003  1.00 20.00     0.006 C 
ENDBRANCH   6   8
ENDBRANCH   5   6
ENDBRANCH   4   5
ENDBRANCH   3   4
TORSDOF 4
ENDMDL
