MODEL 1
REMARK VINA RESULT:      -5.3      0.000      0.000
REMARK  3 active torsions:
REMARK  status: ('A' for Active; 'I' for Inactive)
REMARK    1  A    between atoms: C4_4  and  C5_5 
REMARK    2  A    between atoms: C5_5  and  C6_6 
REMARK    3  A    between atoms: C6_6  and  C7_7 
ROOT
HETATM    1  C1  UNL     1     -33.680   7.115   4.783  1.00 20.00     0.033 C 
HETATM    2  C2  UNL     1     -34.634   5.941   4.709  1.00 20.00     0.168 C 
HETATM    3  C3  UNL     1     -33.183   5.821   2.891  1.00 20.00     0.172 C 
HETATM    4  C4  UNL     1     -33.272   7.271   3.334  1.00 20.00     0.011 C 
HETATM    5  O8  UNL     1     -34.181   5.106   3.634  1.00 20.00    -0.391 OA
ENDROOT
BRANCH   4   6
HETATM    6  C5  UNL     1     -31.991   8.054   3.128  1.00 20.00     0.008 C 
BRANCH   6   7
HETATM    7  C6  UNL     1     -31.779   8.414   1.657  1.00 20.00     0.015 C 
BRANCH   7   8
HETATM    8  C7  UNL     1     -32.586   9.646   1.269  1.00 20.00     0.114 C 
HETATM    9 CL9  UNL     1     -33.146   9.516  -0.415  1.00 20.00    -0.130 Cl
ENDBRANCH   7   8
ENDBRANCH   6   7
ENDBRANCH   4   6
TORSDOF 3
ENDMDL
MODEL 2
REMARK VINA RESULT:      -5.3      1.172      1.417
REMARK  3 active torsions:
REMARK  status: ('A' for Active; 'I' for Inactive)
REMARK    1  A    between atoms: C4_4  and  C5_5 
REMARK    2  A    between atoms: C5_5  and  C6_6 
REMARK    3  A    between atoms: C6_6  and  C7_7 
ROOT
HETATM    1  C1  UNL     1     -33.401   7.200   5.051  1.00 20.00     0.033 C 
HETATM    2  C2  UNL     1     -34.356   6.524   6.013  1.00 20.00     0.168 C 
HETATM    3  C3  UNL     1     -34.353   5.322   4.018  1.00 20.00     0.172 C 
HETATM    4  C4  UNL     1     -33.947   6.753   3.712  1.00 20.00     0.011 C 
HETATM    5  O8  UNL     1     -34.778   5.303   5.389  1.00 20.00    -0.391 OA
ENDROOT
BRANCH   4   6
HETATM    6  C5  UNL     1     -32.964   6.878   2.566  1.00 20.00     0.008 C 
BRANCH   6   7
HETATM    7  C6  UNL     1     -32.124   8.151   2.679  1.00 20.00     0.015 C 
BRANCH   7   8
HETATM    8  C7  UNL     1     -31.898   8.787   1.314  1.00 20.00     0.114 C 
HETATM    9 CL9  UNL     1     -32.753  10.343   1.206  1.00 20.00    -0.130 Cl
ENDBRANCH   7   8
ENDBRANCH   6   7
ENDBRANCH   4   6
TORSDOF 3
ENDMDL
MODEL 3
REMARK VINA RESULT:      -5.2      1.328      1.782
REMARK  3 active torsions:
REMARK  status: ('A' for Active; 'I' for Inactive)
REMARK    1  A    between atoms: C4_4  and  C5_5 
REMARK    2  A    between atoms: C5_5  and  C6_6 
REMARK    3  A    between atoms: C6_6  and  C7_7 
ROOT
HETATM    1  C1  UNL     1     -34.569   5.583   3.879  1.00 20.00     0.033 C 
HETATM    2  C2  UNL     1     -34.685   5.286   5.361  1.00 20.00     0.168 C 
HETATM    3  C3  UNL     1     -33.605   7.335   5.106  1.00 20.00     0.172 C 
HETATM    4  C4  UNL     1     -33.379   6.517   3.846  1.00 20.00     0.011 C 
HETATM    5  O8  UNL     1     -34.229   6.457   6.055  1.00 20.00    -0.391 OA
ENDROOT
BRANCH   4   6
HETATM    6  C5  UNL     1     -33.279   7.352   2.585  1.00 20.00     0.008 C 
BRANCH   6   7
HETATM    7  C6  UNL     1     -32.013   8.211   2.576  1.00 20.00     0.015 C 
BRANCH   7   8
HETATM    8  C7  UNL     1     -31.804   8.872   1.220  1.00 20.00     0.114 C 
HETATM    9 CL9  UNL     1     -32.737  10.383   1.115  1.00 20.00    -0.130 Cl
ENDBRANCH   7   8
ENDBRANCH   6   7
ENDBRANCH   4   6
TORSDOF 3
ENDMDL
MODEL 4
REMARK VINA RESULT:      -4.5      3.204      4.559
REMARK  3 active torsions:
REMARK  status: ('A' for Active; 'I' for Inactive)
REMARK    1  A    between atoms: C4_4  and  C5_5 
REMARK    2  A    between atoms: C5_5  and  C6_6 
REMARK    3  A    between atoms: C6_6  and  C7_7 
ROOT
HETATM    1  C1  UNL     1     -32.597   7.321   2.432  1.00 20.00     0.033 C 
HETATM    2  C2  UNL     1     -31.598   8.342   2.937  1.00 20.00     0.168 C 
HETATM    3  C3  UNL     1     -32.913   7.652   4.733  1.00 20.00     0.172 C 
HETATM    4  C4  UNL     1     -33.705   7.445   3.455  1.00 20.00     0.011 C 
HETATM    5  O8  UNL     1     -31.731   8.381   4.366  1.00 20.00    -0.391 OA
ENDROOT
BRANCH   4   6
HETATM    6  C5  UNL     1     -34.643   6.255   3.503  1.00 20.00     0.008 C 
BRANCH   6   7
HETATM    7  C6  UNL     1     -33.894   4.937   3.305  1.00 20.00     0.015 C 
BRANCH   7   8
HETATM    8  C7  UNL     1     -34.114   3.995   4.482  1.00 20.00     0.114 C 
HETATM    9 CL9  UNL     1     -34.704   4.896   5.897  1.00 20.00    -0.130 Cl
ENDBRANCH   7   8
ENDBRANCH   6   7
ENDBRANCH   4   6
TORSDOF 3
ENDMDL
MODEL 5
REMARK VINA RESULT:      -4.4      3.126      4.466
REMARK  3 active torsions:
REMARK  status: ('A' for Active; 'I' for Inactive)
REMARK    1  A    between atoms: C4_4  and  C5_5 
REMARK    2  A    between atoms: C5_5  and  C6_6 
REMARK    3  A    between atoms: C6_6  and  C7_7 
ROOT
HETATM    1  C1  UNL     1     -32.361   7.634   4.087  1.00 20.00     0.033 C 
HETATM    2  C2  UNL     1     -31.335   8.487   3.370  1.00 20.00     0.168 C 
HETATM    3  C3  UNL     1     -32.925   7.792   1.815  1.00 20.00     0.172 C 
HETATM    4  C4  UNL     1     -32.902   6.789   2.954  1.00 20.00     0.011 C 
HETATM    5  O8  UNL     1     -31.817   8.680   2.032  1.00 20.00    -0.391 OA
ENDROOT
BRANCH   4   6
HETATM    6  C5  UNL     1     -34.249   6.155   3.239  1.00 20.00     0.008 C 
BRANCH   6   7
HETATM    7  C6  UNL     1     -34.651   6.317   4.705  1.00 20.00     0.015 C 
BRANCH   7   8
HETATM    8  C7  UNL     1     -34.600   4.985   5.442  1.00 20.00     0.114 C 
HETATM    9 CL9  UNL     1     -34.083   3.687   4.342  1.00 20.00    -0.130 Cl
ENDBRANCH   7   8
ENDBRANCH   6   7
ENDBRANCH   4   6
TORSDOF 3
ENDMDL
MODEL 6
REMARK VINA RESULT:      -4.1      3.026      4.433
REMARK  3 active torsions:
REMARK  status: ('A' for Active; 'I' for Inactive)
REMARK    1  A    between atoms: C4_4  and  C5_5 
REMARK    2  A    between atoms: C5_5  and  C6_6 
REMARK    3  A    between atoms: C6_6  and  C7_7 
ROOT
HETATM    1  C1  UNL     1     -33.143   9.591   2.001  1.00 20.00     0.033 C 
HETATM    2  C2  UNL     1     -32.735  10.237   0.693  1.00 20.00     0.168 C 
HETATM    3  C3  UNL     1     -31.498   8.281   0.961  1.00 20.00     0.172 C 
HETATM    4  C4  UNL     1     -31.914   8.773   2.336  1.00 20.00     0.011 C 
HETATM    5  O8  UNL     1     -31.854   9.316   0.032  1.00 20.00    -0.391 OA
ENDROOT
BRANCH   4   6
HETATM    6  C5  UNL     1     -32.161   7.661   3.336  1.00 20.00     0.008 C 
BRANCH   6   7
HETATM    7  C6  UNL     1     -33.412   6.854   2.986  1.00 20.00     0.015 C 
BRANCH   7   8
HETATM    8  C7  UNL     1     -34.122   6.365   4.241  1.00 20.00     0.114 C 
HETATM    9 CL9  UNL     1     -33.653   7.353   5.644  1.00 20.00    -0.130 Cl
ENDBRANCH   7   8
ENDBRANCH   6   7
ENDBRANCH   4   6
TORSDOF 3
ENDMDL
MODEL 7
REMARK VINA RESULT:      -3.8     10.342     11.095
REMARK  3 active torsions:
REMARK  status: ('A' for Active; 'I' for Inactive)
REMARK    1  A    between atoms: C4_4  and  C5_5 
REMARK    2  A    between atoms: C5_5  and  C6_6 
REMARK    3  A    between atoms: C6_6  and  C7_7 
ROOT
HETATM    1  C1  UNL     1     -34.314  14.563  -6.638  1.00 20.00     0.033 C 
HETATM    2  C2  UNL     1     -35.031  13.245  -6.845  1.00 20.00     0.168 C 
HETATM    3  C3  UNL     1     -35.119  13.780  -4.579  1.00 20.00     0.172 C 
HETATM    4  C4  UNL     1     -33.907  14.466  -5.183  1.00 20.00     0.011 C 
HETATM    5  O8  UNL     1     -35.637  12.901  -5.590  1.00 20.00    -0.391 OA
ENDROOT
BRANCH   4   6
HETATM    6  C5  UNL     1     -33.573  15.797  -4.540  1.00 20.00     0.008 C 
BRANCH   6   7
HETATM    7  C6  UNL     1     -34.298  15.977  -3.206  1.00 20.00     0.015 C 
BRANCH   7   8
HETATM    8  C7  UNL     1     -33.578  16.983  -2.317  1.00 20.00     0.114 C 
HETATM    9 CL9  UNL     1     -34.530  17.309  -0.851  1.00 20.00    -0.130 Cl
ENDBRANCH   7   8
ENDBRANCH   6   7
ENDBRANCH   4   6
TORSDOF 3
ENDMDL
MODEL 8
REMARK VINA RESULT:      -3.8     10.125     10.788
REMARK  3 active torsions:
REMARK  status: ('A' for Active; 'I' for Inactive)
REMARK    1  A    between atoms: C4_4  and  C5_5 
REMARK    2  A    between atoms: C5_5  and  C6_6 
REMARK    3  A    between atoms: C6_6  and  C7_7 
ROOT
HETATM    1  C1  UNL     1     -36.192  15.419  -4.096  1.00 20.00     0.033 C 
HETATM    2  C2  UNL     1     -36.474  14.205  -4.957  1.00 20.00     0.168 C 
HETATM    3  C3  UNL     1     -34.296  14.039  -4.146  1.00 20.00     0.172 C 
HETATM    4  C4  UNL     1     -34.683  15.507  -4.175  1.00 20.00     0.011 C 
HETATM    5  O8  UNL     1     -35.347  13.327  -4.818  1.00 20.00    -0.391 OA
ENDROOT
BRANCH   4   6
HETATM    6  C5  UNL     1     -34.049  16.328  -3.070  1.00 20.00     0.008 C 
BRANCH   6   7
HETATM    7  C6  UNL     1     -35.036  16.605  -1.934  1.00 20.00     0.015 C 
BRANCH   7   8
HETATM    8  C7  UNL     1     -34.423  17.517  -0.880  1.00 20.00     0.114 C 
HETATM    9 CL9  UNL     1     -32.749  17.931  -1.315  1.00 20.00    -0.130 Cl
ENDBRANCH   7   8
ENDBRANCH   6   7
ENDBRANCH   4   6
TORSDOF 3
ENDMDL
MODEL 9
REMARK VINA RESULT:      -3.7     10.647     11.459
REMARK  3 active torsions:
REMARK  status: ('A' for Active; 'I' for Inactive)
REMARK    1  A    between atoms: C4_4  and  C5_5 
REMARK    2  A    between atoms: C5_5  and  C6_6 
REMARK    3  A    between atoms: C6_6  and  C7_7 
ROOT
HETATM    1  C1  UNL     1     -33.948  17.813  -0.682  1.00 20.00     0.033 C 
HETATM    2  C2  UNL     1     -32.723  18.702  -0.758  1.00 20.00     0.168 C 
HETATM    3  C3  UNL     1     -33.320  18.090  -2.925  1.00 20.00     0.172 C 
HETATM    4  C4  UNL     1     -33.836  17.028  -1.971  1.00 20.00     0.011 C 
HETATM    5  O8  UNL     1     -32.487  18.965  -2.149  1.00 20.00    -0.391 OA
ENDROOT
BRANCH   4   6
HETATM    6  C5  UNL     1     -35.132  16.381  -2.419  1.00 20.00     0.008 C 
BRANCH   6   7
HETATM    7  C6  UNL     1     -35.076  15.964  -3.890  1.00 20.00     0.015 C 
BRANCH   7   8
HETATM    8  C7  UNL     1     -34.625  14.517  -4.037  1.00 20.00     0.114 C 
HETATM    9 CL9  UNL     1     -32.880  14.443  -4.377  1.00 20.00    -0.130 Cl
ENDBRANCH   7   8
ENDBRANCH   6   7
ENDBRANCH   4   6
TORSDOF 3
ENDMDL
