MODEL 1
REMARK VINA RESULT:      -6.2      0.000      0.000
REMARK  2 active torsions:
REMARK  status: ('A' for Active; 'I' for Inactive)
REMARK    1  A    between atoms: C7_7  and  C9_9 
REMARK    2  A    between atoms: C8_8  and  O10_10 
ROOT
HETATM    1  C1  UNL     1     -32.558  10.112   0.728  1.00 20.00     0.012 C 
HETATM    2  C2  UNL     1     -32.233   9.169   1.395  1.00 20.00    -0.117 C 
HETATM    3  C9  UNL     1     -31.824   8.020   2.206  1.00 20.00     0.097 C 
ENDROOT
BRANCH   3   4
HETATM    4  C7  UNL     1     -33.027   7.384   2.902  1.00 20.00    -0.001 C 
HETATM    5  C4  UNL     1     -33.070   5.873   2.637  1.00 20.00     0.005 C 
HETATM    6  C3  UNL     1     -34.234   5.203   3.366  1.00 20.00     0.003 C 
HETATM    7  C5  UNL     1     -34.208   5.501   4.860  1.00 20.00     0.032 C 
HETATM    8  C8  UNL     1     -34.164   7.003   5.133  1.00 20.00     0.118 C 
HETATM    9  C6  UNL     1     -32.997   7.674   4.408  1.00 20.00     0.037 C 
BRANCH   8  10
HETATM   10  O10 UNL     1     -34.050   7.231   6.534  1.00 20.00    -0.396 OA
HETATM   11  H24 UNL     1     -34.779   6.747   6.953  1.00 20.00     0.210 HD
ENDBRANCH   8  10
ENDBRANCH   3   4
TORSDOF 2
ENDMDL
MODEL 2
REMARK VINA RESULT:      -5.6      1.402      2.176
REMARK  2 active torsions:
REMARK  status: ('A' for Active; 'I' for Inactive)
REMARK    1  A    between atoms: C7_7  and  C9_9 
REMARK    2  A    between atoms: C8_8  and  O10_10 
ROOT
HETATM    1  C1  UNL     1     -32.137   9.700   1.757  1.00 20.00     0.012 C 
HETATM    2  C2  UNL     1     -32.466   8.547   1.800  1.00 20.00    -0.117 C 
HETATM    3  C9  UNL     1     -32.869   7.140   1.841  1.00 20.00     0.097 C 
ENDROOT
BRANCH   3   4
HETATM    4  C7  UNL     1     -32.981   6.643   3.282  1.00 20.00    -0.001 C 
HETATM    5  C4  UNL     1     -33.302   7.805   4.232  1.00 20.00     0.005 C 
HETATM    6  C3  UNL     1     -33.472   7.328   5.674  1.00 20.00     0.003 C 
HETATM    7  C5  UNL     1     -34.517   6.223   5.780  1.00 20.00     0.032 C 
HETATM    8  C8  UNL     1     -34.206   5.063   4.838  1.00 20.00     0.118 C 
HETATM    9  C6  UNL     1     -34.039   5.539   3.394  1.00 20.00     0.037 C 
BRANCH   8  10
HETATM   10  O10 UNL     1     -35.251   4.099   4.906  1.00 20.00    -0.396 OA
HETATM   11  H24 UNL     1     -34.842   3.236   4.737  1.00 20.00     0.210 HD
ENDBRANCH   8  10
ENDBRANCH   3   4
TORSDOF 2
ENDMDL
MODEL 3
REMARK VINA RESULT:      -5.5      1.320      2.072
REMARK  2 active torsions:
REMARK  status: ('A' for Active; 'I' for Inactive)
REMARK    1  A    between atoms: C7_7  and  C9_9 
REMARK    2  A    between atoms: C8_8  and  O10_10 
ROOT
HETATM    1  C1  UNL     1     -32.910  10.314   1.408  1.00 20.00     0.012 C 
HETATM    2  C2  UNL     1     -32.441   9.220   1.554  1.00 20.00    -0.117 C 
HETATM    3  C9  UNL     1     -31.862   7.884   1.720  1.00 20.00     0.097 C 
ENDROOT
BRANCH   3   4
HETATM    4  C7  UNL     1     -32.343   7.237   3.018  1.00 20.00    -0.001 C 
HETATM    5  C4  UNL     1     -32.355   8.259   4.162  1.00 20.00     0.005 C 
HETATM    6  C3  UNL     1     -32.883   7.651   5.461  1.00 20.00     0.003 C 
HETATM    7  C5  UNL     1     -34.258   7.023   5.268  1.00 20.00     0.032 C 
HETATM    8  C8  UNL     1     -34.256   6.004   4.131  1.00 20.00     0.118 C 
HETATM    9  C6  UNL     1     -33.731   6.613   2.830  1.00 20.00     0.037 C 
BRANCH   8  10
HETATM   10  O10 UNL     1     -35.576   5.511   3.928  1.00 20.00    -0.396 OA
HETATM   11  H24 UNL     1     -36.175   6.265   4.051  1.00 20.00     0.210 HD
ENDBRANCH   8  10
ENDBRANCH   3   4
TORSDOF 2
ENDMDL
MODEL 4
REMARK VINA RESULT:      -5.2     10.798     11.765
REMARK  2 active torsions:
REMARK  status: ('A' for Active; 'I' for Inactive)
REMARK    1  A    between atoms: C7_7  and  C9_9 
REMARK    2  A    between atoms: C8_8  and  O10_10 
ROOT
HETATM    1  C1  UNL     1     -35.455  17.085  -1.169  1.00 20.00     0.012 C 
HETATM    2  C2  UNL     1     -34.622  16.808  -1.987  1.00 20.00    -0.117 C 
HETATM    3  C9  UNL     1     -33.596  16.473  -2.978  1.00 20.00     0.097 C 
ENDROOT
BRANCH   3   4
HETATM    4  C7  UNL     1     -34.229  15.947  -4.266  1.00 20.00    -0.001 C 
HETATM    5  C4  UNL     1     -33.200  15.925  -5.405  1.00 20.00     0.005 C 
HETATM    6  C3  UNL     1     -33.793  15.352  -6.692  1.00 20.00     0.003 C 
HETATM    7  C5  UNL     1     -34.397  13.971  -6.466  1.00 20.00     0.032 C 
HETATM    8  C8  UNL     1     -35.421  13.984  -5.335  1.00 20.00     0.118 C 
HETATM    9  C6  UNL     1     -34.829  14.553  -4.045  1.00 20.00     0.037 C 
BRANCH   8  10
HETATM   10  O10 UNL     1     -35.892  12.661  -5.100  1.00 20.00    -0.396 OA
HETATM   11  H24 UNL     1     -35.157  12.174  -4.695  1.00 20.00     0.210 HD
ENDBRANCH   8  10
ENDBRANCH   3   4
TORSDOF 2
ENDMDL
MODEL 5
REMARK VINA RESULT:      -4.9      2.204      4.479
REMARK  2 active torsions:
REMARK  status: ('A' for Active; 'I' for Inactive)
REMARK    1  A    between atoms: C7_7  and  C9_9 
REMARK    2  A    between atoms: C8_8  and  O10_10 
ROOT
HETATM    1  C1  UNL     1     -34.007   3.783   4.636  1.00 20.00     0.012 C 
HETATM    2  C2  UNL     1     -34.544   4.788   4.257  1.00 20.00    -0.117 C 
HETATM    3  C9  UNL     1     -35.209   6.008   3.794  1.00 20.00     0.097 C 
ENDROOT
BRANCH   3   4
HETATM    4  C7  UNL     1     -34.238   7.187   3.773  1.00 20.00    -0.001 C 
HETATM    5  C4  UNL     1     -33.378   7.204   5.044  1.00 20.00     0.005 C 
HETATM    6  C3  UNL     1     -32.361   8.344   5.025  1.00 20.00     0.003 C 
HETATM    7  C5  UNL     1     -31.493   8.302   3.772  1.00 20.00     0.032 C 
HETATM    8  C8  UNL     1     -32.340   8.285   2.503  1.00 20.00     0.118 C 
HETATM    9  C6  UNL     1     -33.357   7.142   2.518  1.00 20.00     0.037 C 
BRANCH   8  10
HETATM   10  O10 UNL     1     -31.494   8.155   1.365  1.00 20.00    -0.396 OA
HETATM   11  H24 UNL     1     -31.822   8.785   0.704  1.00 20.00     0.210 HD
ENDBRANCH   8  10
ENDBRANCH   3   4
TORSDOF 2
ENDMDL
MODEL 6
REMARK VINA RESULT:      -4.5     11.118     11.631
REMARK  2 active torsions:
REMARK  status: ('A' for Active; 'I' for Inactive)
REMARK    1  A    between atoms: C7_7  and  C9_9 
REMARK    2  A    between atoms: C8_8  and  O10_10 
ROOT
HETATM    1  C1  UNL     1     -34.933  17.757  -0.027  1.00 20.00     0.012 C 
HETATM    2  C2  UNL     1     -34.397  17.404  -1.041  1.00 20.00    -0.117 C 
HETATM    3  C9  UNL     1     -33.734  16.982  -2.277  1.00 20.00     0.097 C 
ENDROOT
BRANCH   3   4
HETATM    4  C7  UNL     1     -34.525  15.875  -2.973  1.00 20.00    -0.001 C 
HETATM    5  C4  UNL     1     -35.876  16.407  -3.472  1.00 20.00     0.005 C 
HETATM    6  C3  UNL     1     -36.666  15.333  -4.220  1.00 20.00     0.003 C 
HETATM    7  C5  UNL     1     -35.854  14.730  -5.360  1.00 20.00     0.032 C 
HETATM    8  C8  UNL     1     -34.509  14.199  -4.873  1.00 20.00     0.118 C 
HETATM    9  C6  UNL     1     -33.715  15.274  -4.128  1.00 20.00     0.037 C 
BRANCH   8  10
HETATM   10  O10 UNL     1     -33.750  13.729  -5.982  1.00 20.00    -0.396 OA
HETATM   11  H24 UNL     1     -33.302  14.503  -6.358  1.00 20.00     0.210 HD
ENDBRANCH   8  10
ENDBRANCH   3   4
TORSDOF 2
ENDMDL
MODEL 7
REMARK VINA RESULT:      -4.5     11.157     11.644
REMARK  2 active torsions:
REMARK  status: ('A' for Active; 'I' for Inactive)
REMARK    1  A    between atoms: C7_7  and  C9_9 
REMARK    2  A    between atoms: C8_8  and  O10_10 
ROOT
HETATM    1  C1  UNL     1     -33.418  15.369  -4.167  1.00 20.00     0.012 C 
HETATM    2  C2  UNL     1     -34.263  15.802  -3.433  1.00 20.00    -0.117 C 
HETATM    3  C9  UNL     1     -35.303  16.324  -2.542  1.00 20.00     0.097 C 
ENDROOT
BRANCH   3   4
HETATM    4  C7  UNL     1     -34.767  17.472  -1.688  1.00 20.00    -0.001 C 
HETATM    5  C4  UNL     1     -35.415  17.461  -0.297  1.00 20.00     0.005 C 
HETATM    6  C3  UNL     1     -34.858  18.568   0.597  1.00 20.00     0.003 C 
HETATM    7  C5  UNL     1     -33.338  18.499   0.695  1.00 20.00     0.032 C 
HETATM    8  C8  UNL     1     -32.685  18.510  -0.685  1.00 20.00     0.118 C 
HETATM    9  C6  UNL     1     -33.239  17.400  -1.580  1.00 20.00     0.037 C 
BRANCH   8  10
HETATM   10  O10 UNL     1     -31.277  18.354  -0.549  1.00 20.00    -0.396 OA
HETATM   11  H24 UNL     1     -31.116  17.409  -0.397  1.00 20.00     0.210 HD
ENDBRANCH   8  10
ENDBRANCH   3   4
TORSDOF 2
ENDMDL
MODEL 8
REMARK VINA RESULT:      -4.5     10.986     11.638
REMARK  2 active torsions:
REMARK  status: ('A' for Active; 'I' for Inactive)
REMARK    1  A    between atoms: C7_7  and  C9_9 
REMARK    2  A    between atoms: C8_8  and  O10_10 
ROOT
HETATM    1  C1  UNL     1     -33.171  17.597  -1.766  1.00 20.00     0.012 C 
HETATM    2  C2  UNL     1     -34.238  17.105  -2.010  1.00 20.00    -0.117 C 
HETATM    3  C9  UNL     1     -35.544  16.508  -2.296  1.00 20.00     0.097 C 
ENDROOT
BRANCH   3   4
HETATM    4  C7  UNL     1     -35.569  15.889  -3.693  1.00 20.00    -0.001 C 
HETATM    5  C4  UNL     1     -34.480  14.816  -3.830  1.00 20.00     0.005 C 
HETATM    6  C3  UNL     1     -34.517  14.142  -5.201  1.00 20.00     0.003 C 
HETATM    7  C5  UNL     1     -35.896  13.571  -5.509  1.00 20.00     0.032 C 
HETATM    8  C8  UNL     1     -36.986  14.632  -5.376  1.00 20.00     0.118 C 
HETATM    9  C6  UNL     1     -36.953  15.304  -4.002  1.00 20.00     0.037 C 
BRANCH   8  10
HETATM   10  O10 UNL     1     -38.262  14.036  -5.584  1.00 20.00    -0.396 OA
HETATM   11  H24 UNL     1     -38.921  14.687  -5.298  1.00 20.00     0.210 HD
ENDBRANCH   8  10
ENDBRANCH   3   4
TORSDOF 2
ENDMDL
MODEL 9
REMARK VINA RESULT:      -4.3      1.535      4.085
REMARK  2 active torsions:
REMARK  status: ('A' for Active; 'I' for Inactive)
REMARK    1  A    between atoms: C7_7  and  C9_9 
REMARK    2  A    between atoms: C8_8  and  O10_10 
ROOT
HETATM    1  C1  UNL     1     -34.703   5.001   5.633  1.00 20.00     0.012 C 
HETATM    2  C2  UNL     1     -34.589   5.354   4.492  1.00 20.00    -0.117 C 
HETATM    3  C9  UNL     1     -34.461   5.780   3.096  1.00 20.00     0.097 C 
ENDROOT
BRANCH   3   4
HETATM    4  C7  UNL     1     -33.171   6.570   2.880  1.00 20.00    -0.001 C 
HETATM    5  C4  UNL     1     -33.284   7.463   1.637  1.00 20.00     0.005 C 
HETATM    6  C3  UNL     1     -32.026   8.305   1.428  1.00 20.00     0.003 C 
HETATM    7  C5  UNL     1     -31.685   9.124   2.668  1.00 20.00     0.032 C 
HETATM    8  C8  UNL     1     -31.571   8.243   3.909  1.00 20.00     0.118 C 
HETATM    9  C6  UNL     1     -32.831   7.403   4.122  1.00 20.00     0.037 C 
BRANCH   8  10
HETATM   10  O10 UNL     1     -31.341   9.057   5.054  1.00 20.00    -0.396 OA
HETATM   11  H24 UNL     1     -30.381   9.071   5.195  1.00 20.00     0.210 HD
ENDBRANCH   8  10
ENDBRANCH   3   4
TORSDOF 2
ENDMDL
