MODEL 1
REMARK VINA RESULT:      -5.8      0.000      0.000
REMARK  5 active torsions:
REMARK  status: ('A' for Active; 'I' for Inactive)
REMARK    1  A    between atoms: C6_6  and  C7_7 
REMARK    2  A    between atoms: C7_7  and  C8_8 
REMARK    3  A    between atoms: C8_8  and  C9_9 
REMARK    4  A    between atoms: C9_9  and  C10_10 
REMARK    5  A    between atoms: C10_10  and  C11_11 
ROOT
HETATM    1  C1  UNL     1     -33.673   7.577   6.106  1.00 20.00     0.012 C 
HETATM    2  C2  UNL     1     -34.104   6.561   5.635  1.00 20.00    -0.117 C 
HETATM    3  C6  UNL     1     -34.637   5.316   5.062  1.00 20.00     0.093 C 
ENDROOT
BRANCH   3   4
HETATM    4  C7  UNL     1     -34.082   5.037   3.664  1.00 20.00     0.012 C 
BRANCH   4   5
HETATM    5  C8  UNL     1     -34.299   6.203   2.692  1.00 20.00     0.002 C 
BRANCH   5   6
HETATM    6  C9  UNL     1     -32.963   6.701   2.119  1.00 20.00     0.021 C 
BRANCH   6   7
HETATM    7  C10 UNL     1     -32.714   8.205   2.360  1.00 20.00     0.089 C 
HETATM    8 CL12 UNL     1     -31.389   8.392   3.570  1.00 20.00    -0.124 Cl
BRANCH   7   9
HETATM    9  C11 UNL     1     -32.428   9.040   1.062  1.00 20.00    -0.035 C 
HETATM   10  C3  UNL     1     -32.501  10.551   1.375  1.00 20.00     0.016 C 
HETATM   11  C4  UNL     1     -31.001   8.755   0.540  1.00 20.00     0.016 C 
HETATM   12  C5  UNL     1     -33.431   8.735  -0.067  1.00 20.00     0.016 C 
ENDBRANCH   7   9
ENDBRANCH   6   7
ENDBRANCH   5   6
ENDBRANCH   4   5
ENDBRANCH   3   4
TORSDOF 5
ENDMDL
MODEL 2
REMARK VINA RESULT:      -5.7      1.688      5.255
REMARK  5 active torsions:
REMARK  status: ('A' for Active; 'I' for Inactive)
REMARK    1  A    between atoms: C6_6  and  C7_7 
REMARK    2  A    between atoms: C7_7  and  C8_8 
REMARK    3  A    between atoms: C8_8  and  C9_9 
REMARK    4  A    between atoms: C9_9  and  C10_10 
REMARK    5  A    between atoms: C10_10  and  C11_11 
ROOT
HETATM    1  C1  UNL     1     -33.326   9.529  -0.931  1.00 20.00     0.012 C 
HETATM    2  C2  UNL     1     -32.859   9.595   0.173  1.00 20.00    -0.117 C 
HETATM    3  C6  UNL     1     -32.292   9.681   1.527  1.00 20.00     0.093 C 
ENDROOT
BRANCH   3   4
HETATM    4  C7  UNL     1     -31.541   8.408   1.923  1.00 20.00     0.012 C 
BRANCH   4   5
HETATM    5  C8  UNL     1     -31.627   8.107   3.424  1.00 20.00     0.002 C 
BRANCH   5   6
HETATM    6  C9  UNL     1     -33.088   7.944   3.872  1.00 20.00     0.021 C 
BRANCH   6   7
HETATM    7  C10 UNL     1     -33.325   6.700   4.755  1.00 20.00     0.089 C 
HETATM    8 CL12 UNL     1     -34.074   7.221   6.312  1.00 20.00    -0.124 Cl
BRANCH   7   9
HETATM    9  C11 UNL     1     -34.156   5.558   4.072  1.00 20.00    -0.035 C 
HETATM   10  C3  UNL     1     -34.432   4.423   5.082  1.00 20.00     0.016 C 
HETATM   11  C4  UNL     1     -35.530   6.094   3.608  1.00 20.00     0.016 C 
HETATM   12  C5  UNL     1     -33.433   4.951   2.854  1.00 20.00     0.016 C 
ENDBRANCH   7   9
ENDBRANCH   6   7
ENDBRANCH   5   6
ENDBRANCH   4   5
ENDBRANCH   3   4
TORSDOF 5
ENDMDL
MODEL 3
REMARK VINA RESULT:      -5.7      1.686      5.185
REMARK  5 active torsions:
REMARK  status: ('A' for Active; 'I' for Inactive)
REMARK    1  A    between atoms: C6_6  and  C7_7 
REMARK    2  A    between atoms: C7_7  and  C8_8 
REMARK    3  A    between atoms: C8_8  and  C9_9 
REMARK    4  A    between atoms: C9_9  and  C10_10 
REMARK    5  A    between atoms: C10_10  and  C11_11 
ROOT
HETATM    1  C1  UNL     1     -33.323   9.528  -0.876  1.00 20.00     0.012 C 
HETATM    2  C2  UNL     1     -32.883   9.614   0.238  1.00 20.00    -0.117 C 
HETATM    3  C6  UNL     1     -32.348   9.725   1.603  1.00 20.00     0.093 C 
ENDROOT
BRANCH   3   4
HETATM    4  C7  UNL     1     -31.481   8.524   1.985  1.00 20.00     0.012 C 
BRANCH   4   5
HETATM    5  C8  UNL     1     -31.614   8.138   3.463  1.00 20.00     0.002 C 
BRANCH   5   6
HETATM    6  C9  UNL     1     -33.088   7.942   3.852  1.00 20.00     0.021 C 
BRANCH   6   7
HETATM    7  C10 UNL     1     -33.336   6.673   4.696  1.00 20.00     0.089 C 
HETATM    8 CL12 UNL     1     -34.079   7.151   6.269  1.00 20.00    -0.124 Cl
BRANCH   7   9
HETATM    9  C11 UNL     1     -34.179   5.561   3.977  1.00 20.00    -0.035 C 
HETATM   10  C3  UNL     1     -33.424   5.040   2.734  1.00 20.00     0.016 C 
HETATM   11  C4  UNL     1     -34.390   4.352   4.917  1.00 20.00     0.016 C 
HETATM   12  C5  UNL     1     -35.560   6.071   3.521  1.00 20.00     0.016 C 
ENDBRANCH   7   9
ENDBRANCH   6   7
ENDBRANCH   5   6
ENDBRANCH   4   5
ENDBRANCH   3   4
TORSDOF 5
ENDMDL
MODEL 4
REMARK VINA RESULT:      -5.5      1.609      5.289
REMARK  5 active torsions:
REMARK  status: ('A' for Active; 'I' for Inactive)
REMARK    1  A    between atoms: C6_6  and  C7_7 
REMARK    2  A    between atoms: C7_7  and  C8_8 
REMARK    3  A    between atoms: C8_8  and  C9_9 
REMARK    4  A    between atoms: C9_9  and  C10_10 
REMARK    5  A    between atoms: C10_10  and  C11_11 
ROOT
HETATM    1  C1  UNL     1     -33.238   9.146  -0.828  1.00 20.00     0.012 C 
HETATM    2  C2  UNL     1     -32.885   9.743   0.152  1.00 20.00    -0.117 C 
HETATM    3  C6  UNL     1     -32.455  10.480   1.349  1.00 20.00     0.093 C 
ENDROOT
BRANCH   3   4
HETATM    4  C7  UNL     1     -32.084   9.546   2.502  1.00 20.00     0.012 C 
BRANCH   4   5
HETATM    5  C8  UNL     1     -32.010   8.074   2.079  1.00 20.00     0.002 C 
BRANCH   5   6
HETATM    6  C9  UNL     1     -32.331   7.143   3.258  1.00 20.00     0.021 C 
BRANCH   6   7
HETATM    7  C10 UNL     1     -33.446   6.120   2.947  1.00 20.00     0.089 C 
HETATM    8 CL12 UNL     1     -32.690   4.592   2.356  1.00 20.00    -0.124 Cl
BRANCH   7   9
HETATM    9  C11 UNL     1     -34.438   5.849   4.132  1.00 20.00    -0.035 C 
HETATM   10  C3  UNL     1     -34.099   6.762   5.330  1.00 20.00     0.016 C 
HETATM   11  C4  UNL     1     -35.888   6.180   3.708  1.00 20.00     0.016 C 
HETATM   12  C5  UNL     1     -34.393   4.386   4.615  1.00 20.00     0.016 C 
ENDBRANCH   7   9
ENDBRANCH   6   7
ENDBRANCH   5   6
ENDBRANCH   4   5
ENDBRANCH   3   4
TORSDOF 5
ENDMDL
MODEL 5
REMARK VINA RESULT:      -4.8      0.758      1.610
REMARK  5 active torsions:
REMARK  status: ('A' for Active; 'I' for Inactive)
REMARK    1  A    between atoms: C6_6  and  C7_7 
REMARK    2  A    between atoms: C7_7  and  C8_8 
REMARK    3  A    between atoms: C8_8  and  C9_9 
REMARK    4  A    between atoms: C9_9  and  C10_10 
REMARK    5  A    between atoms: C10_10  and  C11_11 
ROOT
HETATM    1  C1  UNL     1     -34.059   3.536   4.448  1.00 20.00     0.012 C 
HETATM    2  C2  UNL     1     -34.251   4.583   5.003  1.00 20.00    -0.117 C 
HETATM    3  C6  UNL     1     -34.486   5.861   5.690  1.00 20.00     0.093 C 
ENDROOT
BRANCH   3   4
HETATM    4  C7  UNL     1     -34.121   7.064   4.817  1.00 20.00     0.012 C 
BRANCH   4   5
HETATM    5  C8  UNL     1     -34.477   6.859   3.340  1.00 20.00     0.002 C 
BRANCH   5   6
HETATM    6  C9  UNL     1     -33.240   7.032   2.444  1.00 20.00     0.021 C 
BRANCH   6   7
HETATM    7  C10 UNL     1     -32.636   8.451   2.497  1.00 20.00     0.089 C 
HETATM    8 CL12 UNL     1     -31.122   8.406   3.478  1.00 20.00    -0.124 Cl
BRANCH   7   9
HETATM    9  C11 UNL     1     -32.393   9.115   1.097  1.00 20.00    -0.035 C 
HETATM   10  C3  UNL     1     -32.445  10.654   1.221  1.00 20.00     0.016 C 
HETATM   11  C4  UNL     1     -30.988   8.752   0.564  1.00 20.00     0.016 C 
HETATM   12  C5  UNL     1     -33.438   8.683   0.050  1.00 20.00     0.016 C 
ENDBRANCH   7   9
ENDBRANCH   6   7
ENDBRANCH   5   6
ENDBRANCH   4   5
ENDBRANCH   3   4
TORSDOF 5
ENDMDL
MODEL 6
REMARK VINA RESULT:      -4.6      1.384      2.460
REMARK  5 active torsions:
REMARK  status: ('A' for Active; 'I' for Inactive)
REMARK    1  A    between atoms: C6_6  and  C7_7 
REMARK    2  A    between atoms: C7_7  and  C8_8 
REMARK    3  A    between atoms: C8_8  and  C9_9 
REMARK    4  A    between atoms: C9_9  and  C10_10 
REMARK    5  A    between atoms: C10_10  and  C11_11 
ROOT
HETATM    1  C1  UNL     1     -34.177   3.899   4.155  1.00 20.00     0.012 C 
HETATM    2  C2  UNL     1     -34.375   4.771   4.956  1.00 20.00    -0.117 C 
HETATM    3  C6  UNL     1     -34.620   5.834   5.941  1.00 20.00     0.093 C 
ENDROOT
BRANCH   3   4
HETATM    4  C7  UNL     1     -33.740   7.062   5.701  1.00 20.00     0.012 C 
BRANCH   4   5
HETATM    5  C8  UNL     1     -33.893   7.638   4.288  1.00 20.00     0.002 C 
BRANCH   5   6
HETATM    6  C9  UNL     1     -32.522   7.873   3.635  1.00 20.00     0.021 C 
BRANCH   6   7
HETATM    7  C10 UNL     1     -32.495   7.543   2.127  1.00 20.00     0.089 C 
HETATM    8 CL12 UNL     1     -33.969   6.589   1.710  1.00 20.00    -0.124 Cl
BRANCH   7   9
HETATM    9  C11 UNL     1     -32.332   8.788   1.186  1.00 20.00    -0.035 C 
HETATM   10  C3  UNL     1     -30.948   8.759   0.500  1.00 20.00     0.016 C 
HETATM   11  C4  UNL     1     -33.393   8.757   0.061  1.00 20.00     0.016 C 
HETATM   12  C5  UNL     1     -32.464  10.123   1.945  1.00 20.00     0.016 C 
ENDBRANCH   7   9
ENDBRANCH   6   7
ENDBRANCH   5   6
ENDBRANCH   4   5
ENDBRANCH   3   4
TORSDOF 5
ENDMDL
MODEL 7
REMARK VINA RESULT:      -4.2     10.348     11.239
REMARK  5 active torsions:
REMARK  status: ('A' for Active; 'I' for Inactive)
REMARK    1  A    between atoms: C6_6  and  C7_7 
REMARK    2  A    between atoms: C7_7  and  C8_8 
REMARK    3  A    between atoms: C8_8  and  C9_9 
REMARK    4  A    between atoms: C9_9  and  C10_10 
REMARK    5  A    between atoms: C10_10  and  C11_11 
ROOT
HETATM    1  C1  UNL     1     -32.573  18.684  -0.464  1.00 20.00     0.012 C 
HETATM    2  C2  UNL     1     -33.574  18.045  -0.642  1.00 20.00    -0.117 C 
HETATM    3  C6  UNL     1     -34.801  17.264  -0.853  1.00 20.00     0.093 C 
ENDROOT
BRANCH   3   4
HETATM    4  C7  UNL     1     -34.976  16.842  -2.313  1.00 20.00     0.012 C 
BRANCH   4   5
HETATM    5  C8  UNL     1     -33.673  16.347  -2.951  1.00 20.00     0.002 C 
BRANCH   5   6
HETATM    6  C9  UNL     1     -33.684  16.566  -4.472  1.00 20.00     0.021 C 
BRANCH   6   7
HETATM    7  C10 UNL     1     -33.468  15.269  -5.281  1.00 20.00     0.089 C 
HETATM    8 CL12 UNL     1     -32.638  14.057  -4.233  1.00 20.00    -0.124 Cl
BRANCH   7   9
HETATM    9  C11 UNL     1     -34.767  14.674  -5.928  1.00 20.00    -0.035 C 
HETATM   10  C3  UNL     1     -34.400  13.765  -7.122  1.00 20.00     0.016 C 
HETATM   11  C4  UNL     1     -35.524  13.793  -4.907  1.00 20.00     0.016 C 
HETATM   12  C5  UNL     1     -35.727  15.767  -6.435  1.00 20.00     0.016 C 
ENDBRANCH   7   9
ENDBRANCH   6   7
ENDBRANCH   5   6
ENDBRANCH   4   5
ENDBRANCH   3   4
TORSDOF 5
ENDMDL
MODEL 8
REMARK VINA RESULT:      -4.2     10.181     11.754
REMARK  5 active torsions:
REMARK  status: ('A' for Active; 'I' for Inactive)
REMARK    1  A    between atoms: C6_6  and  C7_7 
REMARK    2  A    between atoms: C7_7  and  C8_8 
REMARK    3  A    between atoms: C8_8  and  C9_9 
REMARK    4  A    between atoms: C9_9  and  C10_10 
REMARK    5  A    between atoms: C10_10  and  C11_11 
ROOT
HETATM    1  C1  UNL     1     -35.501  17.019  -0.906  1.00 20.00     0.012 C 
HETATM    2  C2  UNL     1     -34.539  17.059  -1.623  1.00 20.00    -0.117 C 
HETATM    3  C6  UNL     1     -33.360  17.102  -2.500  1.00 20.00     0.093 C 
ENDROOT
BRANCH   3   4
HETATM    4  C7  UNL     1     -33.372  18.316  -3.430  1.00 20.00     0.012 C 
BRANCH   4   5
HETATM    5  C8  UNL     1     -33.655  17.947  -4.891  1.00 20.00     0.002 C 
BRANCH   5   6
HETATM    6  C9  UNL     1     -33.376  16.458  -5.149  1.00 20.00     0.021 C 
BRANCH   6   7
HETATM    7  C10 UNL     1     -34.504  15.747  -5.927  1.00 20.00     0.089 C 
HETATM    8 CL12 UNL     1     -33.815  15.032  -7.434  1.00 20.00    -0.124 Cl
BRANCH   7   9
HETATM    9  C11 UNL     1     -35.303  14.681  -5.098  1.00 20.00    -0.035 C 
HETATM   10  C3  UNL     1     -34.373  14.001  -4.069  1.00 20.00     0.016 C 
HETATM   11  C4  UNL     1     -36.441  15.358  -4.301  1.00 20.00     0.016 C 
HETATM   12  C5  UNL     1     -35.918  13.583  -5.989  1.00 20.00     0.016 C 
ENDBRANCH   7   9
ENDBRANCH   6   7
ENDBRANCH   5   6
ENDBRANCH   4   5
ENDBRANCH   3   4
TORSDOF 5
ENDMDL
MODEL 9
REMARK VINA RESULT:      -4.1     10.486     11.526
REMARK  5 active torsions:
REMARK  status: ('A' for Active; 'I' for Inactive)
REMARK    1  A    between atoms: C6_6  and  C7_7 
REMARK    2  A    between atoms: C7_7  and  C8_8 
REMARK    3  A    between atoms: C8_8  and  C9_9 
REMARK    4  A    between atoms: C9_9  and  C10_10 
REMARK    5  A    between atoms: C10_10  and  C11_11 
ROOT
HETATM    1  C1  UNL     1     -34.577  17.737  -0.438  1.00 20.00     0.012 C 
HETATM    2  C2  UNL     1     -34.714  17.060  -1.420  1.00 20.00    -0.117 C 
HETATM    3  C6  UNL     1     -34.888  16.231  -2.621  1.00 20.00     0.093 C 
ENDROOT
BRANCH   3   4
HETATM    4  C7  UNL     1     -33.664  16.273  -3.538  1.00 20.00     0.012 C 
BRANCH   4   5
HETATM    5  C8  UNL     1     -33.306  14.900  -4.119  1.00 20.00     0.002 C 
BRANCH   5   6
HETATM    6  C9  UNL     1     -34.558  14.173  -4.633  1.00 20.00     0.021 C 
BRANCH   6   7
HETATM    7  C10 UNL     1     -34.990  14.619  -6.046  1.00 20.00     0.089 C 
HETATM    8 CL12 UNL     1     -34.693  13.267  -7.203  1.00 20.00    -0.124 Cl
BRANCH   7   9
HETATM    9  C11 UNL     1     -36.465  15.147  -6.147  1.00 20.00    -0.035 C 
HETATM   10  C3  UNL     1     -37.051  14.828  -7.540  1.00 20.00     0.016 C 
HETATM   11  C4  UNL     1     -37.363  14.440  -5.106  1.00 20.00     0.016 C 
HETATM   12  C5  UNL     1     -36.562  16.669  -5.922  1.00 20.00     0.016 C 
ENDBRANCH   7   9
ENDBRANCH   6   7
ENDBRANCH   5   6
ENDBRANCH   4   5
ENDBRANCH   3   4
TORSDOF 5
ENDMDL
