MODEL 1
REMARK VINA RESULT:      -6.6      0.000      0.000
REMARK  3 active torsions:
REMARK  status: ('A' for Active; 'I' for Inactive)
REMARK    1  A    between atoms: C2_2  and  C9_9 
REMARK    2  A    between atoms: C6_6  and  C9_9 
REMARK    3  A    between atoms: C7_7  and  O10_10 
ROOT
HETATM    1  C1  UNL     1     -32.404   8.773   1.605  1.00 20.00    -0.111 C 
HETATM    2  C2  UNL     1     -32.620   7.883   2.383  1.00 20.00    -0.107 C 
HETATM    3  C8  UNL     1     -32.140   9.856   0.659  1.00 20.00     0.112 C 
ENDROOT
BRANCH   2   4
HETATM    4  C9  UNL     1     -32.888   6.796   3.332  1.00 20.00     0.098 C 
BRANCH   4   5
HETATM    5  C6  UNL     1     -34.204   7.020   4.073  1.00 20.00    -0.001 C 
HETATM    6  C3  UNL     1     -34.042   6.932   5.588  1.00 20.00     0.008 C 
HETATM    7  C4  UNL     1     -34.077   5.438   5.894  1.00 20.00     0.032 C 
HETATM    8  C7  UNL     1     -34.941   4.813   4.796  1.00 20.00     0.118 C 
HETATM    9  C5  UNL     1     -35.231   5.923   3.783  1.00 20.00     0.037 C 
BRANCH   8  10
HETATM   10  O10 UNL     1     -34.221   3.752   4.181  1.00 20.00    -0.396 OA
HETATM   11  H24 UNL     1     -34.194   3.950   3.232  1.00 20.00     0.210 HD
ENDBRANCH   8  10
ENDBRANCH   4   5
ENDBRANCH   2   4
TORSDOF 3
ENDMDL
MODEL 2
REMARK VINA RESULT:      -5.5      1.301      1.814
REMARK  3 active torsions:
REMARK  status: ('A' for Active; 'I' for Inactive)
REMARK    1  A    between atoms: C2_2  and  C9_9 
REMARK    2  A    between atoms: C6_6  and  C9_9 
REMARK    3  A    between atoms: C7_7  and  O10_10 
ROOT
HETATM    1  C1  UNL     1     -32.506   9.056   1.633  1.00 20.00    -0.111 C 
HETATM    2  C2  UNL     1     -32.519   8.118   2.384  1.00 20.00    -0.107 C 
HETATM    3  C8  UNL     1     -32.490  10.195   0.718  1.00 20.00     0.112 C 
ENDROOT
BRANCH   2   4
HETATM    4  C9  UNL     1     -32.533   6.975   3.305  1.00 20.00     0.098 C 
BRANCH   4   5
HETATM    5  C6  UNL     1     -33.313   5.801   2.719  1.00 20.00    -0.001 C 
HETATM    6  C3  UNL     1     -34.775   6.149   2.451  1.00 20.00     0.008 C 
HETATM    7  C4  UNL     1     -35.465   5.986   3.802  1.00 20.00     0.032 C 
HETATM    8  C7  UNL     1     -34.660   4.922   4.550  1.00 20.00     0.118 C 
HETATM    9  C5  UNL     1     -33.424   4.628   3.697  1.00 20.00     0.037 C 
BRANCH   8  10
HETATM   10  O10 UNL     1     -34.278   5.432   5.822  1.00 20.00    -0.396 OA
HETATM   11  H24 UNL     1     -33.312   5.352   5.873  1.00 20.00     0.210 HD
ENDBRANCH   8  10
ENDBRANCH   4   5
ENDBRANCH   2   4
TORSDOF 3
ENDMDL
MODEL 3
REMARK VINA RESULT:      -5.5      2.667      5.260
REMARK  3 active torsions:
REMARK  status: ('A' for Active; 'I' for Inactive)
REMARK    1  A    between atoms: C2_2  and  C9_9 
REMARK    2  A    between atoms: C6_6  and  C9_9 
REMARK    3  A    between atoms: C7_7  and  O10_10 
ROOT
HETATM    1  C1  UNL     1     -33.595   7.155   4.709  1.00 20.00    -0.111 C 
HETATM    2  C2  UNL     1     -33.271   7.229   3.555  1.00 20.00    -0.107 C 
HETATM    3  C8  UNL     1     -33.988   7.065   6.114  1.00 20.00     0.112 C 
ENDROOT
BRANCH   2   4
HETATM    4  C9  UNL     1     -32.879   7.318   2.143  1.00 20.00     0.098 C 
BRANCH   4   5
HETATM    5  C6  UNL     1     -31.782   8.359   1.937  1.00 20.00    -0.001 C 
HETATM    6  C3  UNL     1     -32.203   9.750   2.406  1.00 20.00     0.008 C 
HETATM    7  C4  UNL     1     -33.016  10.318   1.248  1.00 20.00     0.032 C 
HETATM    8  C7  UNL     1     -32.457   9.656  -0.013  1.00 20.00     0.118 C 
HETATM    9  C5  UNL     1     -31.465   8.588   0.456  1.00 20.00     0.037 C 
BRANCH   8  10
HETATM   10  O10 UNL     1     -33.524   9.059  -0.741  1.00 20.00    -0.396 OA
HETATM   11  H24 UNL     1     -34.321   9.163  -0.198  1.00 20.00     0.210 HD
ENDBRANCH   8  10
ENDBRANCH   4   5
ENDBRANCH   2   4
TORSDOF 3
ENDMDL
MODEL 4
REMARK VINA RESULT:      -4.6     11.152     12.054
REMARK  3 active torsions:
REMARK  status: ('A' for Active; 'I' for Inactive)
REMARK    1  A    between atoms: C2_2  and  C9_9 
REMARK    2  A    between atoms: C6_6  and  C9_9 
REMARK    3  A    between atoms: C7_7  and  O10_10 
ROOT
HETATM    1  C1  UNL     1     -35.097  17.350  -0.623  1.00 20.00    -0.111 C 
HETATM    2  C2  UNL     1     -34.374  17.029  -1.527  1.00 20.00    -0.107 C 
HETATM    3  C8  UNL     1     -35.977  17.741   0.477  1.00 20.00     0.112 C 
ENDROOT
BRANCH   2   4
HETATM    4  C9  UNL     1     -33.488  16.634  -2.629  1.00 20.00     0.098 C 
BRANCH   4   5
HETATM    5  C6  UNL     1     -34.248  16.562  -3.951  1.00 20.00    -0.001 C 
HETATM    6  C3  UNL     1     -35.411  15.575  -3.901  1.00 20.00     0.008 C 
HETATM    7  C4  UNL     1     -34.773  14.212  -4.146  1.00 20.00     0.032 C 
HETATM    8  C7  UNL     1     -33.539  14.484  -5.009  1.00 20.00     0.118 C 
HETATM    9  C5  UNL     1     -33.387  16.005  -5.089  1.00 20.00     0.037 C 
BRANCH   8  10
HETATM   10  O10 UNL     1     -32.397  13.901  -4.391  1.00 20.00    -0.396 OA
HETATM   11  H24 UNL     1     -32.612  12.968  -4.237  1.00 20.00     0.210 HD
ENDBRANCH   8  10
ENDBRANCH   4   5
ENDBRANCH   2   4
TORSDOF 3
ENDMDL
MODEL 5
REMARK VINA RESULT:      -4.5     11.625     12.177
REMARK  3 active torsions:
REMARK  status: ('A' for Active; 'I' for Inactive)
REMARK    1  A    between atoms: C2_2  and  C9_9 
REMARK    2  A    between atoms: C6_6  and  C9_9 
REMARK    3  A    between atoms: C7_7  and  O10_10 
ROOT
HETATM    1  C1  UNL     1     -33.665  16.997  -2.230  1.00 20.00    -0.111 C 
HETATM    2  C2  UNL     1     -33.735  16.173  -3.102  1.00 20.00    -0.107 C 
HETATM    3  C8  UNL     1     -33.580  18.001  -1.171  1.00 20.00     0.112 C 
ENDROOT
BRANCH   2   4
HETATM    4  C9  UNL     1     -33.821  15.162  -4.163  1.00 20.00     0.098 C 
BRANCH   4   5
HETATM    5  C6  UNL     1     -34.719  15.633  -5.305  1.00 20.00    -0.001 C 
HETATM    6  C3  UNL     1     -36.098  16.071  -4.819  1.00 20.00     0.008 C 
HETATM    7  C4  UNL     1     -36.888  14.774  -4.678  1.00 20.00     0.032 C 
HETATM    8  C7  UNL     1     -36.289  13.812  -5.705  1.00 20.00     0.118 C 
HETATM    9  C5  UNL     1     -35.053  14.506  -6.286  1.00 20.00     0.037 C 
BRANCH   8  10
HETATM   10  O10 UNL     1     -35.921  12.602  -5.055  1.00 20.00    -0.396 OA
HETATM   11  H24 UNL     1     -34.970  12.484  -5.208  1.00 20.00     0.210 HD
ENDBRANCH   8  10
ENDBRANCH   4   5
ENDBRANCH   2   4
TORSDOF 3
ENDMDL
MODEL 6
REMARK VINA RESULT:      -4.3     11.613     12.282
REMARK  3 active torsions:
REMARK  status: ('A' for Active; 'I' for Inactive)
REMARK    1  A    between atoms: C2_2  and  C9_9 
REMARK    2  A    between atoms: C6_6  and  C9_9 
REMARK    3  A    between atoms: C7_7  and  O10_10 
ROOT
HETATM    1  C1  UNL     1     -34.877  16.923  -1.425  1.00 20.00    -0.111 C 
HETATM    2  C2  UNL     1     -34.611  16.366  -2.457  1.00 20.00    -0.107 C 
HETATM    3  C8  UNL     1     -35.200  17.598  -0.170  1.00 20.00     0.112 C 
ENDROOT
BRANCH   2   4
HETATM    4  C9  UNL     1     -34.287  15.691  -3.719  1.00 20.00     0.098 C 
BRANCH   4   5
HETATM    5  C6  UNL     1     -35.413  15.850  -4.738  1.00 20.00    -0.001 C 
HETATM    6  C3  UNL     1     -36.524  14.821  -4.544  1.00 20.00     0.008 C 
HETATM    7  C4  UNL     1     -36.013  13.565  -5.244  1.00 20.00     0.032 C 
HETATM    8  C7  UNL     1     -35.094  14.062  -6.362  1.00 20.00     0.118 C 
HETATM    9  C5  UNL     1     -34.948  15.573  -6.170  1.00 20.00     0.037 C 
BRANCH   8  10
HETATM   10  O10 UNL     1     -33.829  13.420  -6.249  1.00 20.00    -0.396 OA
HETATM   11  H24 UNL     1     -34.008  12.502  -5.990  1.00 20.00     0.210 HD
ENDBRANCH   8  10
ENDBRANCH   4   5
ENDBRANCH   2   4
TORSDOF 3
ENDMDL
MODEL 7
REMARK VINA RESULT:      -4.3     11.614     12.478
REMARK  3 active torsions:
REMARK  status: ('A' for Active; 'I' for Inactive)
REMARK    1  A    between atoms: C2_2  and  C9_9 
REMARK    2  A    between atoms: C6_6  and  C9_9 
REMARK    3  A    between atoms: C7_7  and  O10_10 
ROOT
HETATM    1  C1  UNL     1     -33.430  17.370  -1.826  1.00 20.00    -0.111 C 
HETATM    2  C2  UNL     1     -34.165  16.703  -2.502  1.00 20.00    -0.107 C 
HETATM    3  C8  UNL     1     -32.536  18.181  -1.002  1.00 20.00     0.112 C 
ENDROOT
BRANCH   2   4
HETATM    4  C9  UNL     1     -35.064  15.891  -3.332  1.00 20.00     0.098 C 
BRANCH   4   5
HETATM    5  C6  UNL     1     -34.340  14.678  -3.911  1.00 20.00    -0.001 C 
HETATM    6  C3  UNL     1     -33.056  15.060  -4.642  1.00 20.00     0.008 C 
HETATM    7  C4  UNL     1     -33.516  15.498  -6.028  1.00 20.00     0.032 C 
HETATM    8  C7  UNL     1     -34.800  14.712  -6.304  1.00 20.00     0.118 C 
HETATM    9  C5  UNL     1     -35.152  13.981  -5.006  1.00 20.00     0.037 C 
BRANCH   8  10
HETATM   10  O10 UNL     1     -35.836  15.618  -6.663  1.00 20.00    -0.396 OA
HETATM   11  H24 UNL     1     -35.548  16.497  -6.370  1.00 20.00     0.210 HD
ENDBRANCH   8  10
ENDBRANCH   4   5
ENDBRANCH   2   4
TORSDOF 3
ENDMDL
MODEL 8
REMARK VINA RESULT:      -4.2      9.062     10.582
REMARK  3 active torsions:
REMARK  status: ('A' for Active; 'I' for Inactive)
REMARK    1  A    between atoms: C2_2  and  C9_9 
REMARK    2  A    between atoms: C6_6  and  C9_9 
REMARK    3  A    between atoms: C7_7  and  O10_10 
ROOT
HETATM    1  C1  UNL     1     -42.370   3.125  -3.026  1.00 20.00    -0.111 C 
HETATM    2  C2  UNL     1     -42.715   4.018  -2.300  1.00 20.00    -0.107 C 
HETATM    3  C8  UNL     1     -41.952   2.039  -3.910  1.00 20.00     0.112 C 
ENDROOT
BRANCH   2   4
HETATM    4  C9  UNL     1     -43.131   5.111  -1.412  1.00 20.00     0.098 C 
BRANCH   4   5
HETATM    5  C6  UNL     1     -42.228   5.202  -0.185  1.00 20.00    -0.001 C 
HETATM    6  C3  UNL     1     -42.879   5.969   0.963  1.00 20.00     0.008 C 
HETATM    7  C4  UNL     1     -42.644   7.438   0.629  1.00 20.00     0.032 C 
HETATM    8  C7  UNL     1     -41.346   7.474  -0.180  1.00 20.00     0.118 C 
HETATM    9  C5  UNL     1     -40.960   6.018  -0.453  1.00 20.00     0.037 C 
BRANCH   8  10
HETATM   10  O10 UNL     1     -41.574   8.167  -1.402  1.00 20.00    -0.396 OA
HETATM   11  H24 UNL     1     -40.701   8.373  -1.770  1.00 20.00     0.210 HD
ENDBRANCH   8  10
ENDBRANCH   4   5
ENDBRANCH   2   4
TORSDOF 3
ENDMDL
MODEL 9
REMARK VINA RESULT:      -3.9     11.636     12.461
REMARK  3 active torsions:
REMARK  status: ('A' for Active; 'I' for Inactive)
REMARK    1  A    between atoms: C2_2  and  C9_9 
REMARK    2  A    between atoms: C6_6  and  C9_9 
REMARK    3  A    between atoms: C7_7  and  O10_10 
ROOT
HETATM    1  C1  UNL     1     -33.918  14.788  -6.478  1.00 20.00    -0.111 C 
HETATM    2  C2  UNL     1     -33.839  14.979  -5.295  1.00 20.00    -0.107 C 
HETATM    3  C8  UNL     1     -34.015  14.556  -7.918  1.00 20.00     0.112 C 
ENDROOT
BRANCH   2   4
HETATM    4  C9  UNL     1     -33.738  15.211  -3.849  1.00 20.00     0.098 C 
BRANCH   4   5
HETATM    5  C6  UNL     1     -33.803  16.701  -3.521  1.00 20.00    -0.001 C 
HETATM    6  C3  UNL     1     -33.857  16.966  -2.019  1.00 20.00     0.008 C 
HETATM    7  C4  UNL     1     -35.324  16.779  -1.646  1.00 20.00     0.032 C 
HETATM    8  C7  UNL     1     -36.119  17.143  -2.902  1.00 20.00     0.118 C 
HETATM    9  C5  UNL     1     -35.095  17.352  -4.022  1.00 20.00     0.037 C 
BRANCH   8  10
HETATM   10  O10 UNL     1     -36.999  16.074  -3.226  1.00 20.00    -0.396 OA
HETATM   11  H24 UNL     1     -37.616  16.416  -3.892  1.00 20.00     0.210 HD
ENDBRANCH   8  10
ENDBRANCH   4   5
ENDBRANCH   2   4
TORSDOF 3
ENDMDL
