MODEL 1
REMARK VINA RESULT:      -5.7      0.000      0.000
REMARK  1 active torsions:
REMARK  status: ('A' for Active; 'I' for Inactive)
REMARK    1  A    between atoms: C4_4  and  C9_9 
ROOT
HETATM    1  C1  UNL     1     -33.267   7.638   4.673  1.00 20.00     0.052 A 
HETATM    2  C2  UNL     1     -33.569   6.379   2.678  1.00 20.00     0.123 A 
HETATM    3  C3  UNL     1     -34.659   5.712   4.587  1.00 20.00     0.158 A 
HETATM    4  C4  UNL     1     -32.981   7.454   3.325  1.00 20.00    -0.034 A 
HETATM    5  C5  UNL     1     -34.121   6.754   5.323  1.00 20.00     0.134 A 
HETATM    6  N11 UNL     1     -34.404   5.501   3.276  1.00 20.00    -0.269 NA
HETATM    7  F12 UNL     1     -34.415   6.907   6.620  1.00 20.00    -0.205 F 
ENDROOT
BRANCH   4   8
HETATM    8  C9  UNL     1     -32.056   8.396   2.590  1.00 20.00     0.021 C 
HETATM    9  C6  UNL     1     -31.417   7.779   1.337  1.00 20.00     0.011 C 
HETATM   10  C7  UNL     1     -31.113   8.986   0.460  1.00 20.00     0.021 C 
HETATM   11  C10 UNL     1     -32.329   9.885   0.646  1.00 20.00     0.083 C 
HETATM   12  C8  UNL     1     -32.713   9.713   2.119  1.00 20.00     0.029 C 
HETATM   13 CL13 UNL     1     -33.667   9.359  -0.418  1.00 20.00    -0.125 Cl
ENDBRANCH   4   8
TORSDOF 1
ENDMDL
MODEL 2
REMARK VINA RESULT:      -5.6      1.224      1.316
REMARK  1 active torsions:
REMARK  status: ('A' for Active; 'I' for Inactive)
REMARK    1  A    between atoms: C4_4  and  C9_9 
ROOT
HETATM    1  C1  UNL     1     -33.169   7.590   4.300  1.00 20.00     0.052 A 
HETATM    2  C2  UNL     1     -33.968   5.812   2.937  1.00 20.00     0.123 A 
HETATM    3  C3  UNL     1     -34.556   5.858   5.157  1.00 20.00     0.158 A 
HETATM    4  C4  UNL     1     -33.228   6.978   3.053  1.00 20.00    -0.034 A 
HETATM    5  C5  UNL     1     -33.844   7.025   5.378  1.00 20.00     0.134 A 
HETATM    6  N11 UNL     1     -34.637   5.235   3.960  1.00 20.00    -0.269 NA
HETATM    7  F12 UNL     1     -33.805   7.592   6.589  1.00 20.00    -0.205 F 
ENDROOT
BRANCH   4   8
HETATM    8  C9  UNL     1     -32.506   7.566   1.863  1.00 20.00     0.021 C 
HETATM    9  C6  UNL     1     -33.445   8.030   0.741  1.00 20.00     0.011 C 
HETATM   10  C7  UNL     1     -32.643   9.110   0.028  1.00 20.00     0.021 C 
HETATM   11  C10 UNL     1     -31.962   9.865   1.162  1.00 20.00     0.083 C 
HETATM   12  C8  UNL     1     -31.608   8.781   2.186  1.00 20.00     0.029 C 
HETATM   13 CL13 UNL     1     -33.079  11.065   1.878  1.00 20.00    -0.125 Cl
ENDBRANCH   4   8
TORSDOF 1
ENDMDL
MODEL 3
REMARK VINA RESULT:      -5.5      1.741      2.075
REMARK  1 active torsions:
REMARK  status: ('A' for Active; 'I' for Inactive)
REMARK    1  A    between atoms: C4_4  and  C9_9 
ROOT
HETATM    1  C1  UNL     1     -33.837   5.867   3.337  1.00 20.00     0.052 A 
HETATM    2  C2  UNL     1     -33.029   7.761   4.526  1.00 20.00     0.123 A 
HETATM    3  C3  UNL     1     -34.287   6.201   5.648  1.00 20.00     0.158 A 
HETATM    4  C4  UNL     1     -33.118   7.057   3.336  1.00 20.00    -0.034 A 
HETATM    5  C5  UNL     1     -34.436   5.424   4.511  1.00 20.00     0.134 A 
HETATM    6  N11 UNL     1     -33.597   7.362   5.686  1.00 20.00    -0.269 NA
HETATM    7  F12 UNL     1     -35.133   4.282   4.542  1.00 20.00    -0.205 F 
ENDROOT
BRANCH   4   8
HETATM    8  C9  UNL     1     -32.456   7.566   2.077  1.00 20.00     0.021 C 
HETATM    9  C6  UNL     1     -33.450   7.953   0.972  1.00 20.00     0.011 C 
HETATM   10  C7  UNL     1     -32.688   8.984   0.152  1.00 20.00     0.021 C 
HETATM   11  C10 UNL     1     -31.957   9.814   1.200  1.00 20.00     0.083 C 
HETATM   12  C8  UNL     1     -31.549   8.801   2.275  1.00 20.00     0.029 C 
HETATM   13 CL13 UNL     1     -33.043  11.057   1.887  1.00 20.00    -0.125 Cl
ENDBRANCH   4   8
TORSDOF 1
ENDMDL
MODEL 4
REMARK VINA RESULT:      -5.4      3.406      5.150
REMARK  1 active torsions:
REMARK  status: ('A' for Active; 'I' for Inactive)
REMARK    1  A    between atoms: C4_4  and  C9_9 
ROOT
HETATM    1  C1  UNL     1     -33.276   7.965   1.312  1.00 20.00     0.052 A 
HETATM    2  C2  UNL     1     -32.156   7.620   3.382  1.00 20.00     0.123 A 
HETATM    3  C3  UNL     1     -31.614   9.462   2.121  1.00 20.00     0.158 A 
HETATM    4  C4  UNL     1     -33.094   7.194   2.455  1.00 20.00    -0.034 A 
HETATM    5  C5  UNL     1     -32.525   9.122   1.135  1.00 20.00     0.134 A 
HETATM    6  N11 UNL     1     -31.410   8.738   3.244  1.00 20.00    -0.269 NA
HETATM    7  F12 UNL     1     -32.680   9.884   0.046  1.00 20.00    -0.205 F 
ENDROOT
BRANCH   4   8
HETATM    8  C9  UNL     1     -33.893   5.931   2.677  1.00 20.00     0.021 C 
HETATM    9  C6  UNL     1     -33.075   4.784   3.289  1.00 20.00     0.011 C 
HETATM   10  C7  UNL     1     -34.123   3.939   4.000  1.00 20.00     0.021 C 
HETATM   11  C10 UNL     1     -35.058   4.968   4.623  1.00 20.00     0.083 C 
HETATM   12  C8  UNL     1     -35.128   6.097   3.590  1.00 20.00     0.029 C 
HETATM   13 CL13 UNL     1     -34.390   5.570   6.169  1.00 20.00    -0.125 Cl
ENDBRANCH   4   8
TORSDOF 1
ENDMDL
MODEL 5
REMARK VINA RESULT:      -5.0     10.389     10.965
REMARK  1 active torsions:
REMARK  status: ('A' for Active; 'I' for Inactive)
REMARK    1  A    between atoms: C4_4  and  C9_9 
ROOT
HETATM    1  C1  UNL     1     -33.281  17.620  -1.938  1.00 20.00     0.052 A 
HETATM    2  C2  UNL     1     -35.512  16.936  -1.480  1.00 20.00     0.123 A 
HETATM    3  C3  UNL     1     -34.320  18.007   0.166  1.00 20.00     0.158 A 
HETATM    4  C4  UNL     1     -34.454  17.011  -2.371  1.00 20.00    -0.034 A 
HETATM    5  C5  UNL     1     -33.205  18.130  -0.647  1.00 20.00     0.134 A 
HETATM    6  N11 UNL     1     -35.476  17.421  -0.218  1.00 20.00    -0.269 NA
HETATM    7  F12 UNL     1     -32.090  18.723  -0.204  1.00 20.00    -0.205 F 
ENDROOT
BRANCH   4   8
HETATM    8  C9  UNL     1     -34.567  16.446  -3.767  1.00 20.00     0.021 C 
HETATM    9  C6  UNL     1     -33.397  16.828  -4.684  1.00 20.00     0.011 C 
HETATM   10  C7  UNL     1     -33.362  15.702  -5.708  1.00 20.00     0.021 C 
HETATM   11  C10 UNL     1     -33.643  14.452  -4.883  1.00 20.00     0.083 C 
HETATM   12  C8  UNL     1     -34.667  14.905  -3.837  1.00 20.00     0.029 C 
HETATM   13 CL13 UNL     1     -32.148  13.874  -4.089  1.00 20.00    -0.125 Cl
ENDBRANCH   4   8
TORSDOF 1
ENDMDL
MODEL 6
REMARK VINA RESULT:      -5.0     10.924     11.665
REMARK  1 active torsions:
REMARK  status: ('A' for Active; 'I' for Inactive)
REMARK    1  A    between atoms: C4_4  and  C9_9 
ROOT
HETATM    1  C1  UNL     1     -34.079  15.180  -5.688  1.00 20.00     0.052 A 
HETATM    2  C2  UNL     1     -35.612  13.598  -4.791  1.00 20.00     0.123 A 
HETATM    3  C3  UNL     1     -34.859  13.317  -6.943  1.00 20.00     0.158 A 
HETATM    4  C4  UNL     1     -34.860  14.749  -4.621  1.00 20.00    -0.034 A 
HETATM    5  C5  UNL     1     -34.074  14.455  -6.875  1.00 20.00     0.134 A 
HETATM    6  N11 UNL     1     -35.631  12.867  -5.928  1.00 20.00    -0.269 NA
HETATM    7  F12 UNL     1     -33.331  14.845  -7.917  1.00 20.00    -0.205 F 
ENDROOT
BRANCH   4   8
HETATM    8  C9  UNL     1     -34.889  15.515  -3.318  1.00 20.00     0.021 C 
HETATM    9  C6  UNL     1     -33.633  16.364  -3.076  1.00 20.00     0.011 C 
HETATM   10  C7  UNL     1     -34.124  17.472  -2.154  1.00 20.00     0.021 C 
HETATM   11  C10 UNL     1     -35.499  17.823  -2.709  1.00 20.00     0.083 C 
HETATM   12  C8  UNL     1     -36.084  16.481  -3.161  1.00 20.00     0.029 C 
HETATM   13 CL13 UNL     1     -35.350  18.943  -4.095  1.00 20.00    -0.125 Cl
ENDBRANCH   4   8
TORSDOF 1
ENDMDL
MODEL 7
REMARK VINA RESULT:      -5.0      1.419      1.755
REMARK  1 active torsions:
REMARK  status: ('A' for Active; 'I' for Inactive)
REMARK    1  A    between atoms: C4_4  and  C9_9 
ROOT
HETATM    1  C1  UNL     1     -33.517   6.640   3.184  1.00 20.00     0.052 A 
HETATM    2  C2  UNL     1     -32.815   7.990   5.012  1.00 20.00     0.123 A 
HETATM    3  C3  UNL     1     -34.338   6.312   5.391  1.00 20.00     0.158 A 
HETATM    4  C4  UNL     1     -32.739   7.689   3.661  1.00 20.00    -0.034 A 
HETATM    5  C5  UNL     1     -34.334   5.934   4.059  1.00 20.00     0.134 A 
HETATM    6  N11 UNL     1     -33.596   7.325   5.892  1.00 20.00    -0.269 NA
HETATM    7  F12 UNL     1     -35.092   4.919   3.628  1.00 20.00    -0.205 F 
ENDROOT
BRANCH   4   8
HETATM    8  C9  UNL     1     -31.841   8.477   2.736  1.00 20.00     0.021 C 
HETATM    9  C6  UNL     1     -31.397   7.692   1.493  1.00 20.00     0.011 C 
HETATM   10  C7  UNL     1     -31.113   8.779   0.467  1.00 20.00     0.021 C 
HETATM   11  C10 UNL     1     -32.233   9.789   0.687  1.00 20.00     0.083 C 
HETATM   12  C8  UNL     1     -32.454   9.791   2.203  1.00 20.00     0.029 C 
HETATM   13 CL13 UNL     1     -33.719   9.274  -0.164  1.00 20.00    -0.125 Cl
ENDBRANCH   4   8
TORSDOF 1
ENDMDL
MODEL 8
REMARK VINA RESULT:      -4.9     10.298     10.868
REMARK  1 active torsions:
REMARK  status: ('A' for Active; 'I' for Inactive)
REMARK    1  A    between atoms: C4_4  and  C9_9 
ROOT
HETATM    1  C1  UNL     1     -35.362  16.923  -1.412  1.00 20.00     0.052 A 
HETATM    2  C2  UNL     1     -33.231  17.790  -2.015  1.00 20.00     0.123 A 
HETATM    3  C3  UNL     1     -34.018  18.158   0.111  1.00 20.00     0.158 A 
HETATM    4  C4  UNL     1     -34.368  17.081  -2.371  1.00 20.00    -0.034 A 
HETATM    5  C5  UNL     1     -35.191  17.469  -0.144  1.00 20.00     0.134 A 
HETATM    6  N11 UNL     1     -33.030  18.333  -0.794  1.00 20.00    -0.269 NA
HETATM    7  F12 UNL     1     -36.130  17.330   0.798  1.00 20.00    -0.205 F 
ENDROOT
BRANCH   4   8
HETATM    8  C9  UNL     1     -34.524  16.501  -3.757  1.00 20.00     0.021 C 
HETATM    9  C6  UNL     1     -33.364  16.845  -4.703  1.00 20.00     0.011 C 
HETATM   10  C7  UNL     1     -33.377  15.705  -5.712  1.00 20.00     0.021 C 
HETATM   11  C10 UNL     1     -33.669  14.473  -4.865  1.00 20.00     0.083 C 
HETATM   12  C8  UNL     1     -34.660  14.963  -3.804  1.00 20.00     0.029 C 
HETATM   13 CL13 UNL     1     -32.171  13.870  -4.095  1.00 20.00    -0.125 Cl
ENDBRANCH   4   8
TORSDOF 1
ENDMDL
MODEL 9
REMARK VINA RESULT:      -4.9     10.770     11.517
REMARK  1 active torsions:
REMARK  status: ('A' for Active; 'I' for Inactive)
REMARK    1  A    between atoms: C4_4  and  C9_9 
ROOT
HETATM    1  C1  UNL     1     -34.106  17.095  -1.405  1.00 20.00     0.052 A 
HETATM    2  C2  UNL     1     -33.392  17.891  -3.530  1.00 20.00     0.123 A 
HETATM    3  C3  UNL     1     -33.103  19.232  -1.688  1.00 20.00     0.158 A 
HETATM    4  C4  UNL     1     -33.969  16.884  -2.773  1.00 20.00    -0.034 A 
HETATM    5  C5  UNL     1     -33.666  18.290  -0.845  1.00 20.00     0.134 A 
HETATM    6  N11 UNL     1     -32.953  19.063  -3.021  1.00 20.00    -0.269 NA
HETATM    7  F12 UNL     1     -33.784  18.520   0.468  1.00 20.00    -0.205 F 
ENDROOT
BRANCH   4   8
HETATM    8  C9  UNL     1     -34.437  15.597  -3.412  1.00 20.00     0.021 C 
HETATM    9  C6  UNL     1     -35.641  15.776  -4.347  1.00 20.00     0.011 C 
HETATM   10  C7  UNL     1     -35.517  14.610  -5.318  1.00 20.00     0.021 C 
HETATM   11  C10 UNL     1     -34.020  14.522  -5.590  1.00 20.00     0.083 C 
HETATM   12  C8  UNL     1     -33.366  14.860  -4.246  1.00 20.00     0.029 C 
HETATM   13 CL13 UNL     1     -33.538  15.707  -6.839  1.00 20.00    -0.125 Cl
ENDBRANCH   4   8
TORSDOF 1
ENDMDL
