MODEL 1
REMARK VINA RESULT:      -5.8      0.000      0.000
REMARK  2 active torsions:
REMARK  status: ('A' for Active; 'I' for Inactive)
REMARK    1  A    between atoms: C6_6  and  C7_7 
REMARK    2  A    between atoms: C8_8  and  O9_9 
ROOT
HETATM    1  C1  UNL     1     -34.761   4.882   4.379  1.00 20.00     0.003 C 
HETATM    2  C2  UNL     1     -34.225   5.769   3.256  1.00 20.00     0.007 C 
HETATM    3  C5  UNL     1     -34.465   5.618   5.687  1.00 20.00     0.032 C 
HETATM    4  C7  UNL     1     -33.261   6.730   3.945  1.00 20.00     0.018 C 
HETATM    5  C8  UNL     1     -33.965   6.998   5.273  1.00 20.00     0.122 C 
ENDROOT
BRANCH   4   6
HETATM    6  C6  UNL     1     -32.994   7.993   3.141  1.00 20.00    -0.008 A 
HETATM    7  C3  UNL     1     -31.583   8.459   2.911  1.00 20.00     0.005 A 
HETATM    8  C4  UNL     1     -32.385   7.900   1.769  1.00 20.00     0.005 A 
ENDBRANCH   4   6
BRANCH   5   9
HETATM    9  O9  UNL     1     -33.069   7.534   6.229  1.00 20.00    -0.395 OA
HETATM   10  H23 UNL     1     -33.089   8.501   6.126  1.00 20.00     0.210 HD
ENDBRANCH   5   9
TORSDOF 2
ENDMDL
MODEL 2
REMARK VINA RESULT:      -5.4      1.693      2.249
REMARK  2 active torsions:
REMARK  status: ('A' for Active; 'I' for Inactive)
REMARK    1  A    between atoms: C6_6  and  C7_7 
REMARK    2  A    between atoms: C8_8  and  O9_9 
ROOT
HETATM    1  C1  UNL     1     -34.404   6.393   5.822  1.00 20.00     0.003 C 
HETATM    2  C2  UNL     1     -33.268   7.234   5.242  1.00 20.00     0.007 C 
HETATM    3  C5  UNL     1     -34.919   5.518   4.679  1.00 20.00     0.032 C 
HETATM    4  C7  UNL     1     -33.461   7.160   3.730  1.00 20.00     0.018 C 
HETATM    5  C8  UNL     1     -33.931   5.720   3.535  1.00 20.00     0.122 C 
ENDROOT
BRANCH   4   6
HETATM    6  C6  UNL     1     -32.201   7.493   2.947  1.00 20.00    -0.008 A 
HETATM    7  C3  UNL     1     -32.174   8.683   2.028  1.00 20.00     0.005 A 
HETATM    8  C4  UNL     1     -31.385   8.703   3.307  1.00 20.00     0.005 A 
ENDBRANCH   4   6
BRANCH   5   9
HETATM    9  O9  UNL     1     -34.553   5.552   2.275  1.00 20.00    -0.395 OA
HETATM   10  H23 UNL     1     -34.165   4.756   1.870  1.00 20.00     0.210 HD
ENDBRANCH   5   9
TORSDOF 2
ENDMDL
MODEL 3
REMARK VINA RESULT:      -5.1      0.941      3.391
REMARK  2 active torsions:
REMARK  status: ('A' for Active; 'I' for Inactive)
REMARK    1  A    between atoms: C6_6  and  C7_7 
REMARK    2  A    between atoms: C8_8  and  O9_9 
ROOT
HETATM    1  C1  UNL     1     -32.319   7.548   2.608  1.00 20.00     0.003 C 
HETATM    2  C2  UNL     1     -33.374   6.442   2.606  1.00 20.00     0.007 C 
HETATM    3  C5  UNL     1     -32.265   8.088   4.037  1.00 20.00     0.032 C 
HETATM    4  C7  UNL     1     -34.194   6.684   3.870  1.00 20.00     0.018 C 
HETATM    5  C8  UNL     1     -33.129   7.141   4.864  1.00 20.00     0.122 C 
ENDROOT
BRANCH   4   6
HETATM    6  C6  UNL     1     -34.960   5.455   4.333  1.00 20.00    -0.008 A 
HETATM    7  C3  UNL     1     -34.289   4.110   4.358  1.00 20.00     0.005 A 
HETATM    8  C4  UNL     1     -34.626   4.806   5.647  1.00 20.00     0.005 A 
ENDBRANCH   4   6
BRANCH   5   9
HETATM    9  O9  UNL     1     -33.712   7.803   5.971  1.00 20.00    -0.395 OA
HETATM   10  H23 UNL     1     -34.208   8.562   5.620  1.00 20.00     0.210 HD
ENDBRANCH   5   9
TORSDOF 2
ENDMDL
MODEL 4
REMARK VINA RESULT:      -4.3      1.840      4.076
REMARK  2 active torsions:
REMARK  status: ('A' for Active; 'I' for Inactive)
REMARK    1  A    between atoms: C6_6  and  C7_7 
REMARK    2  A    between atoms: C8_8  and  O9_9 
ROOT
HETATM    1  C1  UNL     1     -31.747   8.387   3.568  1.00 20.00     0.003 C 
HETATM    2  C2  UNL     1     -32.672   7.774   4.619  1.00 20.00     0.007 C 
HETATM    3  C5  UNL     1     -32.187   7.815   2.220  1.00 20.00     0.032 C 
HETATM    4  C7  UNL     1     -33.290   6.560   3.931  1.00 20.00     0.018 C 
HETATM    5  C8  UNL     1     -33.482   7.060   2.502  1.00 20.00     0.122 C 
ENDROOT
BRANCH   4   6
HETATM    6  C6  UNL     1     -34.582   6.094   4.584  1.00 20.00    -0.008 A 
HETATM    7  C3  UNL     1     -34.800   4.634   4.875  1.00 20.00     0.005 A 
HETATM    8  C4  UNL     1     -34.577   5.601   6.004  1.00 20.00     0.005 A 
ENDBRANCH   4   6
BRANCH   5   9
HETATM    9  O9  UNL     1     -33.661   5.982   1.602  1.00 20.00    -0.395 OA
HETATM   10  H23 UNL     1     -34.135   6.333   0.828  1.00 20.00     0.210 HD
ENDBRANCH   5   9
TORSDOF 2
ENDMDL
MODEL 5
REMARK VINA RESULT:      -4.2     11.756     12.792
REMARK  2 active torsions:
REMARK  status: ('A' for Active; 'I' for Inactive)
REMARK    1  A    between atoms: C6_6  and  C7_7 
REMARK    2  A    between atoms: C8_8  and  O9_9 
ROOT
HETATM    1  C1  UNL     1     -34.170  14.006  -7.918  1.00 20.00     0.003 C 
HETATM    2  C2  UNL     1     -33.968  15.122  -6.893  1.00 20.00     0.007 C 
HETATM    3  C5  UNL     1     -35.124  12.999  -7.276  1.00 20.00     0.032 C 
HETATM    4  C7  UNL     1     -34.423  14.519  -5.567  1.00 20.00     0.018 C 
HETATM    5  C8  UNL     1     -35.613  13.662  -5.993  1.00 20.00     0.122 C 
ENDROOT
BRANCH   4   6
HETATM    6  C6  UNL     1     -34.778  15.566  -4.523  1.00 20.00    -0.008 A 
HETATM    7  C3  UNL     1     -33.895  15.767  -3.322  1.00 20.00     0.005 A 
HETATM    8  C4  UNL     1     -33.955  16.817  -4.397  1.00 20.00     0.005 A 
ENDBRANCH   4   6
BRANCH   5   9
HETATM    9  O9  UNL     1     -35.935  12.705  -5.002  1.00 20.00    -0.395 OA
HETATM   10  H23 UNL     1     -36.685  12.186  -5.340  1.00 20.00     0.210 HD
ENDBRANCH   5   9
TORSDOF 2
ENDMDL
MODEL 6
REMARK VINA RESULT:      -4.1     11.764     12.119
REMARK  2 active torsions:
REMARK  status: ('A' for Active; 'I' for Inactive)
REMARK    1  A    between atoms: C6_6  and  C7_7 
REMARK    2  A    between atoms: C8_8  and  O9_9 
ROOT
HETATM    1  C1  UNL     1     -35.244  17.716   0.357  1.00 20.00     0.003 C 
HETATM    2  C2  UNL     1     -35.442  17.048  -1.004  1.00 20.00     0.007 C 
HETATM    3  C5  UNL     1     -33.893  18.429   0.294  1.00 20.00     0.032 C 
HETATM    4  C7  UNL     1     -34.047  17.006  -1.622  1.00 20.00     0.018 C 
HETATM    5  C8  UNL     1     -33.449  18.333  -1.162  1.00 20.00     0.122 C 
ENDROOT
BRANCH   4   6
HETATM    6  C6  UNL     1     -34.066  16.848  -3.135  1.00 20.00    -0.008 A 
HETATM    7  C3  UNL     1     -33.504  15.607  -3.773  1.00 20.00     0.005 A 
HETATM    8  C4  UNL     1     -34.987  15.849  -3.778  1.00 20.00     0.005 A 
ENDBRANCH   4   6
BRANCH   5   9
HETATM    9  O9  UNL     1     -32.038  18.326  -1.276  1.00 20.00    -0.395 OA
HETATM   10  H23 UNL     1     -31.697  18.964  -0.626  1.00 20.00     0.210 HD
ENDBRANCH   5   9
TORSDOF 2
ENDMDL
MODEL 7
REMARK VINA RESULT:      -4.0     11.776     12.121
REMARK  2 active torsions:
REMARK  status: ('A' for Active; 'I' for Inactive)
REMARK    1  A    between atoms: C6_6  and  C7_7 
REMARK    2  A    between atoms: C8_8  and  O9_9 
ROOT
HETATM    1  C1  UNL     1     -34.132  14.400  -4.810  1.00 20.00     0.003 C 
HETATM    2  C2  UNL     1     -33.543  15.469  -3.890  1.00 20.00     0.007 C 
HETATM    3  C5  UNL     1     -35.649  14.585  -4.769  1.00 20.00     0.032 C 
HETATM    4  C7  UNL     1     -34.712  15.919  -3.019  1.00 20.00     0.018 C 
HETATM    5  C8  UNL     1     -35.880  15.882  -4.001  1.00 20.00     0.122 C 
ENDROOT
BRANCH   4   6
HETATM    6  C6  UNL     1     -34.499  17.287  -2.389  1.00 20.00    -0.008 A 
HETATM    7  C3  UNL     1     -34.522  17.443  -0.893  1.00 20.00     0.005 A 
HETATM    8  C4  UNL     1     -33.228  17.586  -1.645  1.00 20.00     0.005 A 
ENDBRANCH   4   6
BRANCH   5   9
HETATM    9  O9  UNL     1     -37.121  15.870  -3.320  1.00 20.00    -0.395 OA
HETATM   10  H23 UNL     1     -37.818  15.926  -3.997  1.00 20.00     0.210 HD
ENDBRANCH   5   9
TORSDOF 2
ENDMDL
MODEL 8
REMARK VINA RESULT:      -3.9     11.373     12.004
REMARK  2 active torsions:
REMARK  status: ('A' for Active; 'I' for Inactive)
REMARK    1  A    between atoms: C6_6  and  C7_7 
REMARK    2  A    between atoms: C8_8  and  O9_9 
ROOT
HETATM    1  C1  UNL     1     -37.013  14.552  -4.829  1.00 20.00     0.003 C 
HETATM    2  C2  UNL     1     -36.420  15.549  -3.834  1.00 20.00     0.007 C 
HETATM    3  C5  UNL     1     -35.859  13.660  -5.286  1.00 20.00     0.032 C 
HETATM    4  C7  UNL     1     -34.916  15.503  -4.088  1.00 20.00     0.018 C 
HETATM    5  C8  UNL     1     -34.683  14.024  -4.386  1.00 20.00     0.122 C 
ENDROOT
BRANCH   4   6
HETATM    6  C6  UNL     1     -34.094  16.018  -2.917  1.00 20.00    -0.008 A 
HETATM    7  C3  UNL     1     -33.689  17.466  -2.855  1.00 20.00     0.005 A 
HETATM    8  C4  UNL     1     -34.718  16.931  -1.898  1.00 20.00     0.005 A 
ENDBRANCH   4   6
BRANCH   5   9
HETATM    9  O9  UNL     1     -33.445  13.823  -5.041  1.00 20.00    -0.395 OA
HETATM   10  H23 UNL     1     -33.569  14.082  -5.970  1.00 20.00     0.210 HD
ENDBRANCH   5   9
TORSDOF 2
ENDMDL
MODEL 9
REMARK VINA RESULT:      -3.9     11.914     12.284
REMARK  2 active torsions:
REMARK  status: ('A' for Active; 'I' for Inactive)
REMARK    1  A    between atoms: C6_6  and  C7_7 
REMARK    2  A    between atoms: C8_8  and  O9_9 
ROOT
HETATM    1  C1  UNL     1     -33.850  18.715   1.967  1.00 20.00     0.003 C 
HETATM    2  C2  UNL     1     -34.655  18.263   0.748  1.00 20.00     0.007 C 
HETATM    3  C5  UNL     1     -32.415  18.922   1.483  1.00 20.00     0.032 C 
HETATM    4  C7  UNL     1     -33.607  17.793  -0.256  1.00 20.00     0.018 C 
HETATM    5  C8  UNL     1     -32.475  18.793  -0.035  1.00 20.00     0.122 C 
ENDROOT
BRANCH   4   6
HETATM    6  C6  UNL     1     -34.117  17.769  -1.689  1.00 20.00    -0.008 A 
HETATM    7  C3  UNL     1     -33.731  16.645  -2.611  1.00 20.00     0.005 A 
HETATM    8  C4  UNL     1     -35.144  16.754  -2.108  1.00 20.00     0.005 A 
ENDBRANCH   4   6
BRANCH   5   9
HETATM    9  O9  UNL     1     -31.254  18.310  -0.565  1.00 20.00    -0.395 OA
HETATM   10  H23 UNL     1     -31.477  17.757  -1.333  1.00 20.00     0.210 HD
ENDBRANCH   5   9
TORSDOF 2
ENDMDL
