MODEL 1
REMARK VINA RESULT:      -5.4      0.000      0.000
REMARK  1 active torsions:
REMARK  status: ('A' for Active; 'I' for Inactive)
REMARK    1  A    between atoms: C8_8  and  C10_10 
ROOT
HETATM    1  C1  UNL     1     -32.588  10.262   0.881  1.00 20.00     0.012 C 
HETATM    2  C2  UNL     1     -32.240   9.323   1.543  1.00 20.00    -0.117 C 
HETATM    3  C10 UNL     1     -31.798   8.180   2.340  1.00 20.00     0.097 C 
ENDROOT
BRANCH   3   4
HETATM    4  C8  UNL     1     -32.950   7.637   3.198  1.00 20.00    -0.002 C 
HETATM    5  C5  UNL     1     -32.560   7.715   4.682  1.00 20.00     0.005 C 
HETATM    6  C3  UNL     1     -33.763   7.628   5.614  1.00 20.00     0.000 C 
HETATM    7  C4  UNL     1     -34.228   6.221   5.967  1.00 20.00     0.001 C 
HETATM    8  C6  UNL     1     -34.083   5.124   4.915  1.00 20.00     0.016 C 
HETATM    9  C9  UNL     1     -34.390   5.451   3.460  1.00 20.00     0.058 C 
HETATM   10  C7  UNL     1     -33.300   6.221   2.718  1.00 20.00     0.021 C 
HETATM   11 BR11 UNL     1     -36.143   6.269   3.234  1.00 20.00    -0.091 Br
ENDBRANCH   3   4
TORSDOF 1
ENDMDL
MODEL 2
REMARK VINA RESULT:      -5.0      1.644      2.273
REMARK  1 active torsions:
REMARK  status: ('A' for Active; 'I' for Inactive)
REMARK    1  A    between atoms: C8_8  and  C10_10 
ROOT
HETATM    1  C1  UNL     1     -32.811  10.378   1.461  1.00 20.00     0.012 C 
HETATM    2  C2  UNL     1     -32.410   9.248   1.508  1.00 20.00    -0.117 C 
HETATM    3  C10 UNL     1     -31.910   7.874   1.548  1.00 20.00     0.097 C 
ENDROOT
BRANCH   3   4
HETATM    4  C8  UNL     1     -32.536   7.102   2.719  1.00 20.00    -0.002 C 
HETATM    5  C5  UNL     1     -32.812   5.654   2.284  1.00 20.00     0.005 C 
HETATM    6  C3  UNL     1     -33.007   4.711   3.466  1.00 20.00     0.000 C 
HETATM    7  C4  UNL     1     -34.417   4.647   4.038  1.00 20.00     0.001 C 
HETATM    8  C6  UNL     1     -35.267   5.915   4.014  1.00 20.00     0.016 C 
HETATM    9  C9  UNL     1     -34.609   7.252   4.331  1.00 20.00     0.058 C 
HETATM   10  C7  UNL     1     -33.783   7.859   3.200  1.00 20.00     0.021 C 
HETATM   11 BR11 UNL     1     -33.630   7.220   6.014  1.00 20.00    -0.091 Br
ENDBRANCH   3   4
TORSDOF 1
ENDMDL
MODEL 3
REMARK VINA RESULT:      -4.8     11.167     12.343
REMARK  1 active torsions:
REMARK  status: ('A' for Active; 'I' for Inactive)
REMARK    1  A    between atoms: C8_8  and  C10_10 
ROOT
HETATM    1  C1  UNL     1     -35.309  16.928  -1.311  1.00 20.00     0.012 C 
HETATM    2  C2  UNL     1     -34.567  16.618  -2.202  1.00 20.00    -0.117 C 
HETATM    3  C10 UNL     1     -33.648  16.248  -3.277  1.00 20.00     0.097 C 
ENDROOT
BRANCH   3   4
HETATM    4  C8  UNL     1     -34.418  15.700  -4.487  1.00 20.00    -0.002 C 
HETATM    5  C5  UNL     1     -34.692  14.202  -4.281  1.00 20.00     0.005 C 
HETATM    6  C3  UNL     1     -35.806  13.676  -5.179  1.00 20.00     0.000 C 
HETATM    7  C4  UNL     1     -35.384  13.250  -6.579  1.00 20.00     0.001 C 
HETATM    8  C6  UNL     1     -34.246  14.011  -7.255  1.00 20.00     0.016 C 
HETATM    9  C9  UNL     1     -34.173  15.524  -7.100  1.00 20.00     0.058 C 
HETATM   10  C7  UNL     1     -33.627  16.020  -5.764  1.00 20.00     0.021 C 
HETATM   11 BR11 UNL     1     -35.846  16.402  -7.575  1.00 20.00    -0.091 Br
ENDBRANCH   3   4
TORSDOF 1
ENDMDL
MODEL 4
REMARK VINA RESULT:      -4.6     11.120     12.156
REMARK  1 active torsions:
REMARK  status: ('A' for Active; 'I' for Inactive)
REMARK    1  A    between atoms: C8_8  and  C10_10 
ROOT
HETATM    1  C1  UNL     1     -32.844  18.133  -1.146  1.00 20.00     0.012 C 
HETATM    2  C2  UNL     1     -33.808  17.477  -1.434  1.00 20.00    -0.117 C 
HETATM    3  C10 UNL     1     -34.991  16.685  -1.766  1.00 20.00     0.097 C 
ENDROOT
BRANCH   3   4
HETATM    4  C8  UNL     1     -34.801  15.960  -3.106  1.00 20.00    -0.002 C 
HETATM    5  C5  UNL     1     -33.563  16.525  -3.819  1.00 20.00     0.005 C 
HETATM    6  C3  UNL     1     -33.036  15.600  -4.910  1.00 20.00     0.000 C 
HETATM    7  C4  UNL     1     -33.697  15.741  -6.275  1.00 20.00     0.001 C 
HETATM    8  C6  UNL     1     -35.178  16.105  -6.328  1.00 20.00     0.016 C 
HETATM    9  C9  UNL     1     -36.132  15.474  -5.322  1.00 20.00     0.058 C 
HETATM   10  C7  UNL     1     -36.098  16.077  -3.920  1.00 20.00     0.021 C 
HETATM   11 BR11 UNL     1     -35.995  13.531  -5.284  1.00 20.00    -0.091 Br
ENDBRANCH   3   4
TORSDOF 1
ENDMDL
MODEL 5
REMARK VINA RESULT:      -4.5     11.180     12.022
REMARK  1 active torsions:
REMARK  status: ('A' for Active; 'I' for Inactive)
REMARK    1  A    between atoms: C8_8  and  C10_10 
ROOT
HETATM    1  C1  UNL     1     -32.968  17.754  -1.565  1.00 20.00     0.012 C 
HETATM    2  C2  UNL     1     -34.013  17.215  -1.805  1.00 20.00    -0.117 C 
HETATM    3  C10 UNL     1     -35.292  16.560  -2.078  1.00 20.00     0.097 C 
ENDROOT
BRANCH   3   4
HETATM    4  C8  UNL     1     -35.380  16.132  -3.550  1.00 20.00    -0.002 C 
HETATM    5  C5  UNL     1     -36.837  15.781  -3.892  1.00 20.00     0.005 C 
HETATM    6  C3  UNL     1     -37.108  15.780  -5.392  1.00 20.00     0.000 C 
HETATM    7  C4  UNL     1     -36.784  14.483  -6.123  1.00 20.00     0.001 C 
HETATM    8  C6  UNL     1     -35.607  13.647  -5.628  1.00 20.00     0.016 C 
HETATM    9  C9  UNL     1     -34.334  14.353  -5.182  1.00 20.00     0.058 C 
HETATM   10  C7  UNL     1     -34.388  14.985  -3.793  1.00 20.00     0.021 C 
HETATM   11 BR11 UNL     1     -33.663  15.597  -6.522  1.00 20.00    -0.091 Br
ENDBRANCH   3   4
TORSDOF 1
ENDMDL
MODEL 6
REMARK VINA RESULT:      -4.5     10.956     12.120
REMARK  1 active torsions:
REMARK  status: ('A' for Active; 'I' for Inactive)
REMARK    1  A    between atoms: C8_8  and  C10_10 
ROOT
HETATM    1  C1  UNL     1     -35.229  16.915  -1.236  1.00 20.00     0.012 C 
HETATM    2  C2  UNL     1     -34.554  16.624  -2.186  1.00 20.00    -0.117 C 
HETATM    3  C10 UNL     1     -33.715  16.277  -3.332  1.00 20.00     0.097 C 
ENDROOT
BRANCH   3   4
HETATM    4  C8  UNL     1     -34.574  15.777  -4.502  1.00 20.00    -0.002 C 
HETATM    5  C5  UNL     1     -35.815  16.673  -4.643  1.00 20.00     0.005 C 
HETATM    6  C3  UNL     1     -36.482  16.548  -6.007  1.00 20.00     0.000 C 
HETATM    7  C4  UNL     1     -37.479  15.406  -6.156  1.00 20.00     0.001 C 
HETATM    8  C6  UNL     1     -37.218  14.112  -5.388  1.00 20.00     0.016 C 
HETATM    9  C9  UNL     1     -35.793  13.584  -5.292  1.00 20.00     0.058 C 
HETATM   10  C7  UNL     1     -34.899  14.292  -4.278  1.00 20.00     0.021 C 
HETATM   11 BR11 UNL     1     -34.938  13.427  -7.035  1.00 20.00    -0.091 Br
ENDBRANCH   3   4
TORSDOF 1
ENDMDL
MODEL 7
REMARK VINA RESULT:      -4.5     11.189     11.731
REMARK  1 active torsions:
REMARK  status: ('A' for Active; 'I' for Inactive)
REMARK    1  A    between atoms: C8_8  and  C10_10 
ROOT
HETATM    1  C1  UNL     1     -35.128  17.693  -0.011  1.00 20.00     0.012 C 
HETATM    2  C2  UNL     1     -34.394  17.442  -0.928  1.00 20.00    -0.117 C 
HETATM    3  C10 UNL     1     -33.484  17.143  -2.033  1.00 20.00     0.097 C 
ENDROOT
BRANCH   3   4
HETATM    4  C8  UNL     1     -34.257  16.585  -3.237  1.00 20.00    -0.002 C 
HETATM    5  C5  UNL     1     -35.664  16.161  -2.786  1.00 20.00     0.005 C 
HETATM    6  C3  UNL     1     -36.638  16.019  -3.950  1.00 20.00     0.000 C 
HETATM    7  C4  UNL     1     -36.628  14.673  -4.663  1.00 20.00     0.001 C 
HETATM    8  C6  UNL     1     -35.304  13.919  -4.768  1.00 20.00     0.016 C 
HETATM    9  C9  UNL     1     -34.030  14.700  -5.058  1.00 20.00     0.058 C 
HETATM   10  C7  UNL     1     -33.436  15.450  -3.869  1.00 20.00     0.021 C 
HETATM   11 BR11 UNL     1     -34.196  15.840  -6.629  1.00 20.00    -0.091 Br
ENDBRANCH   3   4
TORSDOF 1
ENDMDL
MODEL 8
REMARK VINA RESULT:      -4.5     11.104     12.440
REMARK  1 active torsions:
REMARK  status: ('A' for Active; 'I' for Inactive)
REMARK    1  A    between atoms: C8_8  and  C10_10 
ROOT
HETATM    1  C1  UNL     1     -35.463  17.331  -0.377  1.00 20.00     0.012 C 
HETATM    2  C2  UNL     1     -34.615  17.173  -1.213  1.00 20.00    -0.117 C 
HETATM    3  C10 UNL     1     -33.569  16.987  -2.218  1.00 20.00     0.097 C 
ENDROOT
BRANCH   3   4
HETATM    4  C8  UNL     1     -34.164  16.456  -3.530  1.00 20.00    -0.002 C 
HETATM    5  C5  UNL     1     -33.858  14.956  -3.657  1.00 20.00     0.005 C 
HETATM    6  C3  UNL     1     -34.760  14.253  -4.666  1.00 20.00     0.000 C 
HETATM    7  C4  UNL     1     -34.303  14.314  -6.118  1.00 20.00     0.001 C 
HETATM    8  C6  UNL     1     -33.568  15.564  -6.595  1.00 20.00     0.016 C 
HETATM    9  C9  UNL     1     -34.043  16.929  -6.115  1.00 20.00     0.058 C 
HETATM   10  C7  UNL     1     -33.629  17.304  -4.694  1.00 20.00     0.021 C 
HETATM   11 BR11 UNL     1     -35.947  17.203  -6.416  1.00 20.00    -0.091 Br
ENDBRANCH   3   4
TORSDOF 1
ENDMDL
MODEL 9
REMARK VINA RESULT:      -4.4     11.008     12.096
REMARK  1 active torsions:
REMARK  status: ('A' for Active; 'I' for Inactive)
REMARK    1  A    between atoms: C8_8  and  C10_10 
ROOT
HETATM    1  C1  UNL     1     -35.626  17.465  -0.021  1.00 20.00     0.012 C 
HETATM    2  C2  UNL     1     -34.846  17.251  -0.908  1.00 20.00    -0.117 C 
HETATM    3  C10 UNL     1     -33.881  17.003  -1.978  1.00 20.00     0.097 C 
ENDROOT
BRANCH   3   4
HETATM    4  C8  UNL     1     -34.515  16.166  -3.098  1.00 20.00    -0.002 C 
HETATM    5  C5  UNL     1     -33.405  15.522  -3.943  1.00 20.00     0.005 C 
HETATM    6  C3  UNL     1     -33.904  14.347  -4.776  1.00 20.00     0.000 C 
HETATM    7  C4  UNL     1     -34.515  14.701  -6.125  1.00 20.00     0.001 C 
HETATM    8  C6  UNL     1     -35.281  16.016  -6.250  1.00 20.00     0.016 C 
HETATM    9  C9  UNL     1     -36.187  16.455  -5.108  1.00 20.00     0.058 C 
HETATM   10  C7  UNL     1     -35.474  17.058  -3.901  1.00 20.00     0.021 C 
HETATM   11 BR11 UNL     1     -37.456  15.071  -4.589  1.00 20.00    -0.091 Br
ENDBRANCH   3   4
TORSDOF 1
ENDMDL
