MODEL 1
REMARK VINA RESULT:      -7.0      0.000      0.000
REMARK  1 active torsions:
REMARK  status: ('A' for Active; 'I' for Inactive)
REMARK    1  A    between atoms: C8_8  and  C10_10 
ROOT
HETATM    1  C1  UNL     1     -32.816  10.279   0.982  1.00 20.00     0.012 C 
HETATM    2  C2  UNL     1     -32.403   9.286   1.514  1.00 20.00    -0.117 C 
HETATM    3  C10 UNL     1     -31.882   8.076   2.153  1.00 20.00     0.097 C 
ENDROOT
BRANCH   3   4
HETATM    4  C8  UNL     1     -32.900   7.509   3.151  1.00 20.00    -0.002 C 
HETATM    5  C5  UNL     1     -32.525   7.989   4.565  1.00 20.00     0.005 C 
HETATM    6  C3  UNL     1     -33.583   7.772   5.644  1.00 20.00     0.000 C 
HETATM    7  C4  UNL     1     -34.075   6.335   5.808  1.00 20.00     0.001 C 
HETATM    8  C6  UNL     1     -34.963   5.888   4.650  1.00 20.00     0.020 C 
HETATM    9  C9  UNL     1     -34.218   5.301   3.451  1.00 20.00     0.082 C 
HETATM   10  C7  UNL     1     -32.898   5.973   3.060  1.00 20.00     0.025 C 
HETATM   11 CL11 UNL     1     -33.902   3.551   3.729  1.00 20.00    -0.125 Cl
ENDBRANCH   3   4
TORSDOF 1
ENDMDL
MODEL 2
REMARK VINA RESULT:      -4.9      1.725      2.488
REMARK  1 active torsions:
REMARK  status: ('A' for Active; 'I' for Inactive)
REMARK    1  A    between atoms: C8_8  and  C10_10 
ROOT
HETATM    1  C1  UNL     1     -32.755  10.015   1.064  1.00 20.00     0.012 C 
HETATM    2  C2  UNL     1     -32.166   9.225   1.748  1.00 20.00    -0.117 C 
HETATM    3  C10 UNL     1     -31.431   8.271   2.580  1.00 20.00     0.097 C 
ENDROOT
BRANCH   3   4
HETATM    4  C8  UNL     1     -32.389   7.259   3.222  1.00 20.00    -0.002 C 
HETATM    5  C5  UNL     1     -33.523   6.955   2.226  1.00 20.00     0.005 C 
HETATM    6  C3  UNL     1     -34.404   5.756   2.568  1.00 20.00     0.000 C 
HETATM    7  C4  UNL     1     -35.058   5.787   3.948  1.00 20.00     0.001 C 
HETATM    8  C6  UNL     1     -34.054   5.548   5.073  1.00 20.00     0.020 C 
HETATM    9  C9  UNL     1     -33.343   6.801   5.584  1.00 20.00     0.082 C 
HETATM   10  C7  UNL     1     -32.936   7.842   4.536  1.00 20.00     0.025 C 
HETATM   11 CL11 UNL     1     -34.361   7.615   6.825  1.00 20.00    -0.125 Cl
ENDBRANCH   3   4
TORSDOF 1
ENDMDL
MODEL 3
REMARK VINA RESULT:      -4.7     11.410     12.131
REMARK  1 active torsions:
REMARK  status: ('A' for Active; 'I' for Inactive)
REMARK    1  A    between atoms: C8_8  and  C10_10 
ROOT
HETATM    1  C1  UNL     1     -32.766  18.007  -1.179  1.00 20.00     0.012 C 
HETATM    2  C2  UNL     1     -33.731  17.391  -1.541  1.00 20.00    -0.117 C 
HETATM    3  C10 UNL     1     -34.917  16.648  -1.969  1.00 20.00     0.097 C 
ENDROOT
BRANCH   3   4
HETATM    4  C8  UNL     1     -34.636  15.876  -3.265  1.00 20.00    -0.002 C 
HETATM    5  C5  UNL     1     -33.779  16.760  -4.189  1.00 20.00     0.005 C 
HETATM    6  C3  UNL     1     -33.155  16.057  -5.392  1.00 20.00     0.000 C 
HETATM    7  C4  UNL     1     -34.132  15.320  -6.307  1.00 20.00     0.001 C 
HETATM    8  C6  UNL     1     -34.679  14.046  -5.669  1.00 20.00     0.020 C 
HETATM    9  C9  UNL     1     -35.923  14.239  -4.802  1.00 20.00     0.082 C 
HETATM   10  C7  UNL     1     -35.971  15.497  -3.929  1.00 20.00     0.025 C 
HETATM   11 CL11 UNL     1     -37.396  14.211  -5.836  1.00 20.00    -0.125 Cl
ENDBRANCH   3   4
TORSDOF 1
ENDMDL
MODEL 4
REMARK VINA RESULT:      -4.6     11.067     12.225
REMARK  1 active torsions:
REMARK  status: ('A' for Active; 'I' for Inactive)
REMARK    1  A    between atoms: C8_8  and  C10_10 
ROOT
HETATM    1  C1  UNL     1     -32.429  18.509  -0.715  1.00 20.00     0.012 C 
HETATM    2  C2  UNL     1     -33.315  17.826  -1.150  1.00 20.00    -0.117 C 
HETATM    3  C10 UNL     1     -34.406  16.998  -1.665  1.00 20.00     0.097 C 
ENDROOT
BRANCH   3   4
HETATM    4  C8  UNL     1     -34.073  16.472  -3.068  1.00 20.00    -0.002 C 
HETATM    5  C5  UNL     1     -34.133  17.647  -4.062  1.00 20.00     0.005 C 
HETATM    6  C3  UNL     1     -33.546  17.378  -5.445  1.00 20.00     0.000 C 
HETATM    7  C4  UNL     1     -34.125  16.175  -6.187  1.00 20.00     0.001 C 
HETATM    8  C6  UNL     1     -33.673  14.847  -5.583  1.00 20.00     0.020 C 
HETATM    9  C9  UNL     1     -34.541  14.327  -4.438  1.00 20.00     0.082 C 
HETATM   10  C7  UNL     1     -35.073  15.365  -3.445  1.00 20.00     0.025 C 
HETATM   11 CL11 UNL     1     -35.941  13.412  -5.104  1.00 20.00    -0.125 Cl
ENDBRANCH   3   4
TORSDOF 1
ENDMDL
MODEL 5
REMARK VINA RESULT:      -4.5     11.447     12.028
REMARK  1 active torsions:
REMARK  status: ('A' for Active; 'I' for Inactive)
REMARK    1  A    between atoms: C8_8  and  C10_10 
ROOT
HETATM    1  C1  UNL     1     -35.551  17.382  -0.229  1.00 20.00     0.012 C 
HETATM    2  C2  UNL     1     -34.813  17.182  -1.155  1.00 20.00    -0.117 C 
HETATM    3  C10 UNL     1     -33.900  16.951  -2.275  1.00 20.00     0.097 C 
ENDROOT
BRANCH   3   4
HETATM    4  C8  UNL     1     -34.463  15.881  -3.221  1.00 20.00    -0.002 C 
HETATM    5  C5  UNL     1     -33.410  15.576  -4.302  1.00 20.00     0.005 C 
HETATM    6  C3  UNL     1     -33.669  14.334  -5.151  1.00 20.00     0.000 C 
HETATM    7  C4  UNL     1     -35.021  14.289  -5.862  1.00 20.00     0.001 C 
HETATM    8  C6  UNL     1     -36.177  14.042  -4.896  1.00 20.00     0.020 C 
HETATM    9  C9  UNL     1     -36.764  15.298  -4.253  1.00 20.00     0.082 C 
HETATM   10  C7  UNL     1     -35.774  16.393  -3.843  1.00 20.00     0.025 C 
HETATM   11 CL11 UNL     1     -37.991  16.027  -5.349  1.00 20.00    -0.125 Cl
ENDBRANCH   3   4
TORSDOF 1
ENDMDL
MODEL 6
REMARK VINA RESULT:      -4.4     11.421     12.749
REMARK  1 active torsions:
REMARK  status: ('A' for Active; 'I' for Inactive)
REMARK    1  A    between atoms: C8_8  and  C10_10 
ROOT
HETATM    1  C1  UNL     1     -35.356  17.194  -0.740  1.00 20.00     0.012 C 
HETATM    2  C2  UNL     1     -34.628  16.900  -1.648  1.00 20.00    -0.117 C 
HETATM    3  C10 UNL     1     -33.725  16.545  -2.744  1.00 20.00     0.097 C 
ENDROOT
BRANCH   3   4
HETATM    4  C8  UNL     1     -34.515  16.028  -3.953  1.00 20.00    -0.002 C 
HETATM    5  C5  UNL     1     -34.459  14.489  -3.958  1.00 20.00     0.005 C 
HETATM    6  C3  UNL     1     -35.427  13.791  -4.910  1.00 20.00     0.000 C 
HETATM    7  C4  UNL     1     -35.337  14.216  -6.374  1.00 20.00     0.001 C 
HETATM    8  C6  UNL     1     -35.897  15.618  -6.608  1.00 20.00     0.020 C 
HETATM    9  C9  UNL     1     -34.897  16.756  -6.407  1.00 20.00     0.082 C 
HETATM   10  C7  UNL     1     -33.913  16.616  -5.241  1.00 20.00     0.025 C 
HETATM   11 CL11 UNL     1     -33.952  17.010  -7.918  1.00 20.00    -0.125 Cl
ENDBRANCH   3   4
TORSDOF 1
ENDMDL
MODEL 7
REMARK VINA RESULT:      -4.3     11.383     12.118
REMARK  1 active torsions:
REMARK  status: ('A' for Active; 'I' for Inactive)
REMARK    1  A    between atoms: C8_8  and  C10_10 
ROOT
HETATM    1  C1  UNL     1     -35.965  13.382  -5.281  1.00 20.00     0.012 C 
HETATM    2  C2  UNL     1     -35.151  14.087  -4.749  1.00 20.00    -0.117 C 
HETATM    3  C10 UNL     1     -34.145  14.939  -4.113  1.00 20.00     0.097 C 
ENDROOT
BRANCH   3   4
HETATM    4  C8  UNL     1     -34.801  15.892  -3.104  1.00 20.00    -0.002 C 
HETATM    5  C5  UNL     1     -35.884  16.709  -3.830  1.00 20.00     0.005 C 
HETATM    6  C3  UNL     1     -36.839  17.493  -2.933  1.00 20.00     0.000 C 
HETATM    7  C4  UNL     1     -36.181  18.456  -1.947  1.00 20.00     0.001 C 
HETATM    8  C6  UNL     1     -35.480  17.728  -0.803  1.00 20.00     0.020 C 
HETATM    9  C9  UNL     1     -34.034  17.318  -1.084  1.00 20.00     0.082 C 
HETATM   10  C7  UNL     1     -33.722  16.804  -2.493  1.00 20.00     0.025 C 
HETATM   11 CL11 UNL     1     -32.931  18.695  -0.727  1.00 20.00    -0.125 Cl
ENDBRANCH   3   4
TORSDOF 1
ENDMDL
MODEL 8
REMARK VINA RESULT:      -4.3     11.465     12.300
REMARK  1 active torsions:
REMARK  status: ('A' for Active; 'I' for Inactive)
REMARK    1  A    between atoms: C8_8  and  C10_10 
ROOT
HETATM    1  C1  UNL     1     -34.423  17.792  -0.423  1.00 20.00     0.012 C 
HETATM    2  C2  UNL     1     -34.115  17.287  -1.467  1.00 20.00    -0.117 C 
HETATM    3  C10 UNL     1     -33.723  16.676  -2.738  1.00 20.00     0.097 C 
ENDROOT
BRANCH   3   4
HETATM    4  C8  UNL     1     -34.896  15.903  -3.354  1.00 20.00    -0.002 C 
HETATM    5  C5  UNL     1     -34.334  14.749  -4.205  1.00 20.00     0.005 C 
HETATM    6  C3  UNL     1     -35.347  13.698  -4.653  1.00 20.00     0.000 C 
HETATM    7  C4  UNL     1     -36.557  14.230  -5.419  1.00 20.00     0.001 C 
HETATM    8  C6  UNL     1     -37.530  14.986  -4.517  1.00 20.00     0.020 C 
HETATM    9  C9  UNL     1     -37.223  16.472  -4.335  1.00 20.00     0.082 C 
HETATM   10  C7  UNL     1     -35.748  16.864  -4.202  1.00 20.00     0.025 C 
HETATM   11 CL11 UNL     1     -37.937  17.412  -5.694  1.00 20.00    -0.125 Cl
ENDBRANCH   3   4
TORSDOF 1
ENDMDL
MODEL 9
REMARK VINA RESULT:      -4.3     11.314     12.248
REMARK  1 active torsions:
REMARK  status: ('A' for Active; 'I' for Inactive)
REMARK    1  A    between atoms: C8_8  and  C10_10 
ROOT
HETATM    1  C1  UNL     1     -33.305  18.241   4.066  1.00 20.00     0.012 C 
HETATM    2  C2  UNL     1     -32.964  18.618   2.978  1.00 20.00    -0.117 C 
HETATM    3  C10 UNL     1     -32.534  19.089   1.661  1.00 20.00     0.097 C 
ENDROOT
BRANCH   3   4
HETATM    4  C8  UNL     1     -33.283  18.345   0.548  1.00 20.00    -0.002 C 
HETATM    5  C5  UNL     1     -32.668  18.736  -0.808  1.00 20.00     0.005 C 
HETATM    6  C3  UNL     1     -33.083  17.878  -2.000  1.00 20.00     0.000 C 
HETATM    7  C4  UNL     1     -34.587  17.765  -2.242  1.00 20.00     0.001 C 
HETATM    8  C6  UNL     1     -35.281  16.896  -1.196  1.00 20.00     0.020 C 
HETATM    9  C9  UNL     1     -35.725  17.634   0.067  1.00 20.00     0.082 C 
HETATM   10  C7  UNL     1     -34.778  18.707   0.612  1.00 20.00     0.025 C 
HETATM   11 CL11 UNL     1     -37.337  18.388  -0.204  1.00 20.00    -0.125 Cl
ENDBRANCH   3   4
TORSDOF 1
ENDMDL
