MODEL 1
REMARK VINA RESULT:      -5.1      0.000      0.000
REMARK  4 active torsions:
REMARK  status: ('A' for Active; 'I' for Inactive)
REMARK    1  A    between atoms: C4_4  and  C8_8 
REMARK    2  A    between atoms: C5_5  and  C9_9 
REMARK    3  A    between atoms: C5_5  and  O11_11 
REMARK    4  A    between atoms: C9_9  and  C10_10 
ROOT
HETATM    1  C1  UNL     1     -31.432   8.739   2.819  1.00 20.00     0.007 C 
HETATM    2  C2  UNL     1     -31.779   7.418   3.516  1.00 20.00     0.038 C 
HETATM    3  C3  UNL     1     -33.362   7.717   1.750  1.00 20.00     0.042 C 
HETATM    4  C4  UNL     1     -32.576   9.028   1.838  1.00 20.00    -0.012 C 
HETATM    5  C5  UNL     1     -33.240   7.143   3.160  1.00 20.00     0.058 C 
ENDROOT
BRANCH   5   6
HETATM    6  C9  UNL     1     -33.615   5.670   3.238  1.00 20.00     0.037 C 
BRANCH   6   7
HETATM    7  C10 UNL     1     -34.870   5.457   4.083  1.00 20.00    -0.002 C 
HETATM    8  C7  UNL     1     -34.548   4.734   5.382  1.00 20.00     0.005 C 
ENDBRANCH   6   7
ENDBRANCH   5   6
BRANCH   5   9
HETATM    9  O11 UNL     1     -34.093   7.881   4.034  1.00 20.00    -0.390 OA
HETATM   10  H31 UNL     1     -35.000   7.606   3.830  1.00 20.00     0.210 HD
ENDBRANCH   5   9
BRANCH   4  11
HETATM   11  C8  UNL     1     -32.093   9.520   0.483  1.00 20.00     0.000 C 
HETATM   12  C6  UNL     1     -33.151   9.395  -0.567  1.00 20.00     0.005 C 
ENDBRANCH   4  11
TORSDOF 4
ENDMDL
MODEL 2
REMARK VINA RESULT:      -5.1      1.298      4.701
REMARK  4 active torsions:
REMARK  status: ('A' for Active; 'I' for Inactive)
REMARK    1  A    between atoms: C4_4  and  C8_8 
REMARK    2  A    between atoms: C5_5  and  C9_9 
REMARK    3  A    between atoms: C5_5  and  O11_11 
REMARK    4  A    between atoms: C9_9  and  C10_10 
ROOT
HETATM    1  C1  UNL     1     -34.105   7.439   4.092  1.00 20.00     0.007 C 
HETATM    2  C2  UNL     1     -33.524   8.513   3.164  1.00 20.00     0.038 C 
HETATM    3  C3  UNL     1     -32.480   6.444   2.581  1.00 20.00     0.042 C 
HETATM    4  C4  UNL     1     -33.276   6.168   3.860  1.00 20.00    -0.012 C 
HETATM    5  C5  UNL     1     -32.198   7.942   2.662  1.00 20.00     0.058 C 
ENDROOT
BRANCH   5   6
HETATM    6  C9  UNL     1     -31.748   8.536   1.335  1.00 20.00     0.037 C 
BRANCH   6   7
HETATM    7  C10 UNL     1     -32.633   9.710   0.920  1.00 20.00    -0.002 C 
HETATM    8  C7  UNL     1     -33.210   9.505  -0.472  1.00 20.00     0.005 C 
ENDBRANCH   6   7
ENDBRANCH   5   6
BRANCH   5   9
HETATM    9  O11 UNL     1     -31.181   8.168   3.636  1.00 20.00    -0.390 OA
HETATM   10  H31 UNL     1     -31.362   9.037   4.027  1.00 20.00     0.210 HD
ENDBRANCH   5   9
BRANCH   4  11
HETATM   11  C8  UNL     1     -34.123   4.909   3.770  1.00 20.00     0.000 C 
HETATM   12  C6  UNL     1     -34.669   4.506   5.104  1.00 20.00     0.005 C 
ENDBRANCH   4  11
TORSDOF 4
ENDMDL
MODEL 3
REMARK VINA RESULT:      -4.9      1.303      4.776
REMARK  4 active torsions:
REMARK  status: ('A' for Active; 'I' for Inactive)
REMARK    1  A    between atoms: C4_4  and  C8_8 
REMARK    2  A    between atoms: C5_5  and  C9_9 
REMARK    3  A    between atoms: C5_5  and  O11_11 
REMARK    4  A    between atoms: C9_9  and  C10_10 
ROOT
HETATM    1  C1  UNL     1     -33.460   4.964   3.143  1.00 20.00     0.007 C 
HETATM    2  C2  UNL     1     -32.416   5.840   2.441  1.00 20.00     0.038 C 
HETATM    3  C3  UNL     1     -33.754   7.290   3.789  1.00 20.00     0.042 C 
HETATM    4  C4  UNL     1     -34.444   5.923   3.827  1.00 20.00    -0.012 C 
HETATM    5  C5  UNL     1     -32.989   7.257   2.468  1.00 20.00     0.058 C 
ENDROOT
BRANCH   5   6
HETATM    6  C9  UNL     1     -31.926   8.341   2.368  1.00 20.00     0.037 C 
BRANCH   6   7
HETATM    7  C10 UNL     1     -31.968   9.040   1.011  1.00 20.00    -0.002 C 
HETATM    8  C7  UNL     1     -32.562  10.436   1.123  1.00 20.00     0.005 C 
ENDBRANCH   6   7
ENDBRANCH   5   6
BRANCH   5   9
HETATM    9  O11 UNL     1     -33.914   7.419   1.395  1.00 20.00    -0.390 OA
HETATM   10  H31 UNL     1     -33.941   6.572   0.925  1.00 20.00     0.210 HD
ENDBRANCH   5   9
BRANCH   4  11
HETATM   11  C8  UNL     1     -34.820   5.490   5.235  1.00 20.00     0.000 C 
HETATM   12  C6  UNL     1     -34.344   6.464   6.266  1.00 20.00     0.005 C 
ENDBRANCH   4  11
TORSDOF 4
ENDMDL
MODEL 4
REMARK VINA RESULT:      -4.6     10.433     11.341
REMARK  4 active torsions:
REMARK  status: ('A' for Active; 'I' for Inactive)
REMARK    1  A    between atoms: C4_4  and  C8_8 
REMARK    2  A    between atoms: C5_5  and  C9_9 
REMARK    3  A    between atoms: C5_5  and  O11_11 
REMARK    4  A    between atoms: C9_9  and  C10_10 
ROOT
HETATM    1  C1  UNL     1     -33.525  16.726  -4.123  1.00 20.00     0.007 C 
HETATM    2  C2  UNL     1     -33.380  16.034  -5.483  1.00 20.00     0.038 C 
HETATM    3  C3  UNL     1     -34.941  14.750  -4.207  1.00 20.00     0.042 C 
HETATM    4  C4  UNL     1     -34.352  15.781  -3.240  1.00 20.00    -0.012 C 
HETATM    5  C5  UNL     1     -33.845  14.595  -5.259  1.00 20.00     0.058 C 
ENDROOT
BRANCH   5   6
HETATM    6  C9  UNL     1     -34.330  13.911  -6.529  1.00 20.00     0.037 C 
BRANCH   6   7
HETATM    7  C10 UNL     1     -35.829  13.623  -6.469  1.00 20.00    -0.002 C 
HETATM    8  C7  UNL     1     -36.585  14.390  -7.543  1.00 20.00     0.005 C 
ENDBRANCH   6   7
ENDBRANCH   5   6
BRANCH   5   9
HETATM    9  O11 UNL     1     -32.777  13.829  -4.704  1.00 20.00    -0.390 OA
HETATM   10  H31 UNL     1     -31.957  14.293  -4.933  1.00 20.00     0.210 HD
ENDBRANCH   5   9
BRANCH   4  11
HETATM   11  C8  UNL     1     -35.415  16.501  -2.425  1.00 20.00     0.000 C 
HETATM   12  C6  UNL     1     -34.846  17.120  -1.187  1.00 20.00     0.005 C 
ENDBRANCH   4  11
TORSDOF 4
ENDMDL
MODEL 5
REMARK VINA RESULT:      -4.6     10.256     11.250
REMARK  4 active torsions:
REMARK  status: ('A' for Active; 'I' for Inactive)
REMARK    1  A    between atoms: C4_4  and  C8_8 
REMARK    2  A    between atoms: C5_5  and  C9_9 
REMARK    3  A    between atoms: C5_5  and  O11_11 
REMARK    4  A    between atoms: C9_9  and  C10_10 
ROOT
HETATM    1  C1  UNL     1     -33.789  16.633  -5.149  1.00 20.00     0.007 C 
HETATM    2  C2  UNL     1     -34.673  15.728  -6.016  1.00 20.00     0.038 C 
HETATM    3  C3  UNL     1     -34.620  14.768  -3.828  1.00 20.00     0.042 C 
HETATM    4  C4  UNL     1     -33.585  15.896  -3.818  1.00 20.00    -0.012 C 
HETATM    5  C5  UNL     1     -34.695  14.376  -5.301  1.00 20.00     0.058 C 
ENDROOT
BRANCH   5   6
HETATM    6  C9  UNL     1     -35.919  13.537  -5.634  1.00 20.00     0.037 C 
BRANCH   6   7
HETATM    7  C10 UNL     1     -37.079  14.407  -6.116  1.00 20.00    -0.002 C 
HETATM    8  C7  UNL     1     -38.135  14.574  -5.035  1.00 20.00     0.005 C 
ENDBRANCH   6   7
ENDBRANCH   5   6
BRANCH   5   9
HETATM    9  O11 UNL     1     -33.524  13.636  -5.642  1.00 20.00    -0.390 OA
HETATM   10  H31 UNL     1     -32.830  13.921  -5.027  1.00 20.00     0.210 HD
ENDBRANCH   5   9
BRANCH   4  11
HETATM   11  C8  UNL     1     -33.711  16.804  -2.606  1.00 20.00     0.000 C 
HETATM   12  C6  UNL     1     -35.047  16.673  -1.945  1.00 20.00     0.005 C 
ENDBRANCH   4  11
TORSDOF 4
ENDMDL
MODEL 6
REMARK VINA RESULT:      -4.5     10.071     11.237
REMARK  4 active torsions:
REMARK  status: ('A' for Active; 'I' for Inactive)
REMARK    1  A    between atoms: C4_4  and  C8_8 
REMARK    2  A    between atoms: C5_5  and  C9_9 
REMARK    3  A    between atoms: C5_5  and  O11_11 
REMARK    4  A    between atoms: C9_9  and  C10_10 
ROOT
HETATM    1  C1  UNL     1     -35.642  13.276  -5.458  1.00 20.00     0.007 C 
HETATM    2  C2  UNL     1     -35.132  14.063  -4.245  1.00 20.00     0.038 C 
HETATM    3  C3  UNL     1     -34.047  14.967  -6.173  1.00 20.00     0.042 C 
HETATM    4  C4  UNL     1     -34.782  13.712  -6.653  1.00 20.00    -0.012 C 
HETATM    5  C5  UNL     1     -33.809  14.686  -4.691  1.00 20.00     0.058 C 
ENDROOT
BRANCH   5   6
HETATM    6  C9  UNL     1     -33.430  15.930  -3.902  1.00 20.00     0.037 C 
BRANCH   6   7
HETATM    7  C10 UNL     1     -34.477  16.258  -2.839  1.00 20.00    -0.002 C 
HETATM    8  C7  UNL     1     -33.906  17.160  -1.756  1.00 20.00     0.005 C 
ENDBRANCH   6   7
ENDBRANCH   5   6
BRANCH   5   9
HETATM    9  O11 UNL     1     -32.762  13.725  -4.566  1.00 20.00    -0.390 OA
HETATM   10  H31 UNL     1     -32.672  13.538  -3.619  1.00 20.00     0.210 HD
ENDBRANCH   5   9
BRANCH   4  11
HETATM   11  C8  UNL     1     -35.592  13.949  -7.917  1.00 20.00     0.000 C 
HETATM   12  C6  UNL     1     -36.720  14.904  -7.689  1.00 20.00     0.005 C 
ENDBRANCH   4  11
TORSDOF 4
ENDMDL
MODEL 7
REMARK VINA RESULT:      -4.4     10.446     11.303
REMARK  4 active torsions:
REMARK  status: ('A' for Active; 'I' for Inactive)
REMARK    1  A    between atoms: C4_4  and  C8_8 
REMARK    2  A    between atoms: C5_5  and  C9_9 
REMARK    3  A    between atoms: C5_5  and  O11_11 
REMARK    4  A    between atoms: C9_9  and  C10_10 
ROOT
HETATM    1  C1  UNL     1     -33.663  17.538  -4.306  1.00 20.00     0.007 C 
HETATM    2  C2  UNL     1     -34.100  16.728  -5.532  1.00 20.00     0.038 C 
HETATM    3  C3  UNL     1     -34.090  15.229  -3.671  1.00 20.00     0.042 C 
HETATM    4  C4  UNL     1     -33.449  16.527  -3.170  1.00 20.00    -0.012 C 
HETATM    5  C5  UNL     1     -33.825  15.267  -5.174  1.00 20.00     0.058 C 
ENDROOT
BRANCH   5   6
HETATM    6  C9  UNL     1     -34.682  14.282  -5.955  1.00 20.00     0.037 C 
BRANCH   6   7
HETATM    7  C10 UNL     1     -35.767  13.665  -5.073  1.00 20.00    -0.002 C 
HETATM    8  C7  UNL     1     -37.148  14.177  -5.452  1.00 20.00     0.005 C 
ENDBRANCH   6   7
ENDBRANCH   5   6
BRANCH   5   9
HETATM    9  O11 UNL     1     -32.451  14.967  -5.408  1.00 20.00    -0.390 OA
HETATM   10  H31 UNL     1     -32.053  15.771  -5.776  1.00 20.00     0.210 HD
ENDBRANCH   5   9
BRANCH   4  11
HETATM   11  C8  UNL     1     -34.017  16.993  -1.840  1.00 20.00     0.000 C 
HETATM   12  C6  UNL     1     -35.500  16.803  -1.768  1.00 20.00     0.005 C 
ENDBRANCH   4  11
TORSDOF 4
ENDMDL
MODEL 8
REMARK VINA RESULT:      -4.3     10.242     11.329
REMARK  4 active torsions:
REMARK  status: ('A' for Active; 'I' for Inactive)
REMARK    1  A    between atoms: C4_4  and  C8_8 
REMARK    2  A    between atoms: C5_5  and  C9_9 
REMARK    3  A    between atoms: C5_5  and  O11_11 
REMARK    4  A    between atoms: C9_9  and  C10_10 
ROOT
HETATM    1  C1  UNL     1     -34.990  17.854   0.045  1.00 20.00     0.007 C 
HETATM    2  C2  UNL     1     -35.142  16.948  -1.183  1.00 20.00     0.038 C 
HETATM    3  C3  UNL     1     -32.952  17.900  -1.282  1.00 20.00     0.042 C 
HETATM    4  C4  UNL     1     -33.675  18.624  -0.143  1.00 20.00    -0.012 C 
HETATM    5  C5  UNL     1     -34.095  17.440  -2.183  1.00 20.00     0.058 C 
ENDROOT
BRANCH   5   6
HETATM    6  C9  UNL     1     -33.672  16.377  -3.186  1.00 20.00     0.037 C 
BRANCH   6   7
HETATM    7  C10 UNL     1     -34.859  15.526  -3.633  1.00 20.00    -0.002 C 
HETATM    8  C7  UNL     1     -34.403  14.189  -4.198  1.00 20.00     0.005 C 
ENDBRANCH   6   7
ENDBRANCH   5   6
BRANCH   5   9
HETATM    9  O11 UNL     1     -34.605  18.566  -2.894  1.00 20.00    -0.390 OA
HETATM   10  H31 UNL     1     -34.651  18.305  -3.827  1.00 20.00     0.210 HD
ENDBRANCH   5   9
BRANCH   4  11
HETATM   11  C8  UNL     1     -32.844  18.708   1.127  1.00 20.00     0.000 C 
HETATM   12  C6  UNL     1     -31.378  18.762   0.834  1.00 20.00     0.005 C 
ENDBRANCH   4  11
TORSDOF 4
ENDMDL
MODEL 9
REMARK VINA RESULT:      -4.2     10.758     11.636
REMARK  4 active torsions:
REMARK  status: ('A' for Active; 'I' for Inactive)
REMARK    1  A    between atoms: C4_4  and  C8_8 
REMARK    2  A    between atoms: C5_5  and  C9_9 
REMARK    3  A    between atoms: C5_5  and  O11_11 
REMARK    4  A    between atoms: C9_9  and  C10_10 
ROOT
HETATM    1  C1  UNL     1     -34.327  14.272  -6.840  1.00 20.00     0.007 C 
HETATM    2  C2  UNL     1     -35.850  14.097  -6.842  1.00 20.00     0.038 C 
HETATM    3  C3  UNL     1     -35.229  14.801  -4.644  1.00 20.00     0.042 C 
HETATM    4  C4  UNL     1     -33.918  14.508  -5.379  1.00 20.00    -0.012 C 
HETATM    5  C5  UNL     1     -36.241  13.921  -5.374  1.00 20.00     0.058 C 
ENDROOT
BRANCH   5   6
HETATM    6  C9  UNL     1     -37.684  14.306  -5.083  1.00 20.00     0.037 C 
BRANCH   6   7
HETATM    7  C10 UNL     1     -37.784  15.733  -4.547  1.00 20.00    -0.002 C 
HETATM    8  C7  UNL     1     -38.284  16.694  -5.615  1.00 20.00     0.005 C 
ENDBRANCH   6   7
ENDBRANCH   5   6
BRANCH   5   9
HETATM    9  O11 UNL     1     -36.039  12.564  -4.985  1.00 20.00    -0.390 OA
HETATM   10  H31 UNL     1     -35.147  12.324  -5.277  1.00 20.00     0.210 HD
ENDBRANCH   5   9
BRANCH   4  11
HETATM   11  C8  UNL     1     -32.889  15.616  -5.217  1.00 20.00     0.000 C 
HETATM   12  C6  UNL     1     -33.530  16.966  -5.131  1.00 20.00     0.005 C 
ENDBRANCH   4  11
TORSDOF 4
ENDMDL
