MODEL 1
REMARK VINA RESULT:      -6.2      0.000      0.000
REMARK  2 active torsions:
REMARK  status: ('A' for Active; 'I' for Inactive)
REMARK    1  A    between atoms: C8_8  and  C10_10 
REMARK    2  A    between atoms: C9_9  and  C10_10 
ROOT
HETATM    1  C1  UNL     1     -32.448   9.425   0.483  1.00 20.00     0.012 C 
HETATM    2  C2  UNL     1     -32.140   8.952   1.542  1.00 20.00    -0.117 C 
HETATM    3  C9  UNL     1     -31.762   8.379   2.841  1.00 20.00     0.093 C 
ENDROOT
BRANCH   3   4
HETATM    4  C10 UNL     1     -32.140   6.911   2.895  1.00 20.00     0.017 C 
BRANCH   4   5
HETATM    5  C8  UNL     1     -33.661   6.738   2.818  1.00 20.00    -0.007 C 
HETATM    6  C5  UNL     1     -34.354   7.414   4.003  1.00 20.00     0.082 C 
HETATM    7  C3  UNL     1     -34.193   6.608   5.274  1.00 20.00     0.127 C 
HETATM    8  C4  UNL     1     -34.539   5.140   5.190  1.00 20.00     0.078 C 
HETATM    9  O11 UNL     1     -33.893   7.141   6.342  1.00 20.00    -0.298 OA
HETATM   10  C6  UNL     1     -33.832   4.487   4.011  1.00 20.00     0.008 C 
HETATM   11  C7  UNL     1     -34.063   5.259   2.711  1.00 20.00     0.005 C 
ENDBRANCH   4   5
ENDBRANCH   3   4
TORSDOF 2
ENDMDL
MODEL 2
REMARK VINA RESULT:      -5.4      1.521      2.310
REMARK  2 active torsions:
REMARK  status: ('A' for Active; 'I' for Inactive)
REMARK    1  A    between atoms: C8_8  and  C10_10 
REMARK    2  A    between atoms: C9_9  and  C10_10 
ROOT
HETATM    1  C1  UNL     1     -33.283   9.812  -0.856  1.00 20.00     0.012 C 
HETATM    2  C2  UNL     1     -32.818   9.508   0.208  1.00 20.00    -0.117 C 
HETATM    3  C9  UNL     1     -32.244   9.141   1.509  1.00 20.00     0.093 C 
ENDROOT
BRANCH   3   4
HETATM    4  C10 UNL     1     -33.236   8.312   2.304  1.00 20.00     0.017 C 
BRANCH   4   5
HETATM    5  C8  UNL     1     -32.517   7.211   3.090  1.00 20.00    -0.007 C 
HETATM    6  C5  UNL     1     -33.339   5.920   3.111  1.00 20.00     0.082 C 
HETATM    7  C3  UNL     1     -34.509   6.023   4.066  1.00 20.00     0.127 C 
HETATM    8  C4  UNL     1     -34.198   6.509   5.463  1.00 20.00     0.078 C 
HETATM    9  O11 UNL     1     -35.634   5.637   3.752  1.00 20.00    -0.298 OA
HETATM   10  C6  UNL     1     -33.389   7.796   5.417  1.00 20.00     0.008 C 
HETATM   11  C7  UNL     1     -32.161   7.664   4.514  1.00 20.00     0.005 C 
ENDBRANCH   4   5
ENDBRANCH   3   4
TORSDOF 2
ENDMDL
MODEL 3
REMARK VINA RESULT:      -4.8     11.363     12.271
REMARK  2 active torsions:
REMARK  status: ('A' for Active; 'I' for Inactive)
REMARK    1  A    between atoms: C8_8  and  C10_10 
REMARK    2  A    between atoms: C9_9  and  C10_10 
ROOT
HETATM    1  C1  UNL     1     -35.515  17.048  -0.994  1.00 20.00     0.012 C 
HETATM    2  C2  UNL     1     -34.635  16.906  -1.798  1.00 20.00    -0.117 C 
HETATM    3  C9  UNL     1     -33.554  16.736  -2.778  1.00 20.00     0.093 C 
ENDROOT
BRANCH   3   4
HETATM    4  C10 UNL     1     -33.882  15.599  -3.727  1.00 20.00     0.017 C 
BRANCH   4   5
HETATM    5  C8  UNL     1     -34.945  16.028  -4.744  1.00 20.00    -0.007 C 
HETATM    6  C5  UNL     1     -36.069  14.993  -4.838  1.00 20.00     0.082 C 
HETATM    7  C3  UNL     1     -35.631  13.768  -5.613  1.00 20.00     0.127 C 
HETATM    8  C4  UNL     1     -34.986  14.015  -6.957  1.00 20.00     0.078 C 
HETATM    9  O11 UNL     1     -35.878  12.631  -5.214  1.00 20.00    -0.298 OA
HETATM   10  C6  UNL     1     -33.868  15.040  -6.837  1.00 20.00     0.008 C 
HETATM   11  C7  UNL     1     -34.334  16.310  -6.125  1.00 20.00     0.005 C 
ENDBRANCH   4   5
ENDBRANCH   3   4
TORSDOF 2
ENDMDL
MODEL 4
REMARK VINA RESULT:      -4.8      1.728      2.546
REMARK  2 active torsions:
REMARK  status: ('A' for Active; 'I' for Inactive)
REMARK    1  A    between atoms: C8_8  and  C10_10 
REMARK    2  A    between atoms: C9_9  and  C10_10 
ROOT
HETATM    1  C1  UNL     1     -33.271   9.562  -0.644  1.00 20.00     0.012 C 
HETATM    2  C2  UNL     1     -32.584   9.227   0.282  1.00 20.00    -0.117 C 
HETATM    3  C9  UNL     1     -31.740   8.818   1.412  1.00 20.00     0.093 C 
ENDROOT
BRANCH   3   4
HETATM    4  C10 UNL     1     -32.561   8.766   2.687  1.00 20.00     0.017 C 
BRANCH   4   5
HETATM    5  C8  UNL     1     -32.149   7.569   3.550  1.00 20.00    -0.007 C 
HETATM    6  C5  UNL     1     -32.486   6.247   2.857  1.00 20.00     0.082 C 
HETATM    7  C3  UNL     1     -33.969   5.950   2.917  1.00 20.00     0.127 C 
HETATM    8  C4  UNL     1     -34.622   6.049   4.276  1.00 20.00     0.078 C 
HETATM    9  O11 UNL     1     -34.588   5.554   1.931  1.00 20.00    -0.298 OA
HETATM   10  C6  UNL     1     -34.281   7.374   4.942  1.00 20.00     0.008 C 
HETATM   11  C7  UNL     1     -32.774   7.633   4.953  1.00 20.00     0.005 C 
ENDBRANCH   4   5
ENDBRANCH   3   4
TORSDOF 2
ENDMDL
MODEL 5
REMARK VINA RESULT:      -4.7     11.176     12.393
REMARK  2 active torsions:
REMARK  status: ('A' for Active; 'I' for Inactive)
REMARK    1  A    between atoms: C8_8  and  C10_10 
REMARK    2  A    between atoms: C9_9  and  C10_10 
ROOT
HETATM    1  C1  UNL     1     -32.764  17.971  -1.353  1.00 20.00     0.012 C 
HETATM    2  C2  UNL     1     -33.754  17.364  -1.659  1.00 20.00    -0.117 C 
HETATM    3  C9  UNL     1     -34.967  16.624  -2.029  1.00 20.00     0.093 C 
ENDROOT
BRANCH   3   4
HETATM    4  C10 UNL     1     -34.973  16.339  -3.519  1.00 20.00     0.017 C 
BRANCH   4   5
HETATM    5  C8  UNL     1     -33.939  15.266  -3.872  1.00 20.00    -0.007 C 
HETATM    6  C5  UNL     1     -33.038  15.723  -5.021  1.00 20.00     0.082 C 
HETATM    7  C3  UNL     1     -33.758  15.655  -6.351  1.00 20.00     0.127 C 
HETATM    8  C4  UNL     1     -34.457  14.355  -6.674  1.00 20.00     0.078 C 
HETATM    9  O11 UNL     1     -33.693  16.573  -7.167  1.00 20.00    -0.298 OA
HETATM   10  C6  UNL     1     -35.353  13.926  -5.522  1.00 20.00     0.008 C 
HETATM   11  C7  UNL     1     -34.601  13.916  -4.190  1.00 20.00     0.005 C 
ENDBRANCH   4   5
ENDBRANCH   3   4
TORSDOF 2
ENDMDL
MODEL 6
REMARK VINA RESULT:      -4.4      2.046      4.436
REMARK  2 active torsions:
REMARK  status: ('A' for Active; 'I' for Inactive)
REMARK    1  A    between atoms: C8_8  and  C10_10 
REMARK    2  A    between atoms: C9_9  and  C10_10 
ROOT
HETATM    1  C1  UNL     1     -34.788   4.830   5.580  1.00 20.00     0.012 C 
HETATM    2  C2  UNL     1     -34.321   5.926   5.732  1.00 20.00    -0.117 C 
HETATM    3  C9  UNL     1     -33.749   7.265   5.922  1.00 20.00     0.093 C 
ENDROOT
BRANCH   3   4
HETATM    4  C10 UNL     1     -33.583   7.959   4.584  1.00 20.00     0.017 C 
BRANCH   4   5
HETATM    5  C8  UNL     1     -32.388   7.383   3.817  1.00 20.00    -0.007 C 
HETATM    6  C5  UNL     1     -31.560   8.494   3.167  1.00 20.00     0.082 C 
HETATM    7  C3  UNL     1     -32.249   9.053   1.940  1.00 20.00     0.127 C 
HETATM    8  C4  UNL     1     -32.730   8.048   0.920  1.00 20.00     0.078 C 
HETATM    9  O11 UNL     1     -32.322  10.264   1.738  1.00 20.00    -0.298 OA
HETATM   10  C6  UNL     1     -33.557   6.959   1.587  1.00 20.00     0.008 C 
HETATM   11  C7  UNL     1     -32.826   6.338   2.778  1.00 20.00     0.005 C 
ENDBRANCH   4   5
ENDBRANCH   3   4
TORSDOF 2
ENDMDL
MODEL 7
REMARK VINA RESULT:      -4.4     11.385     12.268
REMARK  2 active torsions:
REMARK  status: ('A' for Active; 'I' for Inactive)
REMARK    1  A    between atoms: C8_8  and  C10_10 
REMARK    2  A    between atoms: C9_9  and  C10_10 
ROOT
HETATM    1  C1  UNL     1     -34.963  17.816   0.107  1.00 20.00     0.012 C 
HETATM    2  C2  UNL     1     -34.226  17.674  -0.830  1.00 20.00    -0.117 C 
HETATM    3  C9  UNL     1     -33.320  17.504  -1.974  1.00 20.00     0.093 C 
ENDROOT
BRANCH   3   4
HETATM    4  C10 UNL     1     -33.721  16.284  -2.783  1.00 20.00     0.017 C 
BRANCH   4   5
HETATM    5  C8  UNL     1     -34.609  16.683  -3.965  1.00 20.00    -0.007 C 
HETATM    6  C5  UNL     1     -35.626  15.585  -4.288  1.00 20.00     0.082 C 
HETATM    7  C3  UNL     1     -34.975  14.418  -4.999  1.00 20.00     0.127 C 
HETATM    8  C4  UNL     1     -34.116  14.752  -6.197  1.00 20.00     0.078 C 
HETATM    9  O11 UNL     1     -35.213  13.254  -4.680  1.00 20.00    -0.298 OA
HETATM   10  C6  UNL     1     -33.108  15.838  -5.850  1.00 20.00     0.008 C 
HETATM   11  C7  UNL     1     -33.779  17.051  -5.205  1.00 20.00     0.005 C 
ENDBRANCH   4   5
ENDBRANCH   3   4
TORSDOF 2
ENDMDL
MODEL 8
REMARK VINA RESULT:      -4.3     11.168     12.034
REMARK  2 active torsions:
REMARK  status: ('A' for Active; 'I' for Inactive)
REMARK    1  A    between atoms: C8_8  and  C10_10 
REMARK    2  A    between atoms: C9_9  and  C10_10 
ROOT
HETATM    1  C1  UNL     1     -35.665  13.621  -4.877  1.00 20.00     0.012 C 
HETATM    2  C2  UNL     1     -34.774  14.420  -4.779  1.00 20.00    -0.117 C 
HETATM    3  C9  UNL     1     -33.684  15.397  -4.664  1.00 20.00     0.093 C 
ENDROOT
BRANCH   3   4
HETATM    4  C10 UNL     1     -33.599  15.923  -3.244  1.00 20.00     0.017 C 
BRANCH   4   5
HETATM    5  C8  UNL     1     -34.252  17.304  -3.135  1.00 20.00    -0.007 C 
HETATM    6  C5  UNL     1     -33.235  18.365  -2.706  1.00 20.00     0.082 C 
HETATM    7  C3  UNL     1     -32.909  18.256  -1.232  1.00 20.00     0.127 C 
HETATM    8  C4  UNL     1     -34.084  18.195  -0.284  1.00 20.00     0.078 C 
HETATM    9  O11 UNL     1     -31.750  18.315  -0.822  1.00 20.00    -0.298 OA
HETATM   10  C6  UNL     1     -35.076  17.129  -0.725  1.00 20.00     0.008 C 
HETATM   11  C7  UNL     1     -35.467  17.290  -2.195  1.00 20.00     0.005 C 
ENDBRANCH   4   5
ENDBRANCH   3   4
TORSDOF 2
ENDMDL
MODEL 9
REMARK VINA RESULT:      -4.3      2.212      4.614
REMARK  2 active torsions:
REMARK  status: ('A' for Active; 'I' for Inactive)
REMARK    1  A    between atoms: C8_8  and  C10_10 
REMARK    2  A    between atoms: C9_9  and  C10_10 
ROOT
HETATM    1  C1  UNL     1     -34.761   4.815   5.567  1.00 20.00     0.012 C 
HETATM    2  C2  UNL     1     -34.312   4.676   4.463  1.00 20.00    -0.117 C 
HETATM    3  C9  UNL     1     -33.766   4.503   3.110  1.00 20.00     0.093 C 
ENDROOT
BRANCH   3   4
HETATM    4  C10 UNL     1     -32.830   5.649   2.773  1.00 20.00     0.017 C 
BRANCH   4   5
HETATM    5  C8  UNL     1     -33.512   6.998   3.020  1.00 20.00    -0.007 C 
HETATM    6  C5  UNL     1     -33.412   7.902   1.789  1.00 20.00     0.082 C 
HETATM    7  C3  UNL     1     -32.022   8.481   1.637  1.00 20.00     0.127 C 
HETATM    8  C4  UNL     1     -31.428   9.139   2.861  1.00 20.00     0.078 C 
HETATM    9  O11 UNL     1     -31.447   8.503   0.549  1.00 20.00    -0.298 OA
HETATM   10  C6  UNL     1     -31.531   8.220   4.069  1.00 20.00     0.008 C 
HETATM   11  C7  UNL     1     -32.955   7.700   4.268  1.00 20.00     0.005 C 
ENDBRANCH   4   5
ENDBRANCH   3   4
TORSDOF 2
ENDMDL
