MODEL 1
REMARK VINA RESULT:      -6.7      0.000      0.000
REMARK  1 active torsions:
REMARK  status: ('A' for Active; 'I' for Inactive)
REMARK    1  A    between atoms: C8_8  and  C9_9 
ROOT
HETATM    1  C1  UNL     1     -32.592  10.276   0.868  1.00 20.00     0.012 C 
HETATM    2  C2  UNL     1     -32.340   9.266   1.467  1.00 20.00    -0.117 C 
HETATM    3  C9  UNL     1     -32.022   8.033   2.192  1.00 20.00     0.098 C 
ENDROOT
BRANCH   3   4
HETATM    4  C8  UNL     1     -33.088   7.723   3.241  1.00 20.00     0.004 C 
HETATM    5  C5  UNL     1     -33.669   6.325   3.021  1.00 20.00     0.083 C 
HETATM    6  C3  UNL     1     -34.645   5.972   4.120  1.00 20.00     0.127 C 
HETATM    7  C4  UNL     1     -34.164   6.170   5.539  1.00 20.00     0.078 C 
HETATM    8  O10 UNL     1     -35.734   5.454   3.875  1.00 20.00    -0.298 OA
HETATM    9  C6  UNL     1     -33.573   7.562   5.714  1.00 20.00     0.008 C 
HETATM   10  C7  UNL     1     -32.512   7.864   4.658  1.00 20.00     0.006 C 
ENDBRANCH   3   4
TORSDOF 1
ENDMDL
MODEL 2
REMARK VINA RESULT:      -6.2      1.184      2.007
REMARK  1 active torsions:
REMARK  status: ('A' for Active; 'I' for Inactive)
REMARK    1  A    between atoms: C8_8  and  C9_9 
ROOT
HETATM    1  C1  UNL     1     -32.740   9.496   0.864  1.00 20.00     0.012 C 
HETATM    2  C2  UNL     1     -32.208   8.999   1.819  1.00 20.00    -0.117 C 
HETATM    3  C9  UNL     1     -31.550   8.401   2.983  1.00 20.00     0.098 C 
ENDROOT
BRANCH   3   4
HETATM    4  C8  UNL     1     -32.346   7.209   3.511  1.00 20.00     0.004 C 
HETATM    5  C5  UNL     1     -33.342   7.659   4.582  1.00 20.00     0.083 C 
HETATM    6  C3  UNL     1     -34.206   6.502   5.029  1.00 20.00     0.127 C 
HETATM    7  C4  UNL     1     -34.873   5.697   3.937  1.00 20.00     0.078 C 
HETATM    8  O10 UNL     1     -34.438   6.291   6.219  1.00 20.00    -0.298 OA
HETATM    9  C6  UNL     1     -33.858   5.287   2.880  1.00 20.00     0.008 C 
HETATM   10  C7  UNL     1     -33.063   6.484   2.363  1.00 20.00     0.006 C 
ENDBRANCH   3   4
TORSDOF 1
ENDMDL
MODEL 3
REMARK VINA RESULT:      -5.0     10.870     11.506
REMARK  1 active torsions:
REMARK  status: ('A' for Active; 'I' for Inactive)
REMARK    1  A    between atoms: C8_8  and  C9_9 
ROOT
HETATM    1  C1  UNL     1     -32.866  17.959  -1.237  1.00 20.00     0.012 C 
HETATM    2  C2  UNL     1     -33.779  17.347  -1.721  1.00 20.00    -0.117 C 
HETATM    3  C9  UNL     1     -34.900  16.606  -2.305  1.00 20.00     0.098 C 
ENDROOT
BRANCH   3   4
HETATM    4  C8  UNL     1     -34.415  15.635  -3.379  1.00 20.00     0.004 C 
HETATM    5  C5  UNL     1     -35.601  14.923  -4.035  1.00 20.00     0.083 C 
HETATM    6  C3  UNL     1     -35.134  14.042  -5.171  1.00 20.00     0.127 C 
HETATM    7  C4  UNL     1     -34.222  14.684  -6.191  1.00 20.00     0.078 C 
HETATM    8  O10 UNL     1     -35.556  12.895  -5.315  1.00 20.00    -0.298 OA
HETATM    9  C6  UNL     1     -33.069  15.400  -5.502  1.00 20.00     0.008 C 
HETATM   10  C7  UNL     1     -33.564  16.365  -4.427  1.00 20.00     0.006 C 
ENDBRANCH   3   4
TORSDOF 1
ENDMDL
MODEL 4
REMARK VINA RESULT:      -4.9      2.290      4.359
REMARK  1 active torsions:
REMARK  status: ('A' for Active; 'I' for Inactive)
REMARK    1  A    between atoms: C8_8  and  C9_9 
ROOT
HETATM    1  C1  UNL     1     -34.677   4.985   5.591  1.00 20.00     0.012 C 
HETATM    2  C2  UNL     1     -34.523   5.348   4.457  1.00 20.00    -0.117 C 
HETATM    3  C9  UNL     1     -34.346   5.787   3.070  1.00 20.00     0.098 C 
ENDROOT
BRANCH   3   4
HETATM    4  C8  UNL     1     -33.092   6.646   2.922  1.00 20.00     0.004 C 
HETATM    5  C5  UNL     1     -33.202   7.551   1.693  1.00 20.00     0.083 C 
HETATM    6  C3  UNL     1     -32.012   8.479   1.604  1.00 20.00     0.127 C 
HETATM    7  C4  UNL     1     -31.670   9.258   2.853  1.00 20.00     0.078 C 
HETATM    8  O10 UNL     1     -31.418   8.668   0.543  1.00 20.00    -0.298 OA
HETATM    9  C6  UNL     1     -31.591   8.330   4.057  1.00 20.00     0.008 C 
HETATM   10  C7  UNL     1     -32.847   7.472   4.193  1.00 20.00     0.006 C 
ENDBRANCH   3   4
TORSDOF 1
ENDMDL
MODEL 5
REMARK VINA RESULT:      -4.7     10.536     11.563
REMARK  1 active torsions:
REMARK  status: ('A' for Active; 'I' for Inactive)
REMARK    1  A    between atoms: C8_8  and  C9_9 
ROOT
HETATM    1  C1  UNL     1     -35.120  16.980  -1.173  1.00 20.00     0.012 C 
HETATM    2  C2  UNL     1     -34.470  16.701  -2.144  1.00 20.00    -0.117 C 
HETATM    3  C9  UNL     1     -33.668  16.364  -3.323  1.00 20.00     0.098 C 
ENDROOT
BRANCH   3   4
HETATM    4  C8  UNL     1     -34.535  15.747  -4.418  1.00 20.00     0.004 C 
HETATM    5  C5  UNL     1     -34.804  14.269  -4.122  1.00 20.00     0.083 C 
HETATM    6  C3  UNL     1     -35.750  13.682  -5.145  1.00 20.00     0.127 C 
HETATM    7  C4  UNL     1     -37.025  14.451  -5.403  1.00 20.00     0.078 C 
HETATM    8  O10 UNL     1     -35.542  12.586  -5.664  1.00 20.00    -0.298 OA
HETATM    9  C6  UNL     1     -36.721  15.918  -5.670  1.00 20.00     0.008 C 
HETATM   10  C7  UNL     1     -35.850  16.525  -4.572  1.00 20.00     0.006 C 
ENDBRANCH   3   4
TORSDOF 1
ENDMDL
MODEL 6
REMARK VINA RESULT:      -4.6     10.881     11.590
REMARK  1 active torsions:
REMARK  status: ('A' for Active; 'I' for Inactive)
REMARK    1  A    between atoms: C8_8  and  C9_9 
ROOT
HETATM    1  C1  UNL     1     -35.241  16.938  -1.201  1.00 20.00     0.012 C 
HETATM    2  C2  UNL     1     -34.660  16.557  -2.181  1.00 20.00    -0.117 C 
HETATM    3  C9  UNL     1     -33.943  16.099  -3.373  1.00 20.00     0.098 C 
ENDROOT
BRANCH   3   4
HETATM    4  C8  UNL     1     -34.746  15.037  -4.122  1.00 20.00     0.004 C 
HETATM    5  C5  UNL     1     -36.212  15.458  -4.243  1.00 20.00     0.083 C 
HETATM    6  C3  UNL     1     -36.988  14.463  -5.076  1.00 20.00     0.127 C 
HETATM    7  C4  UNL     1     -36.391  14.094  -6.415  1.00 20.00     0.078 C 
HETATM    8  O10 UNL     1     -38.095  14.054  -4.730  1.00 20.00    -0.298 OA
HETATM    9  C6  UNL     1     -34.928  13.704  -6.259  1.00 20.00     0.008 C 
HETATM   10  C7  UNL     1     -34.135  14.769  -5.505  1.00 20.00     0.006 C 
ENDBRANCH   3   4
TORSDOF 1
ENDMDL
MODEL 7
REMARK VINA RESULT:      -4.4     11.085     12.144
REMARK  1 active torsions:
REMARK  status: ('A' for Active; 'I' for Inactive)
REMARK    1  A    between atoms: C8_8  and  C9_9 
ROOT
HETATM    1  C1  UNL     1     -35.401  17.009  -1.254  1.00 20.00     0.012 C 
HETATM    2  C2  UNL     1     -34.590  16.692  -2.081  1.00 20.00    -0.117 C 
HETATM    3  C9  UNL     1     -33.591  16.308  -3.082  1.00 20.00     0.098 C 
ENDROOT
BRANCH   3   4
HETATM    4  C8  UNL     1     -34.260  15.782  -4.350  1.00 20.00     0.004 C 
HETATM    5  C5  UNL     1     -33.324  15.927  -5.552  1.00 20.00     0.083 C 
HETATM    6  C3  UNL     1     -33.940  15.310  -6.788  1.00 20.00     0.127 C 
HETATM    7  C4  UNL     1     -34.467  13.901  -6.646  1.00 20.00     0.078 C 
HETATM    8  O10 UNL     1     -33.920  15.885  -7.875  1.00 20.00    -0.298 OA
HETATM    9  C6  UNL     1     -35.374  13.789  -5.429  1.00 20.00     0.008 C 
HETATM   10  C7  UNL     1     -34.698  14.321  -4.168  1.00 20.00     0.006 C 
ENDBRANCH   3   4
TORSDOF 1
ENDMDL
MODEL 8
REMARK VINA RESULT:      -4.4     10.768     11.513
REMARK  1 active torsions:
REMARK  status: ('A' for Active; 'I' for Inactive)
REMARK    1  A    between atoms: C8_8  and  C9_9 
ROOT
HETATM    1  C1  UNL     1     -32.953  14.351  -4.288  1.00 20.00     0.012 C 
HETATM    2  C2  UNL     1     -33.493  15.378  -3.981  1.00 20.00    -0.117 C 
HETATM    3  C9  UNL     1     -34.156  16.634  -3.618  1.00 20.00     0.098 C 
ENDROOT
BRANCH   3   4
HETATM    4  C8  UNL     1     -34.043  16.899  -2.118  1.00 20.00     0.004 C 
HETATM    5  C5  UNL     1     -33.138  18.104  -1.852  1.00 20.00     0.083 C 
HETATM    6  C3  UNL     1     -33.109  18.437  -0.378  1.00 20.00     0.127 C 
HETATM    7  C4  UNL     1     -34.449  18.571   0.309  1.00 20.00     0.078 C 
HETATM    8  O10 UNL     1     -32.056  18.687   0.208  1.00 20.00    -0.298 OA
HETATM    9  C6  UNL     1     -35.329  17.368   0.004  1.00 20.00     0.008 C 
HETATM   10  C7  UNL     1     -35.432  17.108  -1.498  1.00 20.00     0.006 C 
ENDBRANCH   3   4
TORSDOF 1
ENDMDL
MODEL 9
REMARK VINA RESULT:      -4.3      2.171      4.433
REMARK  1 active torsions:
REMARK  status: ('A' for Active; 'I' for Inactive)
REMARK    1  A    between atoms: C8_8  and  C9_9 
ROOT
HETATM    1  C1  UNL     1     -33.928   3.643   4.460  1.00 20.00     0.012 C 
HETATM    2  C2  UNL     1     -34.484   4.695   4.298  1.00 20.00    -0.117 C 
HETATM    3  C9  UNL     1     -35.173   5.973   4.102  1.00 20.00     0.098 C 
ENDROOT
BRANCH   3   4
HETATM    4  C8  UNL     1     -34.176   7.096   3.823  1.00 20.00     0.004 C 
HETATM    5  C5  UNL     1     -33.224   7.277   5.007  1.00 20.00     0.083 C 
HETATM    6  C3  UNL     1     -32.168   8.312   4.693  1.00 20.00     0.127 C 
HETATM    7  C4  UNL     1     -31.425   8.142   3.388  1.00 20.00     0.078 C 
HETATM    8  O10 UNL     1     -31.859   9.186   5.502  1.00 20.00    -0.298 OA
HETATM    9  C6  UNL     1     -32.402   7.943   2.238  1.00 20.00     0.008 C 
HETATM   10  C7  UNL     1     -33.397   6.822   2.528  1.00 20.00     0.006 C 
ENDBRANCH   3   4
TORSDOF 1
ENDMDL
