MODEL 1
REMARK VINA RESULT:      -5.9      0.000      0.000
REMARK  6 active torsions:
REMARK  status: ('A' for Active; 'I' for Inactive)
REMARK    1  A    between atoms: C3_3  and  C6_6 
REMARK    2  A    between atoms: C4_4  and  C5_5 
REMARK    3  A    between atoms: C4_4  and  C7_7 
REMARK    4  A    between atoms: C5_5  and  C8_8 
REMARK    5  A    between atoms: C6_6  and  C9_9 
REMARK    6  A    between atoms: C7_7  and  C9_9 
ROOT
HETATM    1  C7  UNL     1     -32.686   7.027   3.042  1.00 20.00     0.004 C 
ENDROOT
BRANCH   1   2
HETATM    2  C4  UNL     1     -31.820   8.282   2.901  1.00 20.00     0.001 C 
BRANCH   2   3
HETATM    3  C5  UNL     1     -31.611   8.649   1.430  1.00 20.00     0.015 C 
BRANCH   3   4
HETATM    4  C8  UNL     1     -32.518   9.803   1.019  1.00 20.00     0.114 C 
HETATM    5 CL10 UNL     1     -33.261   9.476  -0.563  1.00 20.00    -0.130 Cl
ENDBRANCH   3   4
ENDBRANCH   2   3
ENDBRANCH   1   2
BRANCH   1   6
HETATM    6  C9  UNL     1     -33.906   7.219   3.963  1.00 20.00    -0.019 C 
HETATM    7  C2  UNL     1     -33.437   7.416   5.409  1.00 20.00     0.010 C 
BRANCH   6   8
HETATM    8  C6  UNL     1     -34.962   6.099   3.864  1.00 20.00     0.004 C 
BRANCH   8   9
HETATM    9  C3  UNL     1     -34.843   4.993   4.916  1.00 20.00    -0.004 C 
HETATM   10  C1  UNL     1     -34.040   3.813   4.385  1.00 20.00     0.005 C 
ENDBRANCH   8   9
ENDBRANCH   6   8
ENDBRANCH   1   6
TORSDOF 6
ENDMDL
MODEL 2
REMARK VINA RESULT:      -5.8      1.001      1.881
REMARK  6 active torsions:
REMARK  status: ('A' for Active; 'I' for Inactive)
REMARK    1  A    between atoms: C3_3  and  C6_6 
REMARK    2  A    between atoms: C4_4  and  C5_5 
REMARK    3  A    between atoms: C4_4  and  C7_7 
REMARK    4  A    between atoms: C5_5  and  C8_8 
REMARK    5  A    between atoms: C6_6  and  C9_9 
REMARK    6  A    between atoms: C7_7  and  C9_9 
ROOT
HETATM    1  C7  UNL     1     -33.287   7.133   2.395  1.00 20.00     0.004 C 
ENDROOT
BRANCH   1   2
HETATM    2  C4  UNL     1     -32.112   8.069   2.695  1.00 20.00     0.001 C 
BRANCH   2   3
HETATM    3  C5  UNL     1     -31.595   8.737   1.419  1.00 20.00     0.015 C 
BRANCH   3   4
HETATM    4  C8  UNL     1     -32.532   9.849   0.964  1.00 20.00     0.114 C 
HETATM    5 CL10 UNL     1     -33.269   9.438  -0.601  1.00 20.00    -0.130 Cl
ENDBRANCH   3   4
ENDBRANCH   2   3
ENDBRANCH   1   2
BRANCH   1   6
HETATM    6  C9  UNL     1     -33.364   5.916   3.338  1.00 20.00    -0.019 C 
HETATM    7  C2  UNL     1     -33.065   4.634   2.553  1.00 20.00     0.010 C 
BRANCH   6   8
HETATM    8  C6  UNL     1     -34.687   5.800   4.122  1.00 20.00     0.004 C 
BRANCH   8   9
HETATM    9  C3  UNL     1     -34.563   5.956   5.640  1.00 20.00    -0.004 C 
HETATM   10  C1  UNL     1     -33.782   7.213   6.001  1.00 20.00     0.005 C 
ENDBRANCH   8   9
ENDBRANCH   6   8
ENDBRANCH   1   6
TORSDOF 6
ENDMDL
MODEL 3
REMARK VINA RESULT:      -5.7      2.519      5.136
REMARK  6 active torsions:
REMARK  status: ('A' for Active; 'I' for Inactive)
REMARK    1  A    between atoms: C3_3  and  C6_6 
REMARK    2  A    between atoms: C4_4  and  C5_5 
REMARK    3  A    between atoms: C4_4  and  C7_7 
REMARK    4  A    between atoms: C5_5  and  C8_8 
REMARK    5  A    between atoms: C6_6  and  C9_9 
REMARK    6  A    between atoms: C7_7  and  C9_9 
ROOT
HETATM    1  C7  UNL     1     -33.391   7.320   2.511  1.00 20.00     0.004 C 
ENDROOT
BRANCH   1   2
HETATM    2  C4  UNL     1     -33.593   5.902   3.051  1.00 20.00     0.001 C 
BRANCH   2   3
HETATM    3  C5  UNL     1     -34.883   5.798   3.870  1.00 20.00     0.015 C 
BRANCH   3   4
HETATM    4  C8  UNL     1     -34.577   5.609   5.351  1.00 20.00     0.114 C 
HETATM    5 CL10 UNL     1     -33.957   7.119   6.055  1.00 20.00    -0.130 Cl
ENDBRANCH   3   4
ENDBRANCH   2   3
ENDBRANCH   1   2
BRANCH   1   6
HETATM    6  C9  UNL     1     -31.912   7.745   2.431  1.00 20.00    -0.019 C 
HETATM    7  C2  UNL     1     -31.483   8.376   3.760  1.00 20.00     0.010 C 
BRANCH   6   8
HETATM    8  C6  UNL     1     -31.577   8.666   1.239  1.00 20.00     0.004 C 
BRANCH   8   9
HETATM    9  C3  UNL     1     -32.649   9.703   0.894  1.00 20.00    -0.004 C 
HETATM   10  C1  UNL     1     -33.207   9.474  -0.504  1.00 20.00     0.005 C 
ENDBRANCH   8   9
ENDBRANCH   6   8
ENDBRANCH   1   6
TORSDOF 6
ENDMDL
MODEL 4
REMARK VINA RESULT:      -5.6      2.500      5.132
REMARK  6 active torsions:
REMARK  status: ('A' for Active; 'I' for Inactive)
REMARK    1  A    between atoms: C3_3  and  C6_6 
REMARK    2  A    between atoms: C4_4  and  C5_5 
REMARK    3  A    between atoms: C4_4  and  C7_7 
REMARK    4  A    between atoms: C5_5  and  C8_8 
REMARK    5  A    between atoms: C6_6  and  C9_9 
REMARK    6  A    between atoms: C7_7  and  C9_9 
ROOT
HETATM    1  C7  UNL     1     -33.799   7.449   3.869  1.00 20.00     0.004 C 
ENDROOT
BRANCH   1   2
HETATM    2  C4  UNL     1     -33.582   7.200   5.365  1.00 20.00     0.001 C 
BRANCH   2   3
HETATM    3  C5  UNL     1     -34.424   6.021   5.859  1.00 20.00     0.015 C 
BRANCH   3   4
HETATM    4  C8  UNL     1     -35.048   5.267   4.691  1.00 20.00     0.114 C 
HETATM    5 CL10 UNL     1     -34.066   3.842   4.278  1.00 20.00    -0.130 Cl
ENDBRANCH   3   4
ENDBRANCH   2   3
ENDBRANCH   1   2
BRANCH   1   6
HETATM    6  C9  UNL     1     -32.495   7.444   3.047  1.00 20.00    -0.019 C 
HETATM    7  C2  UNL     1     -31.427   8.276   3.766  1.00 20.00     0.010 C 
BRANCH   6   8
HETATM    8  C6  UNL     1     -32.664   7.893   1.581  1.00 20.00     0.004 C 
BRANCH   8   9
HETATM    9  C3  UNL     1     -31.832   9.111   1.171  1.00 20.00    -0.004 C 
HETATM   10  C1  UNL     1     -32.716  10.330   0.946  1.00 20.00     0.005 C 
ENDBRANCH   8   9
ENDBRANCH   6   8
ENDBRANCH   1   6
TORSDOF 6
ENDMDL
MODEL 5
REMARK VINA RESULT:      -5.3      2.663      5.276
REMARK  6 active torsions:
REMARK  status: ('A' for Active; 'I' for Inactive)
REMARK    1  A    between atoms: C3_3  and  C6_6 
REMARK    2  A    between atoms: C4_4  and  C5_5 
REMARK    3  A    between atoms: C4_4  and  C7_7 
REMARK    4  A    between atoms: C5_5  and  C8_8 
REMARK    5  A    between atoms: C6_6  and  C9_9 
REMARK    6  A    between atoms: C7_7  and  C9_9 
ROOT
HETATM    1  C7  UNL     1     -33.404   7.332   2.426  1.00 20.00     0.004 C 
ENDROOT
BRANCH   1   2
HETATM    2  C4  UNL     1     -33.755   6.473   3.645  1.00 20.00     0.001 C 
BRANCH   2   3
HETATM    3  C5  UNL     1     -33.831   4.990   3.275  1.00 20.00     0.015 C 
BRANCH   3   4
HETATM    4  C8  UNL     1     -34.324   4.157   4.452  1.00 20.00     0.114 C 
HETATM    5 CL10 UNL     1     -34.625   5.195   5.864  1.00 20.00    -0.130 Cl
ENDBRANCH   3   4
ENDBRANCH   2   3
ENDBRANCH   1   2
BRANCH   1   6
HETATM    6  C9  UNL     1     -31.933   7.790   2.396  1.00 20.00    -0.019 C 
HETATM    7  C2  UNL     1     -31.540   8.357   3.765  1.00 20.00     0.010 C 
BRANCH   6   8
HETATM    8  C6  UNL     1     -31.596   8.778   1.261  1.00 20.00     0.004 C 
BRANCH   8   9
HETATM    9  C3  UNL     1     -32.707   9.771   0.908  1.00 20.00    -0.004 C 
HETATM   10  C1  UNL     1     -33.238   9.525  -0.498  1.00 20.00     0.005 C 
ENDBRANCH   8   9
ENDBRANCH   6   8
ENDBRANCH   1   6
TORSDOF 6
ENDMDL
MODEL 6
REMARK VINA RESULT:      -5.1      1.143      2.169
REMARK  6 active torsions:
REMARK  status: ('A' for Active; 'I' for Inactive)
REMARK    1  A    between atoms: C3_3  and  C6_6 
REMARK    2  A    between atoms: C4_4  and  C5_5 
REMARK    3  A    between atoms: C4_4  and  C7_7 
REMARK    4  A    between atoms: C5_5  and  C8_8 
REMARK    5  A    between atoms: C6_6  and  C9_9 
REMARK    6  A    between atoms: C7_7  and  C9_9 
ROOT
HETATM    1  C7  UNL     1     -33.034   5.948   2.852  1.00 20.00     0.004 C 
ENDROOT
BRANCH   1   2
HETATM    2  C4  UNL     1     -33.238   7.431   2.531  1.00 20.00     0.001 C 
BRANCH   2   3
HETATM    3  C5  UNL     1     -31.898   8.162   2.410  1.00 20.00     0.015 C 
BRANCH   3   4
HETATM    4  C8  UNL     1     -31.790   8.888   1.075  1.00 20.00     0.114 C 
HETATM    5 CL10 UNL     1     -32.713  10.407   1.117  1.00 20.00    -0.130 Cl
ENDBRANCH   3   4
ENDBRANCH   2   3
ENDBRANCH   1   2
BRANCH   1   6
HETATM    6  C9  UNL     1     -34.226   5.306   3.589  1.00 20.00    -0.019 C 
HETATM    7  C2  UNL     1     -35.498   6.118   3.321  1.00 20.00     0.010 C 
BRANCH   6   8
HETATM    8  C6  UNL     1     -34.002   5.096   5.101  1.00 20.00     0.004 C 
BRANCH   8   9
HETATM    9  C3  UNL     1     -34.548   6.207   6.002  1.00 20.00    -0.004 C 
HETATM   10  C1  UNL     1     -33.590   7.389   6.061  1.00 20.00     0.005 C 
ENDBRANCH   8   9
ENDBRANCH   6   8
ENDBRANCH   1   6
TORSDOF 6
ENDMDL
MODEL 7
REMARK VINA RESULT:      -5.1      2.492      5.021
REMARK  6 active torsions:
REMARK  status: ('A' for Active; 'I' for Inactive)
REMARK    1  A    between atoms: C3_3  and  C6_6 
REMARK    2  A    between atoms: C4_4  and  C5_5 
REMARK    3  A    between atoms: C4_4  and  C7_7 
REMARK    4  A    between atoms: C5_5  and  C8_8 
REMARK    5  A    between atoms: C6_6  and  C9_9 
REMARK    6  A    between atoms: C7_7  and  C9_9 
ROOT
HETATM    1  C7  UNL     1     -34.753   5.932   3.467  1.00 20.00     0.004 C 
ENDROOT
BRANCH   1   2
HETATM    2  C4  UNL     1     -34.756   4.679   4.348  1.00 20.00     0.001 C 
BRANCH   2   3
HETATM    3  C5  UNL     1     -34.298   5.001   5.772  1.00 20.00     0.015 C 
BRANCH   3   4
HETATM    4  C8  UNL     1     -34.681   6.423   6.162  1.00 20.00     0.114 C 
HETATM    5 CL10 UNL     1     -33.268   7.498   6.054  1.00 20.00    -0.130 Cl
ENDBRANCH   3   4
ENDBRANCH   2   3
ENDBRANCH   1   2
BRANCH   1   6
HETATM    6  C9  UNL     1     -33.555   6.004   2.500  1.00 20.00    -0.019 C 
HETATM    7  C2  UNL     1     -32.903   4.622   2.381  1.00 20.00     0.010 C 
BRANCH   6   8
HETATM    8  C6  UNL     1     -32.515   7.087   2.855  1.00 20.00     0.004 C 
BRANCH   8   9
HETATM    9  C3  UNL     1     -32.716   8.437   2.162  1.00 20.00    -0.004 C 
HETATM   10  C1  UNL     1     -31.648   8.677   1.103  1.00 20.00     0.005 C 
ENDBRANCH   8   9
ENDBRANCH   6   8
ENDBRANCH   1   6
TORSDOF 6
ENDMDL
MODEL 8
REMARK VINA RESULT:      -3.8     10.480     11.845
REMARK  6 active torsions:
REMARK  status: ('A' for Active; 'I' for Inactive)
REMARK    1  A    between atoms: C3_3  and  C6_6 
REMARK    2  A    between atoms: C4_4  and  C5_5 
REMARK    3  A    between atoms: C4_4  and  C7_7 
REMARK    4  A    between atoms: C5_5  and  C8_8 
REMARK    5  A    between atoms: C6_6  and  C9_9 
REMARK    6  A    between atoms: C7_7  and  C9_9 
ROOT
HETATM    1  C7  UNL     1     -33.360  16.287  -5.488  1.00 20.00     0.004 C 
ENDROOT
BRANCH   1   2
HETATM    2  C4  UNL     1     -34.518  15.877  -6.403  1.00 20.00     0.001 C 
BRANCH   2   3
HETATM    3  C5  UNL     1     -34.022  15.039  -7.584  1.00 20.00     0.015 C 
BRANCH   3   4
HETATM    4  C8  UNL     1     -34.467  13.588  -7.450  1.00 20.00     0.114 C 
HETATM    5 CL10 UNL     1     -35.722  13.436  -6.199  1.00 20.00    -0.130 Cl
ENDBRANCH   3   4
ENDBRANCH   2   3
ENDBRANCH   1   2
BRANCH   1   6
HETATM    6  C9  UNL     1     -33.411  15.628  -4.096  1.00 20.00    -0.019 C 
HETATM    7  C2  UNL     1     -32.812  14.219  -4.169  1.00 20.00     0.010 C 
BRANCH   6   8
HETATM    8  C6  UNL     1     -34.811  15.611  -3.449  1.00 20.00     0.004 C 
BRANCH   8   9
HETATM    9  C3  UNL     1     -35.003  16.582  -2.281  1.00 20.00    -0.004 C 
HETATM   10  C1  UNL     1     -33.671  17.166  -1.827  1.00 20.00     0.005 C 
ENDBRANCH   8   9
ENDBRANCH   6   8
ENDBRANCH   1   6
TORSDOF 6
ENDMDL
MODEL 9
REMARK VINA RESULT:      -3.8     10.622     11.525
REMARK  6 active torsions:
REMARK  status: ('A' for Active; 'I' for Inactive)
REMARK    1  A    between atoms: C3_3  and  C6_6 
REMARK    2  A    between atoms: C4_4  and  C5_5 
REMARK    3  A    between atoms: C4_4  and  C7_7 
REMARK    4  A    between atoms: C5_5  and  C8_8 
REMARK    5  A    between atoms: C6_6  and  C9_9 
REMARK    6  A    between atoms: C7_7  and  C9_9 
ROOT
HETATM    1  C7  UNL     1     -33.810  16.494  -3.154  1.00 20.00     0.004 C 
ENDROOT
BRANCH   1   2
HETATM    2  C4  UNL     1     -35.002  15.621  -3.559  1.00 20.00     0.001 C 
BRANCH   2   3
HETATM    3  C5  UNL     1     -34.537  14.313  -4.204  1.00 20.00     0.015 C 
BRANCH   3   4
HETATM    4  C8  UNL     1     -35.654  13.681  -5.025  1.00 20.00     0.114 C 
HETATM    5 CL10 UNL     1     -35.079  13.294  -6.663  1.00 20.00    -0.130 Cl
ENDBRANCH   3   4
ENDBRANCH   2   3
ENDBRANCH   1   2
BRANCH   1   6
HETATM    6  C9  UNL     1     -33.859  16.963  -1.686  1.00 20.00    -0.019 C 
HETATM    7  C2  UNL     1     -35.317  17.151  -1.252  1.00 20.00     0.010 C 
BRANCH   6   8
HETATM    8  C6  UNL     1     -33.018  18.223  -1.391  1.00 20.00     0.004 C 
BRANCH   8   9
HETATM    9  C3  UNL     1     -32.994  18.662   0.075  1.00 20.00    -0.004 C 
HETATM   10  C1  UNL     1     -31.568  18.728   0.606  1.00 20.00     0.005 C 
ENDBRANCH   8   9
ENDBRANCH   6   8
ENDBRANCH   1   6
TORSDOF 6
ENDMDL
