MODEL 1
REMARK VINA RESULT:      -6.6      0.000      0.000
REMARK  6 active torsions:
REMARK  status: ('A' for Active; 'I' for Inactive)
REMARK    1  A    between atoms: C3_3  and  C10_10 
REMARK    2  A    between atoms: C6_6  and  C11_11 
REMARK    3  A    between atoms: C7_7  and  C8_8 
REMARK    4  A    between atoms: C7_7  and  C9_9 
REMARK    5  A    between atoms: C8_8  and  C10_10 
REMARK    6  A    between atoms: C9_9  and  C11_11 
ROOT
HETATM    1  C7  UNL     1     -33.162   5.804   2.803  1.00 20.00     0.002 C 
ENDROOT
BRANCH   1   2
HETATM    2  C8  UNL     1     -32.729   6.801   1.717  1.00 20.00     0.020 C 
BRANCH   2   3
HETATM    3  C10 UNL     1     -32.523   8.246   2.192  1.00 20.00     0.086 C 
HETATM    4 CL12 UNL     1     -31.386   8.331   3.567  1.00 20.00    -0.125 Cl
BRANCH   3   5
HETATM    5  C3  UNL     1     -32.055   9.172   1.108  1.00 20.00     0.004 A 
HETATM    6  C1  UNL     1     -33.002   9.610   0.025  1.00 20.00     0.006 A 
HETATM    7  C2  UNL     1     -32.541  10.594   1.064  1.00 20.00     0.006 A 
ENDBRANCH   3   5
ENDBRANCH   2   3
ENDBRANCH   1   2
BRANCH   1   8
HETATM    8  C9  UNL     1     -34.487   6.235   3.444  1.00 20.00     0.004 C 
BRANCH   8   9
HETATM    9  C11 UNL     1     -34.878   5.395   4.675  1.00 20.00    -0.019 C 
HETATM   10  C5  UNL     1     -34.306   3.979   4.536  1.00 20.00     0.010 C 
BRANCH   9  11
HETATM   11  C6  UNL     1     -34.487   6.025   6.027  1.00 20.00    -0.000 C 
HETATM   12  C4  UNL     1     -33.745   7.352   5.935  1.00 20.00     0.005 C 
ENDBRANCH   9  11
ENDBRANCH   8   9
ENDBRANCH   1   8
TORSDOF 6
ENDMDL
MODEL 2
REMARK VINA RESULT:      -6.1      1.462      5.680
REMARK  6 active torsions:
REMARK  status: ('A' for Active; 'I' for Inactive)
REMARK    1  A    between atoms: C3_3  and  C10_10 
REMARK    2  A    between atoms: C6_6  and  C11_11 
REMARK    3  A    between atoms: C7_7  and  C8_8 
REMARK    4  A    between atoms: C7_7  and  C9_9 
REMARK    5  A    between atoms: C8_8  and  C10_10 
REMARK    6  A    between atoms: C9_9  and  C11_11 
ROOT
HETATM    1  C7  UNL     1     -31.809   8.104   2.960  1.00 20.00     0.002 C 
ENDROOT
BRANCH   1   2
HETATM    2  C8  UNL     1     -33.217   7.542   3.208  1.00 20.00     0.020 C 
BRANCH   2   3
HETATM    3  C10 UNL     1     -33.365   6.656   4.452  1.00 20.00     0.086 C 
HETATM    4 CL12 UNL     1     -33.525   7.632   5.940  1.00 20.00    -0.125 Cl
BRANCH   3   5
HETATM    5  C3  UNL     1     -34.512   5.693   4.369  1.00 20.00     0.004 A 
HETATM    6  C1  UNL     1     -34.255   4.214   4.278  1.00 20.00     0.006 A 
HETATM    7  C2  UNL     1     -34.837   4.799   5.534  1.00 20.00     0.006 A 
ENDBRANCH   3   5
ENDBRANCH   2   3
ENDBRANCH   1   2
BRANCH   1   8
HETATM    8  C9  UNL     1     -31.696   8.695   1.550  1.00 20.00     0.004 C 
BRANCH   8   9
HETATM    9  C11 UNL     1     -32.836   9.670   1.196  1.00 20.00    -0.019 C 
HETATM   10  C5  UNL     1     -32.482  11.077   1.689  1.00 20.00     0.010 C 
BRANCH   9  11
HETATM   11  C6  UNL     1     -33.222   9.682  -0.297  1.00 20.00    -0.000 C 
HETATM   12  C4  UNL     1     -32.612   8.567  -1.136  1.00 20.00     0.005 C 
ENDBRANCH   9  11
ENDBRANCH   8   9
ENDBRANCH   1   8
TORSDOF 6
ENDMDL
MODEL 3
REMARK VINA RESULT:      -6.0      1.521      5.536
REMARK  6 active torsions:
REMARK  status: ('A' for Active; 'I' for Inactive)
REMARK    1  A    between atoms: C3_3  and  C10_10 
REMARK    2  A    between atoms: C6_6  and  C11_11 
REMARK    3  A    between atoms: C7_7  and  C8_8 
REMARK    4  A    between atoms: C7_7  and  C9_9 
REMARK    5  A    between atoms: C8_8  and  C10_10 
REMARK    6  A    between atoms: C9_9  and  C11_11 
ROOT
HETATM    1  C7  UNL     1     -32.058   7.562   3.466  1.00 20.00     0.002 C 
ENDROOT
BRANCH   1   2
HETATM    2  C8  UNL     1     -33.593   7.517   3.424  1.00 20.00     0.020 C 
BRANCH   2   3
HETATM    3  C10 UNL     1     -34.206   6.140   3.132  1.00 20.00     0.086 C 
HETATM    4 CL12 UNL     1     -32.959   4.954   2.651  1.00 20.00    -0.125 Cl
BRANCH   3   5
HETATM    5  C3  UNL     1     -35.001   5.583   4.276  1.00 20.00     0.004 A 
HETATM    6  C1  UNL     1     -34.475   4.419   5.068  1.00 20.00     0.006 A 
HETATM    7  C2  UNL     1     -34.536   5.785   5.691  1.00 20.00     0.006 A 
ENDBRANCH   3   5
ENDBRANCH   2   3
ENDBRANCH   1   2
BRANCH   1   8
HETATM    8  C9  UNL     1     -31.523   8.748   2.656  1.00 20.00     0.004 C 
BRANCH   8   9
HETATM    9  C11 UNL     1     -32.530   9.298   1.628  1.00 20.00    -0.019 C 
HETATM   10  C5  UNL     1     -32.661  10.816   1.795  1.00 20.00     0.010 C 
BRANCH   9  11
HETATM   11  C6  UNL     1     -32.215   8.922   0.166  1.00 20.00    -0.000 C 
HETATM   12  C4  UNL     1     -33.227   9.408  -0.863  1.00 20.00     0.005 C 
ENDBRANCH   9  11
ENDBRANCH   8   9
ENDBRANCH   1   8
TORSDOF 6
ENDMDL
MODEL 4
REMARK VINA RESULT:      -5.9      1.328      5.428
REMARK  6 active torsions:
REMARK  status: ('A' for Active; 'I' for Inactive)
REMARK    1  A    between atoms: C3_3  and  C10_10 
REMARK    2  A    between atoms: C6_6  and  C11_11 
REMARK    3  A    between atoms: C7_7  and  C8_8 
REMARK    4  A    between atoms: C7_7  and  C9_9 
REMARK    5  A    between atoms: C8_8  and  C10_10 
REMARK    6  A    between atoms: C9_9  and  C11_11 
ROOT
HETATM    1  C7  UNL     1     -31.987   8.269   2.701  1.00 20.00     0.002 C 
ENDROOT
BRANCH   1   2
HETATM    2  C8  UNL     1     -33.164   7.288   2.808  1.00 20.00     0.020 C 
BRANCH   2   3
HETATM    3  C10 UNL     1     -33.267   6.522   4.134  1.00 20.00     0.086 C 
HETATM    4 CL12 UNL     1     -33.293   7.631   5.535  1.00 20.00    -0.125 Cl
BRANCH   3   5
HETATM    5  C3  UNL     1     -34.454   5.608   4.207  1.00 20.00     0.004 A 
HETATM    6  C1  UNL     1     -34.260   4.125   4.370  1.00 20.00     0.006 A 
HETATM    7  C2  UNL     1     -34.816   4.939   5.505  1.00 20.00     0.006 A 
ENDBRANCH   3   5
ENDBRANCH   2   3
ENDBRANCH   1   2
BRANCH   1   8
HETATM    8  C9  UNL     1     -31.561   8.455   1.240  1.00 20.00     0.004 C 
BRANCH   8   9
HETATM    9  C11 UNL     1     -32.223   9.665   0.553  1.00 20.00    -0.019 C 
HETATM   10  C5  UNL     1     -33.098   9.183  -0.609  1.00 20.00     0.010 C 
BRANCH   9  11
HETATM   11  C6  UNL     1     -33.016  10.582   1.506  1.00 20.00    -0.000 C 
HETATM   12  C4  UNL     1     -32.194  11.648   2.217  1.00 20.00     0.005 C 
ENDBRANCH   9  11
ENDBRANCH   8   9
ENDBRANCH   1   8
TORSDOF 6
ENDMDL
MODEL 5
REMARK VINA RESULT:      -5.9      0.605      1.684
REMARK  6 active torsions:
REMARK  status: ('A' for Active; 'I' for Inactive)
REMARK    1  A    between atoms: C3_3  and  C10_10 
REMARK    2  A    between atoms: C6_6  and  C11_11 
REMARK    3  A    between atoms: C7_7  and  C8_8 
REMARK    4  A    between atoms: C7_7  and  C9_9 
REMARK    5  A    between atoms: C8_8  and  C10_10 
REMARK    6  A    between atoms: C9_9  and  C11_11 
ROOT
HETATM    1  C7  UNL     1     -33.972   6.173   2.513  1.00 20.00     0.002 C 
ENDROOT
BRANCH   1   2
HETATM    2  C8  UNL     1     -32.628   6.763   2.060  1.00 20.00     0.020 C 
BRANCH   2   3
HETATM    3  C10 UNL     1     -32.449   8.267   2.309  1.00 20.00     0.086 C 
HETATM    4 CL12 UNL     1     -31.319   8.580   3.657  1.00 20.00    -0.125 Cl
BRANCH   3   5
HETATM    5  C3  UNL     1     -31.994   9.025   1.098  1.00 20.00     0.004 A 
HETATM    6  C1  UNL     1     -32.965   9.348  -0.004  1.00 20.00     0.006 A 
HETATM    7  C2  UNL     1     -32.440  10.445   0.880  1.00 20.00     0.006 A 
ENDBRANCH   3   5
ENDBRANCH   2   3
ENDBRANCH   1   2
BRANCH   1   8
HETATM    8  C9  UNL     1     -34.486   6.885   3.770  1.00 20.00     0.004 C 
BRANCH   8   9
HETATM    9  C11 UNL     1     -33.864   6.356   5.077  1.00 20.00    -0.019 C 
HETATM   10  C5  UNL     1     -33.861   7.467   6.133  1.00 20.00     0.010 C 
BRANCH   9  11
HETATM   11  C6  UNL     1     -34.521   5.072   5.620  1.00 20.00    -0.000 C 
HETATM   12  C4  UNL     1     -34.362   3.838   4.741  1.00 20.00     0.005 C 
ENDBRANCH   9  11
ENDBRANCH   8   9
ENDBRANCH   1   8
TORSDOF 6
ENDMDL
MODEL 6
REMARK VINA RESULT:      -5.5      1.414      1.938
REMARK  6 active torsions:
REMARK  status: ('A' for Active; 'I' for Inactive)
REMARK    1  A    between atoms: C3_3  and  C10_10 
REMARK    2  A    between atoms: C6_6  and  C11_11 
REMARK    3  A    between atoms: C7_7  and  C8_8 
REMARK    4  A    between atoms: C7_7  and  C9_9 
REMARK    5  A    between atoms: C8_8  and  C10_10 
REMARK    6  A    between atoms: C9_9  and  C11_11 
ROOT
HETATM    1  C7  UNL     1     -32.122   7.345   2.981  1.00 20.00     0.002 C 
ENDROOT
BRANCH   1   2
HETATM    2  C8  UNL     1     -31.688   8.794   2.711  1.00 20.00     0.020 C 
BRANCH   2   3
HETATM    3  C10 UNL     1     -32.584   9.583   1.746  1.00 20.00     0.086 C 
HETATM    4 CL12 UNL     1     -32.534  11.336   2.087  1.00 20.00    -0.125 Cl
BRANCH   3   5
HETATM    5  C3  UNL     1     -32.257   9.353   0.300  1.00 20.00     0.004 A 
HETATM    6  C1  UNL     1     -33.095   8.418  -0.528  1.00 20.00     0.006 A 
HETATM    7  C2  UNL     1     -33.154   9.900  -0.776  1.00 20.00     0.006 A 
ENDBRANCH   3   5
ENDBRANCH   2   3
ENDBRANCH   1   2
BRANCH   1   8
HETATM    8  C9  UNL     1     -33.594   7.285   3.404  1.00 20.00     0.004 C 
BRANCH   8   9
HETATM    9  C11 UNL     1     -34.205   5.874   3.311  1.00 20.00    -0.019 C 
HETATM   10  C5  UNL     1     -33.187   4.911   2.689  1.00 20.00     0.010 C 
BRANCH   9  11
HETATM   11  C6  UNL     1     -34.748   5.326   4.646  1.00 20.00    -0.000 C 
HETATM   12  C4  UNL     1     -34.402   6.153   5.877  1.00 20.00     0.005 C 
ENDBRANCH   9  11
ENDBRANCH   8   9
ENDBRANCH   1   8
TORSDOF 6
ENDMDL
MODEL 7
REMARK VINA RESULT:      -5.5      1.245      2.126
REMARK  6 active torsions:
REMARK  status: ('A' for Active; 'I' for Inactive)
REMARK    1  A    between atoms: C3_3  and  C10_10 
REMARK    2  A    between atoms: C6_6  and  C11_11 
REMARK    3  A    between atoms: C7_7  and  C8_8 
REMARK    4  A    between atoms: C7_7  and  C9_9 
REMARK    5  A    between atoms: C8_8  and  C10_10 
REMARK    6  A    between atoms: C9_9  and  C11_11 
ROOT
HETATM    1  C7  UNL     1     -33.223   6.754   2.596  1.00 20.00     0.002 C 
ENDROOT
BRANCH   1   2
HETATM    2  C8  UNL     1     -31.920   7.517   2.878  1.00 20.00     0.020 C 
BRANCH   2   3
HETATM    3  C10 UNL     1     -31.618   8.683   1.926  1.00 20.00     0.086 C 
HETATM    4 CL12 UNL     1     -30.914   8.111   0.387  1.00 20.00    -0.125 Cl
BRANCH   3   5
HETATM    5  C3  UNL     1     -32.812   9.542   1.633  1.00 20.00     0.004 A 
HETATM    6  C1  UNL     1     -32.645  11.017   1.391  1.00 20.00     0.006 A 
HETATM    7  C2  UNL     1     -33.019  10.107   0.254  1.00 20.00     0.006 A 
ENDBRANCH   3   5
ENDBRANCH   2   3
ENDBRANCH   1   2
BRANCH   1   8
HETATM    8  C9  UNL     1     -34.241   6.975   3.721  1.00 20.00     0.004 C 
BRANCH   8   9
HETATM    9  C11 UNL     1     -33.786   6.415   5.083  1.00 20.00    -0.019 C 
HETATM   10  C5  UNL     1     -33.883   7.512   6.149  1.00 20.00     0.010 C 
BRANCH   9  11
HETATM   11  C6  UNL     1     -34.527   5.138   5.526  1.00 20.00    -0.000 C 
HETATM   12  C4  UNL     1     -34.391   3.948   4.586  1.00 20.00     0.005 C 
ENDBRANCH   9  11
ENDBRANCH   8   9
ENDBRANCH   1   8
TORSDOF 6
ENDMDL
MODEL 8
REMARK VINA RESULT:      -5.1      1.754      5.031
REMARK  6 active torsions:
REMARK  status: ('A' for Active; 'I' for Inactive)
REMARK    1  A    between atoms: C3_3  and  C10_10 
REMARK    2  A    between atoms: C6_6  and  C11_11 
REMARK    3  A    between atoms: C7_7  and  C8_8 
REMARK    4  A    between atoms: C7_7  and  C9_9 
REMARK    5  A    between atoms: C8_8  and  C10_10 
REMARK    6  A    between atoms: C9_9  and  C11_11 
ROOT
HETATM    1  C7  UNL     1     -33.806   5.909   2.250  1.00 20.00     0.002 C 
ENDROOT
BRANCH   1   2
HETATM    2  C8  UNL     1     -34.884   6.302   3.271  1.00 20.00     0.020 C 
BRANCH   2   3
HETATM    3  C10 UNL     1     -35.072   5.327   4.441  1.00 20.00     0.086 C 
HETATM    4 CL12 UNL     1     -34.130   3.827   4.206  1.00 20.00    -0.125 Cl
BRANCH   3   5
HETATM    5  C3  UNL     1     -34.729   5.919   5.776  1.00 20.00     0.004 A 
HETATM    6  C1  UNL     1     -33.292   6.082   6.186  1.00 20.00     0.006 A 
HETATM    7  C2  UNL     1     -34.122   7.292   5.862  1.00 20.00     0.006 A 
ENDBRANCH   3   5
ENDBRANCH   2   3
ENDBRANCH   1   2
BRANCH   1   8
HETATM    8  C9  UNL     1     -32.433   6.448   2.669  1.00 20.00     0.004 C 
BRANCH   8   9
HETATM    9  C11 UNL     1     -32.336   7.985   2.629  1.00 20.00    -0.019 C 
HETATM   10  C5  UNL     1     -31.489   8.479   3.807  1.00 20.00     0.010 C 
BRANCH   9  11
HETATM   11  C6  UNL     1     -31.820   8.556   1.293  1.00 20.00    -0.000 C 
HETATM   12  C4  UNL     1     -32.709   9.611   0.649  1.00 20.00     0.005 C 
ENDBRANCH   9  11
ENDBRANCH   8   9
ENDBRANCH   1   8
TORSDOF 6
ENDMDL
MODEL 9
REMARK VINA RESULT:      -4.6     10.442     11.578
REMARK  6 active torsions:
REMARK  status: ('A' for Active; 'I' for Inactive)
REMARK    1  A    between atoms: C3_3  and  C10_10 
REMARK    2  A    between atoms: C6_6  and  C11_11 
REMARK    3  A    between atoms: C7_7  and  C8_8 
REMARK    4  A    between atoms: C7_7  and  C9_9 
REMARK    5  A    between atoms: C8_8  and  C10_10 
REMARK    6  A    between atoms: C9_9  and  C11_11 
ROOT
HETATM    1  C7  UNL     1     -33.338  15.313  -4.346  1.00 20.00     0.002 C 
ENDROOT
BRANCH   1   2
HETATM    2  C8  UNL     1     -34.300  14.186  -3.941  1.00 20.00     0.020 C 
BRANCH   2   3
HETATM    3  C10 UNL     1     -35.464  13.931  -4.909  1.00 20.00     0.086 C 
HETATM    4 CL12 UNL     1     -36.920  14.858  -4.446  1.00 20.00    -0.125 Cl
BRANCH   3   5
HETATM    5  C3  UNL     1     -35.127  14.224  -6.341  1.00 20.00     0.004 A 
HETATM    6  C1  UNL     1     -35.090  13.113  -7.354  1.00 20.00     0.006 A 
HETATM    7  C2  UNL     1     -36.190  14.137  -7.402  1.00 20.00     0.006 A 
ENDBRANCH   3   5
ENDBRANCH   2   3
ENDBRANCH   1   2
BRANCH   1   8
HETATM    8  C9  UNL     1     -33.815  16.663  -3.798  1.00 20.00     0.004 C 
BRANCH   8   9
HETATM    9  C11 UNL     1     -33.940  16.697  -2.262  1.00 20.00    -0.019 C 
HETATM   10  C5  UNL     1     -33.019  17.782  -1.694  1.00 20.00     0.010 C 
BRANCH   9  11
HETATM   11  C6  UNL     1     -35.382  16.861  -1.744  1.00 20.00    -0.000 C 
HETATM   12  C4  UNL     1     -35.506  17.350  -0.307  1.00 20.00     0.005 C 
ENDBRANCH   9  11
ENDBRANCH   8   9
ENDBRANCH   1   8
TORSDOF 6
ENDMDL
