MODEL 1
REMARK VINA RESULT:      -6.0      0.000      0.000
REMARK  1 active torsions:
REMARK  status: ('A' for Active; 'I' for Inactive)
REMARK    1  A    between atoms: C8_8  and  C10_10 
ROOT
HETATM    1  C1  UNL     1     -32.887   9.861   0.487  1.00 20.00     0.012 C 
HETATM    2  C2  UNL     1     -32.388   9.179   1.340  1.00 20.00    -0.117 C 
HETATM    3  C10 UNL     1     -31.763   8.351   2.372  1.00 20.00     0.097 C 
ENDROOT
BRANCH   3   4
HETATM    4  C8  UNL     1     -32.828   7.698   3.263  1.00 20.00    -0.002 C 
HETATM    5  C5  UNL     1     -32.536   8.062   4.729  1.00 20.00     0.005 C 
HETATM    6  C3  UNL     1     -33.650   7.744   5.723  1.00 20.00     0.000 C 
HETATM    7  C4  UNL     1     -34.108   6.287   5.755  1.00 20.00     0.001 C 
HETATM    8  C6  UNL     1     -34.943   5.907   4.534  1.00 20.00     0.016 C 
HETATM    9  C9  UNL     1     -34.144   5.479   3.306  1.00 20.00     0.058 C 
HETATM   10  C7  UNL     1     -32.808   6.176   3.043  1.00 20.00     0.021 C 
HETATM   11 BR11 UNL     1     -33.799   3.538   3.408  1.00 20.00    -0.091 Br
ENDBRANCH   3   4
TORSDOF 1
ENDMDL
MODEL 2
REMARK VINA RESULT:      -4.6     10.966     12.084
REMARK  1 active torsions:
REMARK  status: ('A' for Active; 'I' for Inactive)
REMARK    1  A    between atoms: C8_8  and  C10_10 
ROOT
HETATM    1  C1  UNL     1     -33.624  18.496   0.265  1.00 20.00     0.012 C 
HETATM    2  C2  UNL     1     -34.327  17.814  -0.430  1.00 20.00    -0.117 C 
HETATM    3  C10 UNL     1     -35.197  16.983  -1.263  1.00 20.00     0.097 C 
ENDROOT
BRANCH   3   4
HETATM    4  C8  UNL     1     -34.478  16.567  -2.553  1.00 20.00    -0.002 C 
HETATM    5  C5  UNL     1     -34.262  17.817  -3.422  1.00 20.00     0.005 C 
HETATM    6  C3  UNL     1     -33.310  17.644  -4.603  1.00 20.00     0.000 C 
HETATM    7  C4  UNL     1     -33.673  16.531  -5.584  1.00 20.00     0.001 C 
HETATM    8  C6  UNL     1     -33.399  15.138  -5.020  1.00 20.00     0.016 C 
HETATM    9  C9  UNL     1     -34.515  14.551  -4.162  1.00 20.00     0.058 C 
HETATM   10  C7  UNL     1     -35.321  15.508  -3.284  1.00 20.00     0.021 C 
HETATM   11 BR11 UNL     1     -35.787  13.594  -5.331  1.00 20.00    -0.091 Br
ENDBRANCH   3   4
TORSDOF 1
ENDMDL
MODEL 3
REMARK VINA RESULT:      -4.6     11.353     11.872
REMARK  1 active torsions:
REMARK  status: ('A' for Active; 'I' for Inactive)
REMARK    1  A    between atoms: C8_8  and  C10_10 
ROOT
HETATM    1  C1  UNL     1     -32.787  18.023  -1.250  1.00 20.00     0.012 C 
HETATM    2  C2  UNL     1     -33.842  17.519  -1.526  1.00 20.00    -0.117 C 
HETATM    3  C10 UNL     1     -35.135  16.916  -1.849  1.00 20.00     0.097 C 
ENDROOT
BRANCH   3   4
HETATM    4  C8  UNL     1     -34.976  15.836  -2.928  1.00 20.00    -0.002 C 
HETATM    5  C5  UNL     1     -33.609  16.016  -3.609  1.00 20.00     0.005 C 
HETATM    6  C3  UNL     1     -33.159  14.863  -4.502  1.00 20.00     0.000 C 
HETATM    7  C4  UNL     1     -34.122  14.485  -5.626  1.00 20.00     0.001 C 
HETATM    8  C6  UNL     1     -35.359  13.749  -5.117  1.00 20.00     0.016 C 
HETATM    9  C9  UNL     1     -36.498  14.645  -4.637  1.00 20.00     0.058 C 
HETATM   10  C7  UNL     1     -36.132  15.953  -3.936  1.00 20.00     0.021 C 
HETATM   11 BR11 UNL     1     -37.656  15.089  -6.172  1.00 20.00    -0.091 Br
ENDBRANCH   3   4
TORSDOF 1
ENDMDL
MODEL 4
REMARK VINA RESULT:      -4.5     11.406     12.002
REMARK  1 active torsions:
REMARK  status: ('A' for Active; 'I' for Inactive)
REMARK    1  A    between atoms: C8_8  and  C10_10 
ROOT
HETATM    1  C1  UNL     1     -35.551  17.386  -0.218  1.00 20.00     0.012 C 
HETATM    2  C2  UNL     1     -34.816  17.193  -1.147  1.00 20.00    -0.117 C 
HETATM    3  C10 UNL     1     -33.909  16.971  -2.274  1.00 20.00     0.097 C 
ENDROOT
BRANCH   3   4
HETATM    4  C8  UNL     1     -34.465  15.893  -3.214  1.00 20.00    -0.002 C 
HETATM    5  C5  UNL     1     -33.413  15.592  -4.295  1.00 20.00     0.005 C 
HETATM    6  C3  UNL     1     -33.672  14.347  -5.141  1.00 20.00     0.000 C 
HETATM    7  C4  UNL     1     -35.016  14.312  -5.866  1.00 20.00     0.001 C 
HETATM    8  C6  UNL     1     -36.187  14.046  -4.923  1.00 20.00     0.016 C 
HETATM    9  C9  UNL     1     -36.757  15.280  -4.228  1.00 20.00     0.058 C 
HETATM   10  C7  UNL     1     -35.784  16.390  -3.831  1.00 20.00     0.021 C 
HETATM   11 BR11 UNL     1     -38.145  16.082  -5.381  1.00 20.00    -0.091 Br
ENDBRANCH   3   4
TORSDOF 1
ENDMDL
MODEL 5
REMARK VINA RESULT:      -4.4     11.323     12.063
REMARK  1 active torsions:
REMARK  status: ('A' for Active; 'I' for Inactive)
REMARK    1  A    between atoms: C8_8  and  C10_10 
ROOT
HETATM    1  C1  UNL     1     -35.922  13.315  -5.289  1.00 20.00     0.012 C 
HETATM    2  C2  UNL     1     -35.114  14.037  -4.769  1.00 20.00    -0.117 C 
HETATM    3  C10 UNL     1     -34.117  14.906  -4.145  1.00 20.00     0.097 C 
ENDROOT
BRANCH   3   4
HETATM    4  C8  UNL     1     -34.780  15.863  -3.145  1.00 20.00    -0.002 C 
HETATM    5  C5  UNL     1     -35.857  16.678  -3.882  1.00 20.00     0.005 C 
HETATM    6  C3  UNL     1     -36.812  17.469  -2.992  1.00 20.00     0.000 C 
HETATM    7  C4  UNL     1     -36.152  18.453  -2.029  1.00 20.00     0.001 C 
HETATM    8  C6  UNL     1     -35.464  17.758  -0.857  1.00 20.00     0.016 C 
HETATM    9  C9  UNL     1     -34.038  17.285  -1.125  1.00 20.00     0.058 C 
HETATM   10  C7  UNL     1     -33.706  16.774  -2.526  1.00 20.00     0.021 C 
HETATM   11 BR11 UNL     1     -32.787  18.755  -0.709  1.00 20.00    -0.091 Br
ENDBRANCH   3   4
TORSDOF 1
ENDMDL
MODEL 6
REMARK VINA RESULT:      -4.4     11.171     12.529
REMARK  1 active torsions:
REMARK  status: ('A' for Active; 'I' for Inactive)
REMARK    1  A    between atoms: C8_8  and  C10_10 
ROOT
HETATM    1  C1  UNL     1     -35.713  17.475  -0.094  1.00 20.00     0.012 C 
HETATM    2  C2  UNL     1     -34.613  17.642  -0.546  1.00 20.00    -0.117 C 
HETATM    3  C10 UNL     1     -33.267  17.851  -1.079  1.00 20.00     0.097 C 
ENDROOT
BRANCH   3   4
HETATM    4  C8  UNL     1     -33.220  17.527  -2.578  1.00 20.00    -0.002 C 
HETATM    5  C5  UNL     1     -33.740  18.743  -3.363  1.00 20.00     0.005 C 
HETATM    6  C3  UNL     1     -33.495  18.712  -4.869  1.00 20.00     0.000 C 
HETATM    7  C4  UNL     1     -34.051  17.493  -5.601  1.00 20.00     0.001 C 
HETATM    8  C6  UNL     1     -33.242  16.226  -5.335  1.00 20.00     0.016 C 
HETATM    9  C9  UNL     1     -33.625  15.462  -4.070  1.00 20.00     0.058 C 
HETATM   10  C7  UNL     1     -34.067  16.272  -2.852  1.00 20.00     0.021 C 
HETATM   11 BR11 UNL     1     -35.071  14.189  -4.503  1.00 20.00    -0.091 Br
ENDBRANCH   3   4
TORSDOF 1
ENDMDL
MODEL 7
REMARK VINA RESULT:      -4.3     11.394     12.732
REMARK  1 active torsions:
REMARK  status: ('A' for Active; 'I' for Inactive)
REMARK    1  A    between atoms: C8_8  and  C10_10 
ROOT
HETATM    1  C1  UNL     1     -35.443  17.268  -0.690  1.00 20.00     0.012 C 
HETATM    2  C2  UNL     1     -34.708  16.933  -1.580  1.00 20.00    -0.117 C 
HETATM    3  C10 UNL     1     -33.799  16.532  -2.653  1.00 20.00     0.097 C 
ENDROOT
BRANCH   3   4
HETATM    4  C8  UNL     1     -34.585  16.037  -3.874  1.00 20.00    -0.002 C 
HETATM    5  C5  UNL     1     -34.464  14.506  -3.952  1.00 20.00     0.005 C 
HETATM    6  C3  UNL     1     -35.413  13.816  -4.928  1.00 20.00     0.000 C 
HETATM    7  C4  UNL     1     -35.336  14.299  -6.374  1.00 20.00     0.001 C 
HETATM    8  C6  UNL     1     -35.964  15.677  -6.569  1.00 20.00     0.016 C 
HETATM    9  C9  UNL     1     -35.045  16.859  -6.276  1.00 20.00     0.058 C 
HETATM   10  C7  UNL     1     -34.032  16.713  -5.141  1.00 20.00     0.021 C 
HETATM   11 BR11 UNL     1     -34.047  17.319  -7.917  1.00 20.00    -0.091 Br
ENDBRANCH   3   4
TORSDOF 1
ENDMDL
MODEL 8
REMARK VINA RESULT:      -4.2     11.509     12.497
REMARK  1 active torsions:
REMARK  status: ('A' for Active; 'I' for Inactive)
REMARK    1  A    between atoms: C8_8  and  C10_10 
ROOT
HETATM    1  C1  UNL     1     -33.937  17.000  -1.908  1.00 20.00     0.012 C 
HETATM    2  C2  UNL     1     -33.707  16.914  -3.084  1.00 20.00    -0.117 C 
HETATM    3  C10 UNL     1     -33.418  16.825  -4.515  1.00 20.00     0.097 C 
ENDROOT
BRANCH   3   4
HETATM    4  C8  UNL     1     -34.105  15.601  -5.133  1.00 20.00    -0.002 C 
HETATM    5  C5  UNL     1     -33.736  15.527  -6.624  1.00 20.00     0.005 C 
HETATM    6  C3  UNL     1     -34.090  14.221  -7.330  1.00 20.00     0.000 C 
HETATM    7  C4  UNL     1     -35.560  13.813  -7.260  1.00 20.00     0.001 C 
HETATM    8  C6  UNL     1     -35.963  13.302  -5.879  1.00 20.00     0.016 C 
HETATM    9  C9  UNL     1     -36.364  14.380  -4.876  1.00 20.00     0.058 C 
HETATM   10  C7  UNL     1     -35.626  15.718  -4.932  1.00 20.00     0.021 C 
HETATM   11 BR11 UNL     1     -38.294  14.749  -5.068  1.00 20.00    -0.091 Br
ENDBRANCH   3   4
TORSDOF 1
ENDMDL
MODEL 9
REMARK VINA RESULT:      -4.1     11.825     13.087
REMARK  1 active torsions:
REMARK  status: ('A' for Active; 'I' for Inactive)
REMARK    1  A    between atoms: C8_8  and  C10_10 
ROOT
HETATM    1  C1  UNL     1     -33.394  18.091  -0.860  1.00 20.00     0.012 C 
HETATM    2  C2  UNL     1     -34.251  17.410  -1.355  1.00 20.00    -0.117 C 
HETATM    3  C10 UNL     1     -35.303  16.579  -1.940  1.00 20.00     0.097 C 
ENDROOT
BRANCH   3   4
HETATM    4  C8  UNL     1     -35.005  16.284  -3.415  1.00 20.00    -0.002 C 
HETATM    5  C5  UNL     1     -33.586  15.700  -3.525  1.00 20.00     0.005 C 
HETATM    6  C3  UNL     1     -33.228  15.080  -4.873  1.00 20.00     0.000 C 
HETATM    7  C4  UNL     1     -33.378  16.001  -6.082  1.00 20.00     0.001 C 
HETATM    8  C6  UNL     1     -34.838  16.243  -6.459  1.00 20.00     0.016 C 
HETATM    9  C9  UNL     1     -35.530  17.369  -5.696  1.00 20.00     0.058 C 
HETATM   10  C7  UNL     1     -35.148  17.580  -4.231  1.00 20.00     0.021 C 
HETATM   11 BR11 UNL     1     -35.224  19.072  -6.648  1.00 20.00    -0.091 Br
ENDBRANCH   3   4
TORSDOF 1
ENDMDL
