MODEL 1
REMARK VINA RESULT:      -6.1      0.000      0.000
REMARK  3 active torsions:
REMARK  status: ('A' for Active; 'I' for Inactive)
REMARK    1  A    between atoms: C1_1  and  C3_3 
REMARK    2  A    between atoms: C2_2  and  C7_7 
REMARK    3  A    between atoms: C7_7  and  C8_8 
ROOT
HETATM    1  C1  UNL     1     -32.816   8.560   1.800  1.00 20.00     0.005 C 
HETATM    2  C2  UNL     1     -32.886   7.626   2.553  1.00 20.00    -0.090 C 
ENDROOT
BRANCH   2   3
HETATM    3  C7  UNL     1     -32.969   6.477   3.477  1.00 20.00     0.065 C 
HETATM    4  C4  UNL     1     -33.104   5.179   2.678  1.00 20.00     0.024 C 
BRANCH   3   5
HETATM    5  C8  UNL     1     -34.101   6.632   4.525  1.00 20.00    -0.007 C 
HETATM    6  C5  UNL     1     -34.766   5.311   4.928  1.00 20.00     0.011 C 
HETATM    7  C6  UNL     1     -33.612   7.369   5.778  1.00 20.00     0.011 C 
ENDBRANCH   3   5
ENDBRANCH   2   3
BRANCH   1   8
HETATM    8  C3  UNL     1     -32.731   9.757   0.835  1.00 20.00     0.258 C 
HETATM    9  O9  UNL     1     -32.890   9.490  -0.392  1.00 20.00    -0.637 OA
HETATM   10  O10 UNL     1     -32.512  10.883   1.368  1.00 20.00    -0.637 OA
ENDBRANCH   1   8
TORSDOF 3
ENDMDL
MODEL 2
REMARK VINA RESULT:      -5.7      1.019      2.135
REMARK  3 active torsions:
REMARK  status: ('A' for Active; 'I' for Inactive)
REMARK    1  A    between atoms: C1_1  and  C3_3 
REMARK    2  A    between atoms: C2_2  and  C7_7 
REMARK    3  A    between atoms: C7_7  and  C8_8 
ROOT
HETATM    1  C1  UNL     1     -32.851   8.311   2.324  1.00 20.00     0.005 C 
HETATM    2  C2  UNL     1     -33.464   7.689   3.149  1.00 20.00    -0.090 C 
ENDROOT
BRANCH   2   3
HETATM    3  C7  UNL     1     -34.216   6.921   4.161  1.00 20.00     0.065 C 
HETATM    4  C4  UNL     1     -33.573   7.109   5.537  1.00 20.00     0.024 C 
BRANCH   3   5
HETATM    5  C8  UNL     1     -34.361   5.422   3.790  1.00 20.00    -0.007 C 
HETATM    6  C5  UNL     1     -33.228   4.882   2.910  1.00 20.00     0.011 C 
HETATM    7  C6  UNL     1     -34.509   4.545   5.039  1.00 20.00     0.011 C 
ENDBRANCH   3   5
ENDBRANCH   2   3
BRANCH   1   8
HETATM    8  C3  UNL     1     -32.069   9.113   1.267  1.00 20.00     0.258 C 
HETATM    9  O9  UNL     1     -32.447  10.308   1.088  1.00 20.00    -0.637 OA
HETATM   10  O10 UNL     1     -31.130   8.495   0.687  1.00 20.00    -0.637 OA
ENDBRANCH   1   8
TORSDOF 3
ENDMDL
MODEL 3
REMARK VINA RESULT:      -5.3      0.565      1.209
REMARK  3 active torsions:
REMARK  status: ('A' for Active; 'I' for Inactive)
REMARK    1  A    between atoms: C1_1  and  C3_3 
REMARK    2  A    between atoms: C2_2  and  C7_7 
REMARK    3  A    between atoms: C7_7  and  C8_8 
ROOT
HETATM    1  C1  UNL     1     -32.772   8.300   1.829  1.00 20.00     0.005 C 
HETATM    2  C2  UNL     1     -32.800   7.310   2.510  1.00 20.00    -0.090 C 
ENDROOT
BRANCH   2   3
HETATM    3  C7  UNL     1     -32.833   6.096   3.349  1.00 20.00     0.065 C 
HETATM    4  C4  UNL     1     -32.996   4.858   2.463  1.00 20.00     0.024 C 
BRANCH   3   5
HETATM    5  C8  UNL     1     -33.917   6.161   4.456  1.00 20.00    -0.007 C 
HETATM    6  C5  UNL     1     -33.802   7.384   5.374  1.00 20.00     0.011 C 
HETATM    7  C6  UNL     1     -35.330   6.088   3.866  1.00 20.00     0.011 C 
ENDBRANCH   3   5
ENDBRANCH   2   3
BRANCH   1   8
HETATM    8  C3  UNL     1     -32.735   9.566   0.953  1.00 20.00     0.258 C 
HETATM    9  O9  UNL     1     -32.909   9.384  -0.288  1.00 20.00    -0.637 OA
HETATM   10  O10 UNL     1     -32.536  10.656   1.563  1.00 20.00    -0.637 OA
ENDBRANCH   1   8
TORSDOF 3
ENDMDL
MODEL 4
REMARK VINA RESULT:      -5.0      3.209      5.163
REMARK  3 active torsions:
REMARK  status: ('A' for Active; 'I' for Inactive)
REMARK    1  A    between atoms: C1_1  and  C3_3 
REMARK    2  A    between atoms: C2_2  and  C7_7 
REMARK    3  A    between atoms: C7_7  and  C8_8 
ROOT
HETATM    1  C1  UNL     1     -33.624   6.356   3.101  1.00 20.00     0.005 C 
HETATM    2  C2  UNL     1     -32.947   7.184   2.554  1.00 20.00    -0.090 C 
ENDROOT
BRANCH   2   3
HETATM    3  C7  UNL     1     -32.113   8.203   1.886  1.00 20.00     0.065 C 
HETATM    4  C4  UNL     1     -31.168   8.847   2.903  1.00 20.00     0.024 C 
BRANCH   3   5
HETATM    5  C8  UNL     1     -32.954   9.262   1.127  1.00 20.00    -0.007 C 
HETATM    6  C5  UNL     1     -32.590  10.712   1.467  1.00 20.00     0.011 C 
HETATM    7  C6  UNL     1     -32.888   9.054  -0.390  1.00 20.00     0.011 C 
ENDBRANCH   3   5
ENDBRANCH   2   3
BRANCH   1   8
HETATM    8  C3  UNL     1     -34.496   5.295   3.798  1.00 20.00     0.258 C 
HETATM    9  O9  UNL     1     -35.663   5.663   4.120  1.00 20.00    -0.637 OA
HETATM   10  O10 UNL     1     -33.955   4.165   3.976  1.00 20.00    -0.637 OA
ENDBRANCH   1   8
TORSDOF 3
ENDMDL
MODEL 5
REMARK VINA RESULT:      -4.5     10.462     11.193
REMARK  3 active torsions:
REMARK  status: ('A' for Active; 'I' for Inactive)
REMARK    1  A    between atoms: C1_1  and  C3_3 
REMARK    2  A    between atoms: C2_2  and  C7_7 
REMARK    3  A    between atoms: C7_7  and  C8_8 
ROOT
HETATM    1  C1  UNL     1     -35.880  14.950  -4.441  1.00 20.00     0.005 C 
HETATM    2  C2  UNL     1     -35.318  15.918  -4.003  1.00 20.00    -0.090 C 
ENDROOT
BRANCH   2   3
HETATM    3  C7  UNL     1     -34.625  17.105  -3.465  1.00 20.00     0.065 C 
HETATM    4  C4  UNL     1     -33.468  17.493  -4.390  1.00 20.00     0.024 C 
BRANCH   3   5
HETATM    5  C8  UNL     1     -34.154  16.911  -2.001  1.00 20.00    -0.007 C 
HETATM    6  C5  UNL     1     -33.013  17.845  -1.581  1.00 20.00     0.011 C 
HETATM    7  C6  UNL     1     -35.319  17.040  -1.012  1.00 20.00     0.011 C 
ENDBRANCH   3   5
ENDBRANCH   2   3
BRANCH   1   8
HETATM    8  C3  UNL     1     -36.605  13.711  -5.000  1.00 20.00     0.258 C 
HETATM    9  O9  UNL     1     -35.865  12.739  -5.327  1.00 20.00    -0.637 OA
HETATM   10  O10 UNL     1     -37.865  13.794  -5.073  1.00 20.00    -0.637 OA
ENDBRANCH   1   8
TORSDOF 3
ENDMDL
MODEL 6
REMARK VINA RESULT:      -4.3     10.153     11.200
REMARK  3 active torsions:
REMARK  status: ('A' for Active; 'I' for Inactive)
REMARK    1  A    between atoms: C1_1  and  C3_3 
REMARK    2  A    between atoms: C2_2  and  C7_7 
REMARK    3  A    between atoms: C7_7  and  C8_8 
ROOT
HETATM    1  C1  UNL     1     -33.000  17.804  -1.434  1.00 20.00     0.005 C 
HETATM    2  C2  UNL     1     -33.631  17.267  -2.304  1.00 20.00    -0.090 C 
ENDROOT
BRANCH   2   3
HETATM    3  C7  UNL     1     -34.404  16.604  -3.374  1.00 20.00     0.065 C 
HETATM    4  C4  UNL     1     -35.810  16.274  -2.869  1.00 20.00     0.024 C 
BRANCH   3   5
HETATM    5  C8  UNL     1     -33.686  15.353  -3.945  1.00 20.00    -0.007 C 
HETATM    6  C5  UNL     1     -34.601  14.138  -4.133  1.00 20.00     0.011 C 
HETATM    7  C6  UNL     1     -32.967  15.668  -5.262  1.00 20.00     0.011 C 
ENDBRANCH   3   5
ENDBRANCH   2   3
BRANCH   1   8
HETATM    8  C3  UNL     1     -32.194  18.498  -0.320  1.00 20.00     0.258 C 
HETATM    9  O9  UNL     1     -30.957  18.231  -0.285  1.00 20.00    -0.637 OA
HETATM   10  O10 UNL     1     -32.851  19.263   0.443  1.00 20.00    -0.637 OA
ENDBRANCH   1   8
TORSDOF 3
ENDMDL
MODEL 7
REMARK VINA RESULT:      -4.3     10.335     11.151
REMARK  3 active torsions:
REMARK  status: ('A' for Active; 'I' for Inactive)
REMARK    1  A    between atoms: C1_1  and  C3_3 
REMARK    2  A    between atoms: C2_2  and  C7_7 
REMARK    3  A    between atoms: C7_7  and  C8_8 
ROOT
HETATM    1  C1  UNL     1     -34.895  14.686  -4.228  1.00 20.00     0.005 C 
HETATM    2  C2  UNL     1     -34.768  15.506  -3.358  1.00 20.00    -0.090 C 
ENDROOT
BRANCH   2   3
HETATM    3  C7  UNL     1     -34.611  16.515  -2.292  1.00 20.00     0.065 C 
HETATM    4  C4  UNL     1     -35.891  17.345  -2.172  1.00 20.00     0.024 C 
BRANCH   3   5
HETATM    5  C8  UNL     1     -33.359  17.408  -2.492  1.00 20.00    -0.007 C 
HETATM    6  C5  UNL     1     -33.512  18.462  -3.594  1.00 20.00     0.011 C 
HETATM    7  C6  UNL     1     -32.936  18.086  -1.183  1.00 20.00     0.011 C 
ENDBRANCH   3   5
ENDBRANCH   2   3
BRANCH   1   8
HETATM    8  C3  UNL     1     -35.055  13.633  -5.340  1.00 20.00     0.258 C 
HETATM    9  O9  UNL     1     -34.220  13.698  -6.288  1.00 20.00    -0.637 OA
HETATM   10  O10 UNL     1     -36.005  12.811  -5.190  1.00 20.00    -0.637 OA
ENDBRANCH   1   8
TORSDOF 3
ENDMDL
MODEL 8
REMARK VINA RESULT:      -4.3     10.355     10.959
REMARK  3 active torsions:
REMARK  status: ('A' for Active; 'I' for Inactive)
REMARK    1  A    between atoms: C1_1  and  C3_3 
REMARK    2  A    between atoms: C2_2  and  C7_7 
REMARK    3  A    between atoms: C7_7  and  C8_8 
ROOT
HETATM    1  C1  UNL     1     -35.361  14.861  -4.184  1.00 20.00     0.005 C 
HETATM    2  C2  UNL     1     -35.539  15.761  -3.408  1.00 20.00    -0.090 C 
ENDROOT
BRANCH   2   3
HETATM    3  C7  UNL     1     -35.760  16.865  -2.453  1.00 20.00     0.065 C 
HETATM    4  C4  UNL     1     -35.881  18.190  -3.211  1.00 20.00     0.024 C 
BRANCH   3   5
HETATM    5  C8  UNL     1     -34.675  16.929  -1.348  1.00 20.00    -0.007 C 
HETATM    6  C5  UNL     1     -33.343  17.529  -1.811  1.00 20.00     0.011 C 
HETATM    7  C6  UNL     1     -35.176  17.678  -0.107  1.00 20.00     0.011 C 
ENDBRANCH   3   5
ENDBRANCH   2   3
BRANCH   1   8
HETATM    8  C3  UNL     1     -35.131  13.712  -5.183  1.00 20.00     0.258 C 
HETATM    9  O9  UNL     1     -34.059  13.768  -5.853  1.00 20.00    -0.637 OA
HETATM   10  O10 UNL     1     -36.037  12.830  -5.229  1.00 20.00    -0.637 OA
ENDBRANCH   1   8
TORSDOF 3
ENDMDL
MODEL 9
REMARK VINA RESULT:      -4.2     10.404     11.562
REMARK  3 active torsions:
REMARK  status: ('A' for Active; 'I' for Inactive)
REMARK    1  A    between atoms: C1_1  and  C3_3 
REMARK    2  A    between atoms: C2_2  and  C7_7 
REMARK    3  A    between atoms: C7_7  and  C8_8 
ROOT
HETATM    1  C1  UNL     1     -35.543  14.695  -4.253  1.00 20.00     0.005 C 
HETATM    2  C2  UNL     1     -34.966  15.537  -3.619  1.00 20.00    -0.090 C 
ENDROOT
BRANCH   2   3
HETATM    3  C7  UNL     1     -34.261  16.571  -2.837  1.00 20.00     0.065 C 
HETATM    4  C4  UNL     1     -34.990  16.807  -1.511  1.00 20.00     0.024 C 
BRANCH   3   5
HETATM    5  C8  UNL     1     -34.061  17.890  -3.628  1.00 20.00    -0.007 C 
HETATM    6  C5  UNL     1     -33.177  18.920  -2.917  1.00 20.00     0.011 C 
HETATM    7  C6  UNL     1     -33.516  17.624  -5.037  1.00 20.00     0.011 C 
ENDBRANCH   3   5
ENDBRANCH   2   3
BRANCH   1   8
HETATM    8  C3  UNL     1     -36.280  13.618  -5.071  1.00 20.00     0.258 C 
HETATM    9  O9  UNL     1     -37.544  13.691  -5.070  1.00 20.00    -0.637 OA
HETATM   10  O10 UNL     1     -35.546  12.773  -5.660  1.00 20.00    -0.637 OA
ENDBRANCH   1   8
TORSDOF 3
ENDMDL
