MODEL 1
REMARK VINA RESULT:      -5.4      0.000      0.000
REMARK  0 active torsions:
REMARK  status: ('A' for Active; 'I' for Inactive)
ROOT
HETATM    1  C1  UNL     1     -32.508   7.758   2.484  1.00 20.00     0.088 C 
HETATM    2  C2  UNL     1     -33.918   6.407   3.894  1.00 20.00    -0.044 C 
HETATM    3  C3  UNL     1     -33.356   6.643   2.704  1.00 20.00     0.098 C 
HETATM    4  C4  UNL     1     -34.818   5.269   4.226  1.00 20.00     0.063 C 
HETATM    5  C5  UNL     1     -33.677   7.195   5.137  1.00 20.00     0.202 C 
HETATM    6  C6  UNL     1     -34.571   5.148   5.714  1.00 20.00     0.172 C 
HETATM    7  N7  UNL     1     -31.813   8.670   2.300  1.00 20.00    -0.192 NA
HETATM    8  O8  UNL     1     -34.375   6.491   6.180  1.00 20.00    -0.387 OA
ENDROOT
TORSDOF 0
ENDMDL
MODEL 2
REMARK VINA RESULT:      -4.6      1.390      1.851
REMARK  0 active torsions:
REMARK  status: ('A' for Active; 'I' for Inactive)
ROOT
HETATM    1  C1  UNL     1     -32.143   8.329   2.122  1.00 20.00     0.088 C 
HETATM    2  C2  UNL     1     -33.308   6.953   3.720  1.00 20.00    -0.044 C 
HETATM    3  C3  UNL     1     -32.829   8.146   3.350  1.00 20.00     0.098 C 
HETATM    4  C4  UNL     1     -34.039   6.659   4.982  1.00 20.00     0.063 C 
HETATM    5  C5  UNL     1     -33.272   5.712   2.896  1.00 20.00     0.202 C 
HETATM    6  C6  UNL     1     -34.857   5.460   4.553  1.00 20.00     0.172 C 
HETATM    7  N7  UNL     1     -31.581   8.482   1.118  1.00 20.00    -0.192 NA
HETATM    8  O8  UNL     1     -34.021   4.735   3.640  1.00 20.00    -0.387 OA
ENDROOT
TORSDOF 0
ENDMDL
MODEL 3
REMARK VINA RESULT:      -4.2      2.693      3.840
REMARK  0 active torsions:
REMARK  status: ('A' for Active; 'I' for Inactive)
ROOT
HETATM    1  C1  UNL     1     -34.466   5.648   4.564  1.00 20.00     0.088 C 
HETATM    2  C2  UNL     1     -33.126   6.953   3.046  1.00 20.00    -0.044 C 
HETATM    3  C3  UNL     1     -34.116   6.079   3.259  1.00 20.00     0.098 C 
HETATM    4  C4  UNL     1     -32.684   7.465   1.721  1.00 20.00     0.063 C 
HETATM    5  C5  UNL     1     -32.335   7.641   4.107  1.00 20.00     0.202 C 
HETATM    6  C6  UNL     1     -32.094   8.800   2.126  1.00 20.00     0.172 C 
HETATM    7  N7  UNL     1     -34.756   5.293   5.631  1.00 20.00    -0.192 NA
HETATM    8  O8  UNL     1     -31.495   8.580   3.411  1.00 20.00    -0.387 OA
ENDROOT
TORSDOF 0
ENDMDL
MODEL 4
REMARK VINA RESULT:      -4.0      2.394      3.252
REMARK  0 active torsions:
REMARK  status: ('A' for Active; 'I' for Inactive)
ROOT
HETATM    1  C1  UNL     1     -32.734   9.281   0.202  1.00 20.00     0.088 C 
HETATM    2  C2  UNL     1     -32.297   8.335   2.374  1.00 20.00    -0.044 C 
HETATM    3  C3  UNL     1     -32.048   9.263   1.444  1.00 20.00     0.098 C 
HETATM    4  C4  UNL     1     -31.635   8.231   3.702  1.00 20.00     0.063 C 
HETATM    5  C5  UNL     1     -33.348   7.282   2.287  1.00 20.00     0.202 C 
HETATM    6  C6  UNL     1     -32.713   7.520   4.492  1.00 20.00     0.172 C 
HETATM    7  N7  UNL     1     -33.293   9.299  -0.815  1.00 20.00    -0.192 NA
HETATM    8  O8  UNL     1     -33.335   6.620   3.565  1.00 20.00    -0.387 OA
ENDROOT
TORSDOF 0
ENDMDL
MODEL 5
REMARK VINA RESULT:      -3.8     11.711     12.309
REMARK  0 active torsions:
REMARK  status: ('A' for Active; 'I' for Inactive)
ROOT
HETATM    1  C1  UNL     1     -35.226  13.684  -4.721  1.00 20.00     0.088 C 
HETATM    2  C2  UNL     1     -34.767  15.663  -3.426  1.00 20.00    -0.044 C 
HETATM    3  C3  UNL     1     -34.336  14.562  -4.051  1.00 20.00     0.098 C 
HETATM    4  C4  UNL     1     -33.917  16.644  -2.699  1.00 20.00     0.063 C 
HETATM    5  C5  UNL     1     -36.174  16.158  -3.416  1.00 20.00     0.202 C 
HETATM    6  C6  UNL     1     -34.769  17.889  -2.820  1.00 20.00     0.172 C 
HETATM    7  N7  UNL     1     -35.952  12.964  -5.270  1.00 20.00    -0.192 NA
HETATM    8  O8  UNL     1     -36.127  17.432  -2.748  1.00 20.00    -0.387 OA
ENDROOT
TORSDOF 0
ENDMDL
MODEL 6
REMARK VINA RESULT:      -3.7      3.169      4.751
REMARK  0 active torsions:
REMARK  status: ('A' for Active; 'I' for Inactive)
ROOT
HETATM    1  C1  UNL     1     -33.075   7.313   3.918  1.00 20.00     0.088 C 
HETATM    2  C2  UNL     1     -32.259   8.430   1.945  1.00 20.00    -0.044 C 
HETATM    3  C3  UNL     1     -32.318   7.340   2.718  1.00 20.00     0.098 C 
HETATM    4  C4  UNL     1     -31.498   8.559   0.673  1.00 20.00     0.063 C 
HETATM    5  C5  UNL     1     -33.017   9.695   2.172  1.00 20.00     0.202 C 
HETATM    6  C6  UNL     1     -32.304   9.635  -0.022  1.00 20.00     0.172 C 
HETATM    7  N7  UNL     1     -33.693   7.287   4.900  1.00 20.00    -0.192 NA
HETATM    8  O8  UNL     1     -32.747  10.516   1.021  1.00 20.00    -0.387 OA
ENDROOT
TORSDOF 0
ENDMDL
MODEL 7
REMARK VINA RESULT:      -3.6     11.914     12.134
REMARK  0 active torsions:
REMARK  status: ('A' for Active; 'I' for Inactive)
ROOT
HETATM    1  C1  UNL     1     -35.832  13.635  -5.301  1.00 20.00     0.088 C 
HETATM    2  C2  UNL     1     -35.475  15.511  -3.832  1.00 20.00    -0.044 C 
HETATM    3  C3  UNL     1     -36.308  14.695  -4.488  1.00 20.00     0.098 C 
HETATM    4  C4  UNL     1     -35.874  16.647  -2.958  1.00 20.00     0.063 C 
HETATM    5  C5  UNL     1     -33.991  15.379  -3.788  1.00 20.00     0.202 C 
HETATM    6  C6  UNL     1     -34.673  16.721  -2.039  1.00 20.00     0.172 C 
HETATM    7  N7  UNL     1     -35.446  12.766  -5.967  1.00 20.00    -0.192 NA
HETATM    8  O8  UNL     1     -33.544  16.382  -2.857  1.00 20.00    -0.387 OA
ENDROOT
TORSDOF 0
ENDMDL
MODEL 8
REMARK VINA RESULT:      -3.5     11.905     12.129
REMARK  0 active torsions:
REMARK  status: ('A' for Active; 'I' for Inactive)
ROOT
HETATM    1  C1  UNL     1     -33.974  16.910  -2.233  1.00 20.00     0.088 C 
HETATM    2  C2  UNL     1     -34.778  15.262  -3.794  1.00 20.00    -0.044 C 
HETATM    3  C3  UNL     1     -35.022  16.228  -2.903  1.00 20.00     0.098 C 
HETATM    4  C4  UNL     1     -35.802  14.490  -4.548  1.00 20.00     0.063 C 
HETATM    5  C5  UNL     1     -33.428  14.836  -4.263  1.00 20.00     0.202 C 
HETATM    6  C6  UNL     1     -35.007  14.103  -5.777  1.00 20.00     0.172 C 
HETATM    7  N7  UNL     1     -33.119  17.471  -1.683  1.00 20.00    -0.192 NA
HETATM    8  O8  UNL     1     -33.669  13.880  -5.311  1.00 20.00    -0.387 OA
ENDROOT
TORSDOF 0
ENDMDL
MODEL 9
REMARK VINA RESULT:      -3.5     12.030     12.832
REMARK  0 active torsions:
REMARK  status: ('A' for Active; 'I' for Inactive)
ROOT
HETATM    1  C1  UNL     1     -33.299  17.870  -2.602  1.00 20.00     0.088 C 
HETATM    2  C2  UNL     1     -33.830  15.858  -3.816  1.00 20.00    -0.044 C 
HETATM    3  C3  UNL     1     -33.898  16.588  -2.698  1.00 20.00     0.098 C 
HETATM    4  C4  UNL     1     -34.423  14.508  -4.016  1.00 20.00     0.063 C 
HETATM    5  C5  UNL     1     -33.217  16.299  -5.102  1.00 20.00     0.202 C 
HETATM    6  C6  UNL     1     -34.617  14.512  -5.517  1.00 20.00     0.172 C 
HETATM    7  N7  UNL     1     -32.810  18.920  -2.521  1.00 20.00    -0.192 NA
HETATM    8  O8  UNL     1     -33.505  15.250  -6.044  1.00 20.00    -0.387 OA
ENDROOT
TORSDOF 0
ENDMDL
