MODEL 1
REMARK VINA RESULT:      -3.6      0.000      0.000
REMARK  1 active torsions:
REMARK  status: ('A' for Active; 'I' for Inactive)
REMARK    1  A    between atoms: C4_4  and  S6_6 
ROOT
HETATM    1  C1  UNL     1     -33.999   6.561   5.155  1.00 20.00     0.043 C 
HETATM    2  C2  UNL     1     -34.710   5.275   5.520  1.00 20.00     0.168 C 
HETATM    3  C3  UNL     1     -33.748   5.000   3.414  1.00 20.00     0.182 C 
HETATM    4  C4  UNL     1     -33.992   6.480   3.645  1.00 20.00     0.070 C 
HETATM    5  O5  UNL     1     -34.362   4.310   4.517  1.00 20.00    -0.390 OA
ENDROOT
BRANCH   4   6
HETATM    6  S6  UNL     1     -32.740   7.537   2.880  1.00 20.00    -0.175 SA
HETATM    7  H14 UNL     1     -31.748   6.640   2.951  1.00 20.00     0.102 HD
ENDBRANCH   4   6
TORSDOF 1
ENDMDL
MODEL 2
REMARK VINA RESULT:      -3.4      1.263      1.812
REMARK  1 active torsions:
REMARK  status: ('A' for Active; 'I' for Inactive)
REMARK    1  A    between atoms: C4_4  and  S6_6 
ROOT
HETATM    1  C1  UNL     1     -34.343   6.005   3.258  1.00 20.00     0.043 C 
HETATM    2  C2  UNL     1     -34.810   5.452   4.588  1.00 20.00     0.168 C 
HETATM    3  C3  UNL     1     -33.471   7.315   5.005  1.00 20.00     0.182 C 
HETATM    4  C4  UNL     1     -33.078   6.728   3.662  1.00 20.00     0.070 C 
HETATM    5  O5  UNL     1     -34.409   6.395   5.592  1.00 20.00    -0.390 OA
ENDROOT
BRANCH   4   6
HETATM    6  S6  UNL     1     -32.556   7.977   2.463  1.00 20.00    -0.175 SA
HETATM    7  H14 UNL     1     -31.708   8.605   3.288  1.00 20.00     0.102 HD
ENDBRANCH   4   6
TORSDOF 1
ENDMDL
MODEL 3
REMARK VINA RESULT:      -3.3      2.540      3.235
REMARK  1 active torsions:
REMARK  status: ('A' for Active; 'I' for Inactive)
REMARK    1  A    between atoms: C4_4  and  S6_6 
ROOT
HETATM    1  C1  UNL     1     -33.232   6.045   2.869  1.00 20.00     0.043 C 
HETATM    2  C2  UNL     1     -32.529   7.380   2.739  1.00 20.00     0.168 C 
HETATM    3  C3  UNL     1     -33.311   7.179   4.927  1.00 20.00     0.182 C 
HETATM    4  C4  UNL     1     -34.168   6.311   4.025  1.00 20.00     0.070 C 
HETATM    5  O5  UNL     1     -32.443   7.932   4.060  1.00 20.00    -0.390 OA
ENDROOT
BRANCH   4   6
HETATM    6  S6  UNL     1     -34.752   4.802   4.833  1.00 20.00    -0.175 SA
HETATM    7  H14 UNL     1     -36.044   5.151   4.848  1.00 20.00     0.102 HD
ENDBRANCH   4   6
TORSDOF 1
ENDMDL
MODEL 4
REMARK VINA RESULT:      -3.1      1.558      1.859
REMARK  1 active torsions:
REMARK  status: ('A' for Active; 'I' for Inactive)
REMARK    1  A    between atoms: C4_4  and  S6_6 
ROOT
HETATM    1  C1  UNL     1     -33.200   7.174   4.594  1.00 20.00     0.043 C 
HETATM    2  C2  UNL     1     -33.925   7.328   5.914  1.00 20.00     0.168 C 
HETATM    3  C3  UNL     1     -34.548   5.286   4.977  1.00 20.00     0.182 C 
HETATM    4  C4  UNL     1     -34.113   6.218   3.861  1.00 20.00     0.070 C 
HETATM    5  O5  UNL     1     -34.573   6.076   6.179  1.00 20.00    -0.390 OA
ENDROOT
BRANCH   4   6
HETATM    6  S6  UNL     1     -33.299   5.360   2.492  1.00 20.00    -0.175 SA
HETATM    7  H14 UNL     1     -34.395   5.257   1.731  1.00 20.00     0.102 HD
ENDBRANCH   4   6
TORSDOF 1
ENDMDL
MODEL 5
REMARK VINA RESULT:      -3.0      1.606      1.889
REMARK  1 active torsions:
REMARK  status: ('A' for Active; 'I' for Inactive)
REMARK    1  A    between atoms: C4_4  and  S6_6 
ROOT
HETATM    1  C1  UNL     1     -34.313   4.924   5.449  1.00 20.00     0.043 C 
HETATM    2  C2  UNL     1     -34.387   4.033   4.227  1.00 20.00     0.168 C 
HETATM    3  C3  UNL     1     -33.453   6.070   3.586  1.00 20.00     0.182 C 
HETATM    4  C4  UNL     1     -34.309   6.297   4.818  1.00 20.00     0.070 C 
HETATM    5  O5  UNL     1     -33.679   4.709   3.179  1.00 20.00    -0.390 OA
ENDROOT
BRANCH   4   6
HETATM    6  S6  UNL     1     -33.658   7.583   5.911  1.00 20.00    -0.175 SA
HETATM    7  H14 UNL     1     -33.228   6.743   6.861  1.00 20.00     0.102 HD
ENDBRANCH   4   6
TORSDOF 1
ENDMDL
MODEL 6
REMARK VINA RESULT:      -2.8     12.329     13.052
REMARK  1 active torsions:
REMARK  status: ('A' for Active; 'I' for Inactive)
REMARK    1  A    between atoms: C4_4  and  S6_6 
ROOT
HETATM    1  C1  UNL     1     -34.432  14.350  -6.863  1.00 20.00     0.043 C 
HETATM    2  C2  UNL     1     -35.169  13.027  -6.827  1.00 20.00     0.168 C 
HETATM    3  C3  UNL     1     -35.107  13.884  -4.659  1.00 20.00     0.182 C 
HETATM    4  C4  UNL     1     -33.937  14.455  -5.438  1.00 20.00     0.070 C 
HETATM    5  O5  UNL     1     -35.715  12.893  -5.508  1.00 20.00    -0.390 OA
ENDROOT
BRANCH   4   6
HETATM    6  S6  UNL     1     -33.514  16.145  -4.953  1.00 20.00    -0.175 SA
HETATM    7  H14 UNL     1     -32.565  15.796  -4.075  1.00 20.00     0.102 HD
ENDBRANCH   4   6
TORSDOF 1
ENDMDL
MODEL 7
REMARK VINA RESULT:      -2.7     12.749     13.373
REMARK  1 active torsions:
REMARK  status: ('A' for Active; 'I' for Inactive)
REMARK    1  A    between atoms: C4_4  and  S6_6 
ROOT
HETATM    1  C1  UNL     1     -35.379  14.715  -5.116  1.00 20.00     0.043 C 
HETATM    2  C2  UNL     1     -36.002  13.339  -5.228  1.00 20.00     0.168 C 
HETATM    3  C3  UNL     1     -34.523  13.614  -7.009  1.00 20.00     0.182 C 
HETATM    4  C4  UNL     1     -34.989  14.984  -6.552  1.00 20.00     0.070 C 
HETATM    5  O5  UNL     1     -35.305  12.653  -6.278  1.00 20.00    -0.390 OA
ENDROOT
BRANCH   4   6
HETATM    6  S6  UNL     1     -33.721  16.262  -6.719  1.00 20.00    -0.175 SA
HETATM    7  H14 UNL     1     -32.861  15.708  -5.855  1.00 20.00     0.102 HD
ENDBRANCH   4   6
TORSDOF 1
ENDMDL
MODEL 8
REMARK VINA RESULT:      -2.6     12.376     12.690
REMARK  1 active torsions:
REMARK  status: ('A' for Active; 'I' for Inactive)
REMARK    1  A    between atoms: C4_4  and  S6_6 
ROOT
HETATM    1  C1  UNL     1     -36.271  15.481  -4.077  1.00 20.00     0.043 C 
HETATM    2  C2  UNL     1     -37.640  15.014  -4.526  1.00 20.00     0.168 C 
HETATM    3  C3  UNL     1     -36.071  13.432  -5.213  1.00 20.00     0.182 C 
HETATM    4  C4  UNL     1     -35.374  14.772  -5.066  1.00 20.00     0.070 C 
HETATM    5  O5  UNL     1     -37.477  13.684  -5.036  1.00 20.00    -0.390 OA
ENDROOT
BRANCH   4   6
HETATM    6  S6  UNL     1     -33.663  14.628  -4.500  1.00 20.00    -0.175 SA
HETATM    7  H14 UNL     1     -33.711  15.674  -3.667  1.00 20.00     0.102 HD
ENDBRANCH   4   6
TORSDOF 1
ENDMDL
MODEL 9
REMARK VINA RESULT:      -2.5     11.990     12.510
REMARK  1 active torsions:
REMARK  status: ('A' for Active; 'I' for Inactive)
REMARK    1  A    between atoms: C4_4  and  S6_6 
ROOT
HETATM    1  C1  UNL     1     -36.847  15.141  -4.317  1.00 20.00     0.043 C 
HETATM    2  C2  UNL     1     -36.889  13.963  -5.267  1.00 20.00     0.168 C 
HETATM    3  C3  UNL     1     -34.793  14.000  -4.246  1.00 20.00     0.182 C 
HETATM    4  C4  UNL     1     -35.361  15.407  -4.234  1.00 20.00     0.070 C 
HETATM    5  O5  UNL     1     -35.693  13.205  -5.039  1.00 20.00    -0.390 OA
ENDROOT
BRANCH   4   6
HETATM    6  S6  UNL     1     -34.886  16.355  -2.770  1.00 20.00    -0.175 SA
HETATM    7  H14 UNL     1     -36.082  16.931  -2.592  1.00 20.00     0.102 HD
ENDBRANCH   4   6
TORSDOF 1
ENDMDL
