MODEL 1
REMARK VINA RESULT:      -4.7      0.000      0.000
REMARK  3 active torsions:
REMARK  status: ('A' for Active; 'I' for Inactive)
REMARK    1  A    between atoms: C1_1  and  C7_7 
REMARK       I    between atoms: C1_1  and  N8_8 
REMARK    2  A    between atoms: C5_5  and  C6_6 
REMARK    3  A    between atoms: C5_5  and  N8_8 
ROOT
HETATM    1  C1  UNL     1     -33.886   6.606   3.697  1.00 20.00     0.222 C 
HETATM    2  C4  UNL     1     -31.827   7.949   3.868  1.00 20.00     0.152 C 
HETATM    3  N8  UNL     1     -32.954   7.451   3.087  1.00 20.00    -0.355 N 
HETATM    4  O9  UNL     1     -34.865   6.147   3.098  1.00 20.00    -0.273 OA
ENDROOT
BRANCH   1   5
HETATM    5  C7  UNL     1     -33.652   6.225   5.163  1.00 20.00     0.070 C 
HETATM    6  C2  UNL     1     -34.530   5.034   5.540  1.00 20.00     0.019 C 
HETATM    7  C3  UNL     1     -33.958   7.406   6.089  1.00 20.00     0.019 C 
ENDBRANCH   1   5
BRANCH   3   8
HETATM    8  C5  UNL     1     -32.965   7.880   1.689  1.00 20.00     0.140 C 
BRANCH   8   9
HETATM    9  C6  UNL     1     -31.920   8.943   1.396  1.00 20.00     0.134 C 
HETATM   10 CL10 UNL     1     -32.674  10.530   1.102  1.00 20.00    -0.129 Cl
ENDBRANCH   8   9
ENDBRANCH   3   8
TORSDOF 3
ENDMDL
MODEL 2
REMARK VINA RESULT:      -4.7      1.412      1.819
REMARK  3 active torsions:
REMARK  status: ('A' for Active; 'I' for Inactive)
REMARK    1  A    between atoms: C1_1  and  C7_7 
REMARK       I    between atoms: C1_1  and  N8_8 
REMARK    2  A    between atoms: C5_5  and  C6_6 
REMARK    3  A    between atoms: C5_5  and  N8_8 
ROOT
HETATM    1  C1  UNL     1     -33.438   6.880   4.465  1.00 20.00     0.222 C 
HETATM    2  C4  UNL     1     -32.831   6.240   2.164  1.00 20.00     0.152 C 
HETATM    3  N8  UNL     1     -32.725   7.156   3.294  1.00 20.00    -0.355 N 
HETATM    4  O9  UNL     1     -33.395   7.611   5.462  1.00 20.00    -0.273 OA
ENDROOT
BRANCH   1   5
HETATM    5  C7  UNL     1     -34.324   5.630   4.483  1.00 20.00     0.070 C 
HETATM    6  C2  UNL     1     -35.649   5.918   3.781  1.00 20.00     0.019 C 
HETATM    7  C3  UNL     1     -34.591   5.172   5.920  1.00 20.00     0.019 C 
ENDBRANCH   1   5
BRANCH   3   8
HETATM    8  C5  UNL     1     -31.878   8.324   3.057  1.00 20.00     0.140 C 
BRANCH   8   9
HETATM    9  C6  UNL     1     -31.790   8.691   1.585  1.00 20.00     0.134 C 
HETATM   10 CL10 UNL     1     -32.617  10.234   1.252  1.00 20.00    -0.129 Cl
ENDBRANCH   8   9
ENDBRANCH   3   8
TORSDOF 3
ENDMDL
MODEL 3
REMARK VINA RESULT:      -4.4      1.485      1.851
REMARK  3 active torsions:
REMARK  status: ('A' for Active; 'I' for Inactive)
REMARK    1  A    between atoms: C1_1  and  C7_7 
REMARK       I    between atoms: C1_1  and  N8_8 
REMARK    2  A    between atoms: C5_5  and  C6_6 
REMARK    3  A    between atoms: C5_5  and  N8_8 
ROOT
HETATM    1  C1  UNL     1     -33.308   6.229   3.419  1.00 20.00     0.222 C 
HETATM    2  C4  UNL     1     -33.093   7.926   5.194  1.00 20.00     0.152 C 
HETATM    3  N8  UNL     1     -32.688   7.387   3.899  1.00 20.00    -0.355 N 
HETATM    4  O9  UNL     1     -33.016   5.717   2.332  1.00 20.00    -0.273 OA
ENDROOT
BRANCH   1   5
HETATM    5  C7  UNL     1     -34.370   5.568   4.304  1.00 20.00     0.070 C 
HETATM    6  C2  UNL     1     -34.148   4.057   4.347  1.00 20.00     0.019 C 
HETATM    7  C3  UNL     1     -35.778   5.868   3.782  1.00 20.00     0.019 C 
ENDBRANCH   1   5
BRANCH   3   8
HETATM    8  C5  UNL     1     -31.615   8.127   3.238  1.00 20.00     0.140 C 
BRANCH   8   9
HETATM    9  C6  UNL     1     -32.131   9.061   2.156  1.00 20.00     0.134 C 
HETATM   10 CL10 UNL     1     -31.399   8.686   0.575  1.00 20.00    -0.129 Cl
ENDBRANCH   8   9
ENDBRANCH   3   8
TORSDOF 3
ENDMDL
MODEL 4
REMARK VINA RESULT:      -4.3      2.554      4.296
REMARK  3 active torsions:
REMARK  status: ('A' for Active; 'I' for Inactive)
REMARK    1  A    between atoms: C1_1  and  C7_7 
REMARK       I    between atoms: C1_1  and  N8_8 
REMARK    2  A    between atoms: C5_5  and  C6_6 
REMARK    3  A    between atoms: C5_5  and  N8_8 
ROOT
HETATM    1  C1  UNL     1     -33.479   7.309   3.180  1.00 20.00     0.222 C 
HETATM    2  C4  UNL     1     -32.931   4.962   2.666  1.00 20.00     0.152 C 
HETATM    3  N8  UNL     1     -33.808   5.954   3.279  1.00 20.00    -0.355 N 
HETATM    4  O9  UNL     1     -34.175   8.204   3.673  1.00 20.00    -0.273 OA
ENDROOT
BRANCH   1   5
HETATM    5  C7  UNL     1     -32.185   7.678   2.446  1.00 20.00     0.070 C 
HETATM    6  C2  UNL     1     -31.175   8.264   3.431  1.00 20.00     0.019 C 
HETATM    7  C3  UNL     1     -32.460   8.687   1.328  1.00 20.00     0.019 C 
ENDBRANCH   1   5
BRANCH   3   8
HETATM    8  C5  UNL     1     -34.960   5.396   3.986  1.00 20.00     0.140 C 
BRANCH   8   9
HETATM    9  C6  UNL     1     -34.661   5.096   5.445  1.00 20.00     0.134 C 
HETATM   10 CL10 UNL     1     -34.249   6.581   6.340  1.00 20.00    -0.129 Cl
ENDBRANCH   8   9
ENDBRANCH   3   8
TORSDOF 3
ENDMDL
MODEL 5
REMARK VINA RESULT:      -4.1      2.915      4.816
REMARK  3 active torsions:
REMARK  status: ('A' for Active; 'I' for Inactive)
REMARK    1  A    between atoms: C1_1  and  C7_7 
REMARK       I    between atoms: C1_1  and  N8_8 
REMARK    2  A    between atoms: C5_5  and  C6_6 
REMARK    3  A    between atoms: C5_5  and  N8_8 
ROOT
HETATM    1  C1  UNL     1     -32.371   8.233   2.715  1.00 20.00     0.222 C 
HETATM    2  C4  UNL     1     -34.253   6.726   2.204  1.00 20.00     0.152 C 
HETATM    3  N8  UNL     1     -33.264   7.246   3.143  1.00 20.00    -0.355 N 
HETATM    4  O9  UNL     1     -31.508   8.719   3.456  1.00 20.00    -0.273 OA
ENDROOT
BRANCH   1   5
HETATM    5  C7  UNL     1     -32.465   8.699   1.259  1.00 20.00     0.070 C 
HETATM    6  C2  UNL     1     -31.121   8.502   0.559  1.00 20.00     0.019 C 
HETATM    7  C3  UNL     1     -32.874  10.173   1.183  1.00 20.00     0.019 C 
ENDBRANCH   1   5
BRANCH   3   8
HETATM    8  C5  UNL     1     -33.296   6.628   4.467  1.00 20.00     0.140 C 
BRANCH   8   9
HETATM    9  C6  UNL     1     -34.599   5.894   4.737  1.00 20.00     0.134 C 
HETATM   10 CL10 UNL     1     -34.374   4.127   4.664  1.00 20.00    -0.129 Cl
ENDBRANCH   8   9
ENDBRANCH   3   8
TORSDOF 3
ENDMDL
MODEL 6
REMARK VINA RESULT:      -4.0     11.412     12.138
REMARK  3 active torsions:
REMARK  status: ('A' for Active; 'I' for Inactive)
REMARK    1  A    between atoms: C1_1  and  C7_7 
REMARK       I    between atoms: C1_1  and  N8_8 
REMARK    2  A    between atoms: C5_5  and  C6_6 
REMARK    3  A    between atoms: C5_5  and  N8_8 
ROOT
HETATM    1  C1  UNL     1     -33.679  16.926  -4.005  1.00 20.00     0.222 C 
HETATM    2  C4  UNL     1     -33.094  14.543  -4.235  1.00 20.00     0.152 C 
HETATM    3  N8  UNL     1     -33.351  15.848  -4.834  1.00 20.00    -0.355 N 
HETATM    4  O9  UNL     1     -33.909  18.059  -4.442  1.00 20.00    -0.273 OA
ENDROOT
BRANCH   1   5
HETATM    5  C7  UNL     1     -33.777  16.664  -2.498  1.00 20.00     0.070 C 
HETATM    6  C2  UNL     1     -35.242  16.642  -2.066  1.00 20.00     0.019 C 
HETATM    7  C3  UNL     1     -33.022  17.737  -1.708  1.00 20.00     0.019 C 
ENDBRANCH   1   5
BRANCH   3   8
HETATM    8  C5  UNL     1     -33.268  15.878  -6.293  1.00 20.00     0.140 C 
BRANCH   8   9
HETATM    9  C6  UNL     1     -34.532  15.362  -6.960  1.00 20.00     0.134 C 
HETATM   10 CL10 UNL     1     -34.294  13.721  -7.615  1.00 20.00    -0.129 Cl
ENDBRANCH   8   9
ENDBRANCH   3   8
TORSDOF 3
ENDMDL
MODEL 7
REMARK VINA RESULT:      -3.9     10.973     11.552
REMARK  3 active torsions:
REMARK  status: ('A' for Active; 'I' for Inactive)
REMARK    1  A    between atoms: C1_1  and  C7_7 
REMARK       I    between atoms: C1_1  and  N8_8 
REMARK    2  A    between atoms: C5_5  and  C6_6 
REMARK    3  A    between atoms: C5_5  and  N8_8 
ROOT
HETATM    1  C1  UNL     1     -34.936  15.847  -3.384  1.00 20.00     0.222 C 
HETATM    2  C4  UNL     1     -33.137  14.464  -4.344  1.00 20.00     0.152 C 
HETATM    3  N8  UNL     1     -34.556  14.736  -4.142  1.00 20.00    -0.355 N 
HETATM    4  O9  UNL     1     -36.119  16.139  -3.172  1.00 20.00    -0.273 OA
ENDROOT
BRANCH   1   5
HETATM    5  C7  UNL     1     -33.826  16.712  -2.778  1.00 20.00     0.070 C 
HETATM    6  C2  UNL     1     -34.207  17.134  -1.360  1.00 20.00     0.019 C 
HETATM    7  C3  UNL     1     -33.573  17.955  -3.636  1.00 20.00     0.019 C 
ENDBRANCH   1   5
BRANCH   3   8
HETATM    8  C5  UNL     1     -35.457  13.758  -4.750  1.00 20.00     0.140 C 
BRANCH   8   9
HETATM    9  C6  UNL     1     -35.814  14.107  -6.185  1.00 20.00     0.134 C 
HETATM   10 CL10 UNL     1     -34.833  13.174  -7.343  1.00 20.00    -0.129 Cl
ENDBRANCH   8   9
ENDBRANCH   3   8
TORSDOF 3
ENDMDL
MODEL 8
REMARK VINA RESULT:      -3.8      2.684      4.368
REMARK  3 active torsions:
REMARK  status: ('A' for Active; 'I' for Inactive)
REMARK    1  A    between atoms: C1_1  and  C7_7 
REMARK       I    between atoms: C1_1  and  N8_8 
REMARK    2  A    between atoms: C5_5  and  C6_6 
REMARK    3  A    between atoms: C5_5  and  N8_8 
ROOT
HETATM    1  C1  UNL     1     -33.433   7.115   3.181  1.00 20.00     0.222 C 
HETATM    2  C4  UNL     1     -33.659   7.669   5.572  1.00 20.00     0.152 C 
HETATM    3  N8  UNL     1     -34.014   6.842   4.423  1.00 20.00    -0.355 N 
HETATM    4  O9  UNL     1     -33.687   6.456   2.165  1.00 20.00    -0.273 OA
ENDROOT
BRANCH   1   5
HETATM    5  C7  UNL     1     -32.464   8.299   3.090  1.00 20.00     0.070 C 
HETATM    6  C2  UNL     1     -32.458   8.861   1.670  1.00 20.00     0.019 C 
HETATM    7  C3  UNL     1     -31.046   7.874   3.484  1.00 20.00     0.019 C 
ENDBRANCH   1   5
BRANCH   3   8
HETATM    8  C5  UNL     1     -35.003   5.802   4.702  1.00 20.00     0.140 C 
BRANCH   8   9
HETATM    9  C6  UNL     1     -34.385   4.564   5.331  1.00 20.00     0.134 C 
HETATM   10 CL10 UNL     1     -33.778   3.441   4.088  1.00 20.00    -0.129 Cl
ENDBRANCH   8   9
ENDBRANCH   3   8
TORSDOF 3
ENDMDL
MODEL 9
REMARK VINA RESULT:      -3.8     11.121     11.924
REMARK  3 active torsions:
REMARK  status: ('A' for Active; 'I' for Inactive)
REMARK    1  A    between atoms: C1_1  and  C7_7 
REMARK       I    between atoms: C1_1  and  N8_8 
REMARK    2  A    between atoms: C5_5  and  C6_6 
REMARK    3  A    between atoms: C5_5  and  N8_8 
ROOT
HETATM    1  C1  UNL     1     -34.713  14.654  -4.869  1.00 20.00     0.222 C 
HETATM    2  C4  UNL     1     -34.733  17.088  -5.254  1.00 20.00     0.152 C 
HETATM    3  N8  UNL     1     -34.438  15.942  -4.400  1.00 20.00    -0.355 N 
HETATM    4  O9  UNL     1     -34.489  13.638  -4.201  1.00 20.00    -0.273 OA
ENDROOT
BRANCH   1   5
HETATM    5  C7  UNL     1     -35.342  14.520  -6.260  1.00 20.00     0.070 C 
HETATM    6  C2  UNL     1     -36.799  14.079  -6.134  1.00 20.00     0.019 C 
HETATM    7  C3  UNL     1     -34.569  13.509  -7.113  1.00 20.00     0.019 C 
ENDBRANCH   1   5
BRANCH   3   8
HETATM    8  C5  UNL     1     -33.899  16.284  -3.085  1.00 20.00     0.140 C 
BRANCH   8   9
HETATM    9  C6  UNL     1     -34.979  16.704  -2.102  1.00 20.00     0.134 C 
HETATM   10 CL10 UNL     1     -34.279  17.517  -0.679  1.00 20.00    -0.129 Cl
ENDBRANCH   8   9
ENDBRANCH   3   8
TORSDOF 3
ENDMDL
