MODEL 1
REMARK VINA RESULT:      -4.6      0.000      0.000
REMARK  3 active torsions:
REMARK  status: ('A' for Active; 'I' for Inactive)
REMARK    1  A    between atoms: C1_1  and  C4_4 
REMARK       I    between atoms: C1_1  and  N7_7 
REMARK    2  A    between atoms: C5_5  and  C6_6 
REMARK    3  A    between atoms: C5_5  and  N7_7 
ROOT
HETATM    1  C1  UNL     1     -32.048   8.007   2.989  1.00 20.00     0.219 C 
HETATM    2  C3  UNL     1     -33.444   6.056   2.271  1.00 20.00     0.152 C 
HETATM    3  N7  UNL     1     -33.049   7.064   3.247  1.00 20.00    -0.355 N 
HETATM    4  O8  UNL     1     -31.328   8.491   3.865  1.00 20.00    -0.273 OA
ENDROOT
BRANCH   3   5
HETATM    5  C5  UNL     1     -33.774   7.018   4.515  1.00 20.00     0.140 C 
BRANCH   5   6
HETATM    6  C6  UNL     1     -34.877   5.973   4.519  1.00 20.00     0.134 C 
HETATM    7 CL9  UNL     1     -34.509   4.648   5.651  1.00 20.00    -0.129 Cl
ENDBRANCH   5   6
ENDBRANCH   3   5
BRANCH   1   8
HETATM    8  C4  UNL     1     -31.880   8.425   1.535  1.00 20.00     0.098 C 
HETATM    9  C2  UNL     1     -32.520   9.771   1.235  1.00 20.00     0.014 C 
ENDBRANCH   1   8
TORSDOF 3
ENDMDL
MODEL 2
REMARK VINA RESULT:      -4.6      3.029      4.586
REMARK  3 active torsions:
REMARK  status: ('A' for Active; 'I' for Inactive)
REMARK    1  A    between atoms: C1_1  and  C4_4 
REMARK       I    between atoms: C1_1  and  N7_7 
REMARK    2  A    between atoms: C5_5  and  C6_6 
REMARK    3  A    between atoms: C5_5  and  N7_7 
ROOT
HETATM    1  C1  UNL     1     -33.575   6.789   3.616  1.00 20.00     0.219 C 
HETATM    2  C3  UNL     1     -31.517   8.215   3.654  1.00 20.00     0.152 C 
HETATM    3  N7  UNL     1     -32.660   7.625   2.967  1.00 20.00    -0.355 N 
HETATM    4  O8  UNL     1     -34.190   5.884   3.048  1.00 20.00    -0.273 OA
ENDROOT
BRANCH   3   5
HETATM    5  C5  UNL     1     -32.781   7.970   1.553  1.00 20.00     0.140 C 
BRANCH   5   6
HETATM    6  C6  UNL     1     -31.849   9.099   1.146  1.00 20.00     0.134 C 
HETATM    7 CL9  UNL     1     -32.681  10.673   1.190  1.00 20.00    -0.129 Cl
ENDBRANCH   5   6
ENDBRANCH   3   5
BRANCH   1   8
HETATM    8  C4  UNL     1     -33.787   7.051   5.101  1.00 20.00     0.098 C 
HETATM    9  C2  UNL     1     -34.474   5.894   5.809  1.00 20.00     0.014 C 
ENDBRANCH   1   8
TORSDOF 3
ENDMDL
MODEL 3
REMARK VINA RESULT:      -4.5      2.868      4.456
REMARK  3 active torsions:
REMARK  status: ('A' for Active; 'I' for Inactive)
REMARK    1  A    between atoms: C1_1  and  C4_4 
REMARK       I    between atoms: C1_1  and  N7_7 
REMARK    2  A    between atoms: C5_5  and  C6_6 
REMARK    3  A    between atoms: C5_5  and  N7_7 
ROOT
HETATM    1  C1  UNL     1     -33.409   6.071   3.324  1.00 20.00     0.219 C 
HETATM    2  C3  UNL     1     -33.098   7.819   5.090  1.00 20.00     0.152 C 
HETATM    3  N7  UNL     1     -32.843   7.273   3.762  1.00 20.00    -0.355 N 
HETATM    4  O8  UNL     1     -32.865   5.321   2.511  1.00 20.00    -0.273 OA
ENDROOT
BRANCH   3   5
HETATM    5  C5  UNL     1     -31.953   8.073   2.923  1.00 20.00     0.140 C 
BRANCH   5   6
HETATM    6  C6  UNL     1     -32.606   8.495   1.618  1.00 20.00     0.134 C 
HETATM    7 CL9  UNL     1     -32.500  10.258   1.381  1.00 20.00    -0.129 Cl
ENDBRANCH   5   6
ENDBRANCH   3   5
BRANCH   1   8
HETATM    8  C4  UNL     1     -34.769   5.718   3.909  1.00 20.00     0.098 C 
HETATM    9  C2  UNL     1     -34.699   4.571   4.906  1.00 20.00     0.014 C 
ENDBRANCH   1   8
TORSDOF 3
ENDMDL
MODEL 4
REMARK VINA RESULT:      -4.2      2.683      4.314
REMARK  3 active torsions:
REMARK  status: ('A' for Active; 'I' for Inactive)
REMARK    1  A    between atoms: C1_1  and  C4_4 
REMARK       I    between atoms: C1_1  and  N7_7 
REMARK    2  A    between atoms: C5_5  and  C6_6 
REMARK    3  A    between atoms: C5_5  and  N7_7 
ROOT
HETATM    1  C1  UNL     1     -34.036   6.677   4.968  1.00 20.00     0.219 C 
HETATM    2  C3  UNL     1     -34.171   6.454   2.477  1.00 20.00     0.152 C 
HETATM    3  N7  UNL     1     -33.514   6.920   3.692  1.00 20.00    -0.355 N 
HETATM    4  O8  UNL     1     -33.869   7.434   5.926  1.00 20.00    -0.273 OA
ENDROOT
BRANCH   3   5
HETATM    5  C5  UNL     1     -32.273   7.661   3.482  1.00 20.00     0.140 C 
BRANCH   5   6
HETATM    6  C6  UNL     1     -32.025   7.981   2.018  1.00 20.00     0.134 C 
HETATM    7 CL9  UNL     1     -32.407   9.683   1.653  1.00 20.00    -0.129 Cl
ENDBRANCH   5   6
ENDBRANCH   3   5
BRANCH   1   8
HETATM    8  C4  UNL     1     -34.842   5.396   5.129  1.00 20.00     0.098 C 
HETATM    9  C2  UNL     1     -34.060   4.156   4.726  1.00 20.00     0.014 C 
ENDBRANCH   1   8
TORSDOF 3
ENDMDL
MODEL 5
REMARK VINA RESULT:      -3.7      2.221      2.620
REMARK  3 active torsions:
REMARK  status: ('A' for Active; 'I' for Inactive)
REMARK    1  A    between atoms: C1_1  and  C4_4 
REMARK       I    between atoms: C1_1  and  N7_7 
REMARK    2  A    between atoms: C5_5  and  C6_6 
REMARK    3  A    between atoms: C5_5  and  N7_7 
ROOT
HETATM    1  C1  UNL     1     -33.353   5.693   2.843  1.00 20.00     0.219 C 
HETATM    2  C3  UNL     1     -35.706   6.316   3.429  1.00 20.00     0.152 C 
HETATM    3  N7  UNL     1     -34.504   5.513   3.617  1.00 20.00    -0.355 N 
HETATM    4  O8  UNL     1     -32.565   4.784   2.575  1.00 20.00    -0.273 OA
ENDROOT
BRANCH   3   5
HETATM    5  C5  UNL     1     -34.589   4.506   4.672  1.00 20.00     0.140 C 
BRANCH   5   6
HETATM    6  C6  UNL     1     -34.624   5.118   6.062  1.00 20.00     0.134 C 
HETATM    7 CL9  UNL     1     -33.954   6.768   6.061  1.00 20.00    -0.129 Cl
ENDBRANCH   5   6
ENDBRANCH   3   5
BRANCH   1   8
HETATM    8  C4  UNL     1     -33.104   7.105   2.330  1.00 20.00     0.098 C 
HETATM    9  C2  UNL     1     -32.089   7.864   3.170  1.00 20.00     0.014 C 
ENDBRANCH   1   8
TORSDOF 3
ENDMDL
MODEL 6
REMARK VINA RESULT:      -3.7      1.895      2.455
REMARK  3 active torsions:
REMARK  status: ('A' for Active; 'I' for Inactive)
REMARK    1  A    between atoms: C1_1  and  C4_4 
REMARK       I    between atoms: C1_1  and  N7_7 
REMARK    2  A    between atoms: C5_5  and  C6_6 
REMARK    3  A    between atoms: C5_5  and  N7_7 
ROOT
HETATM    1  C1  UNL     1     -33.344   7.295   3.377  1.00 20.00     0.219 C 
HETATM    2  C3  UNL     1     -33.762   7.228   5.845  1.00 20.00     0.152 C 
HETATM    3  N7  UNL     1     -33.982   6.737   4.490  1.00 20.00    -0.355 N 
HETATM    4  O8  UNL     1     -33.841   7.316   2.248  1.00 20.00    -0.273 OA
ENDROOT
BRANCH   3   5
HETATM    5  C5  UNL     1     -34.916   5.619   4.378  1.00 20.00     0.140 C 
BRANCH   5   6
HETATM    6  C6  UNL     1     -34.212   4.275   4.311  1.00 20.00     0.134 C 
HETATM    7 CL9  UNL     1     -33.163   4.164   2.875  1.00 20.00    -0.129 Cl
ENDBRANCH   5   6
ENDBRANCH   3   5
BRANCH   1   8
HETATM    8  C4  UNL     1     -31.967   7.894   3.623  1.00 20.00     0.098 C 
HETATM    9  C2  UNL     1     -31.442   8.672   2.426  1.00 20.00     0.014 C 
ENDBRANCH   1   8
TORSDOF 3
ENDMDL
MODEL 7
REMARK VINA RESULT:      -3.6      2.815      4.409
REMARK  3 active torsions:
REMARK  status: ('A' for Active; 'I' for Inactive)
REMARK    1  A    between atoms: C1_1  and  C4_4 
REMARK       I    between atoms: C1_1  and  N7_7 
REMARK    2  A    between atoms: C5_5  and  C6_6 
REMARK    3  A    between atoms: C5_5  and  N7_7 
ROOT
HETATM    1  C1  UNL     1     -34.258   6.414   3.956  1.00 20.00     0.219 C 
HETATM    2  C3  UNL     1     -32.970   5.093   2.262  1.00 20.00     0.152 C 
HETATM    3  N7  UNL     1     -33.166   6.276   3.092  1.00 20.00    -0.355 N 
HETATM    4  O8  UNL     1     -34.759   7.501   4.249  1.00 20.00    -0.273 OA
ENDROOT
BRANCH   3   5
HETATM    5  C5  UNL     1     -32.139   7.306   2.957  1.00 20.00     0.140 C 
BRANCH   5   6
HETATM    6  C6  UNL     1     -32.554   8.424   2.016  1.00 20.00     0.134 C 
HETATM    7 CL9  UNL     1     -31.339   8.683   0.740  1.00 20.00    -0.129 Cl
ENDBRANCH   5   6
ENDBRANCH   3   5
BRANCH   1   8
HETATM    8  C4  UNL     1     -34.819   5.124   4.539  1.00 20.00     0.098 C 
HETATM    9  C2  UNL     1     -34.560   4.994   6.032  1.00 20.00     0.014 C 
ENDBRANCH   1   8
TORSDOF 3
ENDMDL
MODEL 8
REMARK VINA RESULT:      -3.6     11.334     12.152
REMARK  3 active torsions:
REMARK  status: ('A' for Active; 'I' for Inactive)
REMARK    1  A    between atoms: C1_1  and  C4_4 
REMARK       I    between atoms: C1_1  and  N7_7 
REMARK    2  A    between atoms: C5_5  and  C6_6 
REMARK    3  A    between atoms: C5_5  and  N7_7 
ROOT
HETATM    1  C1  UNL     1     -36.073  13.807  -5.060  1.00 20.00     0.219 C 
HETATM    2  C3  UNL     1     -35.664  15.832  -3.644  1.00 20.00     0.152 C 
HETATM    3  N7  UNL     1     -35.197  14.675  -4.398  1.00 20.00    -0.355 N 
HETATM    4  O8  UNL     1     -35.839  12.609  -5.235  1.00 20.00    -0.273 OA
ENDROOT
BRANCH   3   5
HETATM    5  C5  UNL     1     -33.748  14.487  -4.412  1.00 20.00     0.140 C 
BRANCH   5   6
HETATM    6  C6  UNL     1     -33.023  15.593  -5.158  1.00 20.00     0.134 C 
HETATM    7 CL9  UNL     1     -33.561  15.693  -6.853  1.00 20.00    -0.129 Cl
ENDBRANCH   5   6
ENDBRANCH   3   5
BRANCH   1   8
HETATM    8  C4  UNL     1     -37.367  14.423  -5.572  1.00 20.00     0.098 C 
HETATM    9  C2  UNL     1     -37.230  14.994  -6.975  1.00 20.00     0.014 C 
ENDBRANCH   1   8
TORSDOF 3
ENDMDL
MODEL 9
REMARK VINA RESULT:      -3.6     11.247     11.985
REMARK  3 active torsions:
REMARK  status: ('A' for Active; 'I' for Inactive)
REMARK    1  A    between atoms: C1_1  and  C4_4 
REMARK       I    between atoms: C1_1  and  N7_7 
REMARK    2  A    between atoms: C5_5  and  C6_6 
REMARK    3  A    between atoms: C5_5  and  N7_7 
ROOT
HETATM    1  C1  UNL     1     -35.807  13.764  -5.837  1.00 20.00     0.219 C 
HETATM    2  C3  UNL     1     -36.328  16.213  -5.881  1.00 20.00     0.152 C 
HETATM    3  N7  UNL     1     -35.798  15.023  -5.226  1.00 20.00    -0.355 N 
HETATM    4  O8  UNL     1     -35.888  12.705  -5.211  1.00 20.00    -0.273 OA
ENDROOT
BRANCH   3   5
HETATM    5  C5  UNL     1     -35.258  15.239  -3.886  1.00 20.00     0.140 C 
BRANCH   5   6
HETATM    6  C6  UNL     1     -33.800  15.661  -3.906  1.00 20.00     0.134 C 
HETATM    7 CL9  UNL     1     -32.731  14.286  -4.280  1.00 20.00    -0.129 Cl
ENDBRANCH   5   6
ENDBRANCH   3   5
BRANCH   1   8
HETATM    8  C4  UNL     1     -35.707  13.756  -7.357  1.00 20.00     0.098 C 
HETATM    9  C2  UNL     1     -34.278  13.912  -7.852  1.00 20.00     0.014 C 
ENDBRANCH   1   8
TORSDOF 3
ENDMDL
