MODEL 1
REMARK VINA RESULT:      -5.0      0.000      0.000
REMARK  1 active torsions:
REMARK  status: ('A' for Active; 'I' for Inactive)
REMARK    1  A    between atoms: C8_8  and  N9_9 
ROOT
HETATM    1  C1  UNL     1     -35.214   5.836   3.681  1.00 20.00     0.050 C 
HETATM    2  C2  UNL     1     -34.140   6.958   5.651  1.00 20.00     0.050 C 
HETATM    3  C3  UNL     1     -33.999   6.239   2.840  1.00 20.00     0.274 C 
HETATM    4  C4  UNL     1     -32.960   7.326   4.745  1.00 20.00     0.274 C 
HETATM    5  C5  UNL     1     -34.885   5.713   5.169  1.00 20.00     0.085 C 
HETATM    6  N9  UNL     1     -33.391   7.476   3.349  1.00 20.00     0.092 N 
HETATM    7 CL10 UNL     1     -33.907   4.244   5.475  1.00 20.00    -0.125 Cl
ENDROOT
BRANCH   6   8
HETATM    8  C8  UNL     1     -32.266   7.877   2.505  1.00 20.00     0.215 C 
HETATM    9  C6  UNL     1     -31.122   8.348   3.390  1.00 20.00     0.042 C 
HETATM   10  C7  UNL     1     -32.729   8.972   1.554  1.00 20.00     0.042 C 
ENDBRANCH   6   8
TORSDOF 1
ENDMDL
MODEL 2
REMARK VINA RESULT:      -4.2      2.312      4.053
REMARK  1 active torsions:
REMARK  status: ('A' for Active; 'I' for Inactive)
REMARK    1  A    between atoms: C8_8  and  N9_9 
ROOT
HETATM    1  C1  UNL     1     -32.647   7.132   1.539  1.00 20.00     0.050 C 
HETATM    2  C2  UNL     1     -31.483   8.219   3.478  1.00 20.00     0.050 C 
HETATM    3  C3  UNL     1     -33.801   6.779   2.483  1.00 20.00     0.274 C 
HETATM    4  C4  UNL     1     -32.676   7.831   4.358  1.00 20.00     0.274 C 
HETATM    5  C5  UNL     1     -31.863   8.360   2.004  1.00 20.00     0.085 C 
HETATM    6  N9  UNL     1     -33.324   6.610   3.862  1.00 20.00     0.092 N 
HETATM    7 CL10 UNL     1     -32.823   9.850   1.745  1.00 20.00    -0.125 Cl
ENDROOT
BRANCH   6   8
HETATM    8  C8  UNL     1     -34.428   6.222   4.740  1.00 20.00     0.215 C 
HETATM    9  C6  UNL     1     -34.164   6.757   6.139  1.00 20.00     0.042 C 
HETATM   10  C7  UNL     1     -34.552   4.704   4.733  1.00 20.00     0.042 C 
ENDBRANCH   6   8
TORSDOF 1
ENDMDL
MODEL 3
REMARK VINA RESULT:      -3.9     11.681     12.443
REMARK  1 active torsions:
REMARK  status: ('A' for Active; 'I' for Inactive)
REMARK    1  A    between atoms: C8_8  and  N9_9 
ROOT
HETATM    1  C1  UNL     1     -34.726  14.233  -4.370  1.00 20.00     0.050 C 
HETATM    2  C2  UNL     1     -33.027  15.699  -5.492  1.00 20.00     0.050 C 
HETATM    3  C3  UNL     1     -35.069  15.406  -3.447  1.00 20.00     0.274 C 
HETATM    4  C4  UNL     1     -33.426  16.824  -4.532  1.00 20.00     0.274 C 
HETATM    5  C5  UNL     1     -34.154  14.688  -5.712  1.00 20.00     0.085 C 
HETATM    6  N9  UNL     1     -33.907  16.284  -3.254  1.00 20.00     0.092 N 
HETATM    7 CL10 UNL     1     -35.442  15.402  -6.732  1.00 20.00    -0.125 Cl
ENDROOT
BRANCH   6   8
HETATM    8  C8  UNL     1     -34.235  17.370  -2.330  1.00 20.00     0.215 C 
HETATM    9  C6  UNL     1     -32.974  17.794  -1.591  1.00 20.00     0.042 C 
HETATM   10  C7  UNL     1     -35.314  16.890  -1.369  1.00 20.00     0.042 C 
ENDBRANCH   6   8
TORSDOF 1
ENDMDL
MODEL 4
REMARK VINA RESULT:      -3.8     11.697     12.154
REMARK  1 active torsions:
REMARK  status: ('A' for Active; 'I' for Inactive)
REMARK    1  A    between atoms: C8_8  and  N9_9 
ROOT
HETATM    1  C1  UNL     1     -36.034  14.671  -4.553  1.00 20.00     0.050 C 
HETATM    2  C2  UNL     1     -33.534  14.477  -4.481  1.00 20.00     0.050 C 
HETATM    3  C3  UNL     1     -35.913  15.988  -3.780  1.00 20.00     0.274 C 
HETATM    4  C4  UNL     1     -33.495  15.800  -3.710  1.00 20.00     0.274 C 
HETATM    5  C5  UNL     1     -34.777  14.346  -5.361  1.00 20.00     0.085 C 
HETATM    6  N9  UNL     1     -34.720  15.990  -2.923  1.00 20.00     0.092 N 
HETATM    7 CL10 UNL     1     -34.651  15.427  -6.784  1.00 20.00    -0.125 Cl
ENDROOT
BRANCH   6   8
HETATM    8  C8  UNL     1     -34.647  17.231  -2.152  1.00 20.00     0.215 C 
HETATM    9  C6  UNL     1     -33.192  17.533  -1.829  1.00 20.00     0.042 C 
HETATM   10  C7  UNL     1     -35.483  17.076  -0.888  1.00 20.00     0.042 C 
ENDBRANCH   6   8
TORSDOF 1
ENDMDL
MODEL 5
REMARK VINA RESULT:      -3.8     11.863     12.398
REMARK  1 active torsions:
REMARK  status: ('A' for Active; 'I' for Inactive)
REMARK    1  A    between atoms: C8_8  and  N9_9 
ROOT
HETATM    1  C1  UNL     1     -32.924  14.942  -4.261  1.00 20.00     0.050 C 
HETATM    2  C2  UNL     1     -34.855  16.022  -3.079  1.00 20.00     0.050 C 
HETATM    3  C3  UNL     1     -33.924  14.313  -5.236  1.00 20.00     0.274 C 
HETATM    4  C4  UNL     1     -35.793  15.358  -4.092  1.00 20.00     0.274 C 
HETATM    5  C5  UNL     1     -33.446  16.234  -3.634  1.00 20.00     0.085 C 
HETATM    6  N9  UNL     1     -35.226  14.098  -4.591  1.00 20.00     0.092 N 
HETATM    7 CL10 UNL     1     -33.443  17.560  -4.839  1.00 20.00    -0.125 Cl
ENDROOT
BRANCH   6   8
HETATM    8  C8  UNL     1     -36.154  13.449  -5.518  1.00 20.00     0.215 C 
HETATM    9  C6  UNL     1     -35.531  13.414  -6.905  1.00 20.00     0.042 C 
HETATM   10  C7  UNL     1     -37.471  14.213  -5.511  1.00 20.00     0.042 C 
ENDBRANCH   6   8
TORSDOF 1
ENDMDL
MODEL 6
REMARK VINA RESULT:      -3.8     11.945     12.690
REMARK  1 active torsions:
REMARK  status: ('A' for Active; 'I' for Inactive)
REMARK    1  A    between atoms: C8_8  and  N9_9 
ROOT
HETATM    1  C1  UNL     1     -35.955  13.384  -5.302  1.00 20.00     0.050 C 
HETATM    2  C2  UNL     1     -34.314  13.930  -7.119  1.00 20.00     0.050 C 
HETATM    3  C3  UNL     1     -35.450  14.610  -4.534  1.00 20.00     0.274 C 
HETATM    4  C4  UNL     1     -33.862  15.137  -6.292  1.00 20.00     0.274 C 
HETATM    5  C5  UNL     1     -35.752  13.512  -6.811  1.00 20.00     0.085 C 
HETATM    6  N9  UNL     1     -34.044  14.892  -4.855  1.00 20.00     0.092 N 
HETATM    7 CL10 UNL     1     -36.907  14.696  -7.500  1.00 20.00    -0.125 Cl
ENDROOT
BRANCH   6   8
HETATM    8  C8  UNL     1     -33.561  16.032  -4.075  1.00 20.00     0.215 C 
HETATM    9  C6  UNL     1     -34.460  16.224  -2.863  1.00 20.00     0.042 C 
HETATM   10  C7  UNL     1     -33.545  17.267  -4.965  1.00 20.00     0.042 C 
ENDBRANCH   6   8
TORSDOF 1
ENDMDL
MODEL 7
REMARK VINA RESULT:      -3.6     11.651     12.473
REMARK  1 active torsions:
REMARK  status: ('A' for Active; 'I' for Inactive)
REMARK    1  A    between atoms: C8_8  and  N9_9 
ROOT
HETATM    1  C1  UNL     1     -33.332  15.128  -4.866  1.00 20.00     0.050 C 
HETATM    2  C2  UNL     1     -35.429  16.246  -5.671  1.00 20.00     0.050 C 
HETATM    3  C3  UNL     1     -33.553  15.788  -3.501  1.00 20.00     0.274 C 
HETATM    4  C4  UNL     1     -35.581  16.870  -4.280  1.00 20.00     0.274 C 
HETATM    5  C5  UNL     1     -34.634  14.940  -5.645  1.00 20.00     0.085 C 
HETATM    6  N9  UNL     1     -34.273  17.061  -3.640  1.00 20.00     0.092 N 
HETATM    7 CL10 UNL     1     -35.613  13.627  -4.920  1.00 20.00    -0.125 Cl
ENDROOT
BRANCH   6   8
HETATM    8  C8  UNL     1     -34.430  17.705  -2.335  1.00 20.00     0.215 C 
HETATM    9  C6  UNL     1     -33.063  17.850  -1.683  1.00 20.00     0.042 C 
HETATM   10  C7  UNL     1     -35.373  16.867  -1.483  1.00 20.00     0.042 C 
ENDBRANCH   6   8
TORSDOF 1
ENDMDL
MODEL 8
REMARK VINA RESULT:      -3.6     11.431     12.863
REMARK  1 active torsions:
REMARK  status: ('A' for Active; 'I' for Inactive)
REMARK    1  A    between atoms: C8_8  and  N9_9 
ROOT
HETATM    1  C1  UNL     1     -33.912  16.468  -5.443  1.00 20.00     0.050 C 
HETATM    2  C2  UNL     1     -33.727  14.256  -4.274  1.00 20.00     0.050 C 
HETATM    3  C3  UNL     1     -35.367  16.124  -5.778  1.00 20.00     0.274 C 
HETATM    4  C4  UNL     1     -35.188  13.984  -4.647  1.00 20.00     0.274 C 
HETATM    5  C5  UNL     1     -33.411  15.749  -4.190  1.00 20.00     0.085 C 
HETATM    6  N9  UNL     1     -35.554  14.672  -5.893  1.00 20.00     0.092 N 
HETATM    7 CL10 UNL     1     -34.149  16.462  -2.722  1.00 20.00    -0.125 Cl
ENDROOT
BRANCH   6   8
HETATM    8  C8  UNL     1     -36.934  14.362  -6.264  1.00 20.00     0.215 C 
HETATM    9  C6  UNL     1     -37.364  15.279  -7.399  1.00 20.00     0.042 C 
HETATM   10  C7  UNL     1     -37.823  14.529  -5.038  1.00 20.00     0.042 C 
ENDBRANCH   6   8
TORSDOF 1
ENDMDL
MODEL 9
REMARK VINA RESULT:      -3.5      1.435      2.039
REMARK  1 active torsions:
REMARK  status: ('A' for Active; 'I' for Inactive)
REMARK    1  A    between atoms: C8_8  and  N9_9 
ROOT
HETATM    1  C1  UNL     1     -34.182   6.314   5.304  1.00 20.00     0.050 C 
HETATM    2  C2  UNL     1     -33.792   4.854   3.301  1.00 20.00     0.050 C 
HETATM    3  C3  UNL     1     -33.429   7.437   4.582  1.00 20.00     0.274 C 
HETATM    4  C4  UNL     1     -33.052   6.024   2.645  1.00 20.00     0.274 C 
HETATM    5  C5  UNL     1     -34.818   5.316   4.336  1.00 20.00     0.085 C 
HETATM    6  N9  UNL     1     -32.429   6.890   3.654  1.00 20.00     0.092 N 
HETATM    7 CL10 UNL     1     -36.238   6.048   3.525  1.00 20.00    -0.125 Cl
ENDROOT
BRANCH   6   8
HETATM    8  C8  UNL     1     -31.683   7.972   3.012  1.00 20.00     0.215 C 
HETATM    9  C6  UNL     1     -31.390   9.055   4.040  1.00 20.00     0.042 C 
HETATM   10  C7  UNL     1     -32.501   8.510   1.846  1.00 20.00     0.042 C 
ENDBRANCH   6   8
TORSDOF 1
ENDMDL
