MODEL 1
REMARK VINA RESULT:      -5.3      0.000      0.000
REMARK  1 active torsions:
REMARK  status: ('A' for Active; 'I' for Inactive)
REMARK    1  A    between atoms: C6_6  and  N7_7 
ROOT
HETATM    1  C1  UNL     1     -32.294   8.458   2.168  1.00 20.00     0.158 C 
HETATM    2  N7  UNL     1     -32.140   7.693   3.044  1.00 20.00    -0.268 NA
HETATM    3  S9  UNL     1     -32.466   9.497   0.974  1.00 20.00    -0.055 SA
ENDROOT
BRANCH   2   4
HETATM    4  C6  UNL     1     -33.370   7.298   3.731  1.00 20.00     0.133 C 
HETATM    5  C3  UNL     1     -33.750   5.882   3.308  1.00 20.00     0.032 C 
HETATM    6  C2  UNL     1     -34.906   5.365   4.158  1.00 20.00     0.028 C 
HETATM    7  C4  UNL     1     -34.605   5.542   5.640  1.00 20.00     0.167 C 
HETATM    8  O8  UNL     1     -34.306   6.906   5.938  1.00 20.00    -0.389 OA
HETATM    9  C5  UNL     1     -33.151   7.368   5.238  1.00 20.00     0.195 C 
ENDBRANCH   2   4
TORSDOF 1
ENDMDL
MODEL 2
REMARK VINA RESULT:      -3.7     11.516     12.427
REMARK  1 active torsions:
REMARK  status: ('A' for Active; 'I' for Inactive)
REMARK    1  A    between atoms: C6_6  and  N7_7 
ROOT
HETATM    1  C1  UNL     1     -36.724  13.772  -5.229  1.00 20.00     0.158 C 
HETATM    2  N7  UNL     1     -35.723  13.160  -5.221  1.00 20.00    -0.268 NA
HETATM    3  S9  UNL     1     -38.101  14.571  -5.243  1.00 20.00    -0.055 SA
ENDROOT
BRANCH   2   4
HETATM    4  C6  UNL     1     -34.510  13.976  -5.188  1.00 20.00     0.133 C 
HETATM    5  C3  UNL     1     -34.446  14.834  -6.448  1.00 20.00     0.032 C 
HETATM    6  C2  UNL     1     -33.306  15.842  -6.349  1.00 20.00     0.028 C 
HETATM    7  C4  UNL     1     -33.384  16.615  -5.040  1.00 20.00     0.167 C 
HETATM    8  O8  UNL     1     -33.393  15.724  -3.924  1.00 20.00    -0.389 OA
HETATM    9  C5  UNL     1     -34.524  14.853  -3.941  1.00 20.00     0.195 C 
ENDBRANCH   2   4
TORSDOF 1
ENDMDL
MODEL 3
REMARK VINA RESULT:      -3.7     11.734     12.402
REMARK  1 active torsions:
REMARK  status: ('A' for Active; 'I' for Inactive)
REMARK    1  A    between atoms: C6_6  and  N7_7 
ROOT
HETATM    1  C1  UNL     1     -38.942  14.994  -4.975  1.00 20.00     0.158 C 
HETATM    2  N7  UNL     1     -38.161  14.120  -4.976  1.00 20.00    -0.268 NA
HETATM    3  S9  UNL     1     -40.030  16.157  -4.970  1.00 20.00    -0.055 SA
ENDROOT
BRANCH   2   4
HETATM    4  C6  UNL     1     -36.772  14.543  -5.148  1.00 20.00     0.133 C 
HETATM    5  C3  UNL     1     -36.345  15.373  -3.940  1.00 20.00     0.032 C 
HETATM    6  C2  UNL     1     -34.848  15.655  -3.991  1.00 20.00     0.028 C 
HETATM    7  C4  UNL     1     -34.064  14.367  -4.204  1.00 20.00     0.167 C 
HETATM    8  O8  UNL     1     -34.509  13.691  -5.380  1.00 20.00    -0.389 OA
HETATM    9  C5  UNL     1     -35.883  13.313  -5.296  1.00 20.00     0.195 C 
ENDBRANCH   2   4
TORSDOF 1
ENDMDL
MODEL 4
REMARK VINA RESULT:      -3.6     11.383     12.012
REMARK  1 active torsions:
REMARK  status: ('A' for Active; 'I' for Inactive)
REMARK    1  A    between atoms: C6_6  and  N7_7 
ROOT
HETATM    1  C1  UNL     1     -35.560  13.331  -6.399  1.00 20.00     0.158 C 
HETATM    2  N7  UNL     1     -35.519  12.950  -5.291  1.00 20.00    -0.268 NA
HETATM    3  S9  UNL     1     -35.623  13.815  -7.915  1.00 20.00    -0.055 SA
ENDROOT
BRANCH   2   4
HETATM    4  C6  UNL     1     -35.196  13.980  -4.303  1.00 20.00     0.133 C 
HETATM    5  C3  UNL     1     -33.820  14.562  -4.615  1.00 20.00     0.032 C 
HETATM    6  C2  UNL     1     -33.543  15.774  -3.732  1.00 20.00     0.028 C 
HETATM    7  C4  UNL     1     -34.698  16.764  -3.799  1.00 20.00     0.167 C 
HETATM    8  O8  UNL     1     -35.929  16.131  -3.448  1.00 20.00    -0.389 OA
HETATM    9  C5  UNL     1     -36.262  15.069  -4.341  1.00 20.00     0.195 C 
ENDBRANCH   2   4
TORSDOF 1
ENDMDL
MODEL 5
REMARK VINA RESULT:      -3.6     11.770     12.674
REMARK  1 active torsions:
REMARK  status: ('A' for Active; 'I' for Inactive)
REMARK    1  A    between atoms: C6_6  and  N7_7 
ROOT
HETATM    1  C1  UNL     1     -37.864  15.110  -4.608  1.00 20.00     0.158 C 
HETATM    2  N7  UNL     1     -37.746  13.968  -4.845  1.00 20.00    -0.268 NA
HETATM    3  S9  UNL     1     -38.058  16.655  -4.273  1.00 20.00    -0.055 SA
ENDROOT
BRANCH   2   4
HETATM    4  C6  UNL     1     -36.486  13.606  -5.494  1.00 20.00     0.133 C 
HETATM    5  C3  UNL     1     -36.461  14.191  -6.903  1.00 20.00     0.032 C 
HETATM    6  C2  UNL     1     -35.082  14.009  -7.530  1.00 20.00     0.028 C 
HETATM    7  C4  UNL     1     -33.994  14.519  -6.594  1.00 20.00     0.167 C 
HETATM    8  O8  UNL     1     -34.079  13.878  -5.321  1.00 20.00    -0.389 OA
HETATM    9  C5  UNL     1     -35.321  14.141  -4.669  1.00 20.00     0.195 C 
ENDBRANCH   2   4
TORSDOF 1
ENDMDL
MODEL 6
REMARK VINA RESULT:      -3.5     11.486     11.838
REMARK  1 active torsions:
REMARK  status: ('A' for Active; 'I' for Inactive)
REMARK    1  A    between atoms: C6_6  and  N7_7 
ROOT
HETATM    1  C1  UNL     1     -34.505  16.476  -2.534  1.00 20.00     0.158 C 
HETATM    2  N7  UNL     1     -33.908  16.054  -3.451  1.00 20.00    -0.268 NA
HETATM    3  S9  UNL     1     -35.291  17.075  -1.286  1.00 20.00    -0.055 SA
ENDROOT
BRANCH   2   4
HETATM    4  C6  UNL     1     -34.473  14.841  -4.041  1.00 20.00     0.133 C 
HETATM    5  C3  UNL     1     -35.948  15.074  -4.354  1.00 20.00     0.032 C 
HETATM    6  C2  UNL     1     -36.514  13.906  -5.155  1.00 20.00     0.028 C 
HETATM    7  C4  UNL     1     -35.633  13.605  -6.361  1.00 20.00     0.167 C 
HETATM    8  O8  UNL     1     -34.286  13.359  -5.957  1.00 20.00    -0.389 OA
HETATM    9  C5  UNL     1     -33.704  14.491  -5.310  1.00 20.00     0.195 C 
ENDBRANCH   2   4
TORSDOF 1
ENDMDL
MODEL 7
REMARK VINA RESULT:      -3.4     11.377     12.334
REMARK  1 active torsions:
REMARK  status: ('A' for Active; 'I' for Inactive)
REMARK    1  A    between atoms: C6_6  and  N7_7 
ROOT
HETATM    1  C1  UNL     1     -34.328  16.427  -2.683  1.00 20.00     0.158 C 
HETATM    2  N7  UNL     1     -33.629  16.004  -3.524  1.00 20.00    -0.268 NA
HETATM    3  S9  UNL     1     -35.247  17.008  -1.520  1.00 20.00    -0.055 SA
ENDROOT
BRANCH   2   4
HETATM    4  C6  UNL     1     -34.330  15.533  -4.719  1.00 20.00     0.133 C 
HETATM    5  C3  UNL     1     -33.442  15.750  -5.941  1.00 20.00     0.032 C 
HETATM    6  C2  UNL     1     -34.055  15.085  -7.169  1.00 20.00     0.028 C 
HETATM    7  C4  UNL     1     -34.411  13.634  -6.874  1.00 20.00     0.167 C 
HETATM    8  O8  UNL     1     -35.278  13.544  -5.743  1.00 20.00    -0.389 OA
HETATM    9  C5  UNL     1     -34.669  14.055  -4.556  1.00 20.00     0.195 C 
ENDBRANCH   2   4
TORSDOF 1
ENDMDL
MODEL 8
REMARK VINA RESULT:      -3.4     11.464     12.510
REMARK  1 active torsions:
REMARK  status: ('A' for Active; 'I' for Inactive)
REMARK    1  A    between atoms: C6_6  and  N7_7 
ROOT
HETATM    1  C1  UNL     1     -35.630  15.869  -3.687  1.00 20.00     0.158 C 
HETATM    2  N7  UNL     1     -36.669  15.474  -4.057  1.00 20.00    -0.268 NA
HETATM    3  S9  UNL     1     -34.234  16.426  -3.158  1.00 20.00    -0.055 SA
ENDROOT
BRANCH   2   4
HETATM    4  C6  UNL     1     -36.606  14.582  -5.215  1.00 20.00     0.133 C 
HETATM    5  C3  UNL     1     -36.187  15.383  -6.444  1.00 20.00     0.032 C 
HETATM    6  C2  UNL     1     -35.912  14.451  -7.619  1.00 20.00     0.028 C 
HETATM    7  C4  UNL     1     -34.955  13.338  -7.211  1.00 20.00     0.167 C 
HETATM    8  O8  UNL     1     -35.460  12.624  -6.082  1.00 20.00    -0.389 OA
HETATM    9  C5  UNL     1     -35.608  13.463  -4.937  1.00 20.00     0.195 C 
ENDBRANCH   2   4
TORSDOF 1
ENDMDL
MODEL 9
REMARK VINA RESULT:      -3.4     11.559     12.537
REMARK  1 active torsions:
REMARK  status: ('A' for Active; 'I' for Inactive)
REMARK    1  A    between atoms: C6_6  and  N7_7 
ROOT
HETATM    1  C1  UNL     1     -34.333  14.562  -4.144  1.00 20.00     0.158 C 
HETATM    2  N7  UNL     1     -34.835  13.524  -4.357  1.00 20.00    -0.268 NA
HETATM    3  S9  UNL     1     -33.628  15.955  -3.832  1.00 20.00    -0.055 SA
ENDROOT
BRANCH   2   4
HETATM    4  C6  UNL     1     -35.964  13.572  -5.286  1.00 20.00     0.133 C 
HETATM    5  C3  UNL     1     -37.007  14.553  -4.760  1.00 20.00     0.032 C 
HETATM    6  C2  UNL     1     -38.098  14.780  -5.802  1.00 20.00     0.028 C 
HETATM    7  C4  UNL     1     -37.487  15.141  -7.150  1.00 20.00     0.167 C 
HETATM    8  O8  UNL     1     -36.561  14.139  -7.571  1.00 20.00    -0.389 OA
HETATM    9  C5  UNL     1     -35.468  14.000  -6.662  1.00 20.00     0.195 C 
ENDBRANCH   2   4
TORSDOF 1
ENDMDL
