MODEL 1
REMARK VINA RESULT:      -4.4      0.000      0.000
REMARK  1 active torsions:
REMARK  status: ('A' for Active; 'I' for Inactive)
REMARK    1  A    between atoms: C3_3  and  N9_9 
ROOT
HETATM    1  C4  UNL     1     -31.104   8.785   1.948  1.00 20.00     0.041 C 
HETATM    2  C5  UNL     1     -31.634   8.263   3.284  1.00 20.00     0.126 C 
HETATM    3  C6  UNL     1     -33.253   7.820   1.536  1.00 20.00     0.145 C 
HETATM    4  C7  UNL     1     -32.358   8.983   1.105  1.00 20.00     0.102 C 
HETATM    5  N9  UNL     1     -32.869   7.568   2.925  1.00 20.00    -0.358 N 
HETATM    6 CL11 UNL     1     -33.133  10.549   1.488  1.00 20.00    -0.123 Cl
ENDROOT
BRANCH   5   7
HETATM    7  C3  UNL     1     -33.571   6.753   3.786  1.00 20.00     0.168 A 
HETATM    8  N8  UNL     1     -34.166   5.637   3.430  1.00 20.00    -0.236 NA
HETATM    9  C1  UNL     1     -34.773   5.079   4.539  1.00 20.00     0.126 A 
HETATM   10  C2  UNL     1     -34.630   5.778   5.718  1.00 20.00     0.072 A 
HETATM   11  S10 UNL     1     -33.698   7.192   5.441  1.00 20.00    -0.063 SA
ENDBRANCH   5   7
TORSDOF 1
ENDMDL
MODEL 2
REMARK VINA RESULT:      -3.9     11.032     11.297
REMARK  1 active torsions:
REMARK  status: ('A' for Active; 'I' for Inactive)
REMARK    1  A    between atoms: C3_3  and  N9_9 
ROOT
HETATM    1  C4  UNL     1     -34.388  17.243  -1.220  1.00 20.00     0.041 C 
HETATM    2  C5  UNL     1     -35.542  16.641  -2.022  1.00 20.00     0.126 C 
HETATM    3  C6  UNL     1     -33.461  16.310  -3.218  1.00 20.00     0.145 C 
HETATM    4  C7  UNL     1     -33.306  17.495  -2.263  1.00 20.00     0.102 C 
HETATM    5  N9  UNL     1     -34.883  15.972  -3.142  1.00 20.00    -0.358 N 
HETATM    6 CL11 UNL     1     -33.606  19.036  -3.120  1.00 20.00    -0.123 Cl
ENDROOT
BRANCH   5   7
HETATM    7  C3  UNL     1     -35.521  15.108  -4.005  1.00 20.00     0.168 A 
HETATM    8  N8  UNL     1     -34.995  13.991  -4.457  1.00 20.00    -0.236 NA
HETATM    9  C1  UNL     1     -35.904  13.377  -5.298  1.00 20.00     0.126 A 
HETATM   10  C2  UNL     1     -37.103  14.035  -5.471  1.00 20.00     0.072 A 
HETATM   11  S10 UNL     1     -37.106  15.481  -4.548  1.00 20.00    -0.063 SA
ENDBRANCH   5   7
TORSDOF 1
ENDMDL
MODEL 3
REMARK VINA RESULT:      -3.9      2.672      4.627
REMARK  1 active torsions:
REMARK  status: ('A' for Active; 'I' for Inactive)
REMARK    1  A    between atoms: C3_3  and  N9_9 
ROOT
HETATM    1  C4  UNL     1     -34.534   6.222   5.814  1.00 20.00     0.041 C 
HETATM    2  C5  UNL     1     -33.361   6.977   5.188  1.00 20.00     0.126 C 
HETATM    3  C6  UNL     1     -34.787   6.093   3.439  1.00 20.00     0.145 C 
HETATM    4  C7  UNL     1     -34.991   5.272   4.714  1.00 20.00     0.102 C 
HETATM    5  N9  UNL     1     -33.665   6.976   3.758  1.00 20.00    -0.358 N 
HETATM    6 CL11 UNL     1     -33.970   3.804   4.686  1.00 20.00    -0.123 Cl
ENDROOT
BRANCH   5   7
HETATM    7  C3  UNL     1     -32.990   7.737   2.827  1.00 20.00     0.168 A 
HETATM    8  N8  UNL     1     -33.483   8.090   1.662  1.00 20.00    -0.236 NA
HETATM    9  C1  UNL     1     -32.540   8.842   0.986  1.00 20.00     0.126 A 
HETATM   10  C2  UNL     1     -31.348   9.047   1.648  1.00 20.00     0.072 A 
HETATM   11  S10 UNL     1     -31.398   8.274   3.179  1.00 20.00    -0.063 SA
ENDBRANCH   5   7
TORSDOF 1
ENDMDL
MODEL 4
REMARK VINA RESULT:      -3.8     11.377     11.944
REMARK  1 active torsions:
REMARK  status: ('A' for Active; 'I' for Inactive)
REMARK    1  A    between atoms: C3_3  and  N9_9 
ROOT
HETATM    1  C4  UNL     1     -35.161  16.488  -2.360  1.00 20.00     0.041 C 
HETATM    2  C5  UNL     1     -35.887  16.091  -3.646  1.00 20.00     0.126 C 
HETATM    3  C6  UNL     1     -33.521  15.614  -3.865  1.00 20.00     0.145 C 
HETATM    4  C7  UNL     1     -33.717  16.695  -2.799  1.00 20.00     0.102 C 
HETATM    5  N9  UNL     1     -34.852  15.440  -4.447  1.00 20.00    -0.358 N 
HETATM    6 CL11 UNL     1     -33.500  18.323  -3.507  1.00 20.00    -0.123 Cl
ENDROOT
BRANCH   5   7
HETATM    7  C3  UNL     1     -35.105  14.727  -5.599  1.00 20.00     0.168 A 
HETATM    8  N8  UNL     1     -34.381  13.712  -6.016  1.00 20.00    -0.236 NA
HETATM    9  C1  UNL     1     -34.915  13.237  -7.199  1.00 20.00     0.126 A 
HETATM   10  C2  UNL     1     -36.034  13.897  -7.661  1.00 20.00     0.072 A 
HETATM   11  S10 UNL     1     -36.445  15.164  -6.579  1.00 20.00    -0.063 SA
ENDBRANCH   5   7
TORSDOF 1
ENDMDL
MODEL 5
REMARK VINA RESULT:      -3.8     10.883     11.431
REMARK  1 active torsions:
REMARK  status: ('A' for Active; 'I' for Inactive)
REMARK    1  A    between atoms: C3_3  and  N9_9 
ROOT
HETATM    1  C4  UNL     1     -33.169  15.794  -5.815  1.00 20.00     0.041 C 
HETATM    2  C5  UNL     1     -33.527  16.894  -4.814  1.00 20.00     0.126 C 
HETATM    3  C6  UNL     1     -34.341  14.760  -4.005  1.00 20.00     0.145 C 
HETATM    4  C7  UNL     1     -34.176  14.689  -5.524  1.00 20.00     0.102 C 
HETATM    5  N9  UNL     1     -34.104  16.168  -3.685  1.00 20.00    -0.358 N 
HETATM    6 CL11 UNL     1     -35.731  15.022  -6.342  1.00 20.00    -0.123 Cl
ENDROOT
BRANCH   5   7
HETATM    7  C3  UNL     1     -34.369  16.737  -2.458  1.00 20.00     0.168 A 
HETATM    8  N8  UNL     1     -35.492  16.579  -1.795  1.00 20.00    -0.236 NA
HETATM    9  C1  UNL     1     -35.417  17.289  -0.611  1.00 20.00     0.126 A 
HETATM   10  C2  UNL     1     -34.240  17.974  -0.394  1.00 20.00     0.072 A 
HETATM   11  S10 UNL     1     -33.177  17.726  -1.717  1.00 20.00    -0.063 SA
ENDBRANCH   5   7
TORSDOF 1
ENDMDL
MODEL 6
REMARK VINA RESULT:      -3.7     10.968     11.359
REMARK  1 active torsions:
REMARK  status: ('A' for Active; 'I' for Inactive)
REMARK    1  A    between atoms: C3_3  and  N9_9 
ROOT
HETATM    1  C4  UNL     1     -33.904  17.972  -1.836  1.00 20.00     0.041 C 
HETATM    2  C5  UNL     1     -33.948  16.596  -2.500  1.00 20.00     0.126 C 
HETATM    3  C6  UNL     1     -36.179  17.538  -2.431  1.00 20.00     0.145 C 
HETATM    4  C7  UNL     1     -35.328  18.188  -1.338  1.00 20.00     0.102 C 
HETATM    5  N9  UNL     1     -35.330  16.470  -2.959  1.00 20.00    -0.358 N 
HETATM    6 CL11 UNL     1     -35.580  17.363   0.229  1.00 20.00    -0.123 Cl
ENDROOT
BRANCH   5   7
HETATM    7  C3  UNL     1     -35.772  15.479  -3.808  1.00 20.00     0.168 A 
HETATM    8  N8  UNL     1     -37.011  15.364  -4.232  1.00 20.00    -0.236 NA
HETATM    9  C1  UNL     1     -37.100  14.263  -5.062  1.00 20.00     0.126 A 
HETATM   10  C2  UNL     1     -35.930  13.559  -5.255  1.00 20.00     0.072 A 
HETATM   11  S10 UNL     1     -34.660  14.297  -4.368  1.00 20.00    -0.063 SA
ENDBRANCH   5   7
TORSDOF 1
ENDMDL
MODEL 7
REMARK VINA RESULT:      -3.7     11.013     11.637
REMARK  1 active torsions:
REMARK  status: ('A' for Active; 'I' for Inactive)
REMARK    1  A    between atoms: C3_3  and  N9_9 
ROOT
HETATM    1  C4  UNL     1     -35.677  16.492  -3.110  1.00 20.00     0.041 C 
HETATM    2  C5  UNL     1     -35.161  16.673  -1.682  1.00 20.00     0.126 C 
HETATM    3  C6  UNL     1     -33.545  17.565  -3.251  1.00 20.00     0.145 C 
HETATM    4  C7  UNL     1     -34.417  16.531  -3.965  1.00 20.00     0.102 C 
HETATM    5  N9  UNL     1     -33.938  17.455  -1.846  1.00 20.00    -0.358 N 
HETATM    6 CL11 UNL     1     -33.615  14.933  -3.979  1.00 20.00    -0.123 Cl
ENDROOT
BRANCH   5   7
HETATM    7  C3  UNL     1     -33.254  18.041  -0.803  1.00 20.00     0.168 A 
HETATM    8  N8  UNL     1     -31.964  18.294  -0.812  1.00 20.00    -0.236 NA
HETATM    9  C1  UNL     1     -31.613  18.879   0.390  1.00 20.00     0.126 A 
HETATM   10  C2  UNL     1     -32.640  19.060   1.292  1.00 20.00     0.072 A 
HETATM   11  S10 UNL     1     -34.108  18.481   0.620  1.00 20.00    -0.063 SA
ENDBRANCH   5   7
TORSDOF 1
ENDMDL
MODEL 8
REMARK VINA RESULT:      -3.6     11.051     12.100
REMARK  1 active torsions:
REMARK  status: ('A' for Active; 'I' for Inactive)
REMARK    1  A    between atoms: C3_3  and  N9_9 
ROOT
HETATM    1  C4  UNL     1     -35.887  13.419  -5.321  1.00 20.00     0.041 C 
HETATM    2  C5  UNL     1     -34.923  14.050  -4.316  1.00 20.00     0.126 C 
HETATM    3  C6  UNL     1     -35.492  15.670  -6.026  1.00 20.00     0.145 C 
HETATM    4  C7  UNL     1     -35.712  14.260  -6.579  1.00 20.00     0.102 C 
HETATM    5  N9  UNL     1     -34.848  15.450  -4.731  1.00 20.00    -0.358 N 
HETATM    6 CL11 UNL     1     -34.281  13.718  -7.505  1.00 20.00    -0.123 Cl
ENDROOT
BRANCH   5   7
HETATM    7  C3  UNL     1     -34.264  16.445  -3.978  1.00 20.00     0.168 A 
HETATM    8  N8  UNL     1     -34.059  16.370  -2.682  1.00 20.00    -0.236 NA
HETATM    9  C1  UNL     1     -33.460  17.540  -2.255  1.00 20.00     0.126 A 
HETATM   10  C2  UNL     1     -33.221  18.484  -3.231  1.00 20.00     0.072 A 
HETATM   11  S10 UNL     1     -33.761  17.895  -4.748  1.00 20.00    -0.063 SA
ENDBRANCH   5   7
TORSDOF 1
ENDMDL
MODEL 9
REMARK VINA RESULT:      -3.6     11.188     11.753
REMARK  1 active torsions:
REMARK  status: ('A' for Active; 'I' for Inactive)
REMARK    1  A    between atoms: C3_3  and  N9_9 
ROOT
HETATM    1  C4  UNL     1     -33.794  15.919  -3.264  1.00 20.00     0.041 C 
HETATM    2  C5  UNL     1     -35.190  16.472  -3.554  1.00 20.00     0.126 C 
HETATM    3  C6  UNL     1     -34.950  14.287  -4.575  1.00 20.00     0.145 C 
HETATM    4  C7  UNL     1     -33.562  14.900  -4.372  1.00 20.00     0.102 C 
HETATM    5  N9  UNL     1     -35.872  15.368  -4.227  1.00 20.00    -0.358 N 
HETATM    6 CL11 UNL     1     -33.007  15.709  -5.867  1.00 20.00    -0.123 Cl
ENDROOT
BRANCH   5   7
HETATM    7  C3  UNL     1     -37.227  15.339  -4.477  1.00 20.00     0.168 A 
HETATM    8  N8  UNL     1     -37.885  14.272  -4.871  1.00 20.00    -0.236 NA
HETATM    9  C1  UNL     1     -39.219  14.601  -5.028  1.00 20.00     0.126 A 
HETATM   10  C2  UNL     1     -39.552  15.910  -4.751  1.00 20.00     0.072 A 
HETATM   11  S10 UNL     1     -38.149  16.773  -4.273  1.00 20.00    -0.063 SA
ENDBRANCH   5   7
TORSDOF 1
ENDMDL
