MODEL 1
REMARK VINA RESULT:      -5.2      0.000      0.000
REMARK  2 active torsions:
REMARK  status: ('A' for Active; 'I' for Inactive)
REMARK    1  A    between atoms: C6_6  and  C7_7 
REMARK    2  A    between atoms: C6_6  and  N8_8 
ROOT
HETATM    1  C1  UNL     1     -34.646   5.699   3.228  1.00 20.00     0.050 C 
HETATM    2  C2  UNL     1     -34.108   7.388   5.014  1.00 20.00     0.050 C 
HETATM    3  C3  UNL     1     -33.187   5.789   2.766  1.00 20.00     0.274 C 
HETATM    4  C4  UNL     1     -32.668   7.419   4.488  1.00 20.00     0.274 C 
HETATM    5  C5  UNL     1     -34.817   6.069   4.703  1.00 20.00     0.085 C 
HETATM    6  N8  UNL     1     -32.540   7.073   3.067  1.00 20.00     0.093 N 
HETATM    7 CL11 UNL     1     -34.184   4.760   5.751  1.00 20.00    -0.125 Cl
ENDROOT
BRANCH   6   8
HETATM    8  C6  UNL     1     -33.004   8.146   2.192  1.00 20.00     0.343 C 
BRANCH   8   9
HETATM    9  C7  UNL     1     -31.847   9.025   1.766  1.00 20.00     0.381 C 
HETATM   10  F9  UNL     1     -32.315  10.164   1.198  1.00 20.00    -0.213 F 
HETATM   11  F10 UNL     1     -31.130   8.383   0.807  1.00 20.00    -0.213 F 
ENDBRANCH   8   9
ENDBRANCH   6   8
TORSDOF 2
ENDMDL
MODEL 2
REMARK VINA RESULT:      -4.1     10.856     11.793
REMARK  2 active torsions:
REMARK  status: ('A' for Active; 'I' for Inactive)
REMARK    1  A    between atoms: C6_6  and  C7_7 
REMARK    2  A    between atoms: C6_6  and  N8_8 
ROOT
HETATM    1  C1  UNL     1     -35.533  15.823  -6.254  1.00 20.00     0.050 C 
HETATM    2  C2  UNL     1     -35.673  13.634  -5.022  1.00 20.00     0.050 C 
HETATM    3  C3  UNL     1     -34.386  16.225  -5.319  1.00 20.00     0.274 C 
HETATM    4  C4  UNL     1     -34.522  14.112  -4.131  1.00 20.00     0.274 C 
HETATM    5  C5  UNL     1     -35.670  14.306  -6.396  1.00 20.00     0.085 C 
HETATM    6  N8  UNL     1     -34.426  15.572  -4.004  1.00 20.00     0.093 N 
HETATM    7 CL11 UNL     1     -34.339  13.653  -7.405  1.00 20.00    -0.125 Cl
ENDROOT
BRANCH   6   8
HETATM    8  C6  UNL     1     -35.472  16.122  -3.145  1.00 20.00     0.343 C 
BRANCH   8   9
HETATM    9  C7  UNL     1     -34.865  16.945  -2.027  1.00 20.00     0.381 C 
HETATM   10  F9  UNL     1     -33.546  16.655  -1.902  1.00 20.00    -0.213 F 
HETATM   11  F10 UNL     1     -35.449  16.597  -0.852  1.00 20.00    -0.213 F 
ENDBRANCH   8   9
ENDBRANCH   6   8
TORSDOF 2
ENDMDL
MODEL 3
REMARK VINA RESULT:      -4.0     11.332     11.931
REMARK  2 active torsions:
REMARK  status: ('A' for Active; 'I' for Inactive)
REMARK    1  A    between atoms: C6_6  and  C7_7 
REMARK    2  A    between atoms: C6_6  and  N8_8 
ROOT
HETATM    1  C1  UNL     1     -35.790  13.574  -5.060  1.00 20.00     0.050 C 
HETATM    2  C2  UNL     1     -34.090  14.847  -6.408  1.00 20.00     0.050 C 
HETATM    3  C3  UNL     1     -36.292  14.914  -4.510  1.00 20.00     0.274 C 
HETATM    4  C4  UNL     1     -34.651  16.142  -5.810  1.00 20.00     0.274 C 
HETATM    5  C5  UNL     1     -35.119  13.716  -6.428  1.00 20.00     0.085 C 
HETATM    6  N8  UNL     1     -35.276  15.974  -4.492  1.00 20.00     0.093 N 
HETATM    7 CL11 UNL     1     -36.349  14.016  -7.697  1.00 20.00    -0.125 Cl
ENDROOT
BRANCH   6   8
HETATM    8  C6  UNL     1     -34.290  15.777  -3.433  1.00 20.00     0.343 C 
BRANCH   8   9
HETATM    9  C7  UNL     1     -34.466  16.813  -2.342  1.00 20.00     0.381 C 
HETATM   10  F9  UNL     1     -33.316  16.939  -1.634  1.00 20.00    -0.213 F 
HETATM   11  F10 UNL     1     -35.411  16.381  -1.468  1.00 20.00    -0.213 F 
ENDBRANCH   8   9
ENDBRANCH   6   8
TORSDOF 2
ENDMDL
MODEL 4
REMARK VINA RESULT:      -3.9     11.130     12.156
REMARK  2 active torsions:
REMARK  status: ('A' for Active; 'I' for Inactive)
REMARK    1  A    between atoms: C6_6  and  C7_7 
REMARK    2  A    between atoms: C6_6  and  N8_8 
ROOT
HETATM    1  C1  UNL     1     -35.420  15.808  -3.542  1.00 20.00     0.050 C 
HETATM    2  C2  UNL     1     -33.992  17.335  -4.942  1.00 20.00     0.050 C 
HETATM    3  C3  UNL     1     -34.668  14.620  -4.151  1.00 20.00     0.274 C 
HETATM    4  C4  UNL     1     -33.290  16.093  -5.502  1.00 20.00     0.274 C 
HETATM    5  C5  UNL     1     -34.593  17.095  -3.556  1.00 20.00     0.085 C 
HETATM    6  N8  UNL     1     -34.116  14.878  -5.487  1.00 20.00     0.093 N 
HETATM    7 CL11 UNL     1     -33.295  17.014  -2.321  1.00 20.00    -0.125 Cl
ENDROOT
BRANCH   6   8
HETATM    8  C6  UNL     1     -35.150  14.900  -6.518  1.00 20.00     0.343 C 
BRANCH   8   9
HETATM    9  C7  UNL     1     -34.974  13.739  -7.474  1.00 20.00     0.381 C 
HETATM   10  F9  UNL     1     -35.172  12.567  -6.821  1.00 20.00    -0.213 F 
HETATM   11  F10 UNL     1     -33.690  13.719  -7.918  1.00 20.00    -0.213 F 
ENDBRANCH   8   9
ENDBRANCH   6   8
TORSDOF 2
ENDMDL
MODEL 5
REMARK VINA RESULT:      -3.9     10.958     11.889
REMARK  2 active torsions:
REMARK  status: ('A' for Active; 'I' for Inactive)
REMARK    1  A    between atoms: C6_6  and  C7_7 
REMARK    2  A    between atoms: C6_6  and  N8_8 
ROOT
HETATM    1  C1  UNL     1     -35.669  17.003  -4.317  1.00 20.00     0.050 C 
HETATM    2  C2  UNL     1     -33.610  15.586  -4.025  1.00 20.00     0.050 C 
HETATM    3  C3  UNL     1     -36.485  15.712  -4.445  1.00 20.00     0.274 C 
HETATM    4  C4  UNL     1     -34.499  14.345  -4.164  1.00 20.00     0.274 C 
HETATM    5  C5  UNL     1     -34.381  16.805  -3.515  1.00 20.00     0.085 C 
HETATM    6  N8  UNL     1     -35.719  14.564  -4.950  1.00 20.00     0.093 N 
HETATM    7 CL11 UNL     1     -34.755  16.620  -1.771  1.00 20.00    -0.125 Cl
ENDROOT
BRANCH   6   8
HETATM    8  C6  UNL     1     -35.445  14.669  -6.381  1.00 20.00     0.343 C 
BRANCH   8   9
HETATM    9  C7  UNL     1     -34.508  13.565  -6.826  1.00 20.00     0.381 C 
HETATM   10  F9  UNL     1     -33.809  13.963  -7.918  1.00 20.00    -0.213 F 
HETATM   11  F10 UNL     1     -35.241  12.488  -7.209  1.00 20.00    -0.213 F 
ENDBRANCH   8   9
ENDBRANCH   6   8
TORSDOF 2
ENDMDL
MODEL 6
REMARK VINA RESULT:      -3.7      3.641      4.710
REMARK  2 active torsions:
REMARK  status: ('A' for Active; 'I' for Inactive)
REMARK    1  A    between atoms: C6_6  and  C7_7 
REMARK    2  A    between atoms: C6_6  and  N8_8 
ROOT
HETATM    1  C1  UNL     1     -31.971   9.362   2.920  1.00 20.00     0.050 C 
HETATM    2  C2  UNL     1     -33.492   7.915   1.534  1.00 20.00     0.050 C 
HETATM    3  C3  UNL     1     -31.519   8.099   3.662  1.00 20.00     0.274 C 
HETATM    4  C4  UNL     1     -32.987   6.703   2.325  1.00 20.00     0.274 C 
HETATM    5  C5  UNL     1     -32.481   9.062   1.509  1.00 20.00     0.085 C 
HETATM    6  N8  UNL     1     -32.518   7.023   3.680  1.00 20.00     0.093 N 
HETATM    7 CL11 UNL     1     -31.111   8.660   0.424  1.00 20.00    -0.125 Cl
ENDROOT
BRANCH   6   8
HETATM    8  C6  UNL     1     -33.620   7.305   4.594  1.00 20.00     0.343 C 
BRANCH   8   9
HETATM    9  C7  UNL     1     -34.321   6.024   4.997  1.00 20.00     0.381 C 
HETATM   10  F9  UNL     1     -35.494   5.907   4.326  1.00 20.00    -0.213 F 
HETATM   11  F10 UNL     1     -34.637   6.086   6.316  1.00 20.00    -0.213 F 
ENDBRANCH   8   9
ENDBRANCH   6   8
TORSDOF 2
ENDMDL
MODEL 7
REMARK VINA RESULT:      -3.7      3.801      4.637
REMARK  2 active torsions:
REMARK  status: ('A' for Active; 'I' for Inactive)
REMARK    1  A    between atoms: C6_6  and  C7_7 
REMARK    2  A    between atoms: C6_6  and  N8_8 
ROOT
HETATM    1  C1  UNL     1     -33.095   6.570   2.344  1.00 20.00     0.050 C 
HETATM    2  C2  UNL     1     -31.739   7.970   3.935  1.00 20.00     0.050 C 
HETATM    3  C3  UNL     1     -34.324   6.846   3.218  1.00 20.00     0.274 C 
HETATM    4  C4  UNL     1     -33.015   8.197   4.753  1.00 20.00     0.274 C 
HETATM    5  C5  UNL     1     -32.031   7.663   2.465  1.00 20.00     0.085 C 
HETATM    6  N8  UNL     1     -34.009   7.124   4.626  1.00 20.00     0.093 N 
HETATM    7 CL11 UNL     1     -32.565   9.148   1.613  1.00 20.00    -0.125 Cl
ENDROOT
BRANCH   6   8
HETATM    8  C6  UNL     1     -33.619   5.920   5.354  1.00 20.00     0.343 C 
BRANCH   8   9
HETATM    9  C7  UNL     1     -34.615   4.804   5.111  1.00 20.00     0.381 C 
HETATM   10  F9  UNL     1     -35.134   4.383   6.291  1.00 20.00    -0.213 F 
HETATM   11  F10 UNL     1     -33.967   3.739   4.573  1.00 20.00    -0.213 F 
ENDBRANCH   8   9
ENDBRANCH   6   8
TORSDOF 2
ENDMDL
MODEL 8
REMARK VINA RESULT:      -3.6     11.454     11.968
REMARK  2 active torsions:
REMARK  status: ('A' for Active; 'I' for Inactive)
REMARK    1  A    between atoms: C6_6  and  C7_7 
REMARK    2  A    between atoms: C6_6  and  N8_8 
ROOT
HETATM    1  C1  UNL     1     -33.807  15.865  -3.556  1.00 20.00     0.050 C 
HETATM    2  C2  UNL     1     -35.390  16.887  -1.888  1.00 20.00     0.050 C 
HETATM    3  C3  UNL     1     -34.726  16.375  -4.673  1.00 20.00     0.274 C 
HETATM    4  C4  UNL     1     -36.252  17.361  -3.063  1.00 20.00     0.274 C 
HETATM    5  C5  UNL     1     -33.923  16.697  -2.277  1.00 20.00     0.085 C 
HETATM    6  N8  UNL     1     -36.130  16.534  -4.271  1.00 20.00     0.093 N 
HETATM    7 CL11 UNL     1     -33.124  18.287  -2.495  1.00 20.00    -0.125 Cl
ENDROOT
BRANCH   6   8
HETATM    8  C6  UNL     1     -36.815  15.252  -4.135  1.00 20.00     0.343 C 
BRANCH   8   9
HETATM    9  C7  UNL     1     -36.495  14.350  -5.309  1.00 20.00     0.381 C 
HETATM   10  F9  UNL     1     -37.642  13.960  -5.919  1.00 20.00    -0.213 F 
HETATM   11  F10 UNL     1     -35.899  13.219  -4.852  1.00 20.00    -0.213 F 
ENDBRANCH   8   9
ENDBRANCH   6   8
TORSDOF 2
ENDMDL
MODEL 9
REMARK VINA RESULT:      -3.6      1.128      1.845
REMARK  2 active torsions:
REMARK  status: ('A' for Active; 'I' for Inactive)
REMARK    1  A    between atoms: C6_6  and  C7_7 
REMARK    2  A    between atoms: C6_6  and  N8_8 
ROOT
HETATM    1  C1  UNL     1     -33.513   6.579   5.149  1.00 20.00     0.050 C 
HETATM    2  C2  UNL     1     -33.159   5.072   3.165  1.00 20.00     0.050 C 
HETATM    3  C3  UNL     1     -33.985   7.669   4.180  1.00 20.00     0.274 C 
HETATM    4  C4  UNL     1     -33.643   6.215   2.267  1.00 20.00     0.274 C 
HETATM    5  C5  UNL     1     -33.713   5.170   4.588  1.00 20.00     0.085 C 
HETATM    6  N8  UNL     1     -33.424   7.555   2.827  1.00 20.00     0.093 N 
HETATM    7 CL11 UNL     1     -35.452   4.732   4.610  1.00 20.00    -0.125 Cl
ENDROOT
BRANCH   6   8
HETATM    8  C6  UNL     1     -32.021   7.954   2.775  1.00 20.00     0.343 C 
BRANCH   8   9
HETATM    9  C7  UNL     1     -31.800   8.984   1.686  1.00 20.00     0.381 C 
HETATM   10  F9  UNL     1     -32.990   9.360   1.157  1.00 20.00    -0.213 F 
HETATM   11  F10 UNL     1     -31.091   8.417   0.675  1.00 20.00    -0.213 F 
ENDBRANCH   8   9
ENDBRANCH   6   8
TORSDOF 2
ENDMDL
