MODEL 1
REMARK VINA RESULT:      -5.0      0.000      0.000
REMARK  3 active torsions:
REMARK  status: ('A' for Active; 'I' for Inactive)
REMARK    1  A    between atoms: C4_4  and  C6_6 
REMARK    2  A    between atoms: C7_7  and  C8_8 
REMARK    3  A    between atoms: C8_8  and  N9_9 
ROOT
HETATM    1  C1  UNL     1     -33.762   5.009   3.093  1.00 20.00     0.032 C 
HETATM    2  C2  UNL     1     -34.789   6.005   3.620  1.00 20.00     0.038 C 
HETATM    3  C3  UNL     1     -32.599   5.853   2.587  1.00 20.00     0.273 C 
HETATM    4  C4  UNL     1     -34.031   7.325   3.741  1.00 20.00     0.236 C 
HETATM    5  N9  UNL     1     -33.110   7.222   2.603  1.00 20.00     0.094 N 
ENDROOT
BRANCH   5   6
HETATM    6  C8  UNL     1     -32.059   8.223   2.554  1.00 20.00     0.272 C 
BRANCH   6   7
HETATM    7  C7  UNL     1     -31.948   8.881   1.183  1.00 20.00     0.026 C 
HETATM    8  C5  UNL     1     -32.695  10.204   1.104  1.00 20.00     0.007 C 
ENDBRANCH   6   7
ENDBRANCH   5   6
BRANCH   4   9
HETATM    9  C6  UNL     1     -33.382   7.475   5.121  1.00 20.00     0.150 C 
HETATM   10 CL10 UNL     1     -34.265   6.514   6.321  1.00 20.00    -0.128 Cl
ENDBRANCH   4   9
TORSDOF 3
ENDMDL
MODEL 2
REMARK VINA RESULT:      -4.1      1.086      3.617
REMARK  3 active torsions:
REMARK  status: ('A' for Active; 'I' for Inactive)
REMARK    1  A    between atoms: C4_4  and  C6_6 
REMARK    2  A    between atoms: C7_7  and  C8_8 
REMARK    3  A    between atoms: C8_8  and  N9_9 
ROOT
HETATM    1  C1  UNL     1     -31.918   8.873   2.120  1.00 20.00     0.032 C 
HETATM    2  C2  UNL     1     -31.451   8.407   3.494  1.00 20.00     0.038 C 
HETATM    3  C3  UNL     1     -32.929   7.832   1.658  1.00 20.00     0.273 C 
HETATM    4  C4  UNL     1     -32.469   7.349   3.918  1.00 20.00     0.236 C 
HETATM    5  N9  UNL     1     -32.793   6.742   2.622  1.00 20.00     0.094 N 
ENDROOT
BRANCH   5   6
HETATM    6  C8  UNL     1     -33.929   5.836   2.620  1.00 20.00     0.272 C 
BRANCH   6   7
HETATM    7  C7  UNL     1     -33.620   4.518   3.323  1.00 20.00     0.026 C 
HETATM    8  C5  UNL     1     -34.502   4.280   4.540  1.00 20.00     0.007 C 
ENDBRANCH   6   7
ENDBRANCH   5   6
BRANCH   4   9
HETATM    9  C6  UNL     1     -33.642   7.974   4.681  1.00 20.00     0.150 C 
HETATM   10 CL10 UNL     1     -33.848   7.172   6.249  1.00 20.00    -0.128 Cl
ENDBRANCH   4   9
TORSDOF 3
ENDMDL
MODEL 3
REMARK VINA RESULT:      -3.8     11.278     11.691
REMARK  3 active torsions:
REMARK  status: ('A' for Active; 'I' for Inactive)
REMARK    1  A    between atoms: C4_4  and  C6_6 
REMARK    2  A    between atoms: C7_7  and  C8_8 
REMARK    3  A    between atoms: C8_8  and  N9_9 
ROOT
HETATM    1  C1  UNL     1     -37.054  14.435  -4.941  1.00 20.00     0.032 C 
HETATM    2  C2  UNL     1     -35.986  13.436  -5.371  1.00 20.00     0.038 C 
HETATM    3  C3  UNL     1     -36.318  15.492  -4.128  1.00 20.00     0.273 C 
HETATM    4  C4  UNL     1     -34.657  14.145  -5.116  1.00 20.00     0.236 C 
HETATM    5  N9  UNL     1     -34.986  14.928  -3.919  1.00 20.00     0.094 N 
ENDROOT
BRANCH   5   6
HETATM    6  C8  UNL     1     -34.002  15.922  -3.530  1.00 20.00     0.272 C 
BRANCH   6   7
HETATM    7  C7  UNL     1     -34.424  16.702  -2.290  1.00 20.00     0.026 C 
HETATM    8  C5  UNL     1     -33.293  17.536  -1.706  1.00 20.00     0.007 C 
ENDBRANCH   6   7
ENDBRANCH   5   6
BRANCH   4   9
HETATM    9  C6  UNL     1     -34.205  14.946  -6.341  1.00 20.00     0.150 C 
HETATM   10 CL10 UNL     1     -34.157  13.901  -7.773  1.00 20.00    -0.128 Cl
ENDBRANCH   4   9
TORSDOF 3
ENDMDL
MODEL 4
REMARK VINA RESULT:      -3.7     10.786     11.783
REMARK  3 active torsions:
REMARK  status: ('A' for Active; 'I' for Inactive)
REMARK    1  A    between atoms: C4_4  and  C6_6 
REMARK    2  A    between atoms: C7_7  and  C8_8 
REMARK    3  A    between atoms: C8_8  and  N9_9 
ROOT
HETATM    1  C1  UNL     1     -33.380  15.764  -6.209  1.00 20.00     0.032 C 
HETATM    2  C2  UNL     1     -32.914  15.308  -4.831  1.00 20.00     0.038 C 
HETATM    3  C3  UNL     1     -34.691  15.030  -6.459  1.00 20.00     0.273 C 
HETATM    4  C4  UNL     1     -34.136  14.642  -4.202  1.00 20.00     0.236 C 
HETATM    5  N9  UNL     1     -34.763  14.041  -5.385  1.00 20.00     0.094 N 
ENDROOT
BRANCH   5   6
HETATM    6  C8  UNL     1     -36.102  13.514  -5.186  1.00 20.00     0.272 C 
BRANCH   6   7
HETATM    7  C7  UNL     1     -37.153  14.285  -5.976  1.00 20.00     0.026 C 
HETATM    8  C5  UNL     1     -38.389  14.609  -5.150  1.00 20.00     0.007 C 
ENDBRANCH   6   7
ENDBRANCH   5   6
BRANCH   4   9
HETATM    9  C6  UNL     1     -34.989  15.651  -3.427  1.00 20.00     0.150 C 
HETATM   10 CL10 UNL     1     -33.958  16.667  -2.403  1.00 20.00    -0.128 Cl
ENDBRANCH   4   9
TORSDOF 3
ENDMDL
MODEL 5
REMARK VINA RESULT:      -3.5     11.537     12.352
REMARK  3 active torsions:
REMARK  status: ('A' for Active; 'I' for Inactive)
REMARK    1  A    between atoms: C4_4  and  C6_6 
REMARK    2  A    between atoms: C7_7  and  C8_8 
REMARK    3  A    between atoms: C8_8  and  N9_9 
ROOT
HETATM    1  C1  UNL     1     -35.637  13.321  -5.978  1.00 20.00     0.032 C 
HETATM    2  C2  UNL     1     -34.736  13.751  -7.130  1.00 20.00     0.038 C 
HETATM    3  C3  UNL     1     -35.136  14.088  -4.761  1.00 20.00     0.273 C 
HETATM    4  C4  UNL     1     -34.019  15.001  -6.624  1.00 20.00     0.236 C 
HETATM    5  N9  UNL     1     -33.873  14.679  -5.200  1.00 20.00     0.094 N 
ENDROOT
BRANCH   5   6
HETATM    6  C8  UNL     1     -33.431  15.772  -4.352  1.00 20.00     0.272 C 
BRANCH   6   7
HETATM    7  C7  UNL     1     -34.344  15.979  -3.148  1.00 20.00     0.026 C 
HETATM    8  C5  UNL     1     -33.792  16.994  -2.158  1.00 20.00     0.007 C 
ENDBRANCH   6   7
ENDBRANCH   5   6
BRANCH   4   9
HETATM    9  C6  UNL     1     -34.810  16.272  -6.950  1.00 20.00     0.150 C 
HETATM   10 CL10 UNL     1     -33.778  17.434  -7.804  1.00 20.00    -0.128 Cl
ENDBRANCH   4   9
TORSDOF 3
ENDMDL
MODEL 6
REMARK VINA RESULT:      -3.5     10.908     11.613
REMARK  3 active torsions:
REMARK  status: ('A' for Active; 'I' for Inactive)
REMARK    1  A    between atoms: C4_4  and  C6_6 
REMARK    2  A    between atoms: C7_7  and  C8_8 
REMARK    3  A    between atoms: C8_8  and  N9_9 
ROOT
HETATM    1  C1  UNL     1     -34.020  17.874  -0.682  1.00 20.00     0.032 C 
HETATM    2  C2  UNL     1     -35.374  17.175  -0.704  1.00 20.00     0.038 C 
HETATM    3  C3  UNL     1     -33.321  17.448  -1.968  1.00 20.00     0.273 C 
HETATM    4  C4  UNL     1     -35.546  16.693  -2.144  1.00 20.00     0.236 C 
HETATM    5  N9  UNL     1     -34.158  16.373  -2.497  1.00 20.00     0.094 N 
ENDROOT
BRANCH   5   6
HETATM    6  C8  UNL     1     -33.914  16.101  -3.902  1.00 20.00     0.272 C 
BRANCH   6   7
HETATM    7  C7  UNL     1     -33.842  14.608  -4.201  1.00 20.00     0.026 C 
HETATM    8  C5  UNL     1     -35.185  14.027  -4.621  1.00 20.00     0.007 C 
ENDBRANCH   6   7
ENDBRANCH   5   6
BRANCH   4   9
HETATM    9  C6  UNL     1     -36.233  17.753  -3.012  1.00 20.00     0.150 C 
HETATM   10 CL10 UNL     1     -37.451  16.994  -4.054  1.00 20.00    -0.128 Cl
ENDBRANCH   4   9
TORSDOF 3
ENDMDL
MODEL 7
REMARK VINA RESULT:      -3.5     11.323     12.198
REMARK  3 active torsions:
REMARK  status: ('A' for Active; 'I' for Inactive)
REMARK    1  A    between atoms: C4_4  and  C6_6 
REMARK    2  A    between atoms: C7_7  and  C8_8 
REMARK    3  A    between atoms: C8_8  and  N9_9 
ROOT
HETATM    1  C1  UNL     1     -33.333  15.879  -6.547  1.00 20.00     0.032 C 
HETATM    2  C2  UNL     1     -34.771  15.679  -7.010  1.00 20.00     0.038 C 
HETATM    3  C3  UNL     1     -33.404  15.973  -5.027  1.00 20.00     0.273 C 
HETATM    4  C4  UNL     1     -35.542  15.294  -5.749  1.00 20.00     0.236 C 
HETATM    5  N9  UNL     1     -34.832  16.086  -4.738  1.00 20.00     0.094 N 
ENDROOT
BRANCH   5   6
HETATM    6  C8  UNL     1     -35.159  15.779  -3.357  1.00 20.00     0.272 C 
BRANCH   6   7
HETATM    7  C7  UNL     1     -34.374  16.636  -2.370  1.00 20.00     0.026 C 
HETATM    8  C5  UNL     1     -35.197  17.036  -1.154  1.00 20.00     0.007 C 
ENDBRANCH   6   7
ENDBRANCH   5   6
BRANCH   4   9
HETATM    9  C6  UNL     1     -35.546  13.777  -5.534  1.00 20.00     0.150 C 
HETATM   10 CL10 UNL     1     -35.245  12.941  -7.068  1.00 20.00    -0.128 Cl
ENDBRANCH   4   9
TORSDOF 3
ENDMDL
MODEL 8
REMARK VINA RESULT:      -3.5     11.021     11.724
REMARK  3 active torsions:
REMARK  status: ('A' for Active; 'I' for Inactive)
REMARK    1  A    between atoms: C4_4  and  C6_6 
REMARK    2  A    between atoms: C7_7  and  C8_8 
REMARK    3  A    between atoms: C8_8  and  N9_9 
ROOT
HETATM    1  C1  UNL     1     -36.308  14.786  -4.552  1.00 20.00     0.032 C 
HETATM    2  C2  UNL     1     -35.005  13.995  -4.549  1.00 20.00     0.038 C 
HETATM    3  C3  UNL     1     -35.962  16.143  -3.951  1.00 20.00     0.273 C 
HETATM    4  C4  UNL     1     -33.913  15.034  -4.306  1.00 20.00     0.236 C 
HETATM    5  N9  UNL     1     -34.612  15.969  -3.417  1.00 20.00     0.094 N 
ENDROOT
BRANCH   5   6
HETATM    6  C8  UNL     1     -33.932  17.228  -3.168  1.00 20.00     0.272 C 
BRANCH   6   7
HETATM    7  C7  UNL     1     -33.451  17.353  -1.727  1.00 20.00     0.026 C 
HETATM    8  C5  UNL     1     -34.597  17.494  -0.735  1.00 20.00     0.007 C 
ENDBRANCH   6   7
ENDBRANCH   5   6
BRANCH   4   9
HETATM    9  C6  UNL     1     -33.393  15.620  -5.623  1.00 20.00     0.150 C 
HETATM   10 CL10 UNL     1     -33.883  14.596  -6.985  1.00 20.00    -0.128 Cl
ENDBRANCH   4   9
TORSDOF 3
ENDMDL
MODEL 9
REMARK VINA RESULT:      -3.4     10.774     11.861
REMARK  3 active torsions:
REMARK  status: ('A' for Active; 'I' for Inactive)
REMARK    1  A    between atoms: C4_4  and  C6_6 
REMARK    2  A    between atoms: C7_7  and  C8_8 
REMARK    3  A    between atoms: C8_8  and  N9_9 
ROOT
HETATM    1  C1  UNL     1     -33.785  18.126  -4.889  1.00 20.00     0.032 C 
HETATM    2  C2  UNL     1     -33.451  17.989  -3.408  1.00 20.00     0.038 C 
HETATM    3  C3  UNL     1     -33.841  16.701  -5.427  1.00 20.00     0.273 C 
HETATM    4  C4  UNL     1     -33.699  16.517  -3.082  1.00 20.00     0.236 C 
HETATM    5  N9  UNL     1     -33.299  15.883  -4.344  1.00 20.00     0.094 N 
ENDROOT
BRANCH   5   6
HETATM    6  C8  UNL     1     -33.634  14.476  -4.472  1.00 20.00     0.272 C 
BRANCH   6   7
HETATM    7  C7  UNL     1     -34.587  14.209  -5.632  1.00 20.00     0.026 C 
HETATM    8  C5  UNL     1     -35.878  13.536  -5.190  1.00 20.00     0.007 C 
ENDBRANCH   6   7
ENDBRANCH   5   6
BRANCH   4   9
HETATM    9  C6  UNL     1     -35.146  16.277  -2.637  1.00 20.00     0.150 C 
HETATM   10 CL10 UNL     1     -35.408  16.948  -1.017  1.00 20.00    -0.128 Cl
ENDBRANCH   4   9
TORSDOF 3
ENDMDL
