MODEL 1
REMARK VINA RESULT:      -4.7      0.000      0.000
REMARK  3 active torsions:
REMARK  status: ('A' for Active; 'I' for Inactive)
REMARK    1  A    between atoms: C2_2  and  C8_8 
REMARK    2  A    between atoms: C7_7  and  C9_9 
REMARK    3  A    between atoms: C8_8  and  N10_10 
ROOT
HETATM    1  C3  UNL     1     -34.127   5.781   2.213  1.00 20.00     0.031 C 
HETATM    2  C4  UNL     1     -34.268   5.519   3.709  1.00 20.00     0.009 C 
HETATM    3  C5  UNL     1     -32.866   6.590   1.907  1.00 20.00     0.272 C 
HETATM    4  C6  UNL     1     -32.905   7.606   4.110  1.00 20.00     0.278 C 
HETATM    5  C7  UNL     1     -34.177   6.832   4.495  1.00 20.00     0.028 C 
HETATM    6  N10 UNL     1     -32.851   7.851   2.660  1.00 20.00     0.092 N 
ENDROOT
BRANCH   6   7
HETATM    7  C8  UNL     1     -31.666   8.637   2.318  1.00 20.00     0.299 C 
BRANCH   7   8
HETATM    8  C2  UNL     1     -31.840   9.194   0.942  1.00 20.00    -0.007 C 
HETATM    9  C1  UNL     1     -32.705  10.165   0.634  1.00 20.00     0.008 C 
ENDBRANCH   7   8
ENDBRANCH   6   7
BRANCH   5  10
HETATM   10  C9  UNL     1     -34.213   6.563   5.998  1.00 20.00     0.121 C 
HETATM   11 CL11 UNL     1     -34.675   4.879   6.306  1.00 20.00    -0.130 Cl
ENDBRANCH   5  10
TORSDOF 3
ENDMDL
MODEL 2
REMARK VINA RESULT:      -4.5      2.754      4.984
REMARK  3 active torsions:
REMARK  status: ('A' for Active; 'I' for Inactive)
REMARK    1  A    between atoms: C2_2  and  C8_8 
REMARK    2  A    between atoms: C7_7  and  C9_9 
REMARK    3  A    between atoms: C8_8  and  N10_10 
ROOT
HETATM    1  C3  UNL     1     -32.425   8.294   5.026  1.00 20.00     0.031 C 
HETATM    2  C4  UNL     1     -31.604   8.397   3.744  1.00 20.00     0.009 C 
HETATM    3  C5  UNL     1     -33.351   7.078   4.996  1.00 20.00     0.272 C 
HETATM    4  C6  UNL     1     -33.444   7.127   2.573  1.00 20.00     0.278 C 
HETATM    5  C7  UNL     1     -32.520   8.354   2.516  1.00 20.00     0.028 C 
HETATM    6  N10 UNL     1     -34.227   7.109   3.818  1.00 20.00     0.092 N 
ENDROOT
BRANCH   6   7
HETATM    7  C8  UNL     1     -35.143   5.968   3.831  1.00 20.00     0.299 C 
BRANCH   7   8
HETATM    8  C2  UNL     1     -34.600   4.928   4.757  1.00 20.00    -0.007 C 
HETATM    9  C1  UNL     1     -34.048   3.781   4.350  1.00 20.00     0.008 C 
ENDBRANCH   7   8
ENDBRANCH   6   7
BRANCH   5  10
HETATM   10  C9  UNL     1     -31.695   8.352   1.230  1.00 20.00     0.121 C 
HETATM   11 CL11 UNL     1     -32.485   9.350  -0.004  1.00 20.00    -0.130 Cl
ENDBRANCH   5  10
TORSDOF 3
ENDMDL
MODEL 3
REMARK VINA RESULT:      -4.5      1.195      2.174
REMARK  3 active torsions:
REMARK  status: ('A' for Active; 'I' for Inactive)
REMARK    1  A    between atoms: C2_2  and  C8_8 
REMARK    2  A    between atoms: C7_7  and  C9_9 
REMARK    3  A    between atoms: C8_8  and  N10_10 
ROOT
HETATM    1  C3  UNL     1     -32.040   8.365   4.792  1.00 20.00     0.031 C 
HETATM    2  C4  UNL     1     -33.357   7.599   4.851  1.00 20.00     0.009 C 
HETATM    3  C5  UNL     1     -31.804   8.957   3.402  1.00 20.00     0.272 C 
HETATM    4  C6  UNL     1     -33.145   7.222   2.364  1.00 20.00     0.278 C 
HETATM    5  C7  UNL     1     -33.426   6.562   3.724  1.00 20.00     0.028 C 
HETATM    6  N10 UNL     1     -31.847   7.914   2.369  1.00 20.00     0.092 N 
ENDROOT
BRANCH   6   7
HETATM    7  C8  UNL     1     -31.568   8.487   1.052  1.00 20.00     0.299 C 
BRANCH   7   8
HETATM    8  C2  UNL     1     -32.569   9.562   0.774  1.00 20.00    -0.007 C 
HETATM    9  C1  UNL     1     -33.204   9.706  -0.393  1.00 20.00     0.008 C 
ENDBRANCH   7   8
ENDBRANCH   6   7
BRANCH   5  10
HETATM   10  C9  UNL     1     -34.786   5.865   3.717  1.00 20.00     0.121 C 
HETATM   11 CL11 UNL     1     -34.674   4.302   4.545  1.00 20.00    -0.130 Cl
ENDBRANCH   5  10
TORSDOF 3
ENDMDL
MODEL 4
REMARK VINA RESULT:      -4.4      1.084      1.084
REMARK  3 active torsions:
REMARK  status: ('A' for Active; 'I' for Inactive)
REMARK    1  A    between atoms: C2_2  and  C8_8 
REMARK    2  A    between atoms: C7_7  and  C9_9 
REMARK    3  A    between atoms: C8_8  and  N10_10 
ROOT
HETATM    1  C3  UNL     1     -33.449   4.793   2.421  1.00 20.00     0.031 C 
HETATM    2  C4  UNL     1     -33.884   4.708   3.880  1.00 20.00     0.009 C 
HETATM    3  C5  UNL     1     -32.465   5.943   2.201  1.00 20.00     0.272 C 
HETATM    4  C6  UNL     1     -33.383   7.174   4.078  1.00 20.00     0.278 C 
HETATM    5  C7  UNL     1     -34.409   6.064   4.364  1.00 20.00     0.028 C 
HETATM    6  N10 UNL     1     -33.035   7.220   2.650  1.00 20.00     0.092 N 
ENDROOT
BRANCH   6   7
HETATM    7  C8  UNL     1     -32.103   8.317   2.386  1.00 20.00     0.299 C 
BRANCH   7   8
HETATM    8  C2  UNL     1     -32.484   8.970   1.097  1.00 20.00    -0.007 C 
HETATM    9  C1  UNL     1     -32.636  10.289   0.945  1.00 20.00     0.008 C 
ENDBRANCH   7   8
ENDBRANCH   6   7
BRANCH   5  10
HETATM   10  C9  UNL     1     -34.748   6.010   5.852  1.00 20.00     0.121 C 
HETATM   11 CL11 UNL     1     -34.048   7.407   6.689  1.00 20.00    -0.130 Cl
ENDBRANCH   5  10
TORSDOF 3
ENDMDL
MODEL 5
REMARK VINA RESULT:      -4.0     10.945     11.900
REMARK  3 active torsions:
REMARK  status: ('A' for Active; 'I' for Inactive)
REMARK    1  A    between atoms: C2_2  and  C8_8 
REMARK    2  A    between atoms: C7_7  and  C9_9 
REMARK    3  A    between atoms: C8_8  and  N10_10 
ROOT
HETATM    1  C3  UNL     1     -33.375  15.905  -6.196  1.00 20.00     0.031 C 
HETATM    2  C4  UNL     1     -33.368  16.776  -4.944  1.00 20.00     0.009 C 
HETATM    3  C5  UNL     1     -34.653  15.069  -6.284  1.00 20.00     0.272 C 
HETATM    4  C6  UNL     1     -34.907  15.087  -3.871  1.00 20.00     0.278 C 
HETATM    5  C7  UNL     1     -33.629  15.925  -3.697  1.00 20.00     0.028 C 
HETATM    6  N10 UNL     1     -34.832  14.250  -5.078  1.00 20.00     0.092 N 
ENDROOT
BRANCH   6   7
HETATM    7  C8  UNL     1     -36.029  13.417  -5.199  1.00 20.00     0.299 C 
BRANCH   7   8
HETATM    8  C2  UNL     1     -37.133  14.245  -5.773  1.00 20.00    -0.007 C 
HETATM    9  C1  UNL     1     -38.263  14.537  -5.121  1.00 20.00     0.008 C 
ENDBRANCH   7   8
ENDBRANCH   6   7
BRANCH   5  10
HETATM   10  C9  UNL     1     -33.726  16.807  -2.453  1.00 20.00     0.121 C 
HETATM   11 CL11 UNL     1     -35.339  16.670  -1.731  1.00 20.00    -0.130 Cl
ENDBRANCH   5  10
TORSDOF 3
ENDMDL
MODEL 6
REMARK VINA RESULT:      -4.0     11.157     11.864
REMARK  3 active torsions:
REMARK  status: ('A' for Active; 'I' for Inactive)
REMARK    1  A    between atoms: C2_2  and  C8_8 
REMARK    2  A    between atoms: C7_7  and  C9_9 
REMARK    3  A    between atoms: C8_8  and  N10_10 
ROOT
HETATM    1  C3  UNL     1     -35.536  17.145  -0.538  1.00 20.00     0.031 C 
HETATM    2  C4  UNL     1     -35.333  16.885  -2.027  1.00 20.00     0.009 C 
HETATM    3  C5  UNL     1     -34.682  18.319  -0.058  1.00 20.00     0.272 C 
HETATM    4  C6  UNL     1     -33.044  17.924  -1.804  1.00 20.00     0.278 C 
HETATM    5  C7  UNL     1     -33.843  16.727  -2.347  1.00 20.00     0.028 C 
HETATM    6  N10 UNL     1     -33.262  18.096  -0.359  1.00 20.00     0.092 N 
ENDROOT
BRANCH   6   7
HETATM    7  C8  UNL     1     -32.451  19.202   0.152  1.00 20.00     0.299 C 
BRANCH   7   8
HETATM    8  C2  UNL     1     -32.026  18.880   1.548  1.00 20.00    -0.007 C 
HETATM    9  C1  UNL     1     -30.751  18.749   1.927  1.00 20.00     0.008 C 
ENDBRANCH   7   8
ENDBRANCH   6   7
BRANCH   5  10
HETATM   10  C9  UNL     1     -33.628  16.570  -3.851  1.00 20.00     0.121 C 
HETATM   11 CL11 UNL     1     -33.241  14.885  -4.240  1.00 20.00    -0.130 Cl
ENDBRANCH   5  10
TORSDOF 3
ENDMDL
MODEL 7
REMARK VINA RESULT:      -4.0     11.424     11.937
REMARK  3 active torsions:
REMARK  status: ('A' for Active; 'I' for Inactive)
REMARK    1  A    between atoms: C2_2  and  C8_8 
REMARK    2  A    between atoms: C7_7  and  C9_9 
REMARK    3  A    between atoms: C8_8  and  N10_10 
ROOT
HETATM    1  C3  UNL     1     -37.412  14.795  -4.599  1.00 20.00     0.031 C 
HETATM    2  C4  UNL     1     -36.995  14.200  -5.940  1.00 20.00     0.009 C 
HETATM    3  C5  UNL     1     -36.342  15.743  -4.055  1.00 20.00     0.272 C 
HETATM    4  C6  UNL     1     -34.594  14.558  -5.249  1.00 20.00     0.278 C 
HETATM    5  C7  UNL     1     -35.607  13.560  -5.835  1.00 20.00     0.028 C 
HETATM    6  N10 UNL     1     -35.044  15.065  -3.944  1.00 20.00     0.092 N 
ENDROOT
BRANCH   6   7
HETATM    7  C8  UNL     1     -34.043  15.968  -3.373  1.00 20.00     0.299 C 
BRANCH   7   8
HETATM    8  C2  UNL     1     -34.621  16.620  -2.160  1.00 20.00    -0.007 C 
HETATM    9  C1  UNL     1     -33.917  17.375  -1.311  1.00 20.00     0.008 C 
ENDBRANCH   7   8
ENDBRANCH   6   7
BRANCH   5  10
HETATM   10  C9  UNL     1     -35.142  13.056  -7.201  1.00 20.00     0.121 C 
HETATM   11 CL11 UNL     1     -33.995  14.202  -7.917  1.00 20.00    -0.130 Cl
ENDBRANCH   5  10
TORSDOF 3
ENDMDL
MODEL 8
REMARK VINA RESULT:      -3.9     10.754     11.527
REMARK  3 active torsions:
REMARK  status: ('A' for Active; 'I' for Inactive)
REMARK    1  A    between atoms: C2_2  and  C8_8 
REMARK    2  A    between atoms: C7_7  and  C9_9 
REMARK    3  A    between atoms: C8_8  and  N10_10 
ROOT
HETATM    1  C3  UNL     1     -35.637  17.645  -0.373  1.00 20.00     0.031 C 
HETATM    2  C4  UNL     1     -34.471  18.049   0.522  1.00 20.00     0.009 C 
HETATM    3  C5  UNL     1     -35.167  16.768  -1.534  1.00 20.00     0.272 C 
HETATM    4  C6  UNL     1     -32.956  17.762  -1.476  1.00 20.00     0.278 C 
HETATM    5  C7  UNL     1     -33.350  18.683  -0.309  1.00 20.00     0.028 C 
HETATM    6  N10 UNL     1     -34.120  17.440  -2.315  1.00 20.00     0.092 N 
ENDROOT
BRANCH   6   7
HETATM    7  C8  UNL     1     -33.718  16.611  -3.452  1.00 20.00     0.299 C 
BRANCH   7   8
HETATM    8  C2  UNL     1     -34.647  15.444  -3.547  1.00 20.00    -0.007 C 
HETATM    9  C1  UNL     1     -34.359  14.313  -4.198  1.00 20.00     0.008 C 
ENDBRANCH   7   8
ENDBRANCH   6   7
BRANCH   5  10
HETATM   10  C9  UNL     1     -32.139  18.994   0.568  1.00 20.00     0.121 C 
HETATM   11 CL11 UNL     1     -32.457  18.509   2.243  1.00 20.00    -0.130 Cl
ENDBRANCH   5  10
TORSDOF 3
ENDMDL
MODEL 9
REMARK VINA RESULT:      -3.8     10.944     11.677
REMARK  3 active torsions:
REMARK  status: ('A' for Active; 'I' for Inactive)
REMARK    1  A    between atoms: C2_2  and  C8_8 
REMARK    2  A    between atoms: C7_7  and  C9_9 
REMARK    3  A    between atoms: C8_8  and  N10_10 
ROOT
HETATM    1  C3  UNL     1     -33.031  14.955  -4.393  1.00 20.00     0.031 C 
HETATM    2  C4  UNL     1     -33.623  16.137  -3.633  1.00 20.00     0.009 C 
HETATM    3  C5  UNL     1     -34.014  14.414  -5.432  1.00 20.00     0.272 C 
HETATM    4  C6  UNL     1     -35.912  15.203  -4.143  1.00 20.00     0.278 C 
HETATM    5  C7  UNL     1     -34.991  15.770  -3.049  1.00 20.00     0.028 C 
HETATM    6  N10 UNL     1     -35.293  14.047  -4.810  1.00 20.00     0.092 N 
ENDROOT
BRANCH   6   7
HETATM    7  C8  UNL     1     -36.204  13.484  -5.807  1.00 20.00     0.299 C 
BRANCH   7   8
HETATM    8  C2  UNL     1     -36.934  14.602  -6.476  1.00 20.00    -0.007 C 
HETATM    9  C1  UNL     1     -36.909  14.828  -7.793  1.00 20.00     0.008 C 
ENDBRANCH   7   8
ENDBRANCH   6   7
BRANCH   5  10
HETATM   10  C9  UNL     1     -35.633  16.983  -2.377  1.00 20.00     0.121 C 
HETATM   11 CL11 UNL     1     -34.911  17.250  -0.781  1.00 20.00    -0.130 Cl
ENDBRANCH   5  10
TORSDOF 3
ENDMDL
