MODEL 1
REMARK VINA RESULT:      -5.4      0.000      0.000
REMARK  1 active torsions:
REMARK  status: ('A' for Active; 'I' for Inactive)
REMARK    1  A    between atoms: C1_1  and  C8_8 
REMARK       I    between atoms: C1_1  and  N10_10 
ROOT
HETATM    1  C1  UNL     1     -32.315   8.001   3.311  1.00 20.00     0.224 C 
HETATM    2  C2  UNL     1     -33.641   6.056   6.031  1.00 20.00     0.021 C 
HETATM    3  C5  UNL     1     -34.848   5.360   5.400  1.00 20.00     0.023 C 
HETATM    4  C6  UNL     1     -33.434   7.450   5.448  1.00 20.00     0.126 C 
HETATM    5  C7  UNL     1     -34.552   6.792   3.338  1.00 20.00     0.145 C 
HETATM    6  C9  UNL     1     -34.804   5.380   3.870  1.00 20.00     0.100 C 
HETATM    7  N10 UNL     1     -33.390   7.416   3.986  1.00 20.00    -0.350 N 
HETATM    8  O11 UNL     1     -31.369   8.564   3.855  1.00 20.00    -0.273 OA
HETATM    9 CL12 UNL     1     -33.537   4.264   3.265  1.00 20.00    -0.123 Cl
ENDROOT
BRANCH   1  10
HETATM   10  C8  UNL     1     -32.323   7.934   1.817  1.00 20.00     0.078 A 
HETATM   11  C3  UNL     1     -32.703   9.156   1.053  1.00 20.00     0.015 A 
HETATM   12  C4  UNL     1     -31.278   8.690   1.068  1.00 20.00     0.015 A 
ENDBRANCH   1  10
TORSDOF 1
ENDMDL
MODEL 2
REMARK VINA RESULT:      -4.5     11.308     12.308
REMARK  1 active torsions:
REMARK  status: ('A' for Active; 'I' for Inactive)
REMARK    1  A    between atoms: C1_1  and  C8_8 
REMARK       I    between atoms: C1_1  and  N10_10 
ROOT
HETATM    1  C1  UNL     1     -33.691  16.805  -3.690  1.00 20.00     0.224 C 
HETATM    2  C2  UNL     1     -34.595  15.455  -6.901  1.00 20.00     0.021 C 
HETATM    3  C5  UNL     1     -35.028  14.028  -6.565  1.00 20.00     0.023 C 
HETATM    4  C6  UNL     1     -33.463  15.923  -5.991  1.00 20.00     0.126 C 
HETATM    5  C7  UNL     1     -34.180  14.362  -4.206  1.00 20.00     0.145 C 
HETATM    6  C9  UNL     1     -35.326  13.839  -5.075  1.00 20.00     0.100 C 
HETATM    7  N10 UNL     1     -33.799  15.732  -4.580  1.00 20.00    -0.350 N 
HETATM    8  O11 UNL     1     -33.326  17.936  -3.997  1.00 20.00    -0.273 OA
HETATM    9 CL12 UNL     1     -36.855  14.667  -4.632  1.00 20.00    -0.123 Cl
ENDROOT
BRANCH   1  10
HETATM   10  C8  UNL     1     -34.050  16.550  -2.260  1.00 20.00     0.078 A 
HETATM   11  C3  UNL     1     -34.265  17.720  -1.362  1.00 20.00     0.015 A 
HETATM   12  C4  UNL     1     -35.429  16.885  -1.805  1.00 20.00     0.015 A 
ENDBRANCH   1  10
TORSDOF 1
ENDMDL
MODEL 3
REMARK VINA RESULT:      -4.5     11.322     11.923
REMARK  1 active torsions:
REMARK  status: ('A' for Active; 'I' for Inactive)
REMARK    1  A    between atoms: C1_1  and  C8_8 
REMARK       I    between atoms: C1_1  and  N10_10 
ROOT
HETATM    1  C1  UNL     1     -34.570  16.728  -2.265  1.00 20.00     0.224 C 
HETATM    2  C2  UNL     1     -35.613  14.257  -4.662  1.00 20.00     0.021 C 
HETATM    3  C5  UNL     1     -34.546  14.362  -5.752  1.00 20.00     0.023 C 
HETATM    4  C6  UNL     1     -35.901  15.615  -4.029  1.00 20.00     0.126 C 
HETATM    5  C7  UNL     1     -33.633  16.425  -4.609  1.00 20.00     0.145 C 
HETATM    6  C9  UNL     1     -33.287  15.090  -5.273  1.00 20.00     0.100 C 
HETATM    7  N10 UNL     1     -34.669  16.265  -3.580  1.00 20.00    -0.350 N 
HETATM    8  O11 UNL     1     -35.457  16.636  -1.420  1.00 20.00    -0.273 OA
HETATM    9 CL12 UNL     1     -32.364  14.060  -4.131  1.00 20.00    -0.123 Cl
ENDROOT
BRANCH   1  10
HETATM   10  C8  UNL     1     -33.287  17.383  -1.862  1.00 20.00     0.078 A 
HETATM   11  C3  UNL     1     -33.196  18.869  -1.932  1.00 20.00     0.015 A 
HETATM   12  C4  UNL     1     -33.264  18.180  -0.602  1.00 20.00     0.015 A 
ENDBRANCH   1  10
TORSDOF 1
ENDMDL
MODEL 4
REMARK VINA RESULT:      -4.5     11.612     12.713
REMARK  1 active torsions:
REMARK  status: ('A' for Active; 'I' for Inactive)
REMARK    1  A    between atoms: C1_1  and  C8_8 
REMARK       I    between atoms: C1_1  and  N10_10 
ROOT
HETATM    1  C1  UNL     1     -34.205  17.398  -3.553  1.00 20.00     0.224 C 
HETATM    2  C2  UNL     1     -34.620  16.282  -6.949  1.00 20.00     0.021 C 
HETATM    3  C5  UNL     1     -34.085  14.850  -6.908  1.00 20.00     0.023 C 
HETATM    4  C6  UNL     1     -33.851  17.191  -5.994  1.00 20.00     0.126 C 
HETATM    5  C7  UNL     1     -33.251  15.264  -4.557  1.00 20.00     0.145 C 
HETATM    6  C9  UNL     1     -33.993  14.297  -5.483  1.00 20.00     0.100 C 
HETATM    7  N10 UNL     1     -33.799  16.626  -4.645  1.00 20.00    -0.350 N 
HETATM    8  O11 UNL     1     -34.617  18.553  -3.626  1.00 20.00    -0.273 OA
HETATM    9 CL12 UNL     1     -35.630  13.963  -4.833  1.00 20.00    -0.123 Cl
ENDROOT
BRANCH   1  10
HETATM   10  C8  UNL     1     -34.131  16.767  -2.200  1.00 20.00     0.078 A 
HETATM   11  C3  UNL     1     -34.018  17.654  -1.007  1.00 20.00     0.015 A 
HETATM   12  C4  UNL     1     -35.296  16.920  -1.282  1.00 20.00     0.015 A 
ENDBRANCH   1  10
TORSDOF 1
ENDMDL
MODEL 5
REMARK VINA RESULT:      -4.3     11.704     12.631
REMARK  1 active torsions:
REMARK  status: ('A' for Active; 'I' for Inactive)
REMARK    1  A    between atoms: C1_1  and  C8_8 
REMARK       I    between atoms: C1_1  and  N10_10 
ROOT
HETATM    1  C1  UNL     1     -34.059  16.440  -4.474  1.00 20.00     0.224 C 
HETATM    2  C2  UNL     1     -36.076  15.601  -7.332  1.00 20.00     0.021 C 
HETATM    3  C5  UNL     1     -36.642  14.229  -6.964  1.00 20.00     0.023 C 
HETATM    4  C6  UNL     1     -34.665  15.788  -6.783  1.00 20.00     0.126 C 
HETATM    5  C7  UNL     1     -35.103  14.172  -4.958  1.00 20.00     0.145 C 
HETATM    6  C9  UNL     1     -36.526  13.928  -5.467  1.00 20.00     0.100 C 
HETATM    7  N10 UNL     1     -34.608  15.499  -5.350  1.00 20.00    -0.350 N 
HETATM    8  O11 UNL     1     -33.602  17.529  -4.812  1.00 20.00    -0.273 OA
HETATM    9 CL12 UNL     1     -37.688  14.927  -4.535  1.00 20.00    -0.123 Cl
ENDROOT
BRANCH   1  10
HETATM   10  C8  UNL     1     -34.029  16.090  -3.020  1.00 20.00     0.078 A 
HETATM   11  C3  UNL     1     -33.629  17.143  -2.044  1.00 20.00     0.015 A 
HETATM   12  C4  UNL     1     -35.058  16.693  -2.125  1.00 20.00     0.015 A 
ENDBRANCH   1  10
TORSDOF 1
ENDMDL
MODEL 6
REMARK VINA RESULT:      -4.1     11.162     12.741
REMARK  1 active torsions:
REMARK  status: ('A' for Active; 'I' for Inactive)
REMARK    1  A    between atoms: C1_1  and  C8_8 
REMARK       I    between atoms: C1_1  and  N10_10 
ROOT
HETATM    1  C1  UNL     1     -37.679  15.065  -4.740  1.00 20.00     0.224 C 
HETATM    2  C2  UNL     1     -34.266  14.126  -4.094  1.00 20.00     0.021 C 
HETATM    3  C5  UNL     1     -33.560  15.474  -3.946  1.00 20.00     0.023 C 
HETATM    4  C6  UNL     1     -35.393  14.196  -5.120  1.00 20.00     0.126 C 
HETATM    5  C7  UNL     1     -35.670  16.626  -4.729  1.00 20.00     0.145 C 
HETATM    6  C9  UNL     1     -34.538  16.626  -3.699  1.00 20.00     0.100 C 
HETATM    7  N10 UNL     1     -36.305  15.305  -4.836  1.00 20.00    -0.350 N 
HETATM    8  O11 UNL     1     -38.210  13.967  -4.879  1.00 20.00    -0.273 OA
HETATM    9 CL12 UNL     1     -35.218  16.526  -2.043  1.00 20.00    -0.123 Cl
ENDROOT
BRANCH   1  10
HETATM   10  C8  UNL     1     -38.561  16.237  -4.447  1.00 20.00     0.078 A 
HETATM   11  C3  UNL     1     -39.374  16.810  -5.558  1.00 20.00     0.015 A 
HETATM   12  C4  UNL     1     -40.038  16.032  -4.461  1.00 20.00     0.015 A 
ENDBRANCH   1  10
TORSDOF 1
ENDMDL
MODEL 7
REMARK VINA RESULT:      -4.1     11.664     12.501
REMARK  1 active torsions:
REMARK  status: ('A' for Active; 'I' for Inactive)
REMARK    1  A    between atoms: C1_1  and  C8_8 
REMARK       I    between atoms: C1_1  and  N10_10 
ROOT
HETATM    1  C1  UNL     1     -34.312  14.682  -5.341  1.00 20.00     0.224 C 
HETATM    2  C2  UNL     1     -34.957  16.533  -2.323  1.00 20.00     0.021 C 
HETATM    3  C5  UNL     1     -35.788  17.717  -2.817  1.00 20.00     0.023 C 
HETATM    4  C6  UNL     1     -33.918  16.110  -3.358  1.00 20.00     0.126 C 
HETATM    5  C7  UNL     1     -35.305  17.019  -5.199  1.00 20.00     0.145 C 
HETATM    6  C9  UNL     1     -36.378  17.481  -4.210  1.00 20.00     0.100 C 
HETATM    7  N10 UNL     1     -34.531  15.888  -4.668  1.00 20.00    -0.350 N 
HETATM    8  O11 UNL     1     -33.624  13.757  -4.915  1.00 20.00    -0.273 OA
HETATM    9 CL12 UNL     1     -37.700  16.272  -4.134  1.00 20.00    -0.123 Cl
ENDROOT
BRANCH   1  10
HETATM   10  C8  UNL     1     -34.964  14.511  -6.675  1.00 20.00     0.078 A 
HETATM   11  C3  UNL     1     -34.116  14.119  -7.836  1.00 20.00     0.015 A 
HETATM   12  C4  UNL     1     -35.076  13.134  -7.237  1.00 20.00     0.015 A 
ENDBRANCH   1  10
TORSDOF 1
ENDMDL
MODEL 8
REMARK VINA RESULT:      -4.0     11.471     12.721
REMARK  1 active torsions:
REMARK  status: ('A' for Active; 'I' for Inactive)
REMARK    1  A    between atoms: C1_1  and  C8_8 
REMARK       I    between atoms: C1_1  and  N10_10 
ROOT
HETATM    1  C1  UNL     1     -35.511  14.160  -4.599  1.00 20.00     0.224 C 
HETATM    2  C2  UNL     1     -38.532  15.383  -6.124  1.00 20.00     0.021 C 
HETATM    3  C5  UNL     1     -38.699  16.767  -5.495  1.00 20.00     0.023 C 
HETATM    4  C6  UNL     1     -37.915  14.394  -5.139  1.00 20.00     0.126 C 
HETATM    5  C7  UNL     1     -36.809  16.233  -3.902  1.00 20.00     0.145 C 
HETATM    6  C9  UNL     1     -37.409  17.277  -4.846  1.00 20.00     0.100 C 
HETATM    7  N10 UNL     1     -36.682  14.922  -4.554  1.00 20.00    -0.350 N 
HETATM    8  O11 UNL     1     -35.421  13.044  -5.103  1.00 20.00    -0.273 OA
HETATM    9 CL12 UNL     1     -36.211  17.726  -6.103  1.00 20.00    -0.123 Cl
ENDROOT
BRANCH   1  10
HETATM   10  C8  UNL     1     -34.282  14.752  -3.987  1.00 20.00     0.078 A 
HETATM   11  C3  UNL     1     -32.958  14.168  -4.344  1.00 20.00     0.015 A 
HETATM   12  C4  UNL     1     -33.351  15.518  -4.865  1.00 20.00     0.015 A 
ENDBRANCH   1  10
TORSDOF 1
ENDMDL
MODEL 9
REMARK VINA RESULT:      -4.0     11.580     12.327
REMARK  1 active torsions:
REMARK  status: ('A' for Active; 'I' for Inactive)
REMARK    1  A    between atoms: C1_1  and  C8_8 
REMARK       I    between atoms: C1_1  and  N10_10 
ROOT
HETATM    1  C1  UNL     1     -34.391  15.663  -3.639  1.00 20.00     0.224 C 
HETATM    2  C2  UNL     1     -36.175  13.980  -6.272  1.00 20.00     0.021 C 
HETATM    3  C5  UNL     1     -37.584  14.563  -6.160  1.00 20.00     0.023 C 
HETATM    4  C6  UNL     1     -35.513  13.855  -4.903  1.00 20.00     0.126 C 
HETATM    5  C7  UNL     1     -36.908  15.692  -4.001  1.00 20.00     0.145 C 
HETATM    6  C9  UNL     1     -37.622  15.858  -5.344  1.00 20.00     0.100 C 
HETATM    7  N10 UNL     1     -35.565  15.119  -4.167  1.00 20.00    -0.350 N 
HETATM    8  O11 UNL     1     -33.277  15.156  -3.740  1.00 20.00    -0.273 OA
HETATM    9 CL12 UNL     1     -36.877  17.202  -6.269  1.00 20.00    -0.123 Cl
ENDROOT
BRANCH   1  10
HETATM   10  C8  UNL     1     -34.505  16.957  -2.899  1.00 20.00     0.078 A 
HETATM   11  C3  UNL     1     -34.756  16.915  -1.430  1.00 20.00     0.015 A 
HETATM   12  C4  UNL     1     -33.414  17.331  -1.954  1.00 20.00     0.015 A 
ENDBRANCH   1  10
TORSDOF 1
ENDMDL
