MODEL 1
REMARK VINA RESULT:      -5.0      0.000      0.000
REMARK  3 active torsions:
REMARK  status: ('A' for Active; 'I' for Inactive)
REMARK    1  A    between atoms: C7_7  and  C9_9 
REMARK    2  A    between atoms: C8_8  and  C9_9 
REMARK    3  A    between atoms: C8_8  and  N10_10 
ROOT
HETATM    1  C1  UNL     1     -34.107   6.822   5.225  1.00 20.00     0.052 C 
HETATM    2  C2  UNL     1     -32.897   7.691   4.884  1.00 20.00     0.274 C 
HETATM    3  C3  UNL     1     -33.746   6.915   2.851  1.00 20.00     0.292 C 
HETATM    4  C4  UNL     1     -34.486   6.123   3.921  1.00 20.00     0.112 C 
HETATM    5  N10 UNL     1     -32.503   7.274   3.538  1.00 20.00     0.090 N 
HETATM    6 CL11 UNL     1     -33.933   4.421   3.935  1.00 20.00    -0.123 Cl
ENDROOT
BRANCH   5   7
HETATM    7  C8  UNL     1     -31.748   8.297   2.832  1.00 20.00     0.276 C 
BRANCH   7   8
HETATM    8  C9  UNL     1     -32.557   9.014   1.740  1.00 20.00     0.009 C 
HETATM    9  C6  UNL     1     -32.672  10.513   2.039  1.00 20.00     0.011 C 
BRANCH   8  10
HETATM   10  C7  UNL     1     -32.006   8.807   0.316  1.00 20.00     0.001 C 
HETATM   11  C5  UNL     1     -32.978   9.217  -0.781  1.00 20.00     0.005 C 
ENDBRANCH   8  10
ENDBRANCH   7   8
ENDBRANCH   5   7
TORSDOF 3
ENDMDL
MODEL 2
REMARK VINA RESULT:      -4.8      2.376      4.808
REMARK  3 active torsions:
REMARK  status: ('A' for Active; 'I' for Inactive)
REMARK    1  A    between atoms: C7_7  and  C9_9 
REMARK    2  A    between atoms: C8_8  and  C9_9 
REMARK    3  A    between atoms: C8_8  and  N10_10 
ROOT
HETATM    1  C1  UNL     1     -32.548  10.542   1.410  1.00 20.00     0.052 C 
HETATM    2  C2  UNL     1     -32.917   9.647   2.593  1.00 20.00     0.274 C 
HETATM    3  C3  UNL     1     -31.661   8.325   1.133  1.00 20.00     0.292 C 
HETATM    4  C4  UNL     1     -31.959   9.602   0.360  1.00 20.00     0.112 C 
HETATM    5  N10 UNL     1     -32.768   8.280   2.091  1.00 20.00     0.090 N 
HETATM    6 CL11 UNL     1     -33.148   9.285  -0.941  1.00 20.00    -0.123 Cl
ENDROOT
BRANCH   5   7
HETATM    7  C8  UNL     1     -32.551   7.313   3.155  1.00 20.00     0.276 C 
BRANCH   7   8
HETATM    8  C9  UNL     1     -33.677   6.275   3.279  1.00 20.00     0.009 C 
HETATM    9  C6  UNL     1     -33.180   4.878   2.888  1.00 20.00     0.011 C 
BRANCH   8  10
HETATM   10  C7  UNL     1     -34.330   6.223   4.674  1.00 20.00     0.001 C 
HETATM   11  C5  UNL     1     -33.746   7.227   5.658  1.00 20.00     0.005 C 
ENDBRANCH   8  10
ENDBRANCH   7   8
ENDBRANCH   5   7
TORSDOF 3
ENDMDL
MODEL 3
REMARK VINA RESULT:      -4.7      0.877      1.372
REMARK  3 active torsions:
REMARK  status: ('A' for Active; 'I' for Inactive)
REMARK    1  A    between atoms: C7_7  and  C9_9 
REMARK    2  A    between atoms: C8_8  and  C9_9 
REMARK    3  A    between atoms: C8_8  and  N10_10 
ROOT
HETATM    1  C1  UNL     1     -34.164   6.555   5.551  1.00 20.00     0.052 C 
HETATM    2  C2  UNL     1     -33.374   7.400   4.552  1.00 20.00     0.274 C 
HETATM    3  C3  UNL     1     -34.803   6.052   3.289  1.00 20.00     0.292 C 
HETATM    4  C4  UNL     1     -34.894   5.510   4.709  1.00 20.00     0.112 C 
HETATM    5  N10 UNL     1     -33.479   6.678   3.283  1.00 20.00     0.090 N 
HETATM    6 CL11 UNL     1     -34.077   3.922   4.829  1.00 20.00    -0.123 Cl
ENDROOT
BRANCH   5   7
HETATM    7  C8  UNL     1     -33.271   7.539   2.129  1.00 20.00     0.276 C 
BRANCH   7   8
HETATM    8  C9  UNL     1     -32.474   8.813   2.451  1.00 20.00     0.009 C 
HETATM    9  C6  UNL     1     -31.012   8.479   2.766  1.00 20.00     0.011 C 
BRANCH   8  10
HETATM   10  C7  UNL     1     -32.537   9.885   1.346  1.00 20.00     0.001 C 
HETATM   11  C5  UNL     1     -32.861   9.324  -0.032  1.00 20.00     0.005 C 
ENDBRANCH   8  10
ENDBRANCH   7   8
ENDBRANCH   5   7
TORSDOF 3
ENDMDL
MODEL 4
REMARK VINA RESULT:      -4.5      2.461      4.841
REMARK  3 active torsions:
REMARK  status: ('A' for Active; 'I' for Inactive)
REMARK    1  A    between atoms: C7_7  and  C9_9 
REMARK    2  A    between atoms: C8_8  and  C9_9 
REMARK    3  A    between atoms: C8_8  and  N10_10 
ROOT
HETATM    1  C1  UNL     1     -31.293   8.753   1.022  1.00 20.00     0.052 C 
HETATM    2  C2  UNL     1     -31.281   7.908   2.296  1.00 20.00     0.274 C 
HETATM    3  C3  UNL     1     -33.516   8.443   1.880  1.00 20.00     0.292 C 
HETATM    4  C4  UNL     1     -32.714   9.303   0.913  1.00 20.00     0.112 C 
HETATM    5  N10 UNL     1     -32.552   8.208   2.957  1.00 20.00     0.090 N 
HETATM    6 CL11 UNL     1     -32.764  11.021   1.412  1.00 20.00    -0.123 Cl
ENDROOT
BRANCH   5   7
HETATM    7  C8  UNL     1     -32.973   7.154   3.867  1.00 20.00     0.276 C 
BRANCH   7   8
HETATM    8  C9  UNL     1     -33.928   6.136   3.227  1.00 20.00     0.009 C 
HETATM    9  C6  UNL     1     -33.164   4.897   2.745  1.00 20.00     0.011 C 
BRANCH   8  10
HETATM   10  C7  UNL     1     -35.091   5.707   4.143  1.00 20.00     0.001 C 
HETATM   11  C5  UNL     1     -34.637   5.116   5.470  1.00 20.00     0.005 C 
ENDBRANCH   8  10
ENDBRANCH   7   8
ENDBRANCH   5   7
TORSDOF 3
ENDMDL
MODEL 5
REMARK VINA RESULT:      -4.4      2.371      4.772
REMARK  3 active torsions:
REMARK  status: ('A' for Active; 'I' for Inactive)
REMARK    1  A    between atoms: C7_7  and  C9_9 
REMARK    2  A    between atoms: C8_8  and  C9_9 
REMARK    3  A    between atoms: C8_8  and  N10_10 
ROOT
HETATM    1  C1  UNL     1     -31.170   8.636   2.456  1.00 20.00     0.052 C 
HETATM    2  C2  UNL     1     -31.933   7.841   3.516  1.00 20.00     0.274 C 
HETATM    3  C3  UNL     1     -33.314   7.927   1.635  1.00 20.00     0.292 C 
HETATM    4  C4  UNL     1     -32.181   8.901   1.343  1.00 20.00     0.112 C 
HETATM    5  N10 UNL     1     -33.334   7.908   3.098  1.00 20.00     0.090 N 
HETATM    6 CL11 UNL     1     -32.770  10.590   1.416  1.00 20.00    -0.123 Cl
ENDROOT
BRANCH   5   7
HETATM    7  C8  UNL     1     -34.131   6.816   3.635  1.00 20.00     0.276 C 
BRANCH   7   8
HETATM    8  C9  UNL     1     -33.714   6.390   5.051  1.00 20.00     0.009 C 
HETATM    9  C6  UNL     1     -33.966   7.518   6.058  1.00 20.00     0.011 C 
BRANCH   8  10
HETATM   10  C7  UNL     1     -34.391   5.095   5.540  1.00 20.00     0.001 C 
HETATM   11  C5  UNL     1     -34.378   3.974   4.510  1.00 20.00     0.005 C 
ENDBRANCH   8  10
ENDBRANCH   7   8
ENDBRANCH   5   7
TORSDOF 3
ENDMDL
MODEL 6
REMARK VINA RESULT:      -4.2      2.199      4.466
REMARK  3 active torsions:
REMARK  status: ('A' for Active; 'I' for Inactive)
REMARK    1  A    between atoms: C7_7  and  C9_9 
REMARK    2  A    between atoms: C8_8  and  C9_9 
REMARK    3  A    between atoms: C8_8  and  N10_10 
ROOT
HETATM    1  C1  UNL     1     -32.545  10.623   1.146  1.00 20.00     0.052 C 
HETATM    2  C2  UNL     1     -32.631   9.976   2.528  1.00 20.00     0.274 C 
HETATM    3  C3  UNL     1     -31.446   8.486   1.175  1.00 20.00     0.292 C 
HETATM    4  C4  UNL     1     -32.004   9.534   0.222  1.00 20.00     0.112 C 
HETATM    5  N10 UNL     1     -32.391   8.551   2.291  1.00 20.00     0.090 N 
HETATM    6 CL11 UNL     1     -33.319   8.840  -0.774  1.00 20.00    -0.123 Cl
ENDROOT
BRANCH   5   7
HETATM    7  C8  UNL     1     -31.909   7.859   3.476  1.00 20.00     0.276 C 
BRANCH   7   8
HETATM    8  C9  UNL     1     -32.953   6.927   4.110  1.00 20.00     0.009 C 
HETATM    9  C6  UNL     1     -33.501   7.523   5.411  1.00 20.00     0.011 C 
BRANCH   8  10
HETATM   10  C7  UNL     1     -34.120   6.566   3.171  1.00 20.00     0.001 C 
HETATM   11  C5  UNL     1     -35.237   5.790   3.855  1.00 20.00     0.005 C 
ENDBRANCH   8  10
ENDBRANCH   7   8
ENDBRANCH   5   7
TORSDOF 3
ENDMDL
MODEL 7
REMARK VINA RESULT:      -4.1     10.417     11.390
REMARK  3 active torsions:
REMARK  status: ('A' for Active; 'I' for Inactive)
REMARK    1  A    between atoms: C7_7  and  C9_9 
REMARK    2  A    between atoms: C8_8  and  C9_9 
REMARK    3  A    between atoms: C8_8  and  N10_10 
ROOT
HETATM    1  C1  UNL     1     -34.104  15.373  -6.550  1.00 20.00     0.052 C 
HETATM    2  C2  UNL     1     -34.044  16.715  -5.819  1.00 20.00     0.274 C 
HETATM    3  C3  UNL     1     -33.501  15.079  -4.242  1.00 20.00     0.292 C 
HETATM    4  C4  UNL     1     -34.003  14.311  -5.457  1.00 20.00     0.112 C 
HETATM    5  N10 UNL     1     -34.165  16.374  -4.400  1.00 20.00     0.090 N 
HETATM    6 CL11 UNL     1     -35.610  13.594  -5.126  1.00 20.00    -0.123 Cl
ENDROOT
BRANCH   5   7
HETATM    7  C8  UNL     1     -33.612  17.399  -3.529  1.00 20.00     0.276 C 
BRANCH   7   8
HETATM    8  C9  UNL     1     -33.701  17.048  -2.036  1.00 20.00     0.009 C 
HETATM    9  C6  UNL     1     -32.927  18.063  -1.187  1.00 20.00     0.011 C 
BRANCH   8  10
HETATM   10  C7  UNL     1     -35.144  16.922  -1.509  1.00 20.00     0.001 C 
HETATM   11  C5  UNL     1     -35.337  17.500  -0.114  1.00 20.00     0.005 C 
ENDBRANCH   8  10
ENDBRANCH   7   8
ENDBRANCH   5   7
TORSDOF 3
ENDMDL
MODEL 8
REMARK VINA RESULT:      -4.0      1.261      1.890
REMARK  3 active torsions:
REMARK  status: ('A' for Active; 'I' for Inactive)
REMARK    1  A    between atoms: C7_7  and  C9_9 
REMARK    2  A    between atoms: C8_8  and  C9_9 
REMARK    3  A    between atoms: C8_8  and  N10_10 
ROOT
HETATM    1  C1  UNL     1     -33.573   5.042   3.196  1.00 20.00     0.052 C 
HETATM    2  C2  UNL     1     -32.566   6.012   2.577  1.00 20.00     0.274 C 
HETATM    3  C3  UNL     1     -33.560   7.142   4.363  1.00 20.00     0.292 C 
HETATM    4  C4  UNL     1     -34.386   5.876   4.183  1.00 20.00     0.112 C 
HETATM    5  N10 UNL     1     -32.999   7.337   3.025  1.00 20.00     0.090 N 
HETATM    6 CL11 UNL     1     -35.994   6.268   3.501  1.00 20.00    -0.123 Cl
ENDROOT
BRANCH   5   7
HETATM    7  C8  UNL     1     -31.922   8.314   3.004  1.00 20.00     0.276 C 
BRANCH   7   8
HETATM    8  C9  UNL     1     -31.897   9.173   1.730  1.00 20.00     0.009 C 
HETATM    9  C6  UNL     1     -31.080   8.491   0.627  1.00 20.00     0.011 C 
BRANCH   8  10
HETATM   10  C7  UNL     1     -33.295   9.536   1.194  1.00 20.00     0.001 C 
HETATM   11  C5  UNL     1     -33.379   9.559  -0.326  1.00 20.00     0.005 C 
ENDBRANCH   8  10
ENDBRANCH   7   8
ENDBRANCH   5   7
TORSDOF 3
ENDMDL
MODEL 9
REMARK VINA RESULT:      -4.0     10.343     11.288
REMARK  3 active torsions:
REMARK  status: ('A' for Active; 'I' for Inactive)
REMARK    1  A    between atoms: C7_7  and  C9_9 
REMARK    2  A    between atoms: C8_8  and  C9_9 
REMARK    3  A    between atoms: C8_8  and  N10_10 
ROOT
HETATM    1  C1  UNL     1     -35.315  13.554  -6.737  1.00 20.00     0.052 C 
HETATM    2  C2  UNL     1     -34.241  14.624  -6.545  1.00 20.00     0.274 C 
HETATM    3  C3  UNL     1     -34.994  14.055  -4.409  1.00 20.00     0.292 C 
HETATM    4  C4  UNL     1     -35.970  13.386  -5.367  1.00 20.00     0.112 C 
HETATM    5  N10 UNL     1     -34.491  15.172  -5.211  1.00 20.00     0.090 N 
HETATM    6 CL11 UNL     1     -37.558  14.211  -5.323  1.00 20.00    -0.123 Cl
ENDROOT
BRANCH   5   7
HETATM    7  C8  UNL     1     -33.312  15.794  -4.630  1.00 20.00     0.276 C 
BRANCH   7   8
HETATM    8  C9  UNL     1     -33.618  17.085  -3.855  1.00 20.00     0.009 C 
HETATM    9  C6  UNL     1     -34.929  17.716  -4.339  1.00 20.00     0.011 C 
BRANCH   8  10
HETATM   10  C7  UNL     1     -33.661  16.901  -2.326  1.00 20.00     0.001 C 
HETATM   11  C5  UNL     1     -35.071  16.771  -1.766  1.00 20.00     0.005 C 
ENDBRANCH   8  10
ENDBRANCH   7   8
ENDBRANCH   5   7
TORSDOF 3
ENDMDL
