MODEL 1
REMARK VINA RESULT:      -6.0      0.000      0.000
REMARK  3 active torsions:
REMARK  status: ('A' for Active; 'I' for Inactive)
REMARK    1  A    between atoms: C7_7  and  C8_8 
REMARK    2  A    between atoms: C7_7  and  C9_9 
REMARK    3  A    between atoms: C8_8  and  N10_10 
ROOT
HETATM    1  C1  UNL     1     -33.898   5.357   3.212  1.00 20.00     0.052 C 
HETATM    2  C2  UNL     1     -33.121   6.371   2.392  1.00 20.00     0.274 C 
HETATM    3  C3  UNL     1     -33.633   7.461   4.400  1.00 20.00     0.292 C 
HETATM    4  C4  UNL     1     -34.494   6.198   4.336  1.00 20.00     0.112 C 
HETATM    5  N10 UNL     1     -32.550   7.215   3.441  1.00 20.00     0.089 N 
HETATM    6 CL11 UNL     1     -34.511   5.311   5.875  1.00 20.00    -0.123 Cl
ENDROOT
BRANCH   5   7
HETATM    7  C8  UNL     1     -31.972   8.444   2.919  1.00 20.00     0.272 C 
BRANCH   7   8
HETATM    8  C7  UNL     1     -31.748   8.388   1.409  1.00 20.00     0.034 C 
BRANCH   8   9
HETATM    9  C9  UNL     1     -32.169   9.657   0.640  1.00 20.00    -0.021 C 
HETATM   10  C5  UNL     1     -32.814  10.655   1.606  1.00 20.00     0.009 C 
HETATM   11  C6  UNL     1     -33.134   9.352  -0.507  1.00 20.00     0.009 C 
ENDBRANCH   8   9
ENDBRANCH   7   8
ENDBRANCH   5   7
TORSDOF 3
ENDMDL
MODEL 2
REMARK VINA RESULT:      -5.3      1.006      1.897
REMARK  3 active torsions:
REMARK  status: ('A' for Active; 'I' for Inactive)
REMARK    1  A    between atoms: C7_7  and  C8_8 
REMARK    2  A    between atoms: C7_7  and  C9_9 
REMARK    3  A    between atoms: C8_8  and  N10_10 
ROOT
HETATM    1  C1  UNL     1     -33.998   7.061   5.391  1.00 20.00     0.052 C 
HETATM    2  C2  UNL     1     -32.731   7.816   5.032  1.00 20.00     0.274 C 
HETATM    3  C3  UNL     1     -33.192   6.468   3.175  1.00 20.00     0.292 C 
HETATM    4  C4  UNL     1     -34.067   5.970   4.327  1.00 20.00     0.112 C 
HETATM    5  N10 UNL     1     -32.802   7.826   3.572  1.00 20.00     0.089 N 
HETATM    6 CL11 UNL     1     -35.742   5.660   3.821  1.00 20.00    -0.123 Cl
ENDROOT
BRANCH   5   7
HETATM    7  C8  UNL     1     -31.558   8.256   2.953  1.00 20.00     0.272 C 
BRANCH   7   8
HETATM    8  C7  UNL     1     -31.705   8.497   1.452  1.00 20.00     0.034 C 
BRANCH   8   9
HETATM    9  C9  UNL     1     -32.856   9.441   1.052  1.00 20.00    -0.021 C 
HETATM   10  C5  UNL     1     -33.057   9.395  -0.465  1.00 20.00     0.009 C 
HETATM   11  C6  UNL     1     -32.609  10.884   1.496  1.00 20.00     0.009 C 
ENDBRANCH   8   9
ENDBRANCH   7   8
ENDBRANCH   5   7
TORSDOF 3
ENDMDL
MODEL 3
REMARK VINA RESULT:      -4.9      2.685      5.133
REMARK  3 active torsions:
REMARK  status: ('A' for Active; 'I' for Inactive)
REMARK    1  A    between atoms: C7_7  and  C8_8 
REMARK    2  A    between atoms: C7_7  and  C9_9 
REMARK    3  A    between atoms: C8_8  and  N10_10 
ROOT
HETATM    1  C1  UNL     1     -31.300   8.777   1.125  1.00 20.00     0.052 C 
HETATM    2  C2  UNL     1     -31.488   8.063   2.451  1.00 20.00     0.274 C 
HETATM    3  C3  UNL     1     -33.611   8.866   1.875  1.00 20.00     0.292 C 
HETATM    4  C4  UNL     1     -32.599   9.560   0.961  1.00 20.00     0.112 C 
HETATM    5  N10 UNL     1     -32.900   7.686   2.380  1.00 20.00     0.089 N 
HETATM    6 CL11 UNL     1     -33.129   9.595  -0.735  1.00 20.00    -0.123 Cl
ENDROOT
BRANCH   5   7
HETATM    7  C8  UNL     1     -33.420   7.221   3.656  1.00 20.00     0.272 C 
BRANCH   7   8
HETATM    8  C7  UNL     1     -34.636   6.312   3.494  1.00 20.00     0.034 C 
BRANCH   8   9
HETATM    9  C9  UNL     1     -34.885   5.340   4.665  1.00 20.00    -0.021 C 
HETATM   10  C5  UNL     1     -34.400   5.972   5.972  1.00 20.00     0.009 C 
HETATM   11  C6  UNL     1     -34.198   3.989   4.460  1.00 20.00     0.009 C 
ENDBRANCH   8   9
ENDBRANCH   7   8
ENDBRANCH   5   7
TORSDOF 3
ENDMDL
MODEL 4
REMARK VINA RESULT:      -4.2     10.556     11.375
REMARK  3 active torsions:
REMARK  status: ('A' for Active; 'I' for Inactive)
REMARK    1  A    between atoms: C7_7  and  C8_8 
REMARK    2  A    between atoms: C7_7  and  C9_9 
REMARK    3  A    between atoms: C8_8  and  N10_10 
ROOT
HETATM    1  C1  UNL     1     -35.884  13.449  -5.307  1.00 20.00     0.052 C 
HETATM    2  C2  UNL     1     -34.879  14.077  -4.359  1.00 20.00     0.274 C 
HETATM    3  C3  UNL     1     -34.251  14.803  -6.495  1.00 20.00     0.292 C 
HETATM    4  C4  UNL     1     -35.250  13.659  -6.679  1.00 20.00     0.112 C 
HETATM    5  N10 UNL     1     -34.464  15.258  -5.116  1.00 20.00     0.089 N 
HETATM    6 CL11 UNL     1     -36.476  14.022  -7.913  1.00 20.00    -0.123 Cl
ENDROOT
BRANCH   5   7
HETATM    7  C8  UNL     1     -33.290  15.903  -4.550  1.00 20.00     0.272 C 
BRANCH   7   8
HETATM    8  C7  UNL     1     -33.644  17.128  -3.710  1.00 20.00     0.034 C 
BRANCH   8   9
HETATM    9  C9  UNL     1     -33.674  16.889  -2.187  1.00 20.00    -0.021 C 
HETATM   10  C5  UNL     1     -35.126  16.809  -1.706  1.00 20.00     0.009 C 
HETATM   11  C6  UNL     1     -32.933  17.977  -1.410  1.00 20.00     0.009 C 
ENDBRANCH   8   9
ENDBRANCH   7   8
ENDBRANCH   5   7
TORSDOF 3
ENDMDL
MODEL 5
REMARK VINA RESULT:      -4.0     10.764     11.394
REMARK  3 active torsions:
REMARK  status: ('A' for Active; 'I' for Inactive)
REMARK    1  A    between atoms: C7_7  and  C8_8 
REMARK    2  A    between atoms: C7_7  and  C9_9 
REMARK    3  A    between atoms: C8_8  and  N10_10 
ROOT
HETATM    1  C1  UNL     1     -35.613  13.614  -5.183  1.00 20.00     0.052 C 
HETATM    2  C2  UNL     1     -35.068  14.647  -4.214  1.00 20.00     0.274 C 
HETATM    3  C3  UNL     1     -34.089  15.161  -6.278  1.00 20.00     0.292 C 
HETATM    4  C4  UNL     1     -34.709  13.768  -6.402  1.00 20.00     0.112 C 
HETATM    5  N10 UNL     1     -34.757  15.757  -5.115  1.00 20.00     0.089 N 
HETATM    6 CL11 UNL     1     -35.617  13.562  -7.916  1.00 20.00    -0.123 Cl
ENDROOT
BRANCH   5   7
HETATM    7  C8  UNL     1     -33.958  16.791  -4.477  1.00 20.00     0.272 C 
BRANCH   7   8
HETATM    8  C7  UNL     1     -33.634  16.463  -3.021  1.00 20.00     0.034 C 
BRANCH   8   9
HETATM    9  C9  UNL     1     -34.071  17.531  -1.999  1.00 20.00    -0.021 C 
HETATM   10  C5  UNL     1     -32.872  17.943  -1.139  1.00 20.00     0.009 C 
HETATM   11  C6  UNL     1     -35.209  17.049  -1.099  1.00 20.00     0.009 C 
ENDBRANCH   8   9
ENDBRANCH   7   8
ENDBRANCH   5   7
TORSDOF 3
ENDMDL
MODEL 6
REMARK VINA RESULT:      -4.0     10.130     10.924
REMARK  3 active torsions:
REMARK  status: ('A' for Active; 'I' for Inactive)
REMARK    1  A    between atoms: C7_7  and  C8_8 
REMARK    2  A    between atoms: C7_7  and  C9_9 
REMARK    3  A    between atoms: C8_8  and  N10_10 
ROOT
HETATM    1  C1  UNL     1     -34.632  17.841   0.084  1.00 20.00     0.052 C 
HETATM    2  C2  UNL     1     -34.993  17.163  -1.224  1.00 20.00     0.274 C 
HETATM    3  C3  UNL     1     -32.954  18.239  -1.630  1.00 20.00     0.292 C 
HETATM    4  C4  UNL     1     -33.505  18.790  -0.313  1.00 20.00     0.112 C 
HETATM    5  N10 UNL     1     -33.675  16.977  -1.829  1.00 20.00     0.089 N 
HETATM    6 CL11 UNL     1     -32.262  18.891   0.953  1.00 20.00    -0.123 Cl
ENDROOT
BRANCH   5   7
HETATM    7  C8  UNL     1     -33.750  16.588  -3.229  1.00 20.00     0.272 C 
BRANCH   7   8
HETATM    8  C7  UNL     1     -34.897  15.618  -3.505  1.00 20.00     0.034 C 
BRANCH   8   9
HETATM    9  C9  UNL     1     -34.474  14.261  -4.104  1.00 20.00    -0.021 C 
HETATM   10  C5  UNL     1     -32.985  14.297  -4.461  1.00 20.00     0.009 C 
HETATM   11  C6  UNL     1     -35.292  13.888  -5.341  1.00 20.00     0.009 C 
ENDBRANCH   8   9
ENDBRANCH   7   8
ENDBRANCH   5   7
TORSDOF 3
ENDMDL
MODEL 7
REMARK VINA RESULT:      -3.9     10.559     11.166
REMARK  3 active torsions:
REMARK  status: ('A' for Active; 'I' for Inactive)
REMARK    1  A    between atoms: C7_7  and  C8_8 
REMARK    2  A    between atoms: C7_7  and  C9_9 
REMARK    3  A    between atoms: C8_8  and  N10_10 
ROOT
HETATM    1  C1  UNL     1     -34.018  15.204  -5.971  1.00 20.00     0.052 C 
HETATM    2  C2  UNL     1     -33.422  16.218  -5.012  1.00 20.00     0.274 C 
HETATM    3  C3  UNL     1     -35.353  15.427  -3.951  1.00 20.00     0.292 C 
HETATM    4  C4  UNL     1     -35.419  14.975  -5.412  1.00 20.00     0.112 C 
HETATM    5  N10 UNL     1     -33.938  15.743  -3.729  1.00 20.00     0.089 N 
HETATM    6 CL11 UNL     1     -35.915  13.276  -5.574  1.00 20.00    -0.123 Cl
ENDROOT
BRANCH   5   7
HETATM    7  C8  UNL     1     -33.739  16.704  -2.655  1.00 20.00     0.272 C 
BRANCH   7   8
HETATM    8  C7  UNL     1     -34.924  16.758  -1.693  1.00 20.00     0.034 C 
BRANCH   8   9
HETATM    9  C9  UNL     1     -34.881  17.910  -0.669  1.00 20.00    -0.021 C 
HETATM   10  C5  UNL     1     -33.426  18.287  -0.378  1.00 20.00     0.009 C 
HETATM   11  C6  UNL     1     -35.594  17.558   0.637  1.00 20.00     0.009 C 
ENDBRANCH   8   9
ENDBRANCH   7   8
ENDBRANCH   5   7
TORSDOF 3
ENDMDL
MODEL 8
REMARK VINA RESULT:      -3.9     10.945     11.472
REMARK  3 active torsions:
REMARK  status: ('A' for Active; 'I' for Inactive)
REMARK    1  A    between atoms: C7_7  and  C8_8 
REMARK    2  A    between atoms: C7_7  and  C9_9 
REMARK    3  A    between atoms: C8_8  and  N10_10 
ROOT
HETATM    1  C1  UNL     1     -36.023  13.927  -5.335  1.00 20.00     0.052 C 
HETATM    2  C2  UNL     1     -36.137  15.062  -4.334  1.00 20.00     0.274 C 
HETATM    3  C3  UNL     1     -34.122  15.437  -5.467  1.00 20.00     0.292 C 
HETATM    4  C4  UNL     1     -34.573  14.012  -5.798  1.00 20.00     0.112 C 
HETATM    5  N10 UNL     1     -35.337  16.101  -4.982  1.00 20.00     0.089 N 
HETATM    6 CL11 UNL     1     -34.419  13.638  -7.528  1.00 20.00    -0.123 Cl
ENDROOT
BRANCH   5   7
HETATM    7  C8  UNL     1     -35.050  17.220  -4.098  1.00 20.00     0.272 C 
BRANCH   7   8
HETATM    8  C7  UNL     1     -33.668  17.117  -3.455  1.00 20.00     0.034 C 
BRANCH   8   9
HETATM    9  C9  UNL     1     -33.670  17.020  -1.916  1.00 20.00    -0.021 C 
HETATM   10  C5  UNL     1     -35.113  17.013  -1.402  1.00 20.00     0.009 C 
HETATM   11  C6  UNL     1     -32.894  18.161  -1.257  1.00 20.00     0.009 C 
ENDBRANCH   8   9
ENDBRANCH   7   8
ENDBRANCH   5   7
TORSDOF 3
ENDMDL
MODEL 9
REMARK VINA RESULT:      -3.9     10.447     11.060
REMARK  3 active torsions:
REMARK  status: ('A' for Active; 'I' for Inactive)
REMARK    1  A    between atoms: C7_7  and  C8_8 
REMARK    2  A    between atoms: C7_7  and  C9_9 
REMARK    3  A    between atoms: C8_8  and  N10_10 
ROOT
HETATM    1  C1  UNL     1     -35.134  16.891  -1.313  1.00 20.00     0.052 C 
HETATM    2  C2  UNL     1     -35.154  16.237  -2.682  1.00 20.00     0.274 C 
HETATM    3  C3  UNL     1     -33.356  17.735  -2.741  1.00 20.00     0.292 C 
HETATM    4  C4  UNL     1     -34.192  18.075  -1.505  1.00 20.00     0.112 C 
HETATM    5  N10 UNL     1     -33.754  16.366  -3.087  1.00 20.00     0.089 N 
HETATM    6 CL11 UNL     1     -33.190  18.351  -0.064  1.00 20.00    -0.123 Cl
ENDROOT
BRANCH   5   7
HETATM    7  C8  UNL     1     -33.547  16.060  -4.494  1.00 20.00     0.272 C 
BRANCH   7   8
HETATM    8  C7  UNL     1     -33.800  14.589  -4.815  1.00 20.00     0.034 C 
BRANCH   8   9
HETATM    9  C9  UNL     1     -34.914  14.329  -5.849  1.00 20.00    -0.021 C 
HETATM   10  C5  UNL     1     -36.026  13.493  -5.210  1.00 20.00     0.009 C 
HETATM   11  C6  UNL     1     -34.395  13.623  -7.102  1.00 20.00     0.009 C 
ENDBRANCH   8   9
ENDBRANCH   7   8
ENDBRANCH   5   7
TORSDOF 3
ENDMDL
