MODEL 1
REMARK VINA RESULT:      -5.9      0.000      0.000
REMARK  5 active torsions:
REMARK  status: ('A' for Active; 'I' for Inactive)
REMARK    1  A    between atoms: C2_2  and  C8_8 
REMARK    2  A    between atoms: C5_5  and  C9_9 
REMARK    3  A    between atoms: C7_7  and  C8_8 
REMARK    4  A    between atoms: C7_7  and  C9_9 
REMARK    5  A    between atoms: C9_9  and  O10_10 
ROOT
HETATM    1  C9  UNL     1     -32.288   8.380   2.722  1.00 20.00     0.122 C 
ENDROOT
BRANCH   1   2
HETATM    2  C5  UNL     1     -31.975   8.923   1.333  1.00 20.00     0.014 A 
HETATM    3  C3  UNL     1     -33.073   9.093   0.321  1.00 20.00     0.007 A 
HETATM    4  C4  UNL     1     -32.428  10.301   0.940  1.00 20.00     0.007 A 
ENDBRANCH   1   2
BRANCH   1   5
HETATM    5  C7  UNL     1     -32.939   6.989   2.699  1.00 20.00     0.040 C 
BRANCH   5   6
HETATM    6  C8  UNL     1     -34.057   6.763   3.733  1.00 20.00     0.005 C 
HETATM    7  C6  UNL     1     -33.621   7.306   5.098  1.00 20.00     0.014 C 
BRANCH   6   8
HETATM    8  C2  UNL     1     -34.409   5.302   3.866  1.00 20.00    -0.033 C 
HETATM    9  C1  UNL     1     -34.632   4.691   5.036  1.00 20.00     0.007 C 
ENDBRANCH   6   8
ENDBRANCH   5   6
ENDBRANCH   1   5
BRANCH   1  10
HETATM   10  O10 UNL     1     -31.051   8.290   3.432  1.00 20.00    -0.395 OA
HETATM   11  H26 UNL     1     -31.257   8.473   4.361  1.00 20.00     0.210 HD
ENDBRANCH   1  10
TORSDOF 5
ENDMDL
MODEL 2
REMARK VINA RESULT:      -5.5      1.485      4.712
REMARK  5 active torsions:
REMARK  status: ('A' for Active; 'I' for Inactive)
REMARK    1  A    between atoms: C2_2  and  C8_8 
REMARK    2  A    between atoms: C5_5  and  C9_9 
REMARK    3  A    between atoms: C7_7  and  C8_8 
REMARK    4  A    between atoms: C7_7  and  C9_9 
REMARK    5  A    between atoms: C9_9  and  O10_10 
ROOT
HETATM    1  C9  UNL     1     -34.157   6.064   2.918  1.00 20.00     0.122 C 
ENDROOT
BRANCH   1   2
HETATM    2  C5  UNL     1     -34.960   5.646   4.142  1.00 20.00     0.014 A 
HETATM    3  C3  UNL     1     -34.501   4.495   4.992  1.00 20.00     0.007 A 
HETATM    4  C4  UNL     1     -34.421   5.899   5.522  1.00 20.00     0.007 A 
ENDBRANCH   1   2
BRANCH   1   5
HETATM    5  C7  UNL     1     -33.644   7.510   2.990  1.00 20.00     0.040 C 
BRANCH   5   6
HETATM    6  C8  UNL     1     -32.183   7.718   2.551  1.00 20.00     0.005 C 
HETATM    7  C6  UNL     1     -31.369   8.306   3.709  1.00 20.00     0.014 C 
BRANCH   6   8
HETATM    8  C2  UNL     1     -32.083   8.634   1.357  1.00 20.00    -0.033 C 
HETATM    9  C1  UNL     1     -32.586   9.874   1.321  1.00 20.00     0.007 C 
ENDBRANCH   6   8
ENDBRANCH   5   6
ENDBRANCH   1   5
BRANCH   1  10
HETATM   10  O10 UNL     1     -33.031   5.188   2.829  1.00 20.00    -0.395 OA
HETATM   11  H26 UNL     1     -33.295   4.464   2.242  1.00 20.00     0.210 HD
ENDBRANCH   1  10
TORSDOF 5
ENDMDL
MODEL 3
REMARK VINA RESULT:      -5.5      1.385      4.813
REMARK  5 active torsions:
REMARK  status: ('A' for Active; 'I' for Inactive)
REMARK    1  A    between atoms: C2_2  and  C8_8 
REMARK    2  A    between atoms: C5_5  and  C9_9 
REMARK    3  A    between atoms: C7_7  and  C8_8 
REMARK    4  A    between atoms: C7_7  and  C9_9 
REMARK    5  A    between atoms: C9_9  and  O10_10 
ROOT
HETATM    1  C9  UNL     1     -33.619   6.840   4.551  1.00 20.00     0.122 C 
ENDROOT
BRANCH   1   2
HETATM    2  C5  UNL     1     -34.695   5.766   4.642  1.00 20.00     0.014 A 
HETATM    3  C3  UNL     1     -34.374   4.340   4.289  1.00 20.00     0.007 A 
HETATM    4  C4  UNL     1     -34.630   4.720   5.720  1.00 20.00     0.007 A 
ENDBRANCH   1   2
BRANCH   1   5
HETATM    5  C7  UNL     1     -33.668   7.641   3.241  1.00 20.00     0.040 C 
BRANCH   5   6
HETATM    6  C8  UNL     1     -32.326   7.785   2.502  1.00 20.00     0.005 C 
HETATM    7  C6  UNL     1     -31.273   8.377   3.445  1.00 20.00     0.014 C 
BRANCH   6   8
HETATM    8  C2  UNL     1     -32.451   8.662   1.281  1.00 20.00    -0.033 C 
HETATM    9  C1  UNL     1     -32.576   9.995   1.327  1.00 20.00     0.007 C 
ENDBRANCH   6   8
ENDBRANCH   5   6
ENDBRANCH   1   5
BRANCH   1  10
HETATM   10  O10 UNL     1     -33.825   7.741   5.641  1.00 20.00    -0.395 OA
HETATM   11  H26 UNL     1     -34.079   7.195   6.401  1.00 20.00     0.210 HD
ENDBRANCH   1  10
TORSDOF 5
ENDMDL
MODEL 4
REMARK VINA RESULT:      -5.1      1.470      1.816
REMARK  5 active torsions:
REMARK  status: ('A' for Active; 'I' for Inactive)
REMARK    1  A    between atoms: C2_2  and  C8_8 
REMARK    2  A    between atoms: C5_5  and  C9_9 
REMARK    3  A    between atoms: C7_7  and  C8_8 
REMARK    4  A    between atoms: C7_7  and  C9_9 
REMARK    5  A    between atoms: C9_9  and  O10_10 
ROOT
HETATM    1  C9  UNL     1     -32.890   6.801   3.067  1.00 20.00     0.122 C 
ENDROOT
BRANCH   1   2
HETATM    2  C5  UNL     1     -32.718   7.715   1.862  1.00 20.00     0.014 A 
HETATM    3  C3  UNL     1     -32.781   9.208   2.028  1.00 20.00     0.007 A 
HETATM    4  C4  UNL     1     -31.472   8.542   1.712  1.00 20.00     0.007 A 
ENDBRANCH   1   2
BRANCH   1   5
HETATM    5  C7  UNL     1     -34.319   6.799   3.631  1.00 20.00     0.040 C 
BRANCH   5   6
HETATM    6  C8  UNL     1     -34.426   6.785   5.166  1.00 20.00     0.005 C 
HETATM    7  C6  UNL     1     -33.233   7.527   5.778  1.00 20.00     0.014 C 
BRANCH   6   8
HETATM    8  C2  UNL     1     -34.472   5.380   5.711  1.00 20.00    -0.033 C 
HETATM    9  C1  UNL     1     -34.587   4.285   4.949  1.00 20.00     0.007 C 
ENDBRANCH   6   8
ENDBRANCH   5   6
ENDBRANCH   1   5
BRANCH   1  10
HETATM   10  O10 UNL     1     -32.568   5.475   2.644  1.00 20.00    -0.395 OA
HETATM   11  H26 UNL     1     -33.307   4.913   2.923  1.00 20.00     0.210 HD
ENDBRANCH   1  10
TORSDOF 5
ENDMDL
MODEL 5
REMARK VINA RESULT:      -4.7      1.649      4.333
REMARK  5 active torsions:
REMARK  status: ('A' for Active; 'I' for Inactive)
REMARK    1  A    between atoms: C2_2  and  C8_8 
REMARK    2  A    between atoms: C5_5  and  C9_9 
REMARK    3  A    between atoms: C7_7  and  C8_8 
REMARK    4  A    between atoms: C7_7  and  C9_9 
REMARK    5  A    between atoms: C9_9  and  O10_10 
ROOT
HETATM    1  C9  UNL     1     -33.321   6.929   5.356  1.00 20.00     0.122 C 
ENDROOT
BRANCH   1   2
HETATM    2  C5  UNL     1     -34.548   6.093   5.697  1.00 20.00     0.014 A 
HETATM    3  C3  UNL     1     -35.283   5.352   4.616  1.00 20.00     0.007 A 
HETATM    4  C4  UNL     1     -34.481   4.593   5.635  1.00 20.00     0.007 A 
ENDBRANCH   1   2
BRANCH   1   5
HETATM    5  C7  UNL     1     -33.446   7.674   4.018  1.00 20.00     0.040 C 
BRANCH   5   6
HETATM    6  C8  UNL     1     -32.493   7.201   2.905  1.00 20.00     0.005 C 
HETATM    7  C6  UNL     1     -32.186   8.362   1.954  1.00 20.00     0.014 C 
BRANCH   6   8
HETATM    8  C2  UNL     1     -33.078   6.054   2.119  1.00 20.00    -0.033 C 
HETATM    9  C1  UNL     1     -32.849   4.764   2.395  1.00 20.00     0.007 C 
ENDBRANCH   6   8
ENDBRANCH   5   6
ENDBRANCH   1   5
BRANCH   1  10
HETATM   10  O10 UNL     1     -33.162   7.894   6.399  1.00 20.00    -0.395 OA
HETATM   11  H26 UNL     1     -32.207   8.005   6.522  1.00 20.00     0.210 HD
ENDBRANCH   1  10
TORSDOF 5
ENDMDL
MODEL 6
REMARK VINA RESULT:      -4.7      1.032      4.607
REMARK  5 active torsions:
REMARK  status: ('A' for Active; 'I' for Inactive)
REMARK    1  A    between atoms: C2_2  and  C8_8 
REMARK    2  A    between atoms: C5_5  and  C9_9 
REMARK    3  A    between atoms: C7_7  and  C8_8 
REMARK    4  A    between atoms: C7_7  and  C9_9 
REMARK    5  A    between atoms: C9_9  and  O10_10 
ROOT
HETATM    1  C9  UNL     1     -32.668   7.328   3.702  1.00 20.00     0.122 C 
ENDROOT
BRANCH   1   2
HETATM    2  C5  UNL     1     -33.918   7.220   4.565  1.00 20.00     0.014 A 
HETATM    3  C3  UNL     1     -34.824   6.027   4.440  1.00 20.00     0.007 A 
HETATM    4  C4  UNL     1     -33.985   6.207   5.674  1.00 20.00     0.007 A 
ENDBRANCH   1   2
BRANCH   1   5
HETATM    5  C7  UNL     1     -32.959   7.788   2.265  1.00 20.00     0.040 C 
BRANCH   5   6
HETATM    6  C8  UNL     1     -32.178   9.030   1.796  1.00 20.00     0.005 C 
HETATM    7  C6  UNL     1     -33.035  10.286   1.988  1.00 20.00     0.014 C 
BRANCH   6   8
HETATM    8  C2  UNL     1     -31.772   8.920   0.348  1.00 20.00    -0.033 C 
HETATM    9  C1  UNL     1     -32.616   9.074  -0.680  1.00 20.00     0.007 C 
ENDBRANCH   6   8
ENDBRANCH   5   6
ENDBRANCH   1   5
BRANCH   1  10
HETATM   10  O10 UNL     1     -31.807   8.288   4.319  1.00 20.00    -0.395 OA
HETATM   11  H26 UNL     1     -30.942   7.860   4.406  1.00 20.00     0.210 HD
ENDBRANCH   1  10
TORSDOF 5
ENDMDL
MODEL 7
REMARK VINA RESULT:      -4.4     10.625     11.414
REMARK  5 active torsions:
REMARK  status: ('A' for Active; 'I' for Inactive)
REMARK    1  A    between atoms: C2_2  and  C8_8 
REMARK    2  A    between atoms: C5_5  and  C9_9 
REMARK    3  A    between atoms: C7_7  and  C8_8 
REMARK    4  A    between atoms: C7_7  and  C9_9 
REMARK    5  A    between atoms: C9_9  and  O10_10 
ROOT
HETATM    1  C9  UNL     1     -35.246  13.804  -5.404  1.00 20.00     0.122 C 
ENDROOT
BRANCH   1   2
HETATM    2  C5  UNL     1     -35.434  13.954  -6.908  1.00 20.00     0.014 A 
HETATM    3  C3  UNL     1     -35.101  15.253  -7.586  1.00 20.00     0.007 A 
HETATM    4  C4  UNL     1     -34.237  14.045  -7.813  1.00 20.00     0.007 A 
ENDBRANCH   1   2
BRANCH   1   5
HETATM    5  C7  UNL     1     -35.748  15.016  -4.604  1.00 20.00     0.040 C 
BRANCH   5   6
HETATM    6  C8  UNL     1     -34.651  15.933  -4.032  1.00 20.00     0.005 C 
HETATM    7  C6  UNL     1     -33.289  15.238  -4.129  1.00 20.00     0.014 C 
BRANCH   6   8
HETATM    8  C2  UNL     1     -34.922  16.299  -2.594  1.00 20.00    -0.033 C 
HETATM    9  C1  UNL     1     -34.077  17.002  -1.829  1.00 20.00     0.007 C 
ENDBRANCH   6   8
ENDBRANCH   5   6
ENDBRANCH   1   5
BRANCH   1  10
HETATM   10  O10 UNL     1     -35.989  12.653  -4.996  1.00 20.00    -0.395 OA
HETATM   11  H26 UNL     1     -36.810  12.985  -4.603  1.00 20.00     0.210 HD
ENDBRANCH   1  10
TORSDOF 5
ENDMDL
MODEL 8
REMARK VINA RESULT:      -4.2     10.079     11.687
REMARK  5 active torsions:
REMARK  status: ('A' for Active; 'I' for Inactive)
REMARK    1  A    between atoms: C2_2  and  C8_8 
REMARK    2  A    between atoms: C5_5  and  C9_9 
REMARK    3  A    between atoms: C7_7  and  C8_8 
REMARK    4  A    between atoms: C7_7  and  C9_9 
REMARK    5  A    between atoms: C9_9  and  O10_10 
ROOT
HETATM    1  C9  UNL     1     -35.674  13.971  -5.074  1.00 20.00     0.122 C 
ENDROOT
BRANCH   1   2
HETATM    2  C5  UNL     1     -37.038  14.596  -4.812  1.00 20.00     0.014 A 
HETATM    3  C3  UNL     1     -37.139  15.949  -4.167  1.00 20.00     0.007 A 
HETATM    4  C4  UNL     1     -37.493  15.780  -5.617  1.00 20.00     0.007 A 
ENDBRANCH   1   2
BRANCH   1   5
HETATM    5  C7  UNL     1     -34.654  14.247  -3.959  1.00 20.00     0.040 C 
BRANCH   5   6
HETATM    6  C8  UNL     1     -33.518  15.220  -4.326  1.00 20.00     0.005 C 
HETATM    7  C6  UNL     1     -33.570  16.449  -3.412  1.00 20.00     0.014 C 
BRANCH   6   8
HETATM    8  C2  UNL     1     -33.605  15.664  -5.764  1.00 20.00    -0.033 C 
HETATM    9  C1  UNL     1     -33.814  16.931  -6.145  1.00 20.00     0.007 C 
ENDBRANCH   6   8
ENDBRANCH   5   6
ENDBRANCH   1   5
BRANCH   1  10
HETATM   10  O10 UNL     1     -35.866  12.558  -5.172  1.00 20.00    -0.395 OA
HETATM   11  H26 UNL     1     -36.671  12.429  -5.696  1.00 20.00     0.210 HD
ENDBRANCH   1  10
TORSDOF 5
ENDMDL
MODEL 9
REMARK VINA RESULT:      -4.2     10.297     11.216
REMARK  5 active torsions:
REMARK  status: ('A' for Active; 'I' for Inactive)
REMARK    1  A    between atoms: C2_2  and  C8_8 
REMARK    2  A    between atoms: C5_5  and  C9_9 
REMARK    3  A    between atoms: C7_7  and  C8_8 
REMARK    4  A    between atoms: C7_7  and  C9_9 
REMARK    5  A    between atoms: C9_9  and  O10_10 
ROOT
HETATM    1  C9  UNL     1     -33.709  14.351  -4.514  1.00 20.00     0.122 C 
ENDROOT
BRANCH   1   2
HETATM    2  C5  UNL     1     -33.600  15.718  -3.850  1.00 20.00     0.014 A 
HETATM    3  C3  UNL     1     -34.556  16.817  -4.218  1.00 20.00     0.007 A 
HETATM    4  C4  UNL     1     -34.644  16.166  -2.866  1.00 20.00     0.007 A 
ENDBRANCH   1   2
BRANCH   1   5
HETATM    5  C7  UNL     1     -34.039  14.427  -6.012  1.00 20.00     0.040 C 
BRANCH   5   6
HETATM    6  C8  UNL     1     -35.370  13.777  -6.431  1.00 20.00     0.005 C 
HETATM    7  C6  UNL     1     -36.051  14.633  -7.505  1.00 20.00     0.014 C 
BRANCH   6   8
HETATM    8  C2  UNL     1     -36.305  13.611  -5.260  1.00 20.00    -0.033 C 
HETATM    9  C1  UNL     1     -37.418  14.334  -5.082  1.00 20.00     0.007 C 
ENDBRANCH   6   8
ENDBRANCH   5   6
ENDBRANCH   1   5
BRANCH   1  10
HETATM   10  O10 UNL     1     -32.445  13.702  -4.360  1.00 20.00    -0.395 OA
HETATM   11  H26 UNL     1     -31.789  14.284  -4.772  1.00 20.00     0.210 HD
ENDBRANCH   1  10
TORSDOF 5
ENDMDL
