MODEL 1
REMARK VINA RESULT:      -5.0      0.000      0.000
REMARK  3 active torsions:
REMARK  status: ('A' for Active; 'I' for Inactive)
REMARK    1  A    between atoms: C4_4  and  C7_7 
REMARK    2  A    between atoms: C8_8  and  C9_9 
REMARK    3  A    between atoms: C8_8  and  N10_10 
ROOT
HETATM    1  C1  UNL     1     -32.969   7.710   4.858  1.00 20.00     0.032 C 
HETATM    2  C2  UNL     1     -34.127   6.823   4.421  1.00 20.00     0.038 C 
HETATM    3  C3  UNL     1     -32.008   7.728   3.682  1.00 20.00     0.273 C 
HETATM    4  C4  UNL     1     -33.805   6.394   2.989  1.00 20.00     0.236 C 
HETATM    5  N10 UNL     1     -32.800   7.357   2.499  1.00 20.00     0.094 N 
ENDROOT
BRANCH   5   6
HETATM    6  C8  UNL     1     -33.437   8.533   1.905  1.00 20.00     0.277 C 
BRANCH   6   7
HETATM    7  C9  UNL     1     -32.497   9.263   0.937  1.00 20.00     0.006 C 
HETATM    8  C5  UNL     1     -32.925   9.100  -0.522  1.00 20.00     0.011 C 
HETATM    9  C6  UNL     1     -32.345  10.743   1.291  1.00 20.00     0.011 C 
ENDBRANCH   6   7
ENDBRANCH   5   6
BRANCH   4  10
HETATM   10  C7  UNL     1     -33.235   4.974   2.939  1.00 20.00     0.150 C 
HETATM   11 CL11 UNL     1     -34.038   3.948   4.141  1.00 20.00    -0.128 Cl
ENDBRANCH   4  10
TORSDOF 3
ENDMDL
MODEL 2
REMARK VINA RESULT:      -4.0     10.600     11.668
REMARK  3 active torsions:
REMARK  status: ('A' for Active; 'I' for Inactive)
REMARK    1  A    between atoms: C4_4  and  C7_7 
REMARK    2  A    between atoms: C8_8  and  C9_9 
REMARK    3  A    between atoms: C8_8  and  N10_10 
ROOT
HETATM    1  C1  UNL     1     -34.662  14.194  -4.356  1.00 20.00     0.032 C 
HETATM    2  C2  UNL     1     -35.328  14.883  -5.540  1.00 20.00     0.038 C 
HETATM    3  C3  UNL     1     -33.434  15.031  -4.040  1.00 20.00     0.273 C 
HETATM    4  C4  UNL     1     -34.476  16.117  -5.835  1.00 20.00     0.236 C 
HETATM    5  N10 UNL     1     -33.687  16.362  -4.612  1.00 20.00     0.094 N 
ENDROOT
BRANCH   5   6
HETATM    6  C8  UNL     1     -34.419  17.208  -3.669  1.00 20.00     0.277 C 
BRANCH   6   7
HETATM    7  C9  UNL     1     -34.035  16.907  -2.215  1.00 20.00     0.006 C 
HETATM    8  C5  UNL     1     -32.987  17.881  -1.677  1.00 20.00     0.011 C 
HETATM    9  C6  UNL     1     -35.255  16.867  -1.294  1.00 20.00     0.011 C 
ENDBRANCH   6   7
ENDBRANCH   5   6
BRANCH   4  10
HETATM   10  C7  UNL     1     -33.538  15.886  -7.023  1.00 20.00     0.150 C 
HETATM   11 CL11 UNL     1     -33.999  14.409  -7.890  1.00 20.00    -0.128 Cl
ENDBRANCH   4  10
TORSDOF 3
ENDMDL
MODEL 3
REMARK VINA RESULT:      -4.0     10.367     11.118
REMARK  3 active torsions:
REMARK  status: ('A' for Active; 'I' for Inactive)
REMARK    1  A    between atoms: C4_4  and  C7_7 
REMARK    2  A    between atoms: C8_8  and  C9_9 
REMARK    3  A    between atoms: C8_8  and  N10_10 
ROOT
HETATM    1  C1  UNL     1     -32.930  15.563  -5.291  1.00 20.00     0.032 C 
HETATM    2  C2  UNL     1     -33.638  14.445  -4.538  1.00 20.00     0.038 C 
HETATM    3  C3  UNL     1     -33.688  16.831  -4.937  1.00 20.00     0.273 C 
HETATM    4  C4  UNL     1     -34.756  15.121  -3.744  1.00 20.00     0.236 C 
HETATM    5  N10 UNL     1     -34.392  16.550  -3.677  1.00 20.00     0.094 N 
ENDROOT
BRANCH   5   6
HETATM    6  C8  UNL     1     -33.533  16.825  -2.523  1.00 20.00     0.277 C 
BRANCH   6   7
HETATM    7  C9  UNL     1     -34.203  17.781  -1.528  1.00 20.00     0.006 C 
HETATM    8  C5  UNL     1     -35.374  17.127  -0.794  1.00 20.00     0.011 C 
HETATM    9  C6  UNL     1     -33.203  18.366  -0.532  1.00 20.00     0.011 C 
ENDBRANCH   6   7
ENDBRANCH   5   6
BRANCH   4  10
HETATM   10  C7  UNL     1     -36.114  14.962  -4.431  1.00 20.00     0.150 C 
HETATM   11 CL11 UNL     1     -36.175  13.428  -5.319  1.00 20.00    -0.128 Cl
ENDBRANCH   4  10
TORSDOF 3
ENDMDL
MODEL 4
REMARK VINA RESULT:      -4.0     10.362     11.130
REMARK  3 active torsions:
REMARK  status: ('A' for Active; 'I' for Inactive)
REMARK    1  A    between atoms: C4_4  and  C7_7 
REMARK    2  A    between atoms: C8_8  and  C9_9 
REMARK    3  A    between atoms: C8_8  and  N10_10 
ROOT
HETATM    1  C1  UNL     1     -32.918  15.613  -5.270  1.00 20.00     0.032 C 
HETATM    2  C2  UNL     1     -33.563  14.461  -4.509  1.00 20.00     0.038 C 
HETATM    3  C3  UNL     1     -33.774  16.830  -4.961  1.00 20.00     0.273 C 
HETATM    4  C4  UNL     1     -34.746  15.071  -3.757  1.00 20.00     0.236 C 
HETATM    5  N10 UNL     1     -34.487  16.523  -3.712  1.00 20.00     0.094 N 
ENDROOT
BRANCH   5   6
HETATM    6  C8  UNL     1     -33.679  16.882  -2.545  1.00 20.00     0.277 C 
BRANCH   6   7
HETATM    7  C9  UNL     1     -34.545  17.107  -1.299  1.00 20.00     0.006 C 
HETATM    8  C5  UNL     1     -33.909  18.096  -0.321  1.00 20.00     0.011 C 
HETATM    9  C6  UNL     1     -35.966  17.544  -1.658  1.00 20.00     0.011 C 
ENDBRANCH   6   7
ENDBRANCH   5   6
BRANCH   4  10
HETATM   10  C7  UNL     1     -36.072  14.800  -4.473  1.00 20.00     0.150 C 
HETATM   11 CL11 UNL     1     -35.976  13.283  -5.386  1.00 20.00    -0.128 Cl
ENDBRANCH   4  10
TORSDOF 3
ENDMDL
MODEL 5
REMARK VINA RESULT:      -3.8      1.231      2.242
REMARK  3 active torsions:
REMARK  status: ('A' for Active; 'I' for Inactive)
REMARK    1  A    between atoms: C4_4  and  C7_7 
REMARK    2  A    between atoms: C8_8  and  C9_9 
REMARK    3  A    between atoms: C8_8  and  N10_10 
ROOT
HETATM    1  C1  UNL     1     -33.735   5.682   2.318  1.00 20.00     0.032 C 
HETATM    2  C2  UNL     1     -32.989   5.474   3.629  1.00 20.00     0.038 C 
HETATM    3  C3  UNL     1     -34.209   7.125   2.348  1.00 20.00     0.273 C 
HETATM    4  C4  UNL     1     -33.028   6.823   4.348  1.00 20.00     0.236 C 
HETATM    5  N10 UNL     1     -33.341   7.822   3.308  1.00 20.00     0.094 N 
ENDROOT
BRANCH   5   6
HETATM    6  C8  UNL     1     -32.123   8.309   2.657  1.00 20.00     0.277 C 
BRANCH   6   7
HETATM    7  C9  UNL     1     -32.417   8.919   1.281  1.00 20.00     0.006 C 
HETATM    8  C5  UNL     1     -32.717  10.417   1.362  1.00 20.00     0.011 C 
HETATM    9  C6  UNL     1     -31.292   8.650   0.281  1.00 20.00     0.011 C 
ENDBRANCH   6   7
ENDBRANCH   5   6
BRANCH   4  10
HETATM   10  C7  UNL     1     -34.102   6.852   5.438  1.00 20.00     0.150 C 
HETATM   11 CL11 UNL     1     -34.670   5.208   5.784  1.00 20.00    -0.128 Cl
ENDBRANCH   4  10
TORSDOF 3
ENDMDL
MODEL 6
REMARK VINA RESULT:      -3.8      2.413      4.509
REMARK  3 active torsions:
REMARK  status: ('A' for Active; 'I' for Inactive)
REMARK    1  A    between atoms: C4_4  and  C7_7 
REMARK    2  A    between atoms: C8_8  and  C9_9 
REMARK    3  A    between atoms: C8_8  and  N10_10 
ROOT
HETATM    1  C1  UNL     1     -31.736   8.276   4.277  1.00 20.00     0.032 C 
HETATM    2  C2  UNL     1     -31.155   8.303   2.870  1.00 20.00     0.038 C 
HETATM    3  C3  UNL     1     -33.232   8.080   4.092  1.00 20.00     0.273 C 
HETATM    4  C4  UNL     1     -32.338   8.082   1.927  1.00 20.00     0.236 C 
HETATM    5  N10 UNL     1     -33.407   7.491   2.756  1.00 20.00     0.094 N 
ENDROOT
BRANCH   5   6
HETATM    6  C8  UNL     1     -33.294   6.032   2.807  1.00 20.00     0.277 C 
BRANCH   6   7
HETATM    7  C9  UNL     1     -34.126   5.436   3.950  1.00 20.00     0.006 C 
HETATM    8  C5  UNL     1     -35.605   5.811   3.848  1.00 20.00     0.011 C 
HETATM    9  C6  UNL     1     -33.961   3.919   4.049  1.00 20.00     0.011 C 
ENDBRANCH   6   7
ENDBRANCH   5   6
BRANCH   4  10
HETATM   10  C7  UNL     1     -32.824   9.396   1.310  1.00 20.00     0.150 C 
HETATM   11 CL11 UNL     1     -33.003   9.219  -0.445  1.00 20.00    -0.128 Cl
ENDBRANCH   4  10
TORSDOF 3
ENDMDL
MODEL 7
REMARK VINA RESULT:      -3.7     10.811     11.696
REMARK  3 active torsions:
REMARK  status: ('A' for Active; 'I' for Inactive)
REMARK    1  A    between atoms: C4_4  and  C7_7 
REMARK    2  A    between atoms: C8_8  and  C9_9 
REMARK    3  A    between atoms: C8_8  and  N10_10 
ROOT
HETATM    1  C1  UNL     1     -35.099  16.655  -2.060  1.00 20.00     0.032 C 
HETATM    2  C2  UNL     1     -33.656  16.699  -2.547  1.00 20.00     0.038 C 
HETATM    3  C3  UNL     1     -35.938  16.433  -3.306  1.00 20.00     0.273 C 
HETATM    4  C4  UNL     1     -33.719  16.461  -4.055  1.00 20.00     0.236 C 
HETATM    5  N10 UNL     1     -35.037  15.848  -4.310  1.00 20.00     0.094 N 
ENDROOT
BRANCH   5   6
HETATM    6  C8  UNL     1     -34.979  14.391  -4.176  1.00 20.00     0.277 C 
BRANCH   6   7
HETATM    7  C9  UNL     1     -35.509  13.681  -5.428  1.00 20.00     0.006 C 
HETATM    8  C5  UNL     1     -36.941  14.098  -5.769  1.00 20.00     0.011 C 
HETATM    9  C6  UNL     1     -34.590  13.879  -6.633  1.00 20.00     0.011 C 
ENDBRANCH   6   7
ENDBRANCH   5   6
BRANCH   4  10
HETATM   10  C7  UNL     1     -33.593  17.769  -4.840  1.00 20.00     0.150 C 
HETATM   11 CL11 UNL     1     -34.151  17.538  -6.508  1.00 20.00    -0.128 Cl
ENDBRANCH   4  10
TORSDOF 3
ENDMDL
MODEL 8
REMARK VINA RESULT:      -3.7     10.611     11.593
REMARK  3 active torsions:
REMARK  status: ('A' for Active; 'I' for Inactive)
REMARK    1  A    between atoms: C4_4  and  C7_7 
REMARK    2  A    between atoms: C8_8  and  C9_9 
REMARK    3  A    between atoms: C8_8  and  N10_10 
ROOT
HETATM    1  C1  UNL     1     -37.403  16.084  -5.427  1.00 20.00     0.032 C 
HETATM    2  C2  UNL     1     -36.107  16.679  -5.960  1.00 20.00     0.038 C 
HETATM    3  C3  UNL     1     -36.998  15.247  -4.225  1.00 20.00     0.273 C 
HETATM    4  C4  UNL     1     -35.006  16.192  -5.018  1.00 20.00     0.236 C 
HETATM    5  N10 UNL     1     -35.695  15.766  -3.784  1.00 20.00     0.094 N 
ENDROOT
BRANCH   5   6
HETATM    6  C8  UNL     1     -35.864  16.887  -2.857  1.00 20.00     0.277 C 
BRANCH   6   7
HETATM    7  C9  UNL     1     -34.962  16.749  -1.624  1.00 20.00     0.006 C 
HETATM    8  C5  UNL     1     -33.549  17.276  -1.877  1.00 20.00     0.011 C 
HETATM    9  C6  UNL     1     -35.571  17.412  -0.389  1.00 20.00     0.011 C 
ENDBRANCH   6   7
ENDBRANCH   5   6
BRANCH   4  10
HETATM   10  C7  UNL     1     -34.231  15.014  -5.614  1.00 20.00     0.150 C 
HETATM   11 CL11 UNL     1     -33.152  14.311  -4.395  1.00 20.00    -0.128 Cl
ENDBRANCH   4  10
TORSDOF 3
ENDMDL
MODEL 9
REMARK VINA RESULT:      -3.6     10.842     11.591
REMARK  3 active torsions:
REMARK  status: ('A' for Active; 'I' for Inactive)
REMARK    1  A    between atoms: C4_4  and  C7_7 
REMARK    2  A    between atoms: C8_8  and  C9_9 
REMARK    3  A    between atoms: C8_8  and  N10_10 
ROOT
HETATM    1  C1  UNL     1     -34.913  13.758  -6.348  1.00 20.00     0.032 C 
HETATM    2  C2  UNL     1     -36.024  13.452  -5.353  1.00 20.00     0.038 C 
HETATM    3  C3  UNL     1     -34.600  15.233  -6.162  1.00 20.00     0.273 C 
HETATM    4  C4  UNL     1     -36.281  14.759  -4.602  1.00 20.00     0.236 C 
HETATM    5  N10 UNL     1     -35.080  15.589  -4.818  1.00 20.00     0.094 N 
ENDROOT
BRANCH   5   6
HETATM    6  C8  UNL     1     -34.058  15.316  -3.807  1.00 20.00     0.277 C 
BRANCH   6   7
HETATM    7  C9  UNL     1     -33.812  16.531  -2.902  1.00 20.00     0.006 C 
HETATM    8  C5  UNL     1     -33.629  17.822  -3.701  1.00 20.00     0.011 C 
HETATM    9  C6  UNL     1     -34.913  16.698  -1.854  1.00 20.00     0.011 C 
ENDBRANCH   6   7
ENDBRANCH   5   6
BRANCH   4  10
HETATM   10  C7  UNL     1     -37.519  15.484  -5.136  1.00 20.00     0.150 C 
HETATM   11 CL11 UNL     1     -37.395  17.224  -4.814  1.00 20.00    -0.128 Cl
ENDBRANCH   4  10
TORSDOF 3
ENDMDL
