MODEL 1
REMARK VINA RESULT:      -5.1      0.000      0.000
REMARK  2 active torsions:
REMARK  status: ('A' for Active; 'I' for Inactive)
REMARK    1  A    between atoms: C3_3  and  C6_6 
REMARK    2  A    between atoms: C5_5  and  C6_6 
ROOT
HETATM    1  C6  UNL     1     -33.959   7.152   4.078  1.00 20.00     0.086 C 
HETATM    2 CL7  UNL     1     -33.627   7.219   5.835  1.00 20.00    -0.125 Cl
ENDROOT
BRANCH   1   3
HETATM    3  C3  UNL     1     -32.646   7.080   3.352  1.00 20.00     0.004 A 
HETATM    4  C1  UNL     1     -32.410   7.923   2.130  1.00 20.00     0.006 A 
HETATM    5  C2  UNL     1     -31.687   8.236   3.409  1.00 20.00     0.006 A 
ENDBRANCH   1   3
BRANCH   1   6
HETATM    6  C5  UNL     1     -34.857   5.958   3.733  1.00 20.00     0.016 C 
HETATM    7  C4  UNL     1     -34.607   4.736   4.606  1.00 20.00     0.006 C 
ENDBRANCH   1   6
TORSDOF 2
ENDMDL
MODEL 2
REMARK VINA RESULT:      -4.8      1.762      3.666
REMARK  2 active torsions:
REMARK  status: ('A' for Active; 'I' for Inactive)
REMARK    1  A    between atoms: C3_3  and  C6_6 
REMARK    2  A    between atoms: C5_5  and  C6_6 
ROOT
HETATM    1  C6  UNL     1     -33.826   6.245   3.096  1.00 20.00     0.086 C 
HETATM    2 CL7  UNL     1     -32.966   4.743   2.643  1.00 20.00    -0.125 Cl
ENDROOT
BRANCH   1   3
HETATM    3  C3  UNL     1     -34.790   5.922   4.202  1.00 20.00     0.004 A 
HETATM    4  C1  UNL     1     -34.614   4.674   5.020  1.00 20.00     0.006 A 
HETATM    5  C2  UNL     1     -34.355   6.020   5.637  1.00 20.00     0.006 A 
ENDBRANCH   1   3
BRANCH   1   6
HETATM    6  C5  UNL     1     -32.838   7.341   3.514  1.00 20.00     0.016 C 
HETATM    7  C4  UNL     1     -32.241   8.102   2.338  1.00 20.00     0.006 C 
ENDBRANCH   1   6
TORSDOF 2
ENDMDL
MODEL 3
REMARK VINA RESULT:      -4.7      0.770      3.427
REMARK  2 active torsions:
REMARK  status: ('A' for Active; 'I' for Inactive)
REMARK    1  A    between atoms: C3_3  and  C6_6 
REMARK    2  A    between atoms: C5_5  and  C6_6 
ROOT
HETATM    1  C6  UNL     1     -33.311   6.627   4.344  1.00 20.00     0.086 C 
HETATM    2 CL7  UNL     1     -33.421   7.772   5.714  1.00 20.00    -0.125 Cl
ENDROOT
BRANCH   1   3
HETATM    3  C3  UNL     1     -34.503   5.715   4.392  1.00 20.00     0.004 A 
HETATM    4  C1  UNL     1     -34.323   4.227   4.280  1.00 20.00     0.006 A 
HETATM    5  C2  UNL     1     -34.734   4.837   5.590  1.00 20.00     0.006 A 
ENDBRANCH   1   3
BRANCH   1   6
HETATM    6  C5  UNL     1     -33.229   7.375   3.007  1.00 20.00     0.016 C 
HETATM    7  C4  UNL     1     -31.929   8.146   2.820  1.00 20.00     0.006 C 
ENDBRANCH   1   6
TORSDOF 2
ENDMDL
MODEL 4
REMARK VINA RESULT:      -4.7      2.081      2.850
REMARK  2 active torsions:
REMARK  status: ('A' for Active; 'I' for Inactive)
REMARK    1  A    between atoms: C3_3  and  C6_6 
REMARK    2  A    between atoms: C5_5  and  C6_6 
ROOT
HETATM    1  C6  UNL     1     -33.073   6.849   3.423  1.00 20.00     0.086 C 
HETATM    2 CL7  UNL     1     -32.659   8.334   2.515  1.00 20.00    -0.125 Cl
ENDROOT
BRANCH   1   3
HETATM    3  C3  UNL     1     -34.021   7.218   4.526  1.00 20.00     0.004 A 
HETATM    4  C1  UNL     1     -34.395   6.207   5.573  1.00 20.00     0.006 A 
HETATM    5  C2  UNL     1     -33.519   7.373   5.935  1.00 20.00     0.006 A 
ENDBRANCH   1   3
BRANCH   1   6
HETATM    6  C5  UNL     1     -33.675   5.787   2.495  1.00 20.00     0.016 C 
HETATM    7  C4  UNL     1     -32.972   4.438   2.578  1.00 20.00     0.006 C 
ENDBRANCH   1   6
TORSDOF 2
ENDMDL
MODEL 5
REMARK VINA RESULT:      -4.5      2.052      2.771
REMARK  2 active torsions:
REMARK  status: ('A' for Active; 'I' for Inactive)
REMARK    1  A    between atoms: C3_3  and  C6_6 
REMARK    2  A    between atoms: C5_5  and  C6_6 
ROOT
HETATM    1  C6  UNL     1     -32.601   8.268   2.461  1.00 20.00     0.086 C 
HETATM    2 CL7  UNL     1     -31.362   8.371   3.748  1.00 20.00    -0.125 Cl
ENDROOT
BRANCH   1   3
HETATM    3  C3  UNL     1     -32.066   8.948   1.234  1.00 20.00     0.004 A 
HETATM    4  C1  UNL     1     -32.961   9.192   0.052  1.00 20.00     0.006 A 
HETATM    5  C2  UNL     1     -32.500  10.347   0.896  1.00 20.00     0.006 A 
ENDBRANCH   1   3
BRANCH   1   6
HETATM    6  C5  UNL     1     -32.978   6.809   2.176  1.00 20.00     0.016 C 
HETATM    7  C4  UNL     1     -33.903   6.204   3.223  1.00 20.00     0.006 C 
ENDBRANCH   1   6
TORSDOF 2
ENDMDL
MODEL 6
REMARK VINA RESULT:      -4.3      1.671      1.867
REMARK  2 active torsions:
REMARK  status: ('A' for Active; 'I' for Inactive)
REMARK    1  A    between atoms: C3_3  and  C6_6 
REMARK    2  A    between atoms: C5_5  and  C6_6 
ROOT
HETATM    1  C6  UNL     1     -33.309   6.591   3.744  1.00 20.00     0.086 C 
HETATM    2 CL7  UNL     1     -34.379   5.807   2.543  1.00 20.00    -0.125 Cl
ENDROOT
BRANCH   1   3
HETATM    3  C3  UNL     1     -32.908   7.937   3.213  1.00 20.00     0.004 A 
HETATM    4  C1  UNL     1     -31.496   8.425   3.377  1.00 20.00     0.006 A 
HETATM    5  C2  UNL     1     -32.003   8.038   2.017  1.00 20.00     0.006 A 
ENDBRANCH   1   3
BRANCH   1   6
HETATM    6  C5  UNL     1     -34.004   6.708   5.106  1.00 20.00     0.016 C 
HETATM    7  C4  UNL     1     -34.604   5.398   5.598  1.00 20.00     0.006 C 
ENDBRANCH   1   6
TORSDOF 2
ENDMDL
MODEL 7
REMARK VINA RESULT:      -4.3      1.275      3.389
REMARK  2 active torsions:
REMARK  status: ('A' for Active; 'I' for Inactive)
REMARK    1  A    between atoms: C3_3  and  C6_6 
REMARK    2  A    between atoms: C5_5  and  C6_6 
ROOT
HETATM    1  C6  UNL     1     -32.756   7.147   3.647  1.00 20.00     0.086 C 
HETATM    2 CL7  UNL     1     -31.827   8.445   4.456  1.00 20.00    -0.125 Cl
ENDROOT
BRANCH   1   3
HETATM    3  C3  UNL     1     -34.098   7.041   4.312  1.00 20.00     0.004 A 
HETATM    4  C1  UNL     1     -34.937   5.807   4.131  1.00 20.00     0.006 A 
HETATM    5  C2  UNL     1     -34.299   6.094   5.462  1.00 20.00     0.006 A 
ENDBRANCH   1   3
BRANCH   1   6
HETATM    6  C5  UNL     1     -32.893   7.423   2.145  1.00 20.00     0.016 C 
HETATM    7  C4  UNL     1     -32.093   8.630   1.673  1.00 20.00     0.006 C 
ENDBRANCH   1   6
TORSDOF 2
ENDMDL
MODEL 8
REMARK VINA RESULT:      -4.2      1.917      2.607
REMARK  2 active torsions:
REMARK  status: ('A' for Active; 'I' for Inactive)
REMARK    1  A    between atoms: C3_3  and  C6_6 
REMARK    2  A    between atoms: C5_5  and  C6_6 
ROOT
HETATM    1  C6  UNL     1     -34.781   5.930   3.879  1.00 20.00     0.086 C 
HETATM    2 CL7  UNL     1     -34.520   4.514   4.941  1.00 20.00    -0.125 Cl
ENDROOT
BRANCH   1   3
HETATM    3  C3  UNL     1     -34.453   7.172   4.658  1.00 20.00     0.004 A 
HETATM    4  C1  UNL     1     -33.876   7.067   6.041  1.00 20.00     0.006 A 
HETATM    5  C2  UNL     1     -33.020   7.552   4.905  1.00 20.00     0.006 A 
ENDBRANCH   1   3
BRANCH   1   6
HETATM    6  C5  UNL     1     -33.934   5.826   2.605  1.00 20.00     0.016 C 
HETATM    7  C4  UNL     1     -32.963   4.653   2.615  1.00 20.00     0.006 C 
ENDBRANCH   1   6
TORSDOF 2
ENDMDL
MODEL 9
REMARK VINA RESULT:      -3.8      1.898      2.916
REMARK  2 active torsions:
REMARK  status: ('A' for Active; 'I' for Inactive)
REMARK    1  A    between atoms: C3_3  and  C6_6 
REMARK    2  A    between atoms: C5_5  and  C6_6 
ROOT
HETATM    1  C6  UNL     1     -33.326   6.972   3.294  1.00 20.00     0.086 C 
HETATM    2 CL7  UNL     1     -31.866   8.005   3.233  1.00 20.00    -0.125 Cl
ENDROOT
BRANCH   1   3
HETATM    3  C3  UNL     1     -32.887   5.541   3.415  1.00 20.00     0.004 A 
HETATM    4  C1  UNL     1     -33.904   4.453   3.618  1.00 20.00     0.006 A 
HETATM    5  C2  UNL     1     -33.175   4.566   2.308  1.00 20.00     0.006 A 
ENDBRANCH   1   3
BRANCH   1   6
HETATM    6  C5  UNL     1     -34.241   7.381   4.455  1.00 20.00     0.016 C 
HETATM    7  C4  UNL     1     -33.559   7.324   5.815  1.00 20.00     0.006 C 
ENDBRANCH   1   6
TORSDOF 2
ENDMDL
