MODEL 1
REMARK VINA RESULT:      -4.9      0.000      0.000
REMARK  2 active torsions:
REMARK  status: ('A' for Active; 'I' for Inactive)
REMARK    1  A    between atoms: C3_3  and  C6_6 
REMARK    2  A    between atoms: C5_5  and  C6_6 
ROOT
HETATM    1  C6  UNL     1     -33.835   7.244   3.797  1.00 20.00     0.086 C 
HETATM    2 CL7  UNL     1     -34.793   5.872   3.162  1.00 20.00    -0.125 Cl
ENDROOT
BRANCH   1   3
HETATM    3  C3  UNL     1     -32.493   7.233   3.126  1.00 20.00     0.004 A 
HETATM    4  C1  UNL     1     -32.164   8.258   2.075  1.00 20.00     0.006 A 
HETATM    5  C2  UNL     1     -31.492   8.316   3.417  1.00 20.00     0.006 A 
ENDBRANCH   1   3
BRANCH   1   6
HETATM    6  C5  UNL     1     -33.702   7.161   5.322  1.00 20.00     0.016 C 
HETATM    7  C4  UNL     1     -34.408   5.957   5.930  1.00 20.00     0.006 C 
ENDBRANCH   1   6
TORSDOF 2
ENDMDL
MODEL 2
REMARK VINA RESULT:      -4.8      1.758      3.721
REMARK  2 active torsions:
REMARK  status: ('A' for Active; 'I' for Inactive)
REMARK    1  A    between atoms: C3_3  and  C6_6 
REMARK    2  A    between atoms: C5_5  and  C6_6 
ROOT
HETATM    1  C6  UNL     1     -34.072   6.928   4.088  1.00 20.00     0.086 C 
HETATM    2 CL7  UNL     1     -33.381   7.441   5.656  1.00 20.00    -0.125 Cl
ENDROOT
BRANCH   1   3
HETATM    3  C3  UNL     1     -34.889   5.689   4.314  1.00 20.00     0.004 A 
HETATM    4  C1  UNL     1     -34.236   4.334   4.277  1.00 20.00     0.006 A 
HETATM    5  C2  UNL     1     -34.727   4.896   5.581  1.00 20.00     0.006 A 
ENDBRANCH   1   3
BRANCH   1   6
HETATM    6  C5  UNL     1     -32.966   6.690   3.052  1.00 20.00     0.016 C 
HETATM    7  C4  UNL     1     -32.147   7.936   2.742  1.00 20.00     0.006 C 
ENDBRANCH   1   6
TORSDOF 2
ENDMDL
MODEL 3
REMARK VINA RESULT:      -4.8      1.045      3.384
REMARK  2 active torsions:
REMARK  status: ('A' for Active; 'I' for Inactive)
REMARK    1  A    between atoms: C3_3  and  C6_6 
REMARK    2  A    between atoms: C5_5  and  C6_6 
ROOT
HETATM    1  C6  UNL     1     -33.030   6.282   3.538  1.00 20.00     0.086 C 
HETATM    2 CL7  UNL     1     -33.278   4.781   2.596  1.00 20.00    -0.125 Cl
ENDROOT
BRANCH   1   3
HETATM    3  C3  UNL     1     -34.219   6.479   4.434  1.00 20.00     0.004 A 
HETATM    4  C1  UNL     1     -34.459   5.546   5.589  1.00 20.00     0.006 A 
HETATM    5  C2  UNL     1     -34.031   6.963   5.845  1.00 20.00     0.006 A 
ENDBRANCH   1   3
BRANCH   1   6
HETATM    6  C5  UNL     1     -32.820   7.484   2.611  1.00 20.00     0.016 C 
HETATM    7  C4  UNL     1     -31.625   8.346   2.995  1.00 20.00     0.006 C 
ENDBRANCH   1   6
TORSDOF 2
ENDMDL
MODEL 4
REMARK VINA RESULT:      -4.6      1.810      2.089
REMARK  2 active torsions:
REMARK  status: ('A' for Active; 'I' for Inactive)
REMARK    1  A    between atoms: C3_3  and  C6_6 
REMARK    2  A    between atoms: C5_5  and  C6_6 
ROOT
HETATM    1  C6  UNL     1     -33.613   6.597   4.700  1.00 20.00     0.086 C 
HETATM    2 CL7  UNL     1     -33.892   7.519   6.207  1.00 20.00    -0.125 Cl
ENDROOT
BRANCH   1   3
HETATM    3  C3  UNL     1     -33.372   7.574   3.586  1.00 20.00     0.004 A 
HETATM    4  C1  UNL     1     -31.968   7.963   3.211  1.00 20.00     0.006 A 
HETATM    5  C2  UNL     1     -32.784   7.108   2.284  1.00 20.00     0.006 A 
ENDBRANCH   1   3
BRANCH   1   6
HETATM    6  C5  UNL     1     -34.798   5.675   4.391  1.00 20.00     0.016 C 
HETATM    7  C4  UNL     1     -34.452   4.194   4.465  1.00 20.00     0.006 C 
ENDBRANCH   1   6
TORSDOF 2
ENDMDL
MODEL 5
REMARK VINA RESULT:      -4.5      1.886      3.342
REMARK  2 active torsions:
REMARK  status: ('A' for Active; 'I' for Inactive)
REMARK    1  A    between atoms: C3_3  and  C6_6 
REMARK    2  A    between atoms: C5_5  and  C6_6 
ROOT
HETATM    1  C6  UNL     1     -33.606   7.109   3.531  1.00 20.00     0.086 C 
HETATM    2 CL7  UNL     1     -32.128   7.902   2.908  1.00 20.00    -0.125 Cl
ENDROOT
BRANCH   1   3
HETATM    3  C3  UNL     1     -33.341   6.653   4.936  1.00 20.00     0.004 A 
HETATM    4  C1  UNL     1     -33.900   7.424   6.101  1.00 20.00     0.006 A 
HETATM    5  C2  UNL     1     -34.451   6.067   5.763  1.00 20.00     0.006 A 
ENDBRANCH   1   3
BRANCH   1   6
HETATM    6  C5  UNL     1     -34.023   5.941   2.630  1.00 20.00     0.016 C 
HETATM    7  C4  UNL     1     -33.012   4.803   2.603  1.00 20.00     0.006 C 
ENDBRANCH   1   6
TORSDOF 2
ENDMDL
MODEL 6
REMARK VINA RESULT:      -4.2      2.090      2.776
REMARK  2 active torsions:
REMARK  status: ('A' for Active; 'I' for Inactive)
REMARK    1  A    between atoms: C3_3  and  C6_6 
REMARK    2  A    between atoms: C5_5  and  C6_6 
ROOT
HETATM    1  C6  UNL     1     -33.032   6.980   3.491  1.00 20.00     0.086 C 
HETATM    2 CL7  UNL     1     -32.552   8.121   2.200  1.00 20.00    -0.125 Cl
ENDROOT
BRANCH   1   3
HETATM    3  C3  UNL     1     -33.712   5.804   2.853  1.00 20.00     0.004 A 
HETATM    4  C1  UNL     1     -32.946   4.535   2.593  1.00 20.00     0.006 A 
HETATM    5  C2  UNL     1     -34.004   4.569   3.659  1.00 20.00     0.006 A 
ENDBRANCH   1   3
BRANCH   1   6
HETATM    6  C5  UNL     1     -33.940   7.664   4.520  1.00 20.00     0.016 C 
HETATM    7  C4  UNL     1     -33.613   7.295   5.960  1.00 20.00     0.006 C 
ENDBRANCH   1   6
TORSDOF 2
ENDMDL
MODEL 7
REMARK VINA RESULT:      -4.2      1.217      1.615
REMARK  2 active torsions:
REMARK  status: ('A' for Active; 'I' for Inactive)
REMARK    1  A    between atoms: C3_3  and  C6_6 
REMARK    2  A    between atoms: C5_5  and  C6_6 
ROOT
HETATM    1  C6  UNL     1     -34.157   5.979   3.266  1.00 20.00     0.086 C 
HETATM    2 CL7  UNL     1     -32.927   4.834   2.653  1.00 20.00    -0.125 Cl
ENDROOT
BRANCH   1   3
HETATM    3  C3  UNL     1     -33.506   7.320   3.446  1.00 20.00     0.004 A 
HETATM    4  C1  UNL     1     -32.018   7.467   3.284  1.00 20.00     0.006 A 
HETATM    5  C2  UNL     1     -32.947   8.055   2.261  1.00 20.00     0.006 A 
ENDBRANCH   1   3
BRANCH   1   6
HETATM    6  C5  UNL     1     -34.774   5.474   4.575  1.00 20.00     0.016 C 
HETATM    7  C4  UNL     1     -34.337   6.267   5.799  1.00 20.00     0.006 C 
ENDBRANCH   1   6
TORSDOF 2
ENDMDL
MODEL 8
REMARK VINA RESULT:      -4.0      1.212      1.622
REMARK  2 active torsions:
REMARK  status: ('A' for Active; 'I' for Inactive)
REMARK    1  A    between atoms: C3_3  and  C6_6 
REMARK    2  A    between atoms: C5_5  and  C6_6 
ROOT
HETATM    1  C6  UNL     1     -33.008   7.552   3.056  1.00 20.00     0.086 C 
HETATM    2 CL7  UNL     1     -32.923   5.805   2.682  1.00 20.00    -0.125 Cl
ENDROOT
BRANCH   1   3
HETATM    3  C3  UNL     1     -32.029   8.272   2.174  1.00 20.00     0.004 A 
HETATM    4  C1  UNL     1     -32.416   8.658   0.772  1.00 20.00     0.006 A 
HETATM    5  C2  UNL     1     -32.247   9.718   1.824  1.00 20.00     0.006 A 
ENDBRANCH   1   3
BRANCH   1   6
HETATM    6  C5  UNL     1     -32.722   7.811   4.540  1.00 20.00     0.016 C 
HETATM    7  C4  UNL     1     -33.756   7.196   5.474  1.00 20.00     0.006 C 
ENDBRANCH   1   6
TORSDOF 2
ENDMDL
MODEL 9
REMARK VINA RESULT:      -4.0      2.129      3.964
REMARK  2 active torsions:
REMARK  status: ('A' for Active; 'I' for Inactive)
REMARK    1  A    between atoms: C3_3  and  C6_6 
REMARK    2  A    between atoms: C5_5  and  C6_6 
ROOT
HETATM    1  C6  UNL     1     -32.643   8.051   2.809  1.00 20.00     0.086 C 
HETATM    2 CL7  UNL     1     -31.272   8.452   3.886  1.00 20.00    -0.125 Cl
ENDROOT
BRANCH   1   3
HETATM    3  C3  UNL     1     -32.922   6.580   2.926  1.00 20.00     0.004 A 
HETATM    4  C1  UNL     1     -33.984   6.084   3.869  1.00 20.00     0.006 A 
HETATM    5  C2  UNL     1     -34.202   6.007   2.384  1.00 20.00     0.006 A 
ENDBRANCH   1   3
BRANCH   1   6
HETATM    6  C5  UNL     1     -32.340   8.452   1.360  1.00 20.00     0.016 C 
HETATM    7  C4  UNL     1     -32.640   9.914   1.059  1.00 20.00     0.006 C 
ENDBRANCH   1   6
TORSDOF 2
ENDMDL
