MODEL 1
REMARK VINA RESULT:      -5.8      0.000      0.000
REMARK  3 active torsions:
REMARK  status: ('A' for Active; 'I' for Inactive)
REMARK    1  A    between atoms: C6_6  and  C7_7 
REMARK    2  A    between atoms: C7_7  and  C8_8 
REMARK    3  A    between atoms: C8_8  and  N9_9 
ROOT
HETATM    1  C1  UNL     1     -34.128   6.548   5.446  1.00 20.00     0.052 C 
HETATM    2  C2  UNL     1     -33.118   7.641   5.095  1.00 20.00     0.274 C 
HETATM    3  C3  UNL     1     -33.185   6.208   3.258  1.00 20.00     0.292 C 
HETATM    4  C4  UNL     1     -34.347   5.786   4.141  1.00 20.00     0.112 C 
HETATM    5  N9  UNL     1     -33.048   7.618   3.632  1.00 20.00     0.089 N 
HETATM    6 CL10 UNL     1     -34.404   4.031   4.378  1.00 20.00    -0.123 Cl
ENDROOT
BRANCH   5   7
HETATM    7  C8  UNL     1     -31.820   8.213   3.125  1.00 20.00     0.272 C 
BRANCH   7   8
HETATM    8  C7  UNL     1     -31.846   8.398   1.612  1.00 20.00     0.030 C 
BRANCH   8   9
HETATM    9  C6  UNL     1     -32.546   9.691   1.189  1.00 20.00    -0.003 C 
HETATM   10  C5  UNL     1     -33.026   9.617  -0.252  1.00 20.00     0.005 C 
ENDBRANCH   8   9
ENDBRANCH   7   8
ENDBRANCH   5   7
TORSDOF 3
ENDMDL
MODEL 2
REMARK VINA RESULT:      -4.8      2.644      4.831
REMARK  3 active torsions:
REMARK  status: ('A' for Active; 'I' for Inactive)
REMARK    1  A    between atoms: C6_6  and  C7_7 
REMARK    2  A    between atoms: C7_7  and  C8_8 
REMARK    3  A    between atoms: C8_8  and  N9_9 
ROOT
HETATM    1  C1  UNL     1     -31.428   8.768   2.951  1.00 20.00     0.052 C 
HETATM    2  C2  UNL     1     -32.160   7.662   3.711  1.00 20.00     0.274 C 
HETATM    3  C3  UNL     1     -33.338   7.967   1.724  1.00 20.00     0.292 C 
HETATM    4  C4  UNL     1     -32.054   8.762   1.558  1.00 20.00     0.112 C 
HETATM    5  N9  UNL     1     -32.910   6.943   2.679  1.00 20.00     0.089 N 
HETATM    6 CL10 UNL     1     -32.352  10.395   0.939  1.00 20.00    -0.123 Cl
ENDROOT
BRANCH   5   7
HETATM    7  C8  UNL     1     -34.029   6.190   3.226  1.00 20.00     0.272 C 
BRANCH   7   8
HETATM    8  C7  UNL     1     -34.355   6.593   4.661  1.00 20.00     0.030 C 
BRANCH   8   9
HETATM    9  C6  UNL     1     -34.543   5.387   5.582  1.00 20.00    -0.003 C 
HETATM   10  C5  UNL     1     -34.381   4.078   4.825  1.00 20.00     0.005 C 
ENDBRANCH   8   9
ENDBRANCH   7   8
ENDBRANCH   5   7
TORSDOF 3
ENDMDL
MODEL 3
REMARK VINA RESULT:      -4.8      1.056      1.599
REMARK  3 active torsions:
REMARK  status: ('A' for Active; 'I' for Inactive)
REMARK    1  A    between atoms: C6_6  and  C7_7 
REMARK    2  A    between atoms: C7_7  and  C8_8 
REMARK    3  A    between atoms: C8_8  and  N9_9 
ROOT
HETATM    1  C1  UNL     1     -34.075   5.751   3.316  1.00 20.00     0.052 C 
HETATM    2  C2  UNL     1     -33.355   6.772   2.435  1.00 20.00     0.274 C 
HETATM    3  C3  UNL     1     -32.976   7.436   4.636  1.00 20.00     0.292 C 
HETATM    4  C4  UNL     1     -33.596   6.053   4.733  1.00 20.00     0.112 C 
HETATM    5  N9  UNL     1     -32.347   7.369   3.315  1.00 20.00     0.089 N 
HETATM    6 CL10 UNL     1     -34.906   5.988   5.924  1.00 20.00    -0.123 Cl
ENDROOT
BRANCH   5   7
HETATM    7  C8  UNL     1     -31.897   8.670   2.844  1.00 20.00     0.272 C 
BRANCH   7   8
HETATM    8  C7  UNL     1     -31.715   8.709   1.331  1.00 20.00     0.030 C 
BRANCH   8   9
HETATM    9  C6  UNL     1     -32.452   9.881   0.680  1.00 20.00    -0.003 C 
HETATM   10  C5  UNL     1     -33.220   9.437  -0.556  1.00 20.00     0.005 C 
ENDBRANCH   8   9
ENDBRANCH   7   8
ENDBRANCH   5   7
TORSDOF 3
ENDMDL
MODEL 4
REMARK VINA RESULT:      -4.1      2.605      4.792
REMARK  3 active torsions:
REMARK  status: ('A' for Active; 'I' for Inactive)
REMARK    1  A    between atoms: C6_6  and  C7_7 
REMARK    2  A    between atoms: C7_7  and  C8_8 
REMARK    3  A    between atoms: C8_8  and  N9_9 
ROOT
HETATM    1  C1  UNL     1     -32.294  10.486   1.363  1.00 20.00     0.052 C 
HETATM    2  C2  UNL     1     -32.178   9.967   2.797  1.00 20.00     0.274 C 
HETATM    3  C3  UNL     1     -32.390   8.082   1.443  1.00 20.00     0.292 C 
HETATM    4  C4  UNL     1     -32.165   9.242   0.488  1.00 20.00     0.112 C 
HETATM    5  N9  UNL     1     -31.726   8.582   2.649  1.00 20.00     0.089 N 
HETATM    6 CL10 UNL     1     -33.318   9.234  -0.858  1.00 20.00    -0.123 Cl
ENDROOT
BRANCH   5   7
HETATM    7  C8  UNL     1     -32.018   7.772   3.822  1.00 20.00     0.272 C 
BRANCH   7   8
HETATM    8  C7  UNL     1     -33.479   7.337   3.879  1.00 20.00     0.030 C 
BRANCH   8   9
HETATM    9  C6  UNL     1     -33.932   6.983   5.297  1.00 20.00    -0.003 C 
HETATM   10  C5  UNL     1     -34.524   5.584   5.358  1.00 20.00     0.005 C 
ENDBRANCH   8   9
ENDBRANCH   7   8
ENDBRANCH   5   7
TORSDOF 3
ENDMDL
MODEL 5
REMARK VINA RESULT:      -3.8     10.859     11.715
REMARK  3 active torsions:
REMARK  status: ('A' for Active; 'I' for Inactive)
REMARK    1  A    between atoms: C6_6  and  C7_7 
REMARK    2  A    between atoms: C7_7  and  C8_8 
REMARK    3  A    between atoms: C8_8  and  N9_9 
ROOT
HETATM    1  C1  UNL     1     -33.655  15.573  -6.277  1.00 20.00     0.052 C 
HETATM    2  C2  UNL     1     -33.401  16.608  -5.181  1.00 20.00     0.274 C 
HETATM    3  C3  UNL     1     -34.448  14.806  -4.138  1.00 20.00     0.292 C 
HETATM    4  C4  UNL     1     -34.092  14.315  -5.531  1.00 20.00     0.112 C 
HETATM    5  N9  UNL     1     -33.427  15.836  -3.936  1.00 20.00     0.089 N 
HETATM    6 CL10 UNL     1     -35.450  13.493  -6.319  1.00 20.00    -0.123 Cl
ENDROOT
BRANCH   5   7
HETATM    7  C8  UNL     1     -33.695  16.667  -2.772  1.00 20.00     0.272 C 
BRANCH   7   8
HETATM    8  C7  UNL     1     -35.146  16.574  -2.313  1.00 20.00     0.030 C 
BRANCH   8   9
HETATM    9  C6  UNL     1     -35.346  17.089  -0.886  1.00 20.00    -0.003 C 
HETATM   10  C5  UNL     1     -34.176  17.950  -0.438  1.00 20.00     0.005 C 
ENDBRANCH   8   9
ENDBRANCH   7   8
ENDBRANCH   5   7
TORSDOF 3
ENDMDL
MODEL 6
REMARK VINA RESULT:      -3.8     11.259     12.402
REMARK  3 active torsions:
REMARK  status: ('A' for Active; 'I' for Inactive)
REMARK    1  A    between atoms: C6_6  and  C7_7 
REMARK    2  A    between atoms: C7_7  and  C8_8 
REMARK    3  A    between atoms: C8_8  and  N9_9 
ROOT
HETATM    1  C1  UNL     1     -34.098  15.364  -7.806  1.00 20.00     0.052 C 
HETATM    2  C2  UNL     1     -33.809  16.551  -6.887  1.00 20.00     0.274 C 
HETATM    3  C3  UNL     1     -34.055  14.700  -5.494  1.00 20.00     0.292 C 
HETATM    4  C4  UNL     1     -33.991  14.138  -6.903  1.00 20.00     0.112 C 
HETATM    5  N9  UNL     1     -33.300  15.944  -5.655  1.00 20.00     0.089 N 
HETATM    6 CL10 UNL     1     -35.272  12.953  -7.210  1.00 20.00    -0.123 Cl
ENDROOT
BRANCH   5   7
HETATM    7  C8  UNL     1     -33.429  16.828  -4.506  1.00 20.00     0.272 C 
BRANCH   7   8
HETATM    8  C7  UNL     1     -34.083  16.140  -3.313  1.00 20.00     0.030 C 
BRANCH   8   9
HETATM    9  C6  UNL     1     -33.972  16.960  -2.026  1.00 20.00    -0.003 C 
HETATM   10  C5  UNL     1     -35.286  16.975  -1.261  1.00 20.00     0.005 C 
ENDBRANCH   8   9
ENDBRANCH   7   8
ENDBRANCH   5   7
TORSDOF 3
ENDMDL
MODEL 7
REMARK VINA RESULT:      -3.6     10.733     11.201
REMARK  3 active torsions:
REMARK  status: ('A' for Active; 'I' for Inactive)
REMARK    1  A    between atoms: C6_6  and  C7_7 
REMARK    2  A    between atoms: C7_7  and  C8_8 
REMARK    3  A    between atoms: C8_8  and  N9_9 
ROOT
HETATM    1  C1  UNL     1     -33.702  18.354  -0.265  1.00 20.00     0.052 C 
HETATM    2  C2  UNL     1     -33.033  17.690  -1.468  1.00 20.00     0.274 C 
HETATM    3  C3  UNL     1     -35.208  16.857  -1.398  1.00 20.00     0.292 C 
HETATM    4  C4  UNL     1     -35.181  18.001  -0.398  1.00 20.00     0.112 C 
HETATM    5  N9  UNL     1     -34.147  17.268  -2.320  1.00 20.00     0.089 N 
HETATM    6 CL10 UNL     1     -35.917  17.554   1.150  1.00 20.00    -0.123 Cl
ENDROOT
BRANCH   5   7
HETATM    7  C8  UNL     1     -33.770  16.209  -3.244  1.00 20.00     0.272 C 
BRANCH   7   8
HETATM    8  C7  UNL     1     -34.978  15.576  -3.928  1.00 20.00     0.030 C 
BRANCH   8   9
HETATM    9  C6  UNL     1     -34.704  14.148  -4.401  1.00 20.00    -0.003 C 
HETATM   10  C5  UNL     1     -35.917  13.552  -5.100  1.00 20.00     0.005 C 
ENDBRANCH   8   9
ENDBRANCH   7   8
ENDBRANCH   5   7
TORSDOF 3
ENDMDL
MODEL 8
REMARK VINA RESULT:      -3.5     11.167     11.593
REMARK  3 active torsions:
REMARK  status: ('A' for Active; 'I' for Inactive)
REMARK    1  A    between atoms: C6_6  and  C7_7 
REMARK    2  A    between atoms: C7_7  and  C8_8 
REMARK    3  A    between atoms: C8_8  and  N9_9 
ROOT
HETATM    1  C1  UNL     1     -35.186  17.086  -1.655  1.00 20.00     0.052 C 
HETATM    2  C2  UNL     1     -35.857  16.331  -2.802  1.00 20.00     0.274 C 
HETATM    3  C3  UNL     1     -33.610  16.530  -3.386  1.00 20.00     0.292 C 
HETATM    4  C4  UNL     1     -33.690  16.970  -1.935  1.00 20.00     0.112 C 
HETATM    5  N9  UNL     1     -34.759  15.625  -3.467  1.00 20.00     0.089 N 
HETATM    6 CL10 UNL     1     -32.823  18.489  -1.647  1.00 20.00    -0.123 Cl
ENDROOT
BRANCH   5   7
HETATM    7  C8  UNL     1     -35.083  15.256  -4.837  1.00 20.00     0.272 C 
BRANCH   7   8
HETATM    8  C7  UNL     1     -35.590  13.823  -4.948  1.00 20.00     0.030 C 
BRANCH   8   9
HETATM    9  C6  UNL     1     -35.654  13.332  -6.396  1.00 20.00    -0.003 C 
HETATM   10  C5  UNL     1     -34.416  13.745  -7.177  1.00 20.00     0.005 C 
ENDBRANCH   8   9
ENDBRANCH   7   8
ENDBRANCH   5   7
TORSDOF 3
ENDMDL
MODEL 9
REMARK VINA RESULT:      -3.5     11.276     11.839
REMARK  3 active torsions:
REMARK  status: ('A' for Active; 'I' for Inactive)
REMARK    1  A    between atoms: C6_6  and  C7_7 
REMARK    2  A    between atoms: C7_7  and  C8_8 
REMARK    3  A    between atoms: C8_8  and  N9_9 
ROOT
HETATM    1  C1  UNL     1     -36.463  14.174  -5.289  1.00 20.00     0.052 C 
HETATM    2  C2  UNL     1     -35.887  15.144  -4.258  1.00 20.00     0.274 C 
HETATM    3  C3  UNL     1     -34.359  15.087  -6.016  1.00 20.00     0.292 C 
HETATM    4  C4  UNL     1     -35.589  14.357  -6.527  1.00 20.00     0.112 C 
HETATM    5  N9  UNL     1     -34.958  15.980  -5.021  1.00 20.00     0.089 N 
HETATM    6 CL10 UNL     1     -35.178  12.818  -7.305  1.00 20.00    -0.123 Cl
ENDROOT
BRANCH   5   7
HETATM    7  C8  UNL     1     -33.962  16.620  -4.174  1.00 20.00     0.272 C 
BRANCH   7   8
HETATM    8  C7  UNL     1     -34.233  16.399  -2.690  1.00 20.00     0.030 C 
BRANCH   8   9
HETATM    9  C6  UNL     1     -33.461  17.376  -1.800  1.00 20.00    -0.003 C 
HETATM   10  C5  UNL     1     -34.268  17.762  -0.570  1.00 20.00     0.005 C 
ENDBRANCH   8   9
ENDBRANCH   7   8
ENDBRANCH   5   7
TORSDOF 3
ENDMDL
