MODEL 1
REMARK VINA RESULT:      -5.8      0.000      0.000
REMARK  2 active torsions:
REMARK  status: ('A' for Active; 'I' for Inactive)
REMARK    1  A    between atoms: C6_6  and  C8_8 
REMARK    2  A    between atoms: C8_8  and  N9_9 
ROOT
HETATM    1  C3  UNL     1     -34.076   6.485   5.463  1.00 20.00     0.052 C 
HETATM    2  C4  UNL     1     -33.192   7.610   4.925  1.00 20.00     0.274 C 
HETATM    3  C5  UNL     1     -33.478   6.115   3.161  1.00 20.00     0.292 C 
HETATM    4  C7  UNL     1     -34.460   5.669   4.231  1.00 20.00     0.112 C 
HETATM    5  N9  UNL     1     -33.355   7.541   3.471  1.00 20.00     0.090 N 
HETATM    6 CL10 UNL     1     -34.388   3.922   4.520  1.00 20.00    -0.123 Cl
ENDROOT
BRANCH   5   7
HETATM    7  C8  UNL     1     -32.257   8.175   2.757  1.00 20.00     0.277 C 
BRANCH   7   8
HETATM    8  C6  UNL     1     -32.718   8.743   1.458  1.00 20.00     0.014 A 
HETATM    9  C1  UNL     1     -32.563  10.212   1.175  1.00 20.00     0.007 A 
HETATM   10  C2  UNL     1     -31.717   9.211   0.438  1.00 20.00     0.007 A 
ENDBRANCH   7   8
ENDBRANCH   5   7
TORSDOF 2
ENDMDL
MODEL 2
REMARK VINA RESULT:      -5.0      1.500      1.917
REMARK  2 active torsions:
REMARK  status: ('A' for Active; 'I' for Inactive)
REMARK    1  A    between atoms: C6_6  and  C8_8 
REMARK    2  A    between atoms: C8_8  and  N9_9 
ROOT
HETATM    1  C3  UNL     1     -34.256   6.218   3.711  1.00 20.00     0.052 C 
HETATM    2  C4  UNL     1     -33.653   6.767   2.418  1.00 20.00     0.274 C 
HETATM    3  C5  UNL     1     -32.480   7.781   4.158  1.00 20.00     0.292 C 
HETATM    4  C7  UNL     1     -33.309   6.688   4.813  1.00 20.00     0.112 C 
HETATM    5  N9  UNL     1     -32.322   7.240   2.807  1.00 20.00     0.090 N 
HETATM    6 CL10 UNL     1     -34.168   7.268   6.249  1.00 20.00    -0.123 Cl
ENDROOT
BRANCH   5   7
HETATM    7  C8  UNL     1     -31.784   8.219   1.874  1.00 20.00     0.277 C 
BRANCH   7   8
HETATM    8  C6  UNL     1     -32.860   9.107   1.347  1.00 20.00     0.014 A 
HETATM    9  C1  UNL     1     -32.543  10.518   0.934  1.00 20.00     0.007 A 
HETATM   10  C2  UNL     1     -32.882   9.488  -0.107  1.00 20.00     0.007 A 
ENDBRANCH   7   8
ENDBRANCH   5   7
TORSDOF 2
ENDMDL
MODEL 3
REMARK VINA RESULT:      -4.6      2.664      4.838
REMARK  2 active torsions:
REMARK  status: ('A' for Active; 'I' for Inactive)
REMARK    1  A    between atoms: C6_6  and  C8_8 
REMARK    2  A    between atoms: C8_8  and  N9_9 
ROOT
HETATM    1  C3  UNL     1     -31.501   8.757   2.929  1.00 20.00     0.052 C 
HETATM    2  C4  UNL     1     -32.243   7.613   3.617  1.00 20.00     0.274 C 
HETATM    3  C5  UNL     1     -33.396   8.028   1.635  1.00 20.00     0.292 C 
HETATM    4  C7  UNL     1     -32.109   8.830   1.530  1.00 20.00     0.112 C 
HETATM    5  N9  UNL     1     -32.982   6.953   2.538  1.00 20.00     0.090 N 
HETATM    6 CL10 UNL     1     -32.399  10.495   0.998  1.00 20.00    -0.123 Cl
ENDROOT
BRANCH   5   7
HETATM    7  C8  UNL     1     -34.107   6.172   3.029  1.00 20.00     0.277 C 
BRANCH   7   8
HETATM    8  C6  UNL     1     -33.764   5.475   4.302  1.00 20.00     0.014 A 
HETATM    9  C1  UNL     1     -34.735   5.474   5.450  1.00 20.00     0.007 A 
HETATM   10  C2  UNL     1     -34.474   4.206   4.685  1.00 20.00     0.007 A 
ENDBRANCH   7   8
ENDBRANCH   5   7
TORSDOF 2
ENDMDL
MODEL 4
REMARK VINA RESULT:      -3.9      2.686      4.714
REMARK  2 active torsions:
REMARK  status: ('A' for Active; 'I' for Inactive)
REMARK    1  A    between atoms: C6_6  and  C8_8 
REMARK    2  A    between atoms: C8_8  and  N9_9 
ROOT
HETATM    1  C3  UNL     1     -32.351  10.458   1.422  1.00 20.00     0.052 C 
HETATM    2  C4  UNL     1     -32.211   9.779   2.784  1.00 20.00     0.274 C 
HETATM    3  C5  UNL     1     -32.455   8.060   1.229  1.00 20.00     0.292 C 
HETATM    4  C7  UNL     1     -32.244   9.321   0.408  1.00 20.00     0.112 C 
HETATM    5  N9  UNL     1     -31.768   8.418   2.472  1.00 20.00     0.090 N 
HETATM    6 CL10 UNL     1     -33.421   9.468  -0.908  1.00 20.00    -0.123 Cl
ENDROOT
BRANCH   5   7
HETATM    7  C8  UNL     1     -32.043   7.481   3.550  1.00 20.00     0.277 C 
BRANCH   7   8
HETATM    8  C6  UNL     1     -33.483   7.509   3.934  1.00 20.00     0.014 A 
HETATM    9  C1  UNL     1     -34.232   6.226   4.164  1.00 20.00     0.007 A 
HETATM   10  C2  UNL     1     -33.905   7.123   5.324  1.00 20.00     0.007 A 
ENDBRANCH   7   8
ENDBRANCH   5   7
TORSDOF 2
ENDMDL
MODEL 5
REMARK VINA RESULT:      -3.9     10.955     11.676
REMARK  2 active torsions:
REMARK  status: ('A' for Active; 'I' for Inactive)
REMARK    1  A    between atoms: C6_6  and  C8_8 
REMARK    2  A    between atoms: C8_8  and  N9_9 
ROOT
HETATM    1  C3  UNL     1     -34.011  15.006  -6.193  1.00 20.00     0.052 C 
HETATM    2  C4  UNL     1     -33.550  16.344  -5.616  1.00 20.00     0.274 C 
HETATM    3  C5  UNL     1     -34.636  15.234  -3.879  1.00 20.00     0.292 C 
HETATM    4  C7  UNL     1     -34.478  14.201  -4.983  1.00 20.00     0.112 C 
HETATM    5  N9  UNL     1     -33.512  16.126  -4.168  1.00 20.00     0.090 N 
HETATM    6 CL10 UNL     1     -35.981  13.315  -5.292  1.00 20.00    -0.123 Cl
ENDROOT
BRANCH   5   7
HETATM    7  C8  UNL     1     -33.578  17.369  -3.415  1.00 20.00     0.277 C 
BRANCH   7   8
HETATM    8  C6  UNL     1     -33.432  17.119  -1.952  1.00 20.00     0.014 A 
HETATM    9  C1  UNL     1     -33.154  18.260  -1.013  1.00 20.00     0.007 A 
HETATM   10  C2  UNL     1     -34.495  17.581  -0.995  1.00 20.00     0.007 A 
ENDBRANCH   7   8
ENDBRANCH   5   7
TORSDOF 2
ENDMDL
MODEL 6
REMARK VINA RESULT:      -3.9     11.370     12.387
REMARK  2 active torsions:
REMARK  status: ('A' for Active; 'I' for Inactive)
REMARK    1  A    between atoms: C6_6  and  C8_8 
REMARK    2  A    between atoms: C8_8  and  N9_9 
ROOT
HETATM    1  C3  UNL     1     -34.021  15.286  -7.772  1.00 20.00     0.052 C 
HETATM    2  C4  UNL     1     -33.825  16.546  -6.929  1.00 20.00     0.274 C 
HETATM    3  C5  UNL     1     -34.212  14.814  -5.419  1.00 20.00     0.292 C 
HETATM    4  C7  UNL     1     -34.008  14.139  -6.765  1.00 20.00     0.112 C 
HETATM    5  N9  UNL     1     -33.444  16.047  -5.606  1.00 20.00     0.090 N 
HETATM    6 CL10 UNL     1     -35.254  12.924  -7.100  1.00 20.00    -0.123 Cl
ENDROOT
BRANCH   5   7
HETATM    7  C8  UNL     1     -33.687  17.020  -4.552  1.00 20.00     0.277 C 
BRANCH   7   8
HETATM    8  C6  UNL     1     -33.758  16.360  -3.216  1.00 20.00     0.014 A 
HETATM    9  C1  UNL     1     -33.471  17.145  -1.967  1.00 20.00     0.007 A 
HETATM   10  C2  UNL     1     -34.874  16.695  -2.265  1.00 20.00     0.007 A 
ENDBRANCH   7   8
ENDBRANCH   5   7
TORSDOF 2
ENDMDL
MODEL 7
REMARK VINA RESULT:      -3.8     11.404     12.123
REMARK  2 active torsions:
REMARK  status: ('A' for Active; 'I' for Inactive)
REMARK    1  A    between atoms: C6_6  and  C8_8 
REMARK    2  A    between atoms: C8_8  and  N9_9 
ROOT
HETATM    1  C3  UNL     1     -35.805  13.733  -5.757  1.00 20.00     0.052 C 
HETATM    2  C4  UNL     1     -35.987  14.626  -4.530  1.00 20.00     0.274 C 
HETATM    3  C5  UNL     1     -34.912  15.937  -6.128  1.00 20.00     0.292 C 
HETATM    4  C7  UNL     1     -35.346  14.680  -6.863  1.00 20.00     0.112 C 
HETATM    5  N9  UNL     1     -35.906  15.991  -5.055  1.00 20.00     0.090 N 
HETATM    6 CL10 UNL     1     -34.042  13.996  -7.849  1.00 20.00    -0.123 Cl
ENDROOT
BRANCH   5   7
HETATM    7  C8  UNL     1     -35.566  16.964  -4.028  1.00 20.00     0.277 C 
BRANCH   7   8
HETATM    8  C6  UNL     1     -34.917  16.305  -2.858  1.00 20.00     0.014 A 
HETATM    9  C1  UNL     1     -33.750  16.960  -2.171  1.00 20.00     0.007 A 
HETATM   10  C2  UNL     1     -35.082  16.880  -1.478  1.00 20.00     0.007 A 
ENDBRANCH   7   8
ENDBRANCH   5   7
TORSDOF 2
ENDMDL
MODEL 8
REMARK VINA RESULT:      -3.7     10.791     11.305
REMARK  2 active torsions:
REMARK  status: ('A' for Active; 'I' for Inactive)
REMARK    1  A    between atoms: C6_6  and  C8_8 
REMARK    2  A    between atoms: C8_8  and  N9_9 
ROOT
HETATM    1  C3  UNL     1     -33.474  18.220  -0.553  1.00 20.00     0.052 C 
HETATM    2  C4  UNL     1     -33.317  17.455  -1.867  1.00 20.00     0.274 C 
HETATM    3  C5  UNL     1     -35.487  17.034  -1.132  1.00 20.00     0.292 C 
HETATM    4  C7  UNL     1     -34.965  18.144  -0.235  1.00 20.00     0.112 C 
HETATM    5  N9  UNL     1     -34.688  17.251  -2.339  1.00 20.00     0.090 N 
HETATM    6 CL10 UNL     1     -35.281  17.824   1.479  1.00 20.00    -0.123 Cl
ENDROOT
BRANCH   5   7
HETATM    7  C8  UNL     1     -34.795  16.150  -3.284  1.00 20.00     0.277 C 
BRANCH   7   8
HETATM    8  C6  UNL     1     -33.452  15.741  -3.787  1.00 20.00     0.014 A 
HETATM    9  C1  UNL     1     -33.270  14.413  -4.468  1.00 20.00     0.007 A 
HETATM   10  C2  UNL     1     -33.182  15.685  -5.265  1.00 20.00     0.007 A 
ENDBRANCH   7   8
ENDBRANCH   5   7
TORSDOF 2
ENDMDL
MODEL 9
REMARK VINA RESULT:      -3.6     11.310     11.786
REMARK  2 active torsions:
REMARK  status: ('A' for Active; 'I' for Inactive)
REMARK    1  A    between atoms: C6_6  and  C8_8 
REMARK    2  A    between atoms: C8_8  and  N9_9 
ROOT
HETATM    1  C3  UNL     1     -33.586  16.705  -2.698  1.00 20.00     0.052 C 
HETATM    2  C4  UNL     1     -33.646  15.855  -3.967  1.00 20.00     0.274 C 
HETATM    3  C5  UNL     1     -35.858  16.213  -3.327  1.00 20.00     0.292 C 
HETATM    4  C7  UNL     1     -35.029  17.141  -2.453  1.00 20.00     0.112 C 
HETATM    5  N9  UNL     1     -34.991  16.085  -4.500  1.00 20.00     0.090 N 
HETATM    6 CL10 UNL     1     -35.491  17.044  -0.746  1.00 20.00    -0.123 Cl
ENDROOT
BRANCH   5   7
HETATM    7  C8  UNL     1     -35.423  15.027  -5.399  1.00 20.00     0.277 C 
BRANCH   7   8
HETATM    8  C6  UNL     1     -34.268  14.453  -6.148  1.00 20.00     0.014 A 
HETATM    9  C1  UNL     1     -34.502  13.503  -7.290  1.00 20.00     0.007 A 
HETATM   10  C2  UNL     1     -33.989  14.890  -7.560  1.00 20.00     0.007 A 
ENDBRANCH   7   8
ENDBRANCH   5   7
TORSDOF 2
ENDMDL
