MODEL 1
REMARK VINA RESULT:      -5.7      0.000      0.000
REMARK  3 active torsions:
REMARK  status: ('A' for Active; 'I' for Inactive)
REMARK    1  A    between atoms: C6_6  and  C7_7 
REMARK    2  A    between atoms: C7_7  and  C8_8 
REMARK    3  A    between atoms: C8_8  and  N9_9 
ROOT
HETATM    1  C1  UNL     1     -33.911   5.162   3.325  1.00 20.00     0.052 C 
HETATM    2  C2  UNL     1     -32.883   6.033   2.603  1.00 20.00     0.274 C 
HETATM    3  C3  UNL     1     -33.484   7.202   4.528  1.00 20.00     0.292 C 
HETATM    4  C4  UNL     1     -34.477   6.056   4.424  1.00 20.00     0.112 C 
HETATM    5  N9  UNL     1     -33.119   7.383   3.121  1.00 20.00     0.089 N 
HETATM    6 CL10 UNL     1     -34.676   5.202   5.963  1.00 20.00    -0.123 Cl
ENDROOT
BRANCH   5   7
HETATM    7  C8  UNL     1     -31.967   8.255   2.951  1.00 20.00     0.272 C 
BRANCH   7   8
HETATM    8  C7  UNL     1     -31.668   8.546   1.484  1.00 20.00     0.030 C 
BRANCH   8   9
HETATM    9  C6  UNL     1     -32.433   9.763   0.958  1.00 20.00    -0.003 C 
HETATM   10  C5  UNL     1     -33.118   9.458  -0.365  1.00 20.00     0.005 C 
ENDBRANCH   8   9
ENDBRANCH   7   8
ENDBRANCH   5   7
TORSDOF 3
ENDMDL
MODEL 2
REMARK VINA RESULT:      -5.1      1.080      1.670
REMARK  3 active torsions:
REMARK  status: ('A' for Active; 'I' for Inactive)
REMARK    1  A    between atoms: C6_6  and  C7_7 
REMARK    2  A    between atoms: C7_7  and  C8_8 
REMARK    3  A    between atoms: C8_8  and  N9_9 
ROOT
HETATM    1  C1  UNL     1     -33.813   7.041   5.369  1.00 20.00     0.052 C 
HETATM    2  C2  UNL     1     -32.752   8.070   4.978  1.00 20.00     0.274 C 
HETATM    3  C3  UNL     1     -33.315   6.945   3.016  1.00 20.00     0.292 C 
HETATM    4  C4  UNL     1     -33.967   6.153   4.138  1.00 20.00     0.112 C 
HETATM    5  N9  UNL     1     -32.190   7.559   3.726  1.00 20.00     0.089 N 
HETATM    6 CL10 UNL     1     -35.658   5.763   3.785  1.00 20.00    -0.123 Cl
ENDROOT
BRANCH   5   7
HETATM    7  C8  UNL     1     -31.536   8.597   2.944  1.00 20.00     0.272 C 
BRANCH   7   8
HETATM    8  C7  UNL     1     -31.829   8.473   1.452  1.00 20.00     0.030 C 
BRANCH   8   9
HETATM    9  C6  UNL     1     -32.371   9.771   0.849  1.00 20.00    -0.003 C 
HETATM   10  C5  UNL     1     -33.136   9.507  -0.439  1.00 20.00     0.005 C 
ENDBRANCH   8   9
ENDBRANCH   7   8
ENDBRANCH   5   7
TORSDOF 3
ENDMDL
MODEL 3
REMARK VINA RESULT:      -4.5      2.682      4.948
REMARK  3 active torsions:
REMARK  status: ('A' for Active; 'I' for Inactive)
REMARK    1  A    between atoms: C6_6  and  C7_7 
REMARK    2  A    between atoms: C7_7  and  C8_8 
REMARK    3  A    between atoms: C8_8  and  N9_9 
ROOT
HETATM    1  C1  UNL     1     -31.402   8.520   3.263  1.00 20.00     0.052 C 
HETATM    2  C2  UNL     1     -32.301   7.643   4.135  1.00 20.00     0.274 C 
HETATM    3  C3  UNL     1     -33.303   7.707   2.032  1.00 20.00     0.292 C 
HETATM    4  C4  UNL     1     -32.208   8.760   1.990  1.00 20.00     0.112 C 
HETATM    5  N9  UNL     1     -33.603   7.674   3.465  1.00 20.00     0.089 N 
HETATM    6 CL10 UNL     1     -31.220   8.639   0.525  1.00 20.00    -0.123 Cl
ENDROOT
BRANCH   5   7
HETATM    7  C8  UNL     1     -34.446   6.546   3.832  1.00 20.00     0.272 C 
BRANCH   7   8
HETATM    8  C7  UNL     1     -34.422   6.266   5.332  1.00 20.00     0.030 C 
BRANCH   8   9
HETATM    9  C6  UNL     1     -34.494   4.771   5.652  1.00 20.00    -0.003 C 
HETATM   10  C5  UNL     1     -34.196   3.926   4.423  1.00 20.00     0.005 C 
ENDBRANCH   8   9
ENDBRANCH   7   8
ENDBRANCH   5   7
TORSDOF 3
ENDMDL
MODEL 4
REMARK VINA RESULT:      -4.2      2.728      4.892
REMARK  3 active torsions:
REMARK  status: ('A' for Active; 'I' for Inactive)
REMARK    1  A    between atoms: C6_6  and  C7_7 
REMARK    2  A    between atoms: C7_7  and  C8_8 
REMARK    3  A    between atoms: C8_8  and  N9_9 
ROOT
HETATM    1  C1  UNL     1     -31.448   8.810   2.673  1.00 20.00     0.052 C 
HETATM    2  C2  UNL     1     -31.862   7.487   3.317  1.00 20.00     0.274 C 
HETATM    3  C3  UNL     1     -33.388   7.875   1.598  1.00 20.00     0.292 C 
HETATM    4  C4  UNL     1     -32.602   9.168   1.742  1.00 20.00     0.112 C 
HETATM    5  N9  UNL     1     -33.272   7.327   2.952  1.00 20.00     0.089 N 
HETATM    6 CL10 UNL     1     -32.049   9.790   0.178  1.00 20.00    -0.123 Cl
ENDROOT
BRANCH   5   7
HETATM    7  C8  UNL     1     -33.716   5.944   3.034  1.00 20.00     0.272 C 
BRANCH   7   8
HETATM    8  C7  UNL     1     -34.959   5.783   3.904  1.00 20.00     0.030 C 
BRANCH   8   9
HETATM    9  C6  UNL     1     -34.618   5.497   5.368  1.00 20.00    -0.003 C 
HETATM   10  C5  UNL     1     -34.110   6.745   6.073  1.00 20.00     0.005 C 
ENDBRANCH   8   9
ENDBRANCH   7   8
ENDBRANCH   5   7
TORSDOF 3
ENDMDL
MODEL 5
REMARK VINA RESULT:      -4.2      2.704      4.968
REMARK  3 active torsions:
REMARK  status: ('A' for Active; 'I' for Inactive)
REMARK    1  A    between atoms: C6_6  and  C7_7 
REMARK    2  A    between atoms: C7_7  and  C8_8 
REMARK    3  A    between atoms: C8_8  and  N9_9 
ROOT
HETATM    1  C1  UNL     1     -31.456   9.098   1.855  1.00 20.00     0.052 C 
HETATM    2  C2  UNL     1     -31.550   8.056   2.968  1.00 20.00     0.274 C 
HETATM    3  C3  UNL     1     -33.586   7.978   1.836  1.00 20.00     0.292 C 
HETATM    4  C4  UNL     1     -32.875   9.213   1.306  1.00 20.00     0.112 C 
HETATM    5  N9  UNL     1     -32.988   7.863   3.168  1.00 20.00     0.089 N 
HETATM    6 CL10 UNL     1     -32.918   9.303  -0.462  1.00 20.00    -0.123 Cl
ENDROOT
BRANCH   5   7
HETATM    7  C8  UNL     1     -33.297   6.593   3.809  1.00 20.00     0.272 C 
BRANCH   7   8
HETATM    8  C7  UNL     1     -33.941   6.776   5.180  1.00 20.00     0.030 C 
BRANCH   8   9
HETATM    9  C6  UNL     1     -34.641   5.507   5.675  1.00 20.00    -0.003 C 
HETATM   10  C5  UNL     1     -34.514   4.376   4.666  1.00 20.00     0.005 C 
ENDBRANCH   8   9
ENDBRANCH   7   8
ENDBRANCH   5   7
TORSDOF 3
ENDMDL
MODEL 6
REMARK VINA RESULT:      -3.8     10.573     11.299
REMARK  3 active torsions:
REMARK  status: ('A' for Active; 'I' for Inactive)
REMARK    1  A    between atoms: C6_6  and  C7_7 
REMARK    2  A    between atoms: C7_7  and  C8_8 
REMARK    3  A    between atoms: C8_8  and  N9_9 
ROOT
HETATM    1  C1  UNL     1     -35.814  13.653  -4.955  1.00 20.00     0.052 C 
HETATM    2  C2  UNL     1     -34.625  14.177  -4.151  1.00 20.00     0.274 C 
HETATM    3  C3  UNL     1     -36.175  15.917  -4.221  1.00 20.00     0.292 C 
HETATM    4  C4  UNL     1     -36.684  14.881  -5.210  1.00 20.00     0.112 C 
HETATM    5  N9  UNL     1     -34.737  15.635  -4.239  1.00 20.00     0.089 N 
HETATM    6 CL10 UNL     1     -38.411  14.549  -5.000  1.00 20.00    -0.123 Cl
ENDROOT
BRANCH   5   7
HETATM    7  C8  UNL     1     -34.023  16.315  -3.169  1.00 20.00     0.272 C 
BRANCH   7   8
HETATM    8  C7  UNL     1     -34.923  16.635  -1.980  1.00 20.00     0.030 C 
BRANCH   8   9
HETATM    9  C6  UNL     1     -34.219  17.489  -0.922  1.00 20.00    -0.003 C 
HETATM   10  C5  UNL     1     -32.891  18.024  -1.436  1.00 20.00     0.005 C 
ENDBRANCH   8   9
ENDBRANCH   7   8
ENDBRANCH   5   7
TORSDOF 3
ENDMDL
MODEL 7
REMARK VINA RESULT:      -3.8     11.032     11.376
REMARK  3 active torsions:
REMARK  status: ('A' for Active; 'I' for Inactive)
REMARK    1  A    between atoms: C6_6  and  C7_7 
REMARK    2  A    between atoms: C7_7  and  C8_8 
REMARK    3  A    between atoms: C8_8  and  N9_9 
ROOT
HETATM    1  C1  UNL     1     -36.847  14.244  -5.345  1.00 20.00     0.052 C 
HETATM    2  C2  UNL     1     -36.489  15.301  -4.302  1.00 20.00     0.274 C 
HETATM    3  C3  UNL     1     -34.468  14.378  -5.006  1.00 20.00     0.292 C 
HETATM    4  C4  UNL     1     -35.548  13.481  -5.590  1.00 20.00     0.112 C 
HETATM    5  N9  UNL     1     -35.157  14.914  -3.830  1.00 20.00     0.089 N 
HETATM    6 CL10 UNL     1     -35.273  13.134  -7.305  1.00 20.00    -0.123 Cl
ENDROOT
BRANCH   5   7
HETATM    7  C8  UNL     1     -34.438  16.022  -3.219  1.00 20.00     0.272 C 
BRANCH   7   8
HETATM    8  C7  UNL     1     -35.215  16.656  -2.070  1.00 20.00     0.030 C 
BRANCH   8   9
HETATM    9  C6  UNL     1     -34.305  17.387  -1.078  1.00 20.00    -0.003 C 
HETATM   10  C5  UNL     1     -33.000  17.812  -1.732  1.00 20.00     0.005 C 
ENDBRANCH   8   9
ENDBRANCH   7   8
ENDBRANCH   5   7
TORSDOF 3
ENDMDL
MODEL 8
REMARK VINA RESULT:      -3.8     11.196     11.906
REMARK  3 active torsions:
REMARK  status: ('A' for Active; 'I' for Inactive)
REMARK    1  A    between atoms: C6_6  and  C7_7 
REMARK    2  A    between atoms: C7_7  and  C8_8 
REMARK    3  A    between atoms: C8_8  and  N9_9 
ROOT
HETATM    1  C1  UNL     1     -33.760  15.273  -7.050  1.00 20.00     0.052 C 
HETATM    2  C2  UNL     1     -33.227  15.997  -5.814  1.00 20.00     0.274 C 
HETATM    3  C3  UNL     1     -34.876  14.540  -5.047  1.00 20.00     0.292 C 
HETATM    4  C4  UNL     1     -35.002  14.532  -6.562  1.00 20.00     0.112 C 
HETATM    5  N9  UNL     1     -34.297  15.866  -4.823  1.00 20.00     0.089 N 
HETATM    6 CL10 UNL     1     -35.118  12.890  -7.215  1.00 20.00    -0.123 Cl
ENDROOT
BRANCH   5   7
HETATM    7  C8  UNL     1     -33.819  16.042  -3.459  1.00 20.00     0.272 C 
BRANCH   7   8
HETATM    8  C7  UNL     1     -34.946  16.374  -2.486  1.00 20.00     0.030 C 
BRANCH   8   9
HETATM    9  C6  UNL     1     -34.465  17.196  -1.288  1.00 20.00    -0.003 C 
HETATM   10  C5  UNL     1     -33.075  17.766  -1.528  1.00 20.00     0.005 C 
ENDBRANCH   8   9
ENDBRANCH   7   8
ENDBRANCH   5   7
TORSDOF 3
ENDMDL
MODEL 9
REMARK VINA RESULT:      -3.7     11.227     11.661
REMARK  3 active torsions:
REMARK  status: ('A' for Active; 'I' for Inactive)
REMARK    1  A    between atoms: C6_6  and  C7_7 
REMARK    2  A    between atoms: C7_7  and  C8_8 
REMARK    3  A    between atoms: C8_8  and  N9_9 
ROOT
HETATM    1  C1  UNL     1     -35.324  14.197  -5.259  1.00 20.00     0.052 C 
HETATM    2  C2  UNL     1     -35.264  15.088  -4.019  1.00 20.00     0.274 C 
HETATM    3  C3  UNL     1     -33.345  15.566  -5.251  1.00 20.00     0.292 C 
HETATM    4  C4  UNL     1     -33.948  14.332  -5.903  1.00 20.00     0.112 C 
HETATM    5  N9  UNL     1     -33.847  15.431  -3.882  1.00 20.00     0.089 N 
HETATM    6 CL10 UNL     1     -34.032  14.481  -7.666  1.00 20.00    -0.123 Cl
ENDROOT
BRANCH   5   7
HETATM    7  C8  UNL     1     -33.637  16.633  -3.090  1.00 20.00     0.272 C 
BRANCH   7   8
HETATM    8  C7  UNL     1     -34.635  16.756  -1.943  1.00 20.00     0.030 C 
BRANCH   8   9
HETATM    9  C6  UNL     1     -34.136  17.673  -0.824  1.00 20.00    -0.003 C 
HETATM   10  C5  UNL     1     -32.740  18.199  -1.120  1.00 20.00     0.005 C 
ENDBRANCH   8   9
ENDBRANCH   7   8
ENDBRANCH   5   7
TORSDOF 3
ENDMDL
