MODEL 1
REMARK VINA RESULT:      -6.0      0.000      0.000
REMARK  5 active torsions:
REMARK  status: ('A' for Active; 'I' for Inactive)
REMARK    1  A    between atoms: C5_5  and  C9_9 
REMARK    2  A    between atoms: C6_6  and  C7_7 
REMARK    3  A    between atoms: C6_6  and  C8_8 
REMARK    4  A    between atoms: C7_7  and  C9_9 
REMARK    5  A    between atoms: C8_8  and  C10_10 
ROOT
HETATM    1  C6  UNL     1     -32.417   7.622   2.815  1.00 20.00     0.002 C 
ENDROOT
BRANCH   1   2
HETATM    2  C7  UNL     1     -33.147   6.351   3.273  1.00 20.00     0.020 C 
BRANCH   2   3
HETATM    3  C9  UNL     1     -34.136   6.603   4.422  1.00 20.00     0.082 C 
HETATM    4 CL11 UNL     1     -33.358   7.566   5.719  1.00 20.00    -0.125 Cl
BRANCH   3   5
HETATM    5  C5  UNL     1     -34.728   5.308   5.000  1.00 20.00     0.016 C 
HETATM    6  C1  UNL     1     -34.239   4.018   4.354  1.00 20.00     0.006 C 
ENDBRANCH   3   5
ENDBRANCH   2   3
ENDBRANCH   1   2
BRANCH   1   7
HETATM    7  C8  UNL     1     -33.298   8.449   1.869  1.00 20.00     0.008 C 
BRANCH   7   8
HETATM    8  C10 UNL     1     -32.542   9.333   0.842  1.00 20.00    -0.051 C 
HETATM    9  C2  UNL     1     -32.419  10.784   1.338  1.00 20.00     0.014 C 
HETATM   10  C3  UNL     1     -31.124   8.756   0.666  1.00 20.00     0.014 C 
HETATM   11  C4  UNL     1     -33.245   9.323  -0.526  1.00 20.00     0.014 C 
ENDBRANCH   7   8
ENDBRANCH   1   7
TORSDOF 5
ENDMDL
MODEL 2
REMARK VINA RESULT:      -6.0      0.096      1.301
REMARK  5 active torsions:
REMARK  status: ('A' for Active; 'I' for Inactive)
REMARK    1  A    between atoms: C5_5  and  C9_9 
REMARK    2  A    between atoms: C6_6  and  C7_7 
REMARK    3  A    between atoms: C6_6  and  C8_8 
REMARK    4  A    between atoms: C7_7  and  C9_9 
REMARK    5  A    between atoms: C8_8  and  C10_10 
ROOT
HETATM    1  C6  UNL     1     -32.423   7.571   2.765  1.00 20.00     0.002 C 
ENDROOT
BRANCH   1   2
HETATM    2  C7  UNL     1     -33.257   6.343   3.159  1.00 20.00     0.020 C 
BRANCH   2   3
HETATM    3  C9  UNL     1     -34.194   6.606   4.348  1.00 20.00     0.082 C 
HETATM    4 CL11 UNL     1     -33.338   7.517   5.633  1.00 20.00    -0.125 Cl
BRANCH   3   5
HETATM    5  C5  UNL     1     -34.810   5.321   4.923  1.00 20.00     0.016 C 
HETATM    6  C1  UNL     1     -34.210   4.019   4.408  1.00 20.00     0.006 C 
ENDBRANCH   3   5
ENDBRANCH   2   3
ENDBRANCH   1   2
BRANCH   1   7
HETATM    7  C8  UNL     1     -33.263   8.566   1.953  1.00 20.00     0.008 C 
BRANCH   7   8
HETATM    8  C10 UNL     1     -32.501   9.357   0.856  1.00 20.00    -0.051 C 
HETATM    9  C2  UNL     1     -33.272   9.350  -0.474  1.00 20.00     0.014 C 
HETATM   10  C3  UNL     1     -32.359  10.817   1.331  1.00 20.00     0.014 C 
HETATM   11  C4  UNL     1     -31.093   8.780   0.629  1.00 20.00     0.014 C 
ENDBRANCH   7   8
ENDBRANCH   1   7
TORSDOF 5
ENDMDL
MODEL 3
REMARK VINA RESULT:      -5.5      1.792      5.329
REMARK  5 active torsions:
REMARK  status: ('A' for Active; 'I' for Inactive)
REMARK    1  A    between atoms: C5_5  and  C9_9 
REMARK    2  A    between atoms: C6_6  and  C7_7 
REMARK    3  A    between atoms: C6_6  and  C8_8 
REMARK    4  A    between atoms: C7_7  and  C9_9 
REMARK    5  A    between atoms: C8_8  and  C10_10 
ROOT
HETATM    1  C6  UNL     1     -32.449   7.330   3.218  1.00 20.00     0.002 C 
ENDROOT
BRANCH   1   2
HETATM    2  C7  UNL     1     -33.136   8.409   2.368  1.00 20.00     0.020 C 
BRANCH   2   3
HETATM    3  C9  UNL     1     -32.143   9.360   1.681  1.00 20.00     0.082 C 
HETATM    4 CL11 UNL     1     -32.681  11.061   1.855  1.00 20.00    -0.125 Cl
BRANCH   3   5
HETATM    5  C5  UNL     1     -31.913   9.020   0.200  1.00 20.00     0.016 C 
HETATM    6  C1  UNL     1     -33.111   9.235  -0.716  1.00 20.00     0.006 C 
ENDBRANCH   3   5
ENDBRANCH   2   3
ENDBRANCH   1   2
BRANCH   1   7
HETATM    7  C8  UNL     1     -33.198   5.995   3.120  1.00 20.00     0.008 C 
BRANCH   7   8
HETATM    8  C10 UNL     1     -34.269   5.739   4.214  1.00 20.00    -0.051 C 
HETATM    9  C2  UNL     1     -34.029   6.625   5.448  1.00 20.00     0.014 C 
HETATM   10  C3  UNL     1     -35.649   6.088   3.623  1.00 20.00     0.014 C 
HETATM   11  C4  UNL     1     -34.283   4.263   4.645  1.00 20.00     0.014 C 
ENDBRANCH   7   8
ENDBRANCH   1   7
TORSDOF 5
ENDMDL
MODEL 4
REMARK VINA RESULT:      -5.5      1.803      5.333
REMARK  5 active torsions:
REMARK  status: ('A' for Active; 'I' for Inactive)
REMARK    1  A    between atoms: C5_5  and  C9_9 
REMARK    2  A    between atoms: C6_6  and  C7_7 
REMARK    3  A    between atoms: C6_6  and  C8_8 
REMARK    4  A    between atoms: C7_7  and  C9_9 
REMARK    5  A    between atoms: C8_8  and  C10_10 
ROOT
HETATM    1  C6  UNL     1     -32.441   7.335   3.234  1.00 20.00     0.002 C 
ENDROOT
BRANCH   1   2
HETATM    2  C7  UNL     1     -33.130   8.422   2.396  1.00 20.00     0.020 C 
BRANCH   2   3
HETATM    3  C9  UNL     1     -32.139   9.359   1.690  1.00 20.00     0.082 C 
HETATM    4 CL11 UNL     1     -32.690  11.061   1.809  1.00 20.00    -0.125 Cl
BRANCH   3   5
HETATM    5  C5  UNL     1     -31.893   8.979   0.221  1.00 20.00     0.016 C 
HETATM    6  C1  UNL     1     -33.066   9.215  -0.722  1.00 20.00     0.006 C 
ENDBRANCH   3   5
ENDBRANCH   2   3
ENDBRANCH   1   2
BRANCH   1   7
HETATM    7  C8  UNL     1     -33.188   5.999   3.120  1.00 20.00     0.008 C 
BRANCH   7   8
HETATM    8  C10 UNL     1     -34.286   5.747   4.187  1.00 20.00    -0.051 C 
HETATM    9  C2  UNL     1     -35.684   6.080   3.640  1.00 20.00     0.014 C 
HETATM   10  C3  UNL     1     -34.253   4.251   4.563  1.00 20.00     0.014 C 
HETATM   11  C4  UNL     1     -34.030   6.574   5.458  1.00 20.00     0.014 C 
ENDBRANCH   7   8
ENDBRANCH   1   7
TORSDOF 5
ENDMDL
MODEL 5
REMARK VINA RESULT:      -5.5      1.437      1.780
REMARK  5 active torsions:
REMARK  status: ('A' for Active; 'I' for Inactive)
REMARK    1  A    between atoms: C5_5  and  C9_9 
REMARK    2  A    between atoms: C6_6  and  C7_7 
REMARK    3  A    between atoms: C6_6  and  C8_8 
REMARK    4  A    between atoms: C7_7  and  C9_9 
REMARK    5  A    between atoms: C8_8  and  C10_10 
ROOT
HETATM    1  C6  UNL     1     -32.620   7.216   2.450  1.00 20.00     0.002 C 
ENDROOT
BRANCH   1   2
HETATM    2  C7  UNL     1     -33.651   6.107   2.705  1.00 20.00     0.020 C 
BRANCH   2   3
HETATM    3  C9  UNL     1     -33.642   5.596   4.154  1.00 20.00     0.082 C 
HETATM    4 CL11 UNL     1     -34.235   3.906   4.227  1.00 20.00    -0.125 Cl
BRANCH   3   5
HETATM    5  C5  UNL     1     -34.448   6.487   5.112  1.00 20.00     0.016 C 
HETATM    6  C1  UNL     1     -33.624   7.422   5.987  1.00 20.00     0.006 C 
ENDBRANCH   3   5
ENDBRANCH   2   3
ENDBRANCH   1   2
BRANCH   1   7
HETATM    7  C8  UNL     1     -33.309   8.515   2.010  1.00 20.00     0.008 C 
BRANCH   7   8
HETATM    8  C10 UNL     1     -32.563   9.345   0.932  1.00 20.00    -0.051 C 
HETATM    9  C2  UNL     1     -32.423  10.816   1.359  1.00 20.00     0.014 C 
HETATM   10  C3  UNL     1     -31.150   8.749   0.763  1.00 20.00     0.014 C 
HETATM   11  C4  UNL     1     -33.285   9.276  -0.423  1.00 20.00     0.014 C 
ENDBRANCH   7   8
ENDBRANCH   1   7
TORSDOF 5
ENDMDL
MODEL 6
REMARK VINA RESULT:      -5.5      1.416      2.200
REMARK  5 active torsions:
REMARK  status: ('A' for Active; 'I' for Inactive)
REMARK    1  A    between atoms: C5_5  and  C9_9 
REMARK    2  A    between atoms: C6_6  and  C7_7 
REMARK    3  A    between atoms: C6_6  and  C8_8 
REMARK    4  A    between atoms: C7_7  and  C9_9 
REMARK    5  A    between atoms: C8_8  and  C10_10 
ROOT
HETATM    1  C6  UNL     1     -32.551   7.265   2.495  1.00 20.00     0.002 C 
ENDROOT
BRANCH   1   2
HETATM    2  C7  UNL     1     -33.507   6.079   2.689  1.00 20.00     0.020 C 
BRANCH   2   3
HETATM    3  C9  UNL     1     -33.612   5.620   4.151  1.00 20.00     0.082 C 
HETATM    4 CL11 UNL     1     -34.288   3.962   4.242  1.00 20.00    -0.125 Cl
BRANCH   3   5
HETATM    5  C5  UNL     1     -34.432   6.581   5.026  1.00 20.00     0.016 C 
HETATM    6  C1  UNL     1     -33.629   7.409   6.021  1.00 20.00     0.006 C 
ENDBRANCH   3   5
ENDBRANCH   2   3
ENDBRANCH   1   2
BRANCH   1   7
HETATM    7  C8  UNL     1     -33.297   8.486   1.940  1.00 20.00     0.008 C 
BRANCH   7   8
HETATM    8  C10 UNL     1     -32.538   9.311   0.867  1.00 20.00    -0.051 C 
HETATM    9  C2  UNL     1     -33.290   9.306  -0.475  1.00 20.00     0.014 C 
HETATM   10  C3  UNL     1     -32.438  10.767   1.365  1.00 20.00     0.014 C 
HETATM   11  C4  UNL     1     -31.114   8.771   0.652  1.00 20.00     0.014 C 
ENDBRANCH   7   8
ENDBRANCH   1   7
TORSDOF 5
ENDMDL
MODEL 7
REMARK VINA RESULT:      -5.5      1.788      5.338
REMARK  5 active torsions:
REMARK  status: ('A' for Active; 'I' for Inactive)
REMARK    1  A    between atoms: C5_5  and  C9_9 
REMARK    2  A    between atoms: C6_6  and  C7_7 
REMARK    3  A    between atoms: C6_6  and  C8_8 
REMARK    4  A    between atoms: C7_7  and  C9_9 
REMARK    5  A    between atoms: C8_8  and  C10_10 
ROOT
HETATM    1  C6  UNL     1     -33.263   7.591   2.672  1.00 20.00     0.002 C 
ENDROOT
BRANCH   1   2
HETATM    2  C7  UNL     1     -31.921   8.339   2.659  1.00 20.00     0.020 C 
BRANCH   2   3
HETATM    3  C9  UNL     1     -31.791   9.326   1.489  1.00 20.00     0.082 C 
HETATM    4 CL11 UNL     1     -32.806  10.776   1.775  1.00 20.00    -0.125 Cl
BRANCH   3   5
HETATM    5  C5  UNL     1     -32.130   8.696   0.130  1.00 20.00     0.016 C 
HETATM    6  C1  UNL     1     -33.225   9.397  -0.663  1.00 20.00     0.006 C 
ENDBRANCH   3   5
ENDBRANCH   2   3
ENDBRANCH   1   2
BRANCH   1   7
HETATM    7  C8  UNL     1     -33.107   6.196   3.290  1.00 20.00     0.008 C 
BRANCH   7   8
HETATM    8  C10 UNL     1     -34.265   5.733   4.213  1.00 20.00    -0.051 C 
HETATM    9  C2  UNL     1     -34.208   4.216   4.462  1.00 20.00     0.014 C 
HETATM   10  C3  UNL     1     -34.116   6.455   5.568  1.00 20.00     0.014 C 
HETATM   11  C4  UNL     1     -35.634   6.097   3.616  1.00 20.00     0.014 C 
ENDBRANCH   7   8
ENDBRANCH   1   7
TORSDOF 5
ENDMDL
MODEL 8
REMARK VINA RESULT:      -4.0     10.472     11.389
REMARK  5 active torsions:
REMARK  status: ('A' for Active; 'I' for Inactive)
REMARK    1  A    between atoms: C5_5  and  C9_9 
REMARK    2  A    between atoms: C6_6  and  C7_7 
REMARK    3  A    between atoms: C6_6  and  C8_8 
REMARK    4  A    between atoms: C7_7  and  C9_9 
REMARK    5  A    between atoms: C8_8  and  C10_10 
ROOT
HETATM    1  C6  UNL     1     -33.684  15.830  -3.634  1.00 20.00     0.002 C 
ENDROOT
BRANCH   1   2
HETATM    2  C7  UNL     1     -33.917  14.438  -4.239  1.00 20.00     0.020 C 
BRANCH   2   3
HETATM    3  C9  UNL     1     -33.978  14.450  -5.775  1.00 20.00     0.082 C 
HETATM    4 CL11 UNL     1     -33.354  16.004  -6.416  1.00 20.00    -0.125 Cl
BRANCH   3   5
HETATM    5  C5  UNL     1     -35.387  14.174  -6.322  1.00 20.00     0.016 C 
HETATM    6  C1  UNL     1     -36.403  13.680  -5.300  1.00 20.00     0.006 C 
ENDBRANCH   3   5
ENDBRANCH   2   3
ENDBRANCH   1   2
BRANCH   1   7
HETATM    7  C8  UNL     1     -34.862  16.245  -2.743  1.00 20.00     0.008 C 
BRANCH   7   8
HETATM    8  C10 UNL     1     -34.626  17.488  -1.845  1.00 20.00    -0.051 C 
HETATM    9  C2  UNL     1     -35.174  18.765  -2.504  1.00 20.00     0.014 C 
HETATM   10  C3  UNL     1     -35.373  17.266  -0.514  1.00 20.00     0.014 C 
HETATM   11  C4  UNL     1     -33.131  17.678  -1.538  1.00 20.00     0.014 C 
ENDBRANCH   7   8
ENDBRANCH   1   7
TORSDOF 5
ENDMDL
MODEL 9
REMARK VINA RESULT:      -4.0     10.480     11.303
REMARK  5 active torsions:
REMARK  status: ('A' for Active; 'I' for Inactive)
REMARK    1  A    between atoms: C5_5  and  C9_9 
REMARK    2  A    between atoms: C6_6  and  C7_7 
REMARK    3  A    between atoms: C6_6  and  C8_8 
REMARK    4  A    between atoms: C7_7  and  C9_9 
REMARK    5  A    between atoms: C8_8  and  C10_10 
ROOT
HETATM    1  C6  UNL     1     -33.533  14.874  -4.178  1.00 20.00     0.002 C 
ENDROOT
BRANCH   1   2
HETATM    2  C7  UNL     1     -33.727  16.223  -3.470  1.00 20.00     0.020 C 
BRANCH   2   3
HETATM    3  C9  UNL     1     -35.043  16.307  -2.681  1.00 20.00     0.082 C 
HETATM    4 CL11 UNL     1     -36.303  17.136  -3.650  1.00 20.00    -0.125 Cl
BRANCH   3   5
HETATM    5  C5  UNL     1     -34.882  16.992  -1.315  1.00 20.00     0.016 C 
HETATM    6  C1  UNL     1     -33.594  17.782  -1.125  1.00 20.00     0.006 C 
ENDBRANCH   3   5
ENDBRANCH   2   3
ENDBRANCH   1   2
BRANCH   1   7
HETATM    7  C8  UNL     1     -33.796  15.004  -5.684  1.00 20.00     0.008 C 
BRANCH   7   8
HETATM    8  C10 UNL     1     -35.078  14.305  -6.209  1.00 20.00    -0.051 C 
HETATM    9  C2  UNL     1     -35.812  13.564  -5.079  1.00 20.00     0.014 C 
HETATM   10  C3  UNL     1     -36.018  15.390  -6.772  1.00 20.00     0.014 C 
HETATM   11  C4  UNL     1     -34.751  13.312  -7.336  1.00 20.00     0.014 C 
ENDBRANCH   7   8
ENDBRANCH   1   7
TORSDOF 5
ENDMDL
