MODEL 1
REMARK VINA RESULT:      -4.7      0.000      0.000
REMARK  2 active torsions:
REMARK  status: ('A' for Active; 'I' for Inactive)
REMARK    1  A    between atoms: C3_3  and  C10_10 
REMARK    2  A    between atoms: C4_4  and  C10_10 
ROOT
HETATM    1  C5  UNL     1     -34.797   6.126   5.890  1.00 20.00     0.000 C 
HETATM    2  C6  UNL     1     -35.149   5.367   4.615  1.00 20.00     0.001 C 
HETATM    3  C7  UNL     1     -33.373   6.664   5.845  1.00 20.00     0.001 C 
HETATM    4  C8  UNL     1     -34.929   6.226   3.370  1.00 20.00     0.017 C 
HETATM    5  C9  UNL     1     -33.134   7.531   4.608  1.00 20.00     0.017 C 
HETATM    6  C10 UNL     1     -33.512   6.825   3.295  1.00 20.00    -0.006 C 
ENDROOT
BRANCH   6   7
HETATM    7  C3  UNL     1     -32.514   5.734   2.991  1.00 20.00    -0.023 C 
HETATM    8  C1  UNL     1     -32.830   4.571   2.412  1.00 20.00     0.008 C 
ENDBRANCH   6   7
BRANCH   6   9
HETATM    9  C4  UNL     1     -33.481   7.859   2.200  1.00 20.00    -0.023 C 
HETATM   10  C2  UNL     1     -32.384   8.533   1.838  1.00 20.00     0.008 C 
ENDBRANCH   6   9
TORSDOF 2
ENDMDL
MODEL 2
REMARK VINA RESULT:      -4.3      0.854      3.484
REMARK  2 active torsions:
REMARK  status: ('A' for Active; 'I' for Inactive)
REMARK    1  A    between atoms: C3_3  and  C10_10 
REMARK    2  A    between atoms: C4_4  and  C10_10 
ROOT
HETATM    1  C5  UNL     1     -31.868   9.032   2.483  1.00 20.00     0.000 C 
HETATM    2  C6  UNL     1     -31.451   8.239   3.717  1.00 20.00     0.001 C 
HETATM    3  C7  UNL     1     -32.604   8.155   1.478  1.00 20.00     0.001 C 
HETATM    4  C8  UNL     1     -32.646   7.543   4.369  1.00 20.00     0.017 C 
HETATM    5  C9  UNL     1     -33.806   7.453   2.111  1.00 20.00     0.017 C 
HETATM    6  C10 UNL     1     -33.445   6.671   3.384  1.00 20.00    -0.006 C 
ENDROOT
BRANCH   6   7
HETATM    7  C3  UNL     1     -32.644   5.444   3.024  1.00 20.00    -0.023 C 
HETATM    8  C1  UNL     1     -33.128   4.414   2.321  1.00 20.00     0.008 C 
ENDBRANCH   6   7
BRANCH   6   9
HETATM    9  C4  UNL     1     -34.736   6.258   4.042  1.00 20.00    -0.023 C 
HETATM   10  C2  UNL     1     -34.810   5.664   5.238  1.00 20.00     0.008 C 
ENDBRANCH   6   9
TORSDOF 2
ENDMDL
MODEL 3
REMARK VINA RESULT:      -4.2      1.303      2.125
REMARK  2 active torsions:
REMARK  status: ('A' for Active; 'I' for Inactive)
REMARK    1  A    between atoms: C3_3  and  C10_10 
REMARK    2  A    between atoms: C4_4  and  C10_10 
ROOT
HETATM    1  C5  UNL     1     -34.401   5.115   4.130  1.00 20.00     0.000 C 
HETATM    2  C6  UNL     1     -33.354   4.905   3.043  1.00 20.00     0.001 C 
HETATM    3  C7  UNL     1     -34.172   6.420   4.881  1.00 20.00     0.001 C 
HETATM    4  C8  UNL     1     -33.299   6.089   2.078  1.00 20.00     0.017 C 
HETATM    5  C9  UNL     1     -34.119   7.619   3.933  1.00 20.00     0.017 C 
HETATM    6  C10 UNL     1     -33.104   7.439   2.792  1.00 20.00    -0.006 C 
ENDROOT
BRANCH   6   7
HETATM    7  C3  UNL     1     -31.699   7.531   3.334  1.00 20.00    -0.023 C 
HETATM    8  C1  UNL     1     -31.255   8.536   4.096  1.00 20.00     0.008 C 
ENDBRANCH   6   7
BRANCH   6   9
HETATM    9  C4  UNL     1     -33.337   8.549   1.800  1.00 20.00    -0.023 C 
HETATM   10  C2  UNL     1     -32.436   8.945   0.895  1.00 20.00     0.008 C 
ENDBRANCH   6   9
TORSDOF 2
ENDMDL
MODEL 4
REMARK VINA RESULT:      -4.1      1.165      2.071
REMARK  2 active torsions:
REMARK  status: ('A' for Active; 'I' for Inactive)
REMARK    1  A    between atoms: C3_3  and  C10_10 
REMARK    2  A    between atoms: C4_4  and  C10_10 
ROOT
HETATM    1  C5  UNL     1     -34.374   4.702   5.732  1.00 20.00     0.000 C 
HETATM    2  C6  UNL     1     -34.693   6.192   5.729  1.00 20.00     0.001 C 
HETATM    3  C7  UNL     1     -34.214   4.163   4.316  1.00 20.00     0.001 C 
HETATM    4  C8  UNL     1     -33.645   6.992   4.955  1.00 20.00     0.017 C 
HETATM    5  C9  UNL     1     -33.165   4.947   3.526  1.00 20.00     0.017 C 
HETATM    6  C10 UNL     1     -33.420   6.463   3.527  1.00 20.00    -0.006 C 
ENDROOT
BRANCH   6   7
HETATM    7  C3  UNL     1     -34.620   6.784   2.670  1.00 20.00    -0.023 C 
HETATM    8  C1  UNL     1     -34.897   6.175   1.512  1.00 20.00     0.008 C 
ENDBRANCH   6   7
BRANCH   6   9
HETATM    9  C4  UNL     1     -32.195   7.128   2.952  1.00 20.00    -0.023 C 
HETATM   10  C2  UNL     1     -32.194   8.348   2.406  1.00 20.00     0.008 C 
ENDBRANCH   6   9
TORSDOF 2
ENDMDL
MODEL 5
REMARK VINA RESULT:      -4.1     11.415     12.695
REMARK  2 active torsions:
REMARK  status: ('A' for Active; 'I' for Inactive)
REMARK    1  A    between atoms: C3_3  and  C10_10 
REMARK    2  A    between atoms: C4_4  and  C10_10 
ROOT
HETATM    1  C5  UNL     1     -32.931  15.510  -5.545  1.00 20.00     0.000 C 
HETATM    2  C6  UNL     1     -33.413  16.907  -5.172  1.00 20.00     0.001 C 
HETATM    3  C7  UNL     1     -33.281  14.492  -4.467  1.00 20.00     0.001 C 
HETATM    4  C8  UNL     1     -34.912  16.923  -4.871  1.00 20.00     0.017 C 
HETATM    5  C9  UNL     1     -34.778  14.490  -4.154  1.00 20.00     0.017 C 
HETATM    6  C10 UNL     1     -35.323  15.886  -3.811  1.00 20.00    -0.006 C 
ENDROOT
BRANCH   6   7
HETATM    7  C3  UNL     1     -34.820  16.316  -2.454  1.00 20.00    -0.023 C 
HETATM    8  C1  UNL     1     -35.548  17.009  -1.572  1.00 20.00     0.008 C 
ENDBRANCH   6   7
BRANCH   6   9
HETATM    9  C4  UNL     1     -36.827  15.790  -3.786  1.00 20.00    -0.023 C 
HETATM   10  C2  UNL     1     -37.537  14.959  -4.557  1.00 20.00     0.008 C 
ENDBRANCH   6   9
TORSDOF 2
ENDMDL
MODEL 6
REMARK VINA RESULT:      -4.1     11.576     12.715
REMARK  2 active torsions:
REMARK  status: ('A' for Active; 'I' for Inactive)
REMARK    1  A    between atoms: C3_3  and  C10_10 
REMARK    2  A    between atoms: C4_4  and  C10_10 
ROOT
HETATM    1  C5  UNL     1     -34.419  18.112   0.479  1.00 20.00     0.000 C 
HETATM    2  C6  UNL     1     -33.337  18.727  -0.401  1.00 20.00     0.001 C 
HETATM    3  C7  UNL     1     -35.638  17.704  -0.338  1.00 20.00     0.001 C 
HETATM    4  C8  UNL     1     -32.940  17.791  -1.543  1.00 20.00     0.017 C 
HETATM    5  C9  UNL     1     -35.263  16.763  -1.484  1.00 20.00     0.017 C 
HETATM    6  C10 UNL     1     -34.144  17.320  -2.380  1.00 20.00    -0.006 C 
ENDROOT
BRANCH   6   7
HETATM    7  C3  UNL     1     -34.670  18.468  -3.206  1.00 20.00    -0.023 C 
HETATM    8  C1  UNL     1     -34.001  19.029  -4.219  1.00 20.00     0.008 C 
ENDBRANCH   6   7
BRANCH   6   9
HETATM    9  C4  UNL     1     -33.695  16.205  -3.289  1.00 20.00    -0.023 C 
HETATM   10  C2  UNL     1     -34.501  15.241  -3.744  1.00 20.00     0.008 C 
ENDBRANCH   6   9
TORSDOF 2
ENDMDL
MODEL 7
REMARK VINA RESULT:      -4.1      0.782      2.421
REMARK  2 active torsions:
REMARK  status: ('A' for Active; 'I' for Inactive)
REMARK    1  A    between atoms: C3_3  and  C10_10 
REMARK    2  A    between atoms: C4_4  and  C10_10 
ROOT
HETATM    1  C5  UNL     1     -34.363   4.016   4.032  1.00 20.00     0.000 C 
HETATM    2  C6  UNL     1     -32.906   4.350   3.735  1.00 20.00     0.001 C 
HETATM    3  C7  UNL     1     -35.090   5.198   4.660  1.00 20.00     0.001 C 
HETATM    4  C8  UNL     1     -32.781   5.597   2.860  1.00 20.00     0.017 C 
HETATM    5  C9  UNL     1     -34.981   6.455   3.797  1.00 20.00     0.017 C 
HETATM    6  C10 UNL     1     -33.530   6.813   3.435  1.00 20.00    -0.006 C 
ENDROOT
BRANCH   6   7
HETATM    7  C3  UNL     1     -32.807   7.327   4.655  1.00 20.00    -0.023 C 
HETATM    8  C1  UNL     1     -33.409   7.619   5.814  1.00 20.00     0.008 C 
ENDBRANCH   6   7
BRANCH   6   9
HETATM    9  C4  UNL     1     -33.580   7.892   2.384  1.00 20.00    -0.023 C 
HETATM   10  C2  UNL     1     -32.500   8.519   1.904  1.00 20.00     0.008 C 
ENDBRANCH   6   9
TORSDOF 2
ENDMDL
MODEL 8
REMARK VINA RESULT:      -4.1     11.484     12.562
REMARK  2 active torsions:
REMARK  status: ('A' for Active; 'I' for Inactive)
REMARK    1  A    between atoms: C3_3  and  C10_10 
REMARK    2  A    between atoms: C4_4  and  C10_10 
ROOT
HETATM    1  C5  UNL     1     -35.341  13.992  -4.688  1.00 20.00     0.000 C 
HETATM    2  C6  UNL     1     -36.227  15.184  -4.343  1.00 20.00     0.001 C 
HETATM    3  C7  UNL     1     -33.922  14.431  -5.023  1.00 20.00     0.001 C 
HETATM    4  C8  UNL     1     -35.631  16.019  -3.210  1.00 20.00     0.017 C 
HETATM    5  C9  UNL     1     -33.305  15.264  -3.899  1.00 20.00     0.017 C 
HETATM    6  C10 UNL     1     -34.181  16.458  -3.485  1.00 20.00    -0.006 C 
ENDROOT
BRANCH   6   7
HETATM    7  C3  UNL     1     -34.163  17.509  -4.567  1.00 20.00    -0.023 C 
HETATM    8  C1  UNL     1     -33.367  18.583  -4.554  1.00 20.00     0.008 C 
ENDBRANCH   6   7
BRANCH   6   9
HETATM    9  C4  UNL     1     -33.599  17.027  -2.216  1.00 20.00    -0.023 C 
HETATM   10  C2  UNL     1     -34.315  17.291  -1.118  1.00 20.00     0.008 C 
ENDBRANCH   6   9
TORSDOF 2
ENDMDL
MODEL 9
REMARK VINA RESULT:      -4.0     11.602     12.519
REMARK  2 active torsions:
REMARK  status: ('A' for Active; 'I' for Inactive)
REMARK    1  A    between atoms: C3_3  and  C10_10 
REMARK    2  A    between atoms: C4_4  and  C10_10 
ROOT
HETATM    1  C5  UNL     1     -34.982  16.860  -1.768  1.00 20.00     0.000 C 
HETATM    2  C6  UNL     1     -33.680  16.789  -2.558  1.00 20.00     0.001 C 
HETATM    3  C7  UNL     1     -36.194  16.877  -2.690  1.00 20.00     0.001 C 
HETATM    4  C8  UNL     1     -33.662  15.591  -3.508  1.00 20.00     0.017 C 
HETATM    5  C9  UNL     1     -36.197  15.684  -3.646  1.00 20.00     0.017 C 
HETATM    6  C10 UNL     1     -34.888  15.543  -4.439  1.00 20.00    -0.006 C 
ENDROOT
BRANCH   6   7
HETATM    7  C3  UNL     1     -34.789  16.643  -5.467  1.00 20.00    -0.023 C 
HETATM    8  C1  UNL     1     -33.810  16.733  -6.374  1.00 20.00     0.008 C 
ENDBRANCH   6   7
BRANCH   6   9
HETATM    9  C4  UNL     1     -34.918  14.204  -5.130  1.00 20.00    -0.023 C 
HETATM   10  C2  UNL     1     -36.021  13.462  -5.274  1.00 20.00     0.008 C 
ENDBRANCH   6   9
TORSDOF 2
ENDMDL
