MODEL 1
REMARK VINA RESULT:      -5.4      0.000      0.000
REMARK  1 active torsions:
REMARK  status: ('A' for Active; 'I' for Inactive)
REMARK    1  A    between atoms: C4_4  and  C9_9 
ROOT
HETATM    1  C1  UNL     1     -32.015   7.852   2.227  1.00 20.00    -0.003 A 
HETATM    2  C2  UNL     1     -33.017   6.831   2.388  1.00 20.00     0.004 A 
HETATM    3  C3  UNL     1     -31.735   8.399   3.418  1.00 20.00    -0.022 A 
HETATM    4  C4  UNL     1     -33.361   6.742   3.682  1.00 20.00    -0.069 A 
HETATM    5  C5  UNL     1     -32.570   7.743   4.480  1.00 20.00     0.062 A 
ENDROOT
BRANCH   4   6
HETATM    6  C9  UNL     1     -34.365   5.818   4.317  1.00 20.00    -0.028 C 
HETATM    7  C6  UNL     1     -35.740   6.055   3.679  1.00 20.00     0.019 C 
HETATM    8  C7  UNL     1     -34.440   6.098   5.825  1.00 20.00     0.019 C 
HETATM    9  C8  UNL     1     -33.938   4.361   4.093  1.00 20.00     0.019 C 
ENDBRANCH   4   6
TORSDOF 1
ENDMDL
MODEL 2
REMARK VINA RESULT:      -5.4      0.050      1.445
REMARK  1 active torsions:
REMARK  status: ('A' for Active; 'I' for Inactive)
REMARK    1  A    between atoms: C4_4  and  C9_9 
ROOT
HETATM    1  C1  UNL     1     -31.995   7.843   2.283  1.00 20.00    -0.003 A 
HETATM    2  C2  UNL     1     -32.990   6.811   2.419  1.00 20.00     0.004 A 
HETATM    3  C3  UNL     1     -31.753   8.395   3.481  1.00 20.00    -0.022 A 
HETATM    4  C4  UNL     1     -33.367   6.720   3.703  1.00 20.00    -0.069 A 
HETATM    5  C5  UNL     1     -32.609   7.731   4.520  1.00 20.00     0.062 A 
ENDROOT
BRANCH   4   6
HETATM    6  C9  UNL     1     -34.378   5.786   4.313  1.00 20.00    -0.028 C 
HETATM    7  C6  UNL     1     -33.940   4.338   4.058  1.00 20.00     0.019 C 
HETATM    8  C7  UNL     1     -35.753   6.029   3.676  1.00 20.00     0.019 C 
HETATM    9  C8  UNL     1     -34.466   6.039   5.824  1.00 20.00     0.019 C 
ENDBRANCH   4   6
TORSDOF 1
ENDMDL
MODEL 3
REMARK VINA RESULT:      -5.4      0.009      1.447
REMARK  1 active torsions:
REMARK  status: ('A' for Active; 'I' for Inactive)
REMARK    1  A    between atoms: C4_4  and  C9_9 
ROOT
HETATM    1  C1  UNL     1     -32.022   7.863   2.228  1.00 20.00    -0.003 A 
HETATM    2  C2  UNL     1     -33.023   6.841   2.388  1.00 20.00     0.004 A 
HETATM    3  C3  UNL     1     -31.736   8.403   3.422  1.00 20.00    -0.022 A 
HETATM    4  C4  UNL     1     -33.362   6.745   3.682  1.00 20.00    -0.069 A 
HETATM    5  C5  UNL     1     -32.567   7.742   4.483  1.00 20.00     0.062 A 
ENDROOT
BRANCH   4   6
HETATM    6  C9  UNL     1     -34.364   5.819   4.317  1.00 20.00    -0.028 C 
HETATM    7  C6  UNL     1     -34.434   6.109   5.822  1.00 20.00     0.019 C 
HETATM    8  C7  UNL     1     -33.933   4.363   4.092  1.00 20.00     0.019 C 
HETATM    9  C8  UNL     1     -35.745   6.043   3.685  1.00 20.00     0.019 C 
ENDBRANCH   4   6
TORSDOF 1
ENDMDL
MODEL 4
REMARK VINA RESULT:      -5.4      0.076      1.924
REMARK  1 active torsions:
REMARK  status: ('A' for Active; 'I' for Inactive)
REMARK    1  A    between atoms: C4_4  and  C9_9 
ROOT
HETATM    1  C1  UNL     1     -31.747   8.386   3.497  1.00 20.00    -0.003 A 
HETATM    2  C2  UNL     1     -32.579   7.674   4.432  1.00 20.00     0.004 A 
HETATM    3  C3  UNL     1     -31.983   7.941   2.255  1.00 20.00    -0.022 A 
HETATM    4  C4  UNL     1     -33.335   6.785   3.771  1.00 20.00    -0.069 A 
HETATM    5  C5  UNL     1     -33.029   6.864   2.299  1.00 20.00     0.062 A 
ENDROOT
BRANCH   4   6
HETATM    6  C9  UNL     1     -34.349   5.825   4.331  1.00 20.00    -0.028 C 
HETATM    7  C6  UNL     1     -34.472   6.051   5.844  1.00 20.00     0.019 C 
HETATM    8  C7  UNL     1     -33.898   4.383   4.060  1.00 20.00     0.019 C 
HETATM    9  C8  UNL     1     -35.710   6.065   3.663  1.00 20.00     0.019 C 
ENDBRANCH   4   6
TORSDOF 1
ENDMDL
MODEL 5
REMARK VINA RESULT:      -4.7      1.197      3.338
REMARK  1 active torsions:
REMARK  status: ('A' for Active; 'I' for Inactive)
REMARK    1  A    between atoms: C4_4  and  C9_9 
ROOT
HETATM    1  C1  UNL     1     -34.049   7.071   6.262  1.00 20.00    -0.003 A 
HETATM    2  C2  UNL     1     -33.487   7.330   4.962  1.00 20.00     0.004 A 
HETATM    3  C3  UNL     1     -34.756   5.932   6.228  1.00 20.00    -0.022 A 
HETATM    4  C4  UNL     1     -33.845   6.351   4.117  1.00 20.00    -0.069 A 
HETATM    5  C5  UNL     1     -34.700   5.349   4.845  1.00 20.00     0.062 A 
ENDROOT
BRANCH   4   6
HETATM    6  C9  UNL     1     -33.492   6.202   2.662  1.00 20.00    -0.028 C 
HETATM    7  C6  UNL     1     -32.536   7.332   2.258  1.00 20.00     0.019 C 
HETATM    8  C7  UNL     1     -34.769   6.279   1.812  1.00 20.00     0.019 C 
HETATM    9  C8  UNL     1     -32.812   4.846   2.433  1.00 20.00     0.019 C 
ENDBRANCH   4   6
TORSDOF 1
ENDMDL
MODEL 6
REMARK VINA RESULT:      -4.7      1.197      3.416
REMARK  1 active torsions:
REMARK  status: ('A' for Active; 'I' for Inactive)
REMARK    1  A    between atoms: C4_4  and  C9_9 
ROOT
HETATM    1  C1  UNL     1     -34.048   7.059   6.257  1.00 20.00    -0.003 A 
HETATM    2  C2  UNL     1     -33.485   7.319   4.958  1.00 20.00     0.004 A 
HETATM    3  C3  UNL     1     -34.764   5.926   6.218  1.00 20.00    -0.022 A 
HETATM    4  C4  UNL     1     -33.849   6.347   4.109  1.00 20.00    -0.069 A 
HETATM    5  C5  UNL     1     -34.712   5.347   4.833  1.00 20.00     0.062 A 
ENDROOT
BRANCH   4   6
HETATM    6  C9  UNL     1     -33.498   6.201   2.653  1.00 20.00    -0.028 C 
HETATM    7  C6  UNL     1     -32.816   4.844   2.435  1.00 20.00     0.019 C 
HETATM    8  C7  UNL     1     -32.544   7.331   2.239  1.00 20.00     0.019 C 
HETATM    9  C8  UNL     1     -34.775   6.278   1.805  1.00 20.00     0.019 C 
ENDBRANCH   4   6
TORSDOF 1
ENDMDL
MODEL 7
REMARK VINA RESULT:      -4.5      1.003      3.748
REMARK  1 active torsions:
REMARK  status: ('A' for Active; 'I' for Inactive)
REMARK    1  A    between atoms: C4_4  and  C9_9 
ROOT
HETATM    1  C1  UNL     1     -34.443   6.262   5.956  1.00 20.00    -0.003 A 
HETATM    2  C2  UNL     1     -33.590   7.248   5.347  1.00 20.00     0.004 A 
HETATM    3  C3  UNL     1     -34.847   5.382   5.029  1.00 20.00    -0.022 A 
HETATM    4  C4  UNL     1     -33.463   6.982   4.038  1.00 20.00    -0.069 A 
HETATM    5  C5  UNL     1     -34.260   5.752   3.697  1.00 20.00     0.062 A 
ENDROOT
BRANCH   4   6
HETATM    6  C9  UNL     1     -32.671   7.740   3.006  1.00 20.00    -0.028 C 
HETATM    7  C6  UNL     1     -31.390   8.282   3.655  1.00 20.00     0.019 C 
HETATM    8  C7  UNL     1     -33.511   8.906   2.468  1.00 20.00     0.019 C 
HETATM    9  C8  UNL     1     -32.304   6.801   1.848  1.00 20.00     0.019 C 
ENDBRANCH   4   6
TORSDOF 1
ENDMDL
MODEL 8
REMARK VINA RESULT:      -4.5      1.004      3.755
REMARK  1 active torsions:
REMARK  status: ('A' for Active; 'I' for Inactive)
REMARK    1  A    between atoms: C4_4  and  C9_9 
ROOT
HETATM    1  C1  UNL     1     -34.452   6.249   5.957  1.00 20.00    -0.003 A 
HETATM    2  C2  UNL     1     -33.595   7.236   5.354  1.00 20.00     0.004 A 
HETATM    3  C3  UNL     1     -34.854   5.373   5.026  1.00 20.00    -0.022 A 
HETATM    4  C4  UNL     1     -33.464   6.974   4.044  1.00 20.00    -0.069 A 
HETATM    5  C5  UNL     1     -34.262   5.746   3.697  1.00 20.00     0.062 A 
ENDROOT
BRANCH   4   6
HETATM    6  C9  UNL     1     -32.667   7.734   3.018  1.00 20.00    -0.028 C 
HETATM    7  C6  UNL     1     -32.304   6.789   1.865  1.00 20.00     0.019 C 
HETATM    8  C7  UNL     1     -31.385   8.279   3.662  1.00 20.00     0.019 C 
HETATM    9  C8  UNL     1     -33.503   8.904   2.481  1.00 20.00     0.019 C 
ENDBRANCH   4   6
TORSDOF 1
ENDMDL
MODEL 9
REMARK VINA RESULT:      -4.4      1.008      3.748
REMARK  1 active torsions:
REMARK  status: ('A' for Active; 'I' for Inactive)
REMARK    1  A    between atoms: C4_4  and  C9_9 
ROOT
HETATM    1  C1  UNL     1     -34.448   6.245   5.952  1.00 20.00    -0.003 A 
HETATM    2  C2  UNL     1     -33.595   7.235   5.348  1.00 20.00     0.004 A 
HETATM    3  C3  UNL     1     -34.853   5.371   5.019  1.00 20.00    -0.022 A 
HETATM    4  C4  UNL     1     -33.469   6.977   4.037  1.00 20.00    -0.069 A 
HETATM    5  C5  UNL     1     -34.267   5.748   3.690  1.00 20.00     0.062 A 
ENDROOT
BRANCH   4   6
HETATM    6  C9  UNL     1     -32.678   7.741   3.009  1.00 20.00    -0.028 C 
HETATM    7  C6  UNL     1     -33.527   8.907   2.488  1.00 20.00     0.019 C 
HETATM    8  C7  UNL     1     -32.311   6.809   1.846  1.00 20.00     0.019 C 
HETATM    9  C8  UNL     1     -31.393   8.284   3.648  1.00 20.00     0.019 C 
ENDBRANCH   4   6
TORSDOF 1
ENDMDL
