MODEL 1
REMARK VINA RESULT:      -6.5      0.000      0.000
REMARK  0 active torsions:
REMARK  status: ('A' for Active; 'I' for Inactive)
ROOT
HETATM    1  C1  UNL     1     -33.466   7.364   5.570  1.00 20.00     0.009 A 
HETATM    2  C2  UNL     1     -32.854   8.067   4.530  1.00 20.00     0.019 A 
HETATM    3  C3  UNL     1     -33.337   6.264   2.961  1.00 20.00     0.026 A 
HETATM    4  C4  UNL     1     -33.994   6.130   5.271  1.00 20.00    -0.051 A 
HETATM    5  C5  UNL     1     -33.932   5.598   4.006  1.00 20.00    -0.050 A 
HETATM    6  C6  UNL     1     -32.789   7.521   3.233  1.00 20.00     0.011 A 
HETATM    7  C7  UNL     1     -34.721   4.947   5.837  1.00 20.00     0.043 A 
HETATM    8  C8  UNL     1     -34.649   4.340   4.396  1.00 20.00     0.043 A 
HETATM    9 BR9  UNL     1     -31.954   8.500   1.848  1.00 20.00    -0.051 Br
ENDROOT
TORSDOF 0
ENDMDL
MODEL 2
REMARK VINA RESULT:      -6.1      0.792      1.970
REMARK  0 active torsions:
REMARK  status: ('A' for Active; 'I' for Inactive)
ROOT
HETATM    1  C1  UNL     1     -33.544   4.968   2.910  1.00 20.00     0.009 A 
HETATM    2  C2  UNL     1     -32.974   6.024   2.194  1.00 20.00     0.019 A 
HETATM    3  C3  UNL     1     -33.408   7.568   4.031  1.00 20.00     0.026 A 
HETATM    4  C4  UNL     1     -34.029   5.248   4.166  1.00 20.00    -0.051 A 
HETATM    5  C5  UNL     1     -33.962   6.509   4.709  1.00 20.00    -0.050 A 
HETATM    6  C6  UNL     1     -32.906   7.316   2.751  1.00 20.00     0.011 A 
HETATM    7  C7  UNL     1     -34.700   4.661   5.371  1.00 20.00     0.043 A 
HETATM    8  C8  UNL     1     -34.625   6.097   5.989  1.00 20.00     0.043 A 
HETATM    9 BR9  UNL     1     -32.127   8.722   1.755  1.00 20.00    -0.051 Br
ENDROOT
TORSDOF 0
ENDMDL
MODEL 3
REMARK VINA RESULT:      -4.9      2.272      4.135
REMARK  0 active torsions:
REMARK  status: ('A' for Active; 'I' for Inactive)
ROOT
HETATM    1  C1  UNL     1     -33.443   6.105   2.116  1.00 20.00     0.009 A 
HETATM    2  C2  UNL     1     -34.054   5.500   3.218  1.00 20.00     0.019 A 
HETATM    3  C3  UNL     1     -33.168   7.212   4.711  1.00 20.00     0.026 A 
HETATM    4  C4  UNL     1     -32.712   7.246   2.349  1.00 20.00    -0.051 A 
HETATM    5  C5  UNL     1     -32.580   7.783   3.607  1.00 20.00    -0.050 A 
HETATM    6  C6  UNL     1     -33.918   6.050   4.507  1.00 20.00     0.011 A 
HETATM    7  C7  UNL     1     -31.875   8.309   1.703  1.00 20.00     0.043 A 
HETATM    8  C8  UNL     1     -31.723   8.920   3.136  1.00 20.00     0.043 A 
HETATM    9 BR9  UNL     1     -34.759   5.207   5.976  1.00 20.00    -0.051 Br
ENDROOT
TORSDOF 0
ENDMDL
MODEL 4
REMARK VINA RESULT:      -4.7      2.193      3.713
REMARK  0 active torsions:
REMARK  status: ('A' for Active; 'I' for Inactive)
ROOT
HETATM    1  C1  UNL     1     -32.634   8.143   4.822  1.00 20.00     0.009 A 
HETATM    2  C2  UNL     1     -33.406   7.055   5.237  1.00 20.00     0.019 A 
HETATM    3  C3  UNL     1     -33.567   6.233   2.948  1.00 20.00     0.026 A 
HETATM    4  C4  UNL     1     -32.354   8.240   3.480  1.00 20.00    -0.051 A 
HETATM    5  C5  UNL     1     -32.806   7.314   2.571  1.00 20.00    -0.050 A 
HETATM    6  C6  UNL     1     -33.870   6.105   4.306  1.00 20.00     0.011 A 
HETATM    7  C7  UNL     1     -31.653   9.061   2.439  1.00 20.00     0.043 A 
HETATM    8  C8  UNL     1     -32.168   8.006   1.404  1.00 20.00     0.043 A 
HETATM    9 BR9  UNL     1     -34.911   4.644   4.902  1.00 20.00    -0.051 Br
ENDROOT
TORSDOF 0
ENDMDL
MODEL 5
REMARK VINA RESULT:      -4.6     12.155     12.495
REMARK  0 active torsions:
REMARK  status: ('A' for Active; 'I' for Inactive)
ROOT
HETATM    1  C1  UNL     1     -35.542  17.078  -0.901  1.00 20.00     0.009 A 
HETATM    2  C2  UNL     1     -34.782  17.861  -0.027  1.00 20.00     0.019 A 
HETATM    3  C3  UNL     1     -32.863  17.759  -1.527  1.00 20.00     0.026 A 
HETATM    4  C4  UNL     1     -34.935  16.660  -2.061  1.00 20.00    -0.051 A 
HETATM    5  C5  UNL     1     -33.636  16.991  -2.365  1.00 20.00    -0.050 A 
HETATM    6  C6  UNL     1     -33.451  18.200  -0.338  1.00 20.00     0.011 A 
HETATM    7  C7  UNL     1     -35.131  15.876  -3.324  1.00 20.00     0.043 A 
HETATM    8  C8  UNL     1     -33.651  16.252  -3.669  1.00 20.00     0.043 A 
HETATM    9 BR9  UNL     1     -32.452  19.262   0.866  1.00 20.00    -0.051 Br
ENDROOT
TORSDOF 0
ENDMDL
MODEL 6
REMARK VINA RESULT:      -4.6     12.124     12.529
REMARK  0 active torsions:
REMARK  status: ('A' for Active; 'I' for Inactive)
ROOT
HETATM    1  C1  UNL     1     -32.738  18.059  -1.154  1.00 20.00     0.009 A 
HETATM    2  C2  UNL     1     -33.243  18.504   0.070  1.00 20.00     0.019 A 
HETATM    3  C3  UNL     1     -35.361  17.367  -0.334  1.00 20.00     0.026 A 
HETATM    4  C4  UNL     1     -33.564  17.281  -1.931  1.00 20.00    -0.051 A 
HETATM    5  C5  UNL     1     -34.836  16.945  -1.532  1.00 20.00    -0.050 A 
HETATM    6  C6  UNL     1     -34.546  18.160   0.478  1.00 20.00     0.011 A 
HETATM    7  C7  UNL     1     -33.669  16.533  -3.226  1.00 20.00     0.043 A 
HETATM    8  C8  UNL     1     -35.118  16.151  -2.773  1.00 20.00     0.043 A 
HETATM    9 BR9  UNL     1     -35.198  18.778   2.142  1.00 20.00    -0.051 Br
ENDROOT
TORSDOF 0
ENDMDL
MODEL 7
REMARK VINA RESULT:      -4.5     12.042     12.571
REMARK  0 active torsions:
REMARK  status: ('A' for Active; 'I' for Inactive)
ROOT
HETATM    1  C1  UNL     1     -35.282  17.633  -0.058  1.00 20.00     0.009 A 
HETATM    2  C2  UNL     1     -35.543  16.906  -1.223  1.00 20.00     0.019 A 
HETATM    3  C3  UNL     1     -33.269  17.275  -2.021  1.00 20.00     0.026 A 
HETATM    4  C4  UNL     1     -34.020  18.160   0.086  1.00 20.00    -0.051 A 
HETATM    5  C5  UNL     1     -33.044  17.985  -0.866  1.00 20.00    -0.050 A 
HETATM    6  C6  UNL     1     -34.543  16.728  -2.198  1.00 20.00     0.011 A 
HETATM    7  C7  UNL     1     -33.132  18.965   0.987  1.00 20.00     0.043 A 
HETATM    8  C8  UNL     1     -32.021  18.767  -0.098  1.00 20.00     0.043 A 
HETATM    9 BR9  UNL     1     -34.929  15.737  -3.762  1.00 20.00    -0.051 Br
ENDROOT
TORSDOF 0
ENDMDL
MODEL 8
REMARK VINA RESULT:      -4.4     11.951     12.338
REMARK  0 active torsions:
REMARK  status: ('A' for Active; 'I' for Inactive)
ROOT
HETATM    1  C1  UNL     1     -33.011  18.454  -0.384  1.00 20.00     0.009 A 
HETATM    2  C2  UNL     1     -32.910  17.801  -1.616  1.00 20.00     0.019 A 
HETATM    3  C3  UNL     1     -35.140  16.852  -1.349  1.00 20.00     0.026 A 
HETATM    4  C4  UNL     1     -34.175  18.283   0.326  1.00 20.00    -0.051 A 
HETATM    5  C5  UNL     1     -35.208  17.506  -0.143  1.00 20.00    -0.050 A 
HETATM    6  C6  UNL     1     -33.969  17.005  -2.096  1.00 20.00     0.011 A 
HETATM    7  C7  UNL     1     -34.896  18.648   1.589  1.00 20.00     0.043 A 
HETATM    8  C8  UNL     1     -36.072  17.763   1.056  1.00 20.00     0.043 A 
HETATM    9 BR9  UNL     1     -33.800  16.137  -3.767  1.00 20.00    -0.051 Br
ENDROOT
TORSDOF 0
ENDMDL
MODEL 9
REMARK VINA RESULT:      -4.1     12.355     12.589
REMARK  0 active torsions:
REMARK  status: ('A' for Active; 'I' for Inactive)
ROOT
HETATM    1  C1  UNL     1     -33.402  15.723  -4.027  1.00 20.00     0.009 A 
HETATM    2  C2  UNL     1     -34.376  15.060  -4.778  1.00 20.00     0.019 A 
HETATM    3  C3  UNL     1     -36.134  15.846  -3.283  1.00 20.00     0.026 A 
HETATM    4  C4  UNL     1     -33.828  16.428  -2.926  1.00 20.00    -0.051 A 
HETATM    5  C5  UNL     1     -35.153  16.487  -2.566  1.00 20.00    -0.050 A 
HETATM    6  C6  UNL     1     -35.734  15.120  -4.409  1.00 20.00     0.011 A 
HETATM    7  C7  UNL     1     -33.380  17.289  -1.783  1.00 20.00     0.043 A 
HETATM    8  C8  UNL     1     -34.888  17.356  -1.372  1.00 20.00     0.043 A 
HETATM    9 BR9  UNL     1     -37.026  14.211  -5.448  1.00 20.00    -0.051 Br
ENDROOT
TORSDOF 0
ENDMDL
