MODEL 1
REMARK VINA RESULT:      -4.3      0.000      0.000
REMARK  0 active torsions:
REMARK  status: ('A' for Active; 'I' for Inactive)
ROOT
HETATM    1  C1  UNL     1     -32.045   8.337   1.801  1.00 20.00     0.119 C 
HETATM    2  C2  UNL     1     -33.402   6.544   2.856  1.00 20.00     0.063 A 
HETATM    3  C3  UNL     1     -33.180   7.224   4.939  1.00 20.00     0.137 A 
HETATM    4  C4  UNL     1     -32.629   7.681   2.929  1.00 20.00     0.137 A 
HETATM    5  C5  UNL     1     -33.759   6.247   4.161  1.00 20.00     0.031 A 
HETATM    6  N6  UNL     1     -31.571   8.869   0.885  1.00 20.00    -0.190 NA
HETATM    7  N7  UNL     1     -32.493   8.097   4.192  1.00 20.00    -0.249 NA
HETATM    8 BR8  UNL     1     -34.812   4.809   4.745  1.00 20.00    -0.050 Br
ENDROOT
TORSDOF 0
ENDMDL
MODEL 2
REMARK VINA RESULT:      -4.0      2.804      3.848
REMARK  0 active torsions:
REMARK  status: ('A' for Active; 'I' for Inactive)
ROOT
HETATM    1  C1  UNL     1     -34.295   5.204   4.228  1.00 20.00     0.119 C 
HETATM    2  C2  UNL     1     -33.322   6.707   2.507  1.00 20.00     0.063 A 
HETATM    3  C3  UNL     1     -32.425   8.164   3.893  1.00 20.00     0.137 A 
HETATM    4  C4  UNL     1     -33.560   6.359   3.817  1.00 20.00     0.137 A 
HETATM    5  C5  UNL     1     -32.585   7.879   2.556  1.00 20.00     0.031 A 
HETATM    6  N6  UNL     1     -34.890   4.266   4.561  1.00 20.00    -0.190 NA
HETATM    7  N7  UNL     1     -33.016   7.242   4.661  1.00 20.00    -0.249 NA
HETATM    8 BR8  UNL     1     -31.942   8.872   1.099  1.00 20.00    -0.050 Br
ENDROOT
TORSDOF 0
ENDMDL
MODEL 3
REMARK VINA RESULT:      -3.8     11.222     11.813
REMARK  0 active torsions:
REMARK  status: ('A' for Active; 'I' for Inactive)
ROOT
HETATM    1  C1  UNL     1     -35.334  13.827  -4.990  1.00 20.00     0.119 C 
HETATM    2  C2  UNL     1     -34.591  15.542  -3.354  1.00 20.00     0.063 A 
HETATM    3  C3  UNL     1     -33.346  16.719  -4.738  1.00 20.00     0.137 A 
HETATM    4  C4  UNL     1     -34.606  15.001  -4.620  1.00 20.00     0.137 A 
HETATM    5  C5  UNL     1     -33.773  16.657  -3.431  1.00 20.00     0.031 A 
HETATM    6  N6  UNL     1     -35.925  12.875  -5.291  1.00 20.00    -0.190 NA
HETATM    7  N7  UNL     1     -33.852  15.714  -5.462  1.00 20.00    -0.249 NA
HETATM    8 BR8  UNL     1     -33.336  17.837  -2.039  1.00 20.00    -0.050 Br
ENDROOT
TORSDOF 0
ENDMDL
MODEL 4
REMARK VINA RESULT:      -3.8     11.190     11.460
REMARK  0 active torsions:
REMARK  status: ('A' for Active; 'I' for Inactive)
ROOT
HETATM    1  C1  UNL     1     -35.534  13.798  -4.973  1.00 20.00     0.119 C 
HETATM    2  C2  UNL     1     -34.243  15.382  -3.561  1.00 20.00     0.063 A 
HETATM    3  C3  UNL     1     -35.939  16.651  -2.955  1.00 20.00     0.137 A 
HETATM    4  C4  UNL     1     -35.422  14.935  -4.115  1.00 20.00     0.137 A 
HETATM    5  C5  UNL     1     -34.579  16.495  -2.808  1.00 20.00     0.031 A 
HETATM    6  N6  UNL     1     -35.625  12.874  -5.669  1.00 20.00    -0.190 NA
HETATM    7  N7  UNL     1     -36.453  15.704  -3.748  1.00 20.00    -0.249 NA
HETATM    8 BR8  UNL     1     -33.417  17.569  -1.800  1.00 20.00    -0.050 Br
ENDROOT
TORSDOF 0
ENDMDL
MODEL 5
REMARK VINA RESULT:      -3.5      2.930      4.239
REMARK  0 active torsions:
REMARK  status: ('A' for Active; 'I' for Inactive)
ROOT
HETATM    1  C1  UNL     1     -34.436   5.527   5.297  1.00 20.00     0.119 C 
HETATM    2  C2  UNL     1     -33.427   7.343   3.937  1.00 20.00     0.063 A 
HETATM    3  C3  UNL     1     -33.043   6.147   2.127  1.00 20.00     0.137 A 
HETATM    4  C4  UNL     1     -33.838   6.040   4.105  1.00 20.00     0.137 A 
HETATM    5  C5  UNL     1     -32.910   7.413   2.653  1.00 20.00     0.031 A 
HETATM    6  N6  UNL     1     -34.922   5.110   6.265  1.00 20.00    -0.190 NA
HETATM    7  N7  UNL     1     -33.607   5.312   3.008  1.00 20.00    -0.249 NA
HETATM    8 BR8  UNL     1     -32.179   8.920   1.809  1.00 20.00    -0.050 Br
ENDROOT
TORSDOF 0
ENDMDL
MODEL 6
REMARK VINA RESULT:      -3.5     11.240     11.698
REMARK  0 active torsions:
REMARK  status: ('A' for Active; 'I' for Inactive)
ROOT
HETATM    1  C1  UNL     1     -37.273  14.416  -4.842  1.00 20.00     0.119 C 
HETATM    2  C2  UNL     1     -35.850  15.896  -3.444  1.00 20.00     0.063 A 
HETATM    3  C3  UNL     1     -33.902  15.127  -4.128  1.00 20.00     0.137 A 
HETATM    4  C4  UNL     1     -36.009  14.896  -4.377  1.00 20.00     0.137 A 
HETATM    5  C5  UNL     1     -34.482  16.046  -3.283  1.00 20.00     0.031 A 
HETATM    6  N6  UNL     1     -38.298  14.027  -5.220  1.00 20.00    -0.190 NA
HETATM    7  N7  UNL     1     -34.828  14.427  -4.794  1.00 20.00    -0.249 NA
HETATM    8 BR8  UNL     1     -33.604  17.251  -2.144  1.00 20.00    -0.050 Br
ENDROOT
TORSDOF 0
ENDMDL
MODEL 7
REMARK VINA RESULT:      -3.5     11.341     12.071
REMARK  0 active torsions:
REMARK  status: ('A' for Active; 'I' for Inactive)
ROOT
HETATM    1  C1  UNL     1     -38.756  15.413  -4.354  1.00 20.00     0.119 C 
HETATM    2  C2  UNL     1     -36.274  15.405  -4.242  1.00 20.00     0.063 A 
HETATM    3  C3  UNL     1     -35.965  13.439  -5.185  1.00 20.00     0.137 A 
HETATM    4  C4  UNL     1     -37.474  14.822  -4.583  1.00 20.00     0.137 A 
HETATM    5  C5  UNL     1     -35.295  14.507  -4.634  1.00 20.00     0.031 A 
HETATM    6  N6  UNL     1     -39.796  15.892  -4.168  1.00 20.00    -0.190 NA
HETATM    7  N7  UNL     1     -37.289  13.628  -5.156  1.00 20.00    -0.249 NA
HETATM    8 BR8  UNL     1     -33.439  14.708  -4.446  1.00 20.00    -0.050 Br
ENDROOT
TORSDOF 0
ENDMDL
MODEL 8
REMARK VINA RESULT:      -3.4     11.360     11.481
REMARK  0 active torsions:
REMARK  status: ('A' for Active; 'I' for Inactive)
ROOT
HETATM    1  C1  UNL     1     -32.375  18.067  -0.829  1.00 20.00     0.119 C 
HETATM    2  C2  UNL     1     -33.635  16.809  -2.561  1.00 20.00     0.063 A 
HETATM    3  C3  UNL     1     -35.611  16.918  -1.594  1.00 20.00     0.137 A 
HETATM    4  C4  UNL     1     -33.569  17.497  -1.370  1.00 20.00     0.137 A 
HETATM    5  C5  UNL     1     -34.960  16.433  -2.706  1.00 20.00     0.031 A 
HETATM    6  N6  UNL     1     -31.406  18.530  -0.390  1.00 20.00    -0.190 NA
HETATM    7  N7  UNL     1     -34.767  17.565  -0.781  1.00 20.00    -0.249 NA
HETATM    8 BR8  UNL     1     -35.711  15.461  -4.125  1.00 20.00    -0.050 Br
ENDROOT
TORSDOF 0
ENDMDL
MODEL 9
REMARK VINA RESULT:      -3.4     11.712     11.873
REMARK  0 active torsions:
REMARK  status: ('A' for Active; 'I' for Inactive)
ROOT
HETATM    1  C1  UNL     1     -32.472  18.696  -1.038  1.00 20.00     0.119 C 
HETATM    2  C2  UNL     1     -33.109  18.701   1.363  1.00 20.00     0.063 A 
HETATM    3  C3  UNL     1     -31.066  18.719   2.187  1.00 20.00     0.137 A 
HETATM    4  C4  UNL     1     -32.167  18.704   0.359  1.00 20.00     0.137 A 
HETATM    5  C5  UNL     1     -32.394  18.710   2.549  1.00 20.00     0.031 A 
HETATM    6  N6  UNL     1     -32.719  18.690  -2.172  1.00 20.00    -0.190 NA
HETATM    7  N7  UNL     1     -30.926  18.716   0.856  1.00 20.00    -0.249 NA
HETATM    8 BR8  UNL     1     -33.094  18.708   4.290  1.00 20.00    -0.050 Br
ENDROOT
TORSDOF 0
ENDMDL
