MODEL 1
REMARK VINA RESULT:      -4.6      0.000      0.000
REMARK  1 active torsions:
REMARK  status: ('A' for Active; 'I' for Inactive)
REMARK    1  A    between atoms: C6_6  and  C7_7 
ROOT
HETATM    1  C3  UNL     1     -34.816   5.352   4.076  1.00 20.00     0.296 C 
HETATM    2  C4  UNL     1     -34.590   5.434   5.581  1.00 20.00     0.197 C 
HETATM    3  C5  UNL     1     -33.211   7.320   5.310  1.00 20.00     0.203 C 
HETATM    4  C7  UNL     1     -33.402   7.282   3.790  1.00 20.00     0.248 C 
HETATM    5  N8  UNL     1     -33.666   5.903   3.357  1.00 20.00     0.092 N 
HETATM    6  O9  UNL     1     -34.360   6.788   5.971  1.00 20.00    -0.387 OA
HETATM    7  H22 UNL     1     -32.849   5.327   3.563  1.00 20.00     0.316 HD
ENDROOT
BRANCH   4   8
HETATM    8  C6  UNL     1     -32.184   7.803   3.080  1.00 20.00     0.021 A 
HETATM    9  C1  UNL     1     -32.199   7.989   1.589  1.00 20.00     0.007 A 
HETATM   10  C2  UNL     1     -32.185   9.188   2.495  1.00 20.00     0.007 A 
ENDBRANCH   4   8
TORSDOF 1
ENDMDL
MODEL 2
REMARK VINA RESULT:      -4.2      1.884      3.953
REMARK  1 active torsions:
REMARK  status: ('A' for Active; 'I' for Inactive)
REMARK    1  A    between atoms: C6_6  and  C7_7 
ROOT
HETATM    1  C3  UNL     1     -32.381   8.347   4.601  1.00 20.00     0.296 C 
HETATM    2  C4  UNL     1     -31.625   7.988   3.328  1.00 20.00     0.197 C 
HETATM    3  C5  UNL     1     -33.332   6.504   2.685  1.00 20.00     0.203 C 
HETATM    4  C7  UNL     1     -34.134   6.826   3.951  1.00 20.00     0.248 C 
HETATM    5  N8  UNL     1     -33.219   7.226   5.030  1.00 20.00     0.092 N 
HETATM    6  O9  UNL     1     -32.542   7.628   2.295  1.00 20.00    -0.387 OA
HETATM    7  H22 UNL     1     -32.612   6.438   5.261  1.00 20.00     0.316 HD
ENDROOT
BRANCH   4   8
HETATM    8  C6  UNL     1     -34.940   5.639   4.396  1.00 20.00     0.021 A 
HETATM    9  C1  UNL     1     -34.324   4.267   4.409  1.00 20.00     0.007 A 
HETATM   10  C2  UNL     1     -34.633   4.965   5.704  1.00 20.00     0.007 A 
ENDBRANCH   4   8
TORSDOF 1
ENDMDL
MODEL 3
REMARK VINA RESULT:      -4.2      1.467      1.911
REMARK  1 active torsions:
REMARK  status: ('A' for Active; 'I' for Inactive)
REMARK    1  A    between atoms: C6_6  and  C7_7 
ROOT
HETATM    1  C3  UNL     1     -34.135   6.183   5.605  1.00 20.00     0.296 C 
HETATM    2  C4  UNL     1     -34.799   5.028   4.867  1.00 20.00     0.197 C 
HETATM    3  C5  UNL     1     -33.785   5.684   2.849  1.00 20.00     0.203 C 
HETATM    4  C7  UNL     1     -33.094   6.863   3.541  1.00 20.00     0.248 C 
HETATM    5  N8  UNL     1     -33.895   7.302   4.692  1.00 20.00     0.092 N 
HETATM    6  O9  UNL     1     -33.985   4.611   3.770  1.00 20.00    -0.387 OA
HETATM    7  H22 UNL     1     -34.796   7.647   4.358  1.00 20.00     0.316 HD
ENDROOT
BRANCH   4   8
HETATM    8  C6  UNL     1     -32.912   8.014   2.592  1.00 20.00     0.021 A 
HETATM    9  C1  UNL     1     -31.850   9.046   2.849  1.00 20.00     0.007 A 
HETATM   10  C2  UNL     1     -31.698   8.080   1.708  1.00 20.00     0.007 A 
ENDBRANCH   4   8
TORSDOF 1
ENDMDL
MODEL 4
REMARK VINA RESULT:      -3.9      1.548      3.783
REMARK  1 active torsions:
REMARK  status: ('A' for Active; 'I' for Inactive)
REMARK    1  A    between atoms: C6_6  and  C7_7 
ROOT
HETATM    1  C3  UNL     1     -32.408   7.512   1.882  1.00 20.00     0.296 C 
HETATM    2  C4  UNL     1     -31.800   8.732   2.562  1.00 20.00     0.197 C 
HETATM    3  C5  UNL     1     -32.583   8.004   4.656  1.00 20.00     0.203 C 
HETATM    4  C7  UNL     1     -33.217   6.761   4.024  1.00 20.00     0.248 C 
HETATM    5  N8  UNL     1     -33.578   7.043   2.627  1.00 20.00     0.092 N 
HETATM    6  O9  UNL     1     -31.439   8.417   3.907  1.00 20.00    -0.387 OA
HETATM    7  H22 UNL     1     -34.289   7.775   2.609  1.00 20.00     0.316 HD
ENDROOT
BRANCH   4   8
HETATM    8  C6  UNL     1     -34.445   6.337   4.779  1.00 20.00     0.021 A 
HETATM    9  C1  UNL     1     -35.170   5.076   4.400  1.00 20.00     0.007 A 
HETATM   10  C2  UNL     1     -34.398   5.140   5.688  1.00 20.00     0.007 A 
ENDBRANCH   4   8
TORSDOF 1
ENDMDL
MODEL 5
REMARK VINA RESULT:      -3.7     11.518     12.280
REMARK  1 active torsions:
REMARK  status: ('A' for Active; 'I' for Inactive)
REMARK    1  A    between atoms: C6_6  and  C7_7 
ROOT
HETATM    1  C3  UNL     1     -34.608  14.202  -4.357  1.00 20.00     0.296 C 
HETATM    2  C4  UNL     1     -34.285  14.693  -5.762  1.00 20.00     0.197 C 
HETATM    3  C5  UNL     1     -33.383  16.686  -4.900  1.00 20.00     0.203 C 
HETATM    4  C7  UNL     1     -33.689  16.243  -3.466  1.00 20.00     0.248 C 
HETATM    5  N8  UNL     1     -34.845  15.336  -3.462  1.00 20.00     0.092 N 
HETATM    6  O9  UNL     1     -33.144  15.551  -5.734  1.00 20.00    -0.387 OA
HETATM    7  H22 UNL     1     -35.667  15.844  -3.793  1.00 20.00     0.316 HD
ENDROOT
BRANCH   4   8
HETATM    8  C6  UNL     1     -33.981  17.426  -2.587  1.00 20.00     0.021 A 
HETATM    9  C1  UNL     1     -34.388  17.222  -1.154  1.00 20.00     0.007 A 
HETATM   10  C2  UNL     1     -33.036  17.793  -1.476  1.00 20.00     0.007 A 
ENDBRANCH   4   8
TORSDOF 1
ENDMDL
MODEL 6
REMARK VINA RESULT:      -3.7     11.305     11.873
REMARK  1 active torsions:
REMARK  status: ('A' for Active; 'I' for Inactive)
REMARK    1  A    between atoms: C6_6  and  C7_7 
ROOT
HETATM    1  C3  UNL     1     -36.872  14.848  -4.619  1.00 20.00     0.296 C 
HETATM    2  C4  UNL     1     -36.122  13.725  -5.325  1.00 20.00     0.197 C 
HETATM    3  C5  UNL     1     -34.126  14.318  -4.231  1.00 20.00     0.203 C 
HETATM    4  C7  UNL     1     -34.831  15.464  -3.496  1.00 20.00     0.248 C 
HETATM    5  N8  UNL     1     -35.961  15.949  -4.301  1.00 20.00     0.092 N 
HETATM    6  O9  UNL     1     -35.047  13.262  -4.508  1.00 20.00    -0.387 OA
HETATM    7  H22 UNL     1     -35.604  16.337  -5.175  1.00 20.00     0.316 HD
ENDROOT
BRANCH   4   8
HETATM    8  C6  UNL     1     -33.883  16.600  -3.233  1.00 20.00     0.021 A 
HETATM    9  C1  UNL     1     -34.413  17.962  -2.883  1.00 20.00     0.007 A 
HETATM   10  C2  UNL     1     -33.715  17.136  -1.839  1.00 20.00     0.007 A 
ENDBRANCH   4   8
TORSDOF 1
ENDMDL
MODEL 7
REMARK VINA RESULT:      -3.7     11.694     12.440
REMARK  1 active torsions:
REMARK  status: ('A' for Active; 'I' for Inactive)
REMARK    1  A    between atoms: C6_6  and  C7_7 
ROOT
HETATM    1  C3  UNL     1     -34.023  14.571  -7.263  1.00 20.00     0.296 C 
HETATM    2  C4  UNL     1     -34.870  13.307  -7.320  1.00 20.00     0.197 C 
HETATM    3  C5  UNL     1     -35.654  13.686  -5.136  1.00 20.00     0.203 C 
HETATM    4  C7  UNL     1     -34.819  14.965  -5.023  1.00 20.00     0.248 C 
HETATM    5  N8  UNL     1     -33.631  14.860  -5.882  1.00 20.00     0.092 N 
HETATM    6  O9  UNL     1     -36.026  13.450  -6.495  1.00 20.00    -0.387 OA
HETATM    7  H22 UNL     1     -33.043  14.096  -5.545  1.00 20.00     0.316 HD
ENDROOT
BRANCH   4   8
HETATM    8  C6  UNL     1     -34.387  15.204  -3.604  1.00 20.00     0.021 A 
HETATM    9  C1  UNL     1     -33.620  16.447  -3.245  1.00 20.00     0.007 A 
HETATM   10  C2  UNL     1     -35.042  16.283  -2.786  1.00 20.00     0.007 A 
ENDBRANCH   4   8
TORSDOF 1
ENDMDL
MODEL 8
REMARK VINA RESULT:      -3.5     11.599     12.341
REMARK  1 active torsions:
REMARK  status: ('A' for Active; 'I' for Inactive)
REMARK    1  A    between atoms: C6_6  and  C7_7 
ROOT
HETATM    1  C3  UNL     1     -37.487  16.077  -4.494  1.00 20.00     0.296 C 
HETATM    2  C4  UNL     1     -38.311  14.991  -5.174  1.00 20.00     0.197 C 
HETATM    3  C5  UNL     1     -36.402  13.640  -5.416  1.00 20.00     0.203 C 
HETATM    4  C7  UNL     1     -35.525  14.700  -4.740  1.00 20.00     0.248 C 
HETATM    5  N8  UNL     1     -36.101  16.034  -4.961  1.00 20.00     0.092 N 
HETATM    6  O9  UNL     1     -37.739  13.708  -4.920  1.00 20.00    -0.387 OA
HETATM    7  H22 UNL     1     -36.090  16.240  -5.961  1.00 20.00     0.316 HD
ENDROOT
BRANCH   4   8
HETATM    8  C6  UNL     1     -34.124  14.666  -5.281  1.00 20.00     0.021 A 
HETATM    9  C1  UNL     1     -33.174  15.795  -4.993  1.00 20.00     0.007 A 
HETATM   10  C2  UNL     1     -32.961  14.453  -4.352  1.00 20.00     0.007 A 
ENDBRANCH   4   8
TORSDOF 1
ENDMDL
MODEL 9
REMARK VINA RESULT:      -3.3     11.808     12.710
REMARK  1 active torsions:
REMARK  status: ('A' for Active; 'I' for Inactive)
REMARK    1  A    between atoms: C6_6  and  C7_7 
ROOT
HETATM    1  C3  UNL     1     -33.590  17.384  -5.378  1.00 20.00     0.296 C 
HETATM    2  C4  UNL     1     -33.573  15.952  -5.898  1.00 20.00     0.197 C 
HETATM    3  C5  UNL     1     -34.576  15.178  -3.917  1.00 20.00     0.203 C 
HETATM    4  C7  UNL     1     -34.616  16.598  -3.343  1.00 20.00     0.248 C 
HETATM    5  N8  UNL     1     -33.521  17.395  -3.915  1.00 20.00     0.092 N 
HETATM    6  O9  UNL     1     -34.661  15.213  -5.343  1.00 20.00    -0.387 OA
HETATM    7  H22 UNL     1     -32.630  16.989  -3.629  1.00 20.00     0.316 HD
ENDROOT
BRANCH   4   8
HETATM    8  C6  UNL     1     -34.488  16.579  -1.846  1.00 20.00     0.021 A 
HETATM    9  C1  UNL     1     -34.162  17.841  -1.098  1.00 20.00     0.007 A 
HETATM   10  C2  UNL     1     -35.535  17.237  -0.991  1.00 20.00     0.007 A 
ENDBRANCH   4   8
TORSDOF 1
ENDMDL
