MODEL 1
REMARK VINA RESULT:      -5.0      0.000      0.000
REMARK  0 active torsions:
REMARK  status: ('A' for Active; 'I' for Inactive)
ROOT
HETATM    1  C1  UNL     1     -35.448  17.543  -0.143  1.00 20.00     0.017 A 
HETATM    2  C2  UNL     1     -35.582  16.913  -1.380  1.00 20.00     0.025 A 
HETATM    3  C3  UNL     1     -31.880  18.543  -0.214  1.00 20.00     0.031 A 
HETATM    4  C4  UNL     1     -33.255  17.357  -1.861  1.00 20.00     0.036 A 
HETATM    5  C5  UNL     1     -31.811  19.157   1.029  1.00 20.00     0.119 A 
HETATM    6  C6  UNL     1     -34.212  18.086   0.246  1.00 20.00     0.010 A 
HETATM    7  C7  UNL     1     -33.102  17.995  -0.620  1.00 20.00    -0.020 A 
HETATM    8  C8  UNL     1     -34.488  16.821  -2.237  1.00 20.00     0.034 A 
HETATM    9  C9  UNL     1     -34.023  18.728   1.472  1.00 20.00     0.113 A 
HETATM   10  N10 UNL     1     -32.851  19.262   1.882  1.00 20.00    -0.253 NA
HETATM   11 CL11 UNL     1     -34.655  16.043  -3.764  1.00 20.00    -0.084 Cl
HETATM   12 BR12 UNL     1     -35.430  18.933   2.756  1.00 20.00    -0.028 Br
ENDROOT
TORSDOF 0
ENDMDL
MODEL 2
REMARK VINA RESULT:      -4.9      1.500      2.523
REMARK  0 active torsions:
REMARK  status: ('A' for Active; 'I' for Inactive)
ROOT
HETATM    1  C1  UNL     1     -32.881  17.809  -1.160  1.00 20.00     0.017 A 
HETATM    2  C2  UNL     1     -33.399  17.184  -2.295  1.00 20.00     0.025 A 
HETATM    3  C3  UNL     1     -35.850  17.879   1.056  1.00 20.00     0.031 A 
HETATM    4  C4  UNL     1     -35.556  17.012  -1.219  1.00 20.00     0.036 A 
HETATM    5  C5  UNL     1     -35.277  18.504   2.153  1.00 20.00     0.119 A 
HETATM    6  C6  UNL     1     -33.699  18.041  -0.042  1.00 20.00     0.010 A 
HETATM    7  C7  UNL     1     -35.052  17.639  -0.068  1.00 20.00    -0.020 A 
HETATM    8  C8  UNL     1     -34.733  16.786  -2.324  1.00 20.00     0.034 A 
HETATM    9  C9  UNL     1     -33.233  18.661   1.118  1.00 20.00     0.113 A 
HETATM   10  N10 UNL     1     -33.989  18.902   2.213  1.00 20.00    -0.253 NA
HETATM   11 CL11 UNL     1     -35.370  16.016  -3.725  1.00 20.00    -0.084 Cl
HETATM   12 BR12 UNL     1     -31.424  19.263   1.309  1.00 20.00    -0.028 Br
ENDROOT
TORSDOF 0
ENDMDL
MODEL 3
REMARK VINA RESULT:      -4.9      4.712      6.163
REMARK  0 active torsions:
REMARK  status: ('A' for Active; 'I' for Inactive)
ROOT
HETATM    1  C1  UNL     1     -36.609  16.895  -3.117  1.00 20.00     0.017 A 
HETATM    2  C2  UNL     1     -35.549  17.508  -2.447  1.00 20.00     0.025 A 
HETATM    3  C3  UNL     1     -34.916  13.976  -4.648  1.00 20.00     0.031 A 
HETATM    4  C4  UNL     1     -34.052  15.781  -3.232  1.00 20.00     0.036 A 
HETATM    5  C5  UNL     1     -36.009  13.415  -5.292  1.00 20.00     0.119 A 
HETATM    6  C6  UNL     1     -36.397  15.717  -3.851  1.00 20.00     0.010 A 
HETATM    7  C7  UNL     1     -35.106  15.150  -3.911  1.00 20.00    -0.020 A 
HETATM    8  C8  UNL     1     -34.273  16.951  -2.505  1.00 20.00     0.034 A 
HETATM    9  C9  UNL     1     -37.421  15.062  -4.539  1.00 20.00     0.113 A 
HETATM   10  N10 UNL     1     -37.256  13.928  -5.256  1.00 20.00    -0.253 NA
HETATM   11 CL11 UNL     1     -32.968  17.709  -1.677  1.00 20.00    -0.084 Cl
HETATM   12 BR12 UNL     1     -39.225  15.705  -4.555  1.00 20.00    -0.028 Br
ENDROOT
TORSDOF 0
ENDMDL
MODEL 4
REMARK VINA RESULT:      -4.8      4.433      5.702
REMARK  0 active torsions:
REMARK  status: ('A' for Active; 'I' for Inactive)
ROOT
HETATM    1  C1  UNL     1     -36.134  16.384  -2.707  1.00 20.00     0.017 A 
HETATM    2  C2  UNL     1     -35.535  17.129  -1.691  1.00 20.00     0.025 A 
HETATM    3  C3  UNL     1     -33.179  15.334  -4.682  1.00 20.00     0.031 A 
HETATM    4  C4  UNL     1     -33.360  16.692  -2.649  1.00 20.00     0.036 A 
HETATM    5  C5  UNL     1     -33.833  14.606  -5.665  1.00 20.00     0.119 A 
HETATM    6  C6  UNL     1     -35.347  15.785  -3.705  1.00 20.00     0.010 A 
HETATM    7  C7  UNL     1     -33.945  15.938  -3.679  1.00 20.00    -0.020 A 
HETATM    8  C8  UNL     1     -34.151  17.282  -1.662  1.00 20.00     0.034 A 
HETATM    9  C9  UNL     1     -35.894  15.029  -4.744  1.00 20.00     0.113 A 
HETATM   10  N10 UNL     1     -35.171  14.439  -5.722  1.00 20.00    -0.253 NA
HETATM   11 CL11 UNL     1     -33.415  18.202  -0.407  1.00 20.00    -0.084 Cl
HETATM   12 BR12 UNL     1     -37.777  14.729  -4.920  1.00 20.00    -0.028 Br
ENDROOT
TORSDOF 0
ENDMDL
MODEL 5
REMARK VINA RESULT:      -4.7      5.429      7.034
REMARK  0 active torsions:
REMARK  status: ('A' for Active; 'I' for Inactive)
ROOT
HETATM    1  C1  UNL     1     -33.999  14.974  -4.769  1.00 20.00     0.017 A 
HETATM    2  C2  UNL     1     -33.395  15.750  -3.780  1.00 20.00     0.025 A 
HETATM    3  C3  UNL     1     -37.589  15.470  -3.995  1.00 20.00     0.031 A 
HETATM    4  C4  UNL     1     -35.571  16.351  -2.917  1.00 20.00     0.036 A 
HETATM    5  C5  UNL     1     -38.130  14.683  -5.001  1.00 20.00     0.119 A 
HETATM    6  C6  UNL     1     -35.399  14.881  -4.841  1.00 20.00     0.010 A 
HETATM    7  C7  UNL     1     -36.197  15.576  -3.907  1.00 20.00    -0.020 A 
HETATM    8  C8  UNL     1     -34.179  16.437  -2.856  1.00 20.00     0.034 A 
HETATM    9  C9  UNL     1     -36.056  14.120  -5.810  1.00 20.00     0.113 A 
HETATM   10  N10 UNL     1     -37.399  14.005  -5.911  1.00 20.00    -0.253 NA
HETATM   11 CL11 UNL     1     -33.431  17.393  -1.635  1.00 20.00    -0.084 Cl
HETATM   12 BR12 UNL     1     -35.116  13.121  -7.147  1.00 20.00    -0.028 Br
ENDROOT
TORSDOF 0
ENDMDL
MODEL 6
REMARK VINA RESULT:      -4.6      3.157      3.862
REMARK  0 active torsions:
REMARK  status: ('A' for Active; 'I' for Inactive)
ROOT
HETATM    1  C1  UNL     1     -35.502  17.840  -0.104  1.00 20.00     0.017 A 
HETATM    2  C2  UNL     1     -36.422  18.046   0.924  1.00 20.00     0.025 A 
HETATM    3  C3  UNL     1     -32.360  18.994   1.486  1.00 20.00     0.031 A 
HETATM    4  C4  UNL     1     -34.654  18.885   2.342  1.00 20.00     0.036 A 
HETATM    5  C5  UNL     1     -31.494  18.767   0.426  1.00 20.00     0.119 A 
HETATM    6  C6  UNL     1     -34.146  18.157   0.084  1.00 20.00     0.010 A 
HETATM    7  C7  UNL     1     -33.714  18.685   1.319  1.00 20.00    -0.020 A 
HETATM    8  C8  UNL     1     -35.999  18.567   2.144  1.00 20.00     0.034 A 
HETATM    9  C9  UNL     1     -33.184  17.971  -0.910  1.00 20.00     0.113 A 
HETATM   10  N10 UNL     1     -31.872  18.264  -0.768  1.00 20.00    -0.253 NA
HETATM   11 CL11 UNL     1     -37.137  18.820   3.412  1.00 20.00    -0.084 Cl
HETATM   12 BR12 UNL     1     -33.610  17.265  -2.639  1.00 20.00    -0.028 Br
ENDROOT
TORSDOF 0
ENDMDL
MODEL 7
REMARK VINA RESULT:      -4.6      3.490      4.834
REMARK  0 active torsions:
REMARK  status: ('A' for Active; 'I' for Inactive)
ROOT
HETATM    1  C1  UNL     1     -31.911  18.585   0.099  1.00 20.00     0.017 A 
HETATM    2  C2  UNL     1     -31.111  18.889   1.200  1.00 20.00     0.025 A 
HETATM    3  C3  UNL     1     -35.176  17.935   1.727  1.00 20.00     0.031 A 
HETATM    4  C4  UNL     1     -33.002  18.563   2.669  1.00 20.00     0.036 A 
HETATM    5  C5  UNL     1     -35.920  17.642   0.593  1.00 20.00     0.119 A 
HETATM    6  C6  UNL     1     -33.268  18.267   0.275  1.00 20.00     0.010 A 
HETATM    7  C7  UNL     1     -33.823  18.255   1.572  1.00 20.00    -0.020 A 
HETATM    8  C8  UNL     1     -31.655  18.878   2.482  1.00 20.00     0.034 A 
HETATM    9  C9  UNL     1     -34.115  17.955  -0.791  1.00 20.00     0.113 A 
HETATM   10  N10 UNL     1     -35.423  17.643  -0.661  1.00 20.00    -0.253 NA
HETATM   11 CL11 UNL     1     -30.664  19.253   3.839  1.00 20.00    -0.084 Cl
HETATM   12 BR12 UNL     1     -33.514  17.928  -2.609  1.00 20.00    -0.028 Br
ENDROOT
TORSDOF 0
ENDMDL
MODEL 8
REMARK VINA RESULT:      -4.5      2.842      3.823
REMARK  0 active torsions:
REMARK  status: ('A' for Active; 'I' for Inactive)
ROOT
HETATM    1  C1  UNL     1     -33.770  18.962   2.510  1.00 20.00     0.017 A 
HETATM    2  C2  UNL     1     -35.114  18.881   2.875  1.00 20.00     0.025 A 
HETATM    3  C3  UNL     1     -33.915  17.930  -1.046  1.00 20.00     0.031 A 
HETATM    4  C4  UNL     1     -35.681  18.165   0.637  1.00 20.00     0.036 A 
HETATM    5  C5  UNL     1     -32.564  18.030  -1.348  1.00 20.00     0.119 A 
HETATM    6  C6  UNL     1     -33.370  18.644   1.201  1.00 20.00     0.010 A 
HETATM    7  C7  UNL     1     -34.333  18.242   0.252  1.00 20.00    -0.020 A 
HETATM    8  C8  UNL     1     -36.067  18.483   1.940  1.00 20.00     0.034 A 
HETATM    9  C9  UNL     1     -32.040  18.709   0.782  1.00 20.00     0.113 A 
HETATM   10  N10 UNL     1     -31.616  18.412  -0.466  1.00 20.00    -0.253 NA
HETATM   11 CL11 UNL     1     -37.725  18.383   2.393  1.00 20.00    -0.084 Cl
HETATM   12 BR12 UNL     1     -30.617  19.238   1.950  1.00 20.00    -0.028 Br
ENDROOT
TORSDOF 0
ENDMDL
MODEL 9
REMARK VINA RESULT:      -4.3      4.192      5.343
REMARK  0 active torsions:
REMARK  status: ('A' for Active; 'I' for Inactive)
ROOT
HETATM    1  C1  UNL     1     -35.693  16.433  -2.237  1.00 20.00     0.017 A 
HETATM    2  C2  UNL     1     -35.081  17.022  -1.130  1.00 20.00     0.025 A 
HETATM    3  C3  UNL     1     -33.303  17.291  -4.936  1.00 20.00     0.031 A 
HETATM    4  C4  UNL     1     -33.276  17.799  -2.538  1.00 20.00     0.036 A 
HETATM    5  C5  UNL     1     -33.960  16.686  -5.997  1.00 20.00     0.119 A 
HETATM    6  C6  UNL     1     -35.099  16.524  -3.507  1.00 20.00     0.010 A 
HETATM    7  C7  UNL     1     -33.878  17.213  -3.663  1.00 20.00    -0.020 A 
HETATM    8  C8  UNL     1     -33.875  17.703  -1.281  1.00 20.00     0.034 A 
HETATM    9  C9  UNL     1     -35.668  15.953  -4.648  1.00 20.00     0.113 A 
HETATM   10  N10 UNL     1     -35.128  16.019  -5.885  1.00 20.00    -0.253 NA
HETATM   11 CL11 UNL     1     -33.122  18.428   0.087  1.00 20.00    -0.084 Cl
HETATM   12 BR12 UNL     1     -37.321  14.987  -4.602  1.00 20.00    -0.028 Br
ENDROOT
TORSDOF 0
ENDMDL
