MODEL 1
REMARK VINA RESULT:      -4.8      0.000      0.000
REMARK  0 active torsions:
REMARK  status: ('A' for Active; 'I' for Inactive)
ROOT
HETATM    1  C1  UNL     1     -33.221   7.523   5.182  1.00 20.00     0.036 A 
HETATM    2  C2  UNL     1     -34.206   6.644   5.382  1.00 20.00     0.007 A 
HETATM    3  C3  UNL     1     -32.692   7.458   3.813  1.00 20.00     0.086 A 
HETATM    4  C4  UNL     1     -34.614   5.769   4.245  1.00 20.00     0.172 A 
HETATM    5  N5  UNL     1     -31.741   8.173   3.329  1.00 20.00    -0.293 NA
HETATM    6  S6  UNL     1     -33.534   6.251   2.866  1.00 20.00    -0.086 SA
HETATM    7 CL7  UNL     1     -34.391   4.061   4.663  1.00 20.00    -0.109 Cl
HETATM    8  H11 UNL     1     -31.586   7.917   2.346  1.00 20.00     0.187 HD
ENDROOT
TORSDOF 0
ENDMDL
MODEL 2
REMARK VINA RESULT:      -4.8      1.929      2.224
REMARK  0 active torsions:
REMARK  status: ('A' for Active; 'I' for Inactive)
ROOT
HETATM    1  C1  UNL     1     -34.504   5.710   5.593  1.00 20.00     0.036 A 
HETATM    2  C2  UNL     1     -34.701   5.060   4.443  1.00 20.00     0.007 A 
HETATM    3  C3  UNL     1     -33.739   6.950   5.403  1.00 20.00     0.086 A 
HETATM    4  C4  UNL     1     -34.149   5.656   3.191  1.00 20.00     0.172 A 
HETATM    5  N5  UNL     1     -33.391   7.778   6.321  1.00 20.00    -0.293 NA
HETATM    6  S6  UNL     1     -33.335   7.193   3.718  1.00 20.00    -0.086 SA
HETATM    7 CL7  UNL     1     -32.992   4.550   2.432  1.00 20.00    -0.109 Cl
HETATM    8  H11 UNL     1     -32.870   8.557   5.900  1.00 20.00     0.187 HD
ENDROOT
TORSDOF 0
ENDMDL
MODEL 3
REMARK VINA RESULT:      -4.6      2.799      3.193
REMARK  0 active torsions:
REMARK  status: ('A' for Active; 'I' for Inactive)
ROOT
HETATM    1  C1  UNL     1     -34.097   6.683   5.248  1.00 20.00     0.036 A 
HETATM    2  C2  UNL     1     -33.181   7.485   4.699  1.00 20.00     0.007 A 
HETATM    3  C3  UNL     1     -34.384   5.514   4.408  1.00 20.00     0.086 A 
HETATM    4  C4  UNL     1     -32.603   7.098   3.380  1.00 20.00     0.172 A 
HETATM    5  N5  UNL     1     -35.221   4.575   4.667  1.00 20.00    -0.293 NA
HETATM    6  S6  UNL     1     -33.419   5.533   2.947  1.00 20.00    -0.086 SA
HETATM    7 CL7  UNL     1     -32.934   8.345   2.165  1.00 20.00    -0.109 Cl
HETATM    8  H11 UNL     1     -35.211   3.886   3.906  1.00 20.00     0.187 HD
ENDROOT
TORSDOF 0
ENDMDL
MODEL 4
REMARK VINA RESULT:      -4.5      3.007      3.534
REMARK  0 active torsions:
REMARK  status: ('A' for Active; 'I' for Inactive)
ROOT
HETATM    1  C1  UNL     1     -34.049   5.256   3.362  1.00 20.00     0.036 A 
HETATM    2  C2  UNL     1     -33.514   6.313   2.745  1.00 20.00     0.007 A 
HETATM    3  C3  UNL     1     -34.340   5.529   4.775  1.00 20.00     0.086 A 
HETATM    4  C4  UNL     1     -33.304   7.560   3.536  1.00 20.00     0.172 A 
HETATM    5  N5  UNL     1     -34.848   4.707   5.621  1.00 20.00    -0.293 NA
HETATM    6  S6  UNL     1     -33.904   7.169   5.206  1.00 20.00    -0.086 SA
HETATM    7 CL7  UNL     1     -31.587   7.998   3.562  1.00 20.00    -0.109 Cl
HETATM    8  H11 UNL     1     -34.945   5.170   6.533  1.00 20.00     0.187 HD
ENDROOT
TORSDOF 0
ENDMDL
MODEL 5
REMARK VINA RESULT:      -3.9     11.961     12.219
REMARK  0 active torsions:
REMARK  status: ('A' for Active; 'I' for Inactive)
ROOT
HETATM    1  C1  UNL     1     -34.038  14.235  -4.320  1.00 20.00     0.036 A 
HETATM    2  C2  UNL     1     -33.900  15.447  -3.775  1.00 20.00     0.007 A 
HETATM    3  C3  UNL     1     -35.437  13.934  -4.650  1.00 20.00     0.086 A 
HETATM    4  C4  UNL     1     -35.122  16.283  -3.593  1.00 20.00     0.172 A 
HETATM    5  N5  UNL     1     -35.880  12.849  -5.175  1.00 20.00    -0.293 NA
HETATM    6  S6  UNL     1     -36.488  15.271  -4.235  1.00 20.00    -0.086 SA
HETATM    7 CL7  UNL     1     -35.363  16.666  -1.879  1.00 20.00    -0.109 Cl
HETATM    8  H11 UNL     1     -36.897  12.917  -5.298  1.00 20.00     0.187 HD
ENDROOT
TORSDOF 0
ENDMDL
MODEL 6
REMARK VINA RESULT:      -3.9      2.462      2.811
REMARK  0 active torsions:
REMARK  status: ('A' for Active; 'I' for Inactive)
ROOT
HETATM    1  C1  UNL     1     -32.749   6.626   2.701  1.00 20.00     0.036 A 
HETATM    2  C2  UNL     1     -33.282   7.522   3.537  1.00 20.00     0.007 A 
HETATM    3  C3  UNL     1     -33.295   5.280   2.911  1.00 20.00     0.086 A 
HETATM    4  C4  UNL     1     -34.309   7.053   4.512  1.00 20.00     0.172 A 
HETATM    5  N5  UNL     1     -32.972   4.217   2.266  1.00 20.00    -0.293 NA
HETATM    6  S6  UNL     1     -34.490   5.274   4.189  1.00 20.00    -0.086 SA
HETATM    7 CL7  UNL     1     -33.769   7.347   6.174  1.00 20.00    -0.109 Cl
HETATM    8  H11 UNL     1     -33.516   3.422   2.621  1.00 20.00     0.187 HD
ENDROOT
TORSDOF 0
ENDMDL
MODEL 7
REMARK VINA RESULT:      -3.6     12.560     13.080
REMARK  0 active torsions:
REMARK  status: ('A' for Active; 'I' for Inactive)
ROOT
HETATM    1  C1  UNL     1     -34.417  14.440  -4.026  1.00 20.00     0.036 A 
HETATM    2  C2  UNL     1     -33.549  15.374  -4.427  1.00 20.00     0.007 A 
HETATM    3  C3  UNL     1     -35.070  13.770  -5.157  1.00 20.00     0.086 A 
HETATM    4  C4  UNL     1     -33.371  15.588  -5.892  1.00 20.00     0.172 A 
HETATM    5  N5  UNL     1     -35.952  12.838  -5.085  1.00 20.00    -0.293 NA
HETATM    6  S6  UNL     1     -34.493  14.399  -6.685  1.00 20.00    -0.086 SA
HETATM    7 CL7  UNL     1     -33.792  17.253  -6.333  1.00 20.00    -0.109 Cl
HETATM    8  H11 UNL     1     -36.229  12.554  -6.032  1.00 20.00     0.187 HD
ENDROOT
TORSDOF 0
ENDMDL
MODEL 8
REMARK VINA RESULT:      -3.4      1.622      2.045
REMARK  0 active torsions:
REMARK  status: ('A' for Active; 'I' for Inactive)
ROOT
HETATM    1  C1  UNL     1     -32.481   6.479   2.525  1.00 20.00     0.036 A 
HETATM    2  C2  UNL     1     -33.427   5.582   2.817  1.00 20.00     0.007 A 
HETATM    3  C3  UNL     1     -32.373   7.523   3.552  1.00 20.00     0.086 A 
HETATM    4  C4  UNL     1     -34.196   5.755   4.083  1.00 20.00     0.172 A 
HETATM    5  N5  UNL     1     -31.562   8.519   3.544  1.00 20.00    -0.293 NA
HETATM    6  S6  UNL     1     -33.515   7.254   4.851  1.00 20.00    -0.086 SA
HETATM    7 CL7  UNL     1     -35.925   5.943   3.740  1.00 20.00    -0.109 Cl
HETATM    8  H11 UNL     1     -31.704   9.084   4.390  1.00 20.00     0.187 HD
ENDROOT
TORSDOF 0
ENDMDL
MODEL 9
REMARK VINA RESULT:      -3.4     12.340     12.665
REMARK  0 active torsions:
REMARK  status: ('A' for Active; 'I' for Inactive)
ROOT
HETATM    1  C1  UNL     1     -36.334  15.081  -4.293  1.00 20.00     0.036 A 
HETATM    2  C2  UNL     1     -35.632  16.133  -3.864  1.00 20.00     0.007 A 
HETATM    3  C3  UNL     1     -35.470  13.961  -4.684  1.00 20.00     0.086 A 
HETATM    4  C4  UNL     1     -34.144  16.026  -3.839  1.00 20.00     0.172 A 
HETATM    5  N5  UNL     1     -35.855  12.824  -5.140  1.00 20.00    -0.293 NA
HETATM    6  S6  UNL     1     -33.780  14.354  -4.452  1.00 20.00    -0.086 SA
HETATM    7 CL7  UNL     1     -33.414  17.260  -4.881  1.00 20.00    -0.109 Cl
HETATM    8  H11 UNL     1     -35.036  12.233  -5.324  1.00 20.00     0.187 HD
ENDROOT
TORSDOF 0
ENDMDL
