MODEL 1
REMARK VINA RESULT:      -5.5      0.000      0.000
REMARK  0 active torsions:
REMARK  status: ('A' for Active; 'I' for Inactive)
ROOT
HETATM    1  C1  UNL     1     -33.959   6.779   5.048  1.00 20.00     0.105 C 
HETATM    2  C2  UNL     1     -33.593   5.804   3.185  1.00 20.00     0.260 C 
HETATM    3  C3  UNL     1     -33.436   7.263   3.680  1.00 20.00     0.128 C 
HETATM    4  C4  UNL     1     -34.664   5.628   4.295  1.00 20.00     0.276 C 
HETATM    5  F5  UNL     1     -34.032   5.656   1.915  1.00 20.00    -0.241 F 
HETATM    6  F6  UNL     1     -35.938   5.880   3.914  1.00 20.00    -0.203 F 
HETATM    7  F7  UNL     1     -34.669   4.431   4.919  1.00 20.00    -0.203 F 
HETATM    8 CL8  UNL     1     -31.825   8.026   3.603  1.00 20.00    -0.122 Cl
ENDROOT
TORSDOF 0
ENDMDL
MODEL 2
REMARK VINA RESULT:      -5.4      1.254      2.192
REMARK  0 active torsions:
REMARK  status: ('A' for Active; 'I' for Inactive)
ROOT
HETATM    1  C1  UNL     1     -33.786   5.976   2.658  1.00 20.00     0.105 C 
HETATM    2  C2  UNL     1     -33.907   7.128   4.452  1.00 20.00     0.260 C 
HETATM    3  C3  UNL     1     -32.772   6.837   3.439  1.00 20.00     0.128 C 
HETATM    4  C4  UNL     1     -34.552   5.794   3.988  1.00 20.00     0.276 C 
HETATM    5  F5  UNL     1     -33.539   7.184   5.751  1.00 20.00    -0.241 F 
HETATM    6  F6  UNL     1     -34.206   4.703   4.711  1.00 20.00    -0.203 F 
HETATM    7  F7  UNL     1     -35.899   5.794   3.898  1.00 20.00    -0.203 F 
HETATM    8 CL8  UNL     1     -31.995   8.209   2.604  1.00 20.00    -0.122 Cl
ENDROOT
TORSDOF 0
ENDMDL
MODEL 3
REMARK VINA RESULT:      -5.3      1.874      2.293
REMARK  0 active torsions:
REMARK  status: ('A' for Active; 'I' for Inactive)
ROOT
HETATM    1  C1  UNL     1     -34.331   5.426   4.148  1.00 20.00     0.105 C 
HETATM    2  C2  UNL     1     -32.864   6.779   3.390  1.00 20.00     0.260 C 
HETATM    3  C3  UNL     1     -34.033   6.919   4.397  1.00 20.00     0.128 C 
HETATM    4  C4  UNL     1     -33.646   5.588   2.773  1.00 20.00     0.276 C 
HETATM    5  F5  UNL     1     -32.659   7.836   2.574  1.00 20.00    -0.241 F 
HETATM    6  F6  UNL     1     -34.470   5.908   1.749  1.00 20.00    -0.203 F 
HETATM    7  F7  UNL     1     -32.894   4.545   2.361  1.00 20.00    -0.203 F 
HETATM    8 CL8  UNL     1     -33.673   7.452   6.061  1.00 20.00    -0.122 Cl
ENDROOT
TORSDOF 0
ENDMDL
MODEL 4
REMARK VINA RESULT:      -5.1      1.456      2.644
REMARK  0 active torsions:
REMARK  status: ('A' for Active; 'I' for Inactive)
ROOT
HETATM    1  C1  UNL     1     -33.223   7.009   3.419  1.00 20.00     0.105 C 
HETATM    2  C2  UNL     1     -34.675   5.587   4.074  1.00 20.00     0.260 C 
HETATM    3  C3  UNL     1     -33.550   6.377   4.788  1.00 20.00     0.128 C 
HETATM    4  C4  UNL     1     -33.853   5.757   2.768  1.00 20.00     0.276 C 
HETATM    5  F5  UNL     1     -34.860   4.315   4.493  1.00 20.00    -0.241 F 
HETATM    6  F6  UNL     1     -32.991   4.750   2.493  1.00 20.00    -0.203 F 
HETATM    7  F7  UNL     1     -34.573   5.974   1.647  1.00 20.00    -0.203 F 
HETATM    8 CL8  UNL     1     -33.986   7.454   6.143  1.00 20.00    -0.122 Cl
ENDROOT
TORSDOF 0
ENDMDL
MODEL 5
REMARK VINA RESULT:      -5.1      2.619      3.465
REMARK  0 active torsions:
REMARK  status: ('A' for Active; 'I' for Inactive)
ROOT
HETATM    1  C1  UNL     1     -33.214   5.989   2.795  1.00 20.00     0.105 C 
HETATM    2  C2  UNL     1     -33.405   6.890   4.721  1.00 20.00     0.260 C 
HETATM    3  C3  UNL     1     -34.265   5.881   3.920  1.00 20.00     0.128 C 
HETATM    4  C4  UNL     1     -32.859   7.385   3.355  1.00 20.00     0.276 C 
HETATM    5  F5  UNL     1     -34.089   7.802   5.447  1.00 20.00    -0.241 F 
HETATM    6  F6  UNL     1     -33.534   8.420   2.803  1.00 20.00    -0.203 F 
HETATM    7  F7  UNL     1     -31.549   7.713   3.332  1.00 20.00    -0.203 F 
HETATM    8 CL8  UNL     1     -34.592   4.277   4.632  1.00 20.00    -0.122 Cl
ENDROOT
TORSDOF 0
ENDMDL
MODEL 6
REMARK VINA RESULT:      -4.6      2.568      3.193
REMARK  0 active torsions:
REMARK  status: ('A' for Active; 'I' for Inactive)
ROOT
HETATM    1  C1  UNL     1     -33.744   7.377   4.336  1.00 20.00     0.105 C 
HETATM    2  C2  UNL     1     -33.458   5.804   2.921  1.00 20.00     0.260 C 
HETATM    3  C3  UNL     1     -33.655   5.841   4.457  1.00 20.00     0.128 C 
HETATM    4  C4  UNL     1     -32.915   7.254   3.037  1.00 20.00     0.276 C 
HETATM    5  F5  UNL     1     -32.582   4.883   2.461  1.00 20.00    -0.241 F 
HETATM    6  F6  UNL     1     -31.575   7.359   3.192  1.00 20.00    -0.203 F 
HETATM    7  F7  UNL     1     -33.261   8.091   2.035  1.00 20.00    -0.203 F 
HETATM    8 CL8  UNL     1     -35.035   4.960   5.166  1.00 20.00    -0.122 Cl
ENDROOT
TORSDOF 0
ENDMDL
MODEL 7
REMARK VINA RESULT:      -4.3      2.209      2.680
REMARK  0 active torsions:
REMARK  status: ('A' for Active; 'I' for Inactive)
ROOT
HETATM    1  C1  UNL     1     -32.631   6.874   3.334  1.00 20.00     0.105 C 
HETATM    2  C2  UNL     1     -34.216   5.769   4.240  1.00 20.00     0.260 C 
HETATM    3  C3  UNL     1     -33.591   5.780   2.823  1.00 20.00     0.128 C 
HETATM    4  C4  UNL     1     -33.703   7.226   4.390  1.00 20.00     0.276 C 
HETATM    5  F5  UNL     1     -35.557   5.609   4.292  1.00 20.00    -0.241 F 
HETATM    6  F6  UNL     1     -34.581   8.189   4.026  1.00 20.00    -0.203 F 
HETATM    7  F7  UNL     1     -33.238   7.561   5.613  1.00 20.00    -0.203 F 
HETATM    8 CL8  UNL     1     -32.897   4.267   2.179  1.00 20.00    -0.122 Cl
ENDROOT
TORSDOF 0
ENDMDL
MODEL 8
REMARK VINA RESULT:      -3.9      2.667      3.276
REMARK  0 active torsions:
REMARK  status: ('A' for Active; 'I' for Inactive)
ROOT
HETATM    1  C1  UNL     1     -33.598   7.856   2.216  1.00 20.00     0.105 C 
HETATM    2  C2  UNL     1     -31.816   8.345   3.285  1.00 20.00     0.260 C 
HETATM    3  C3  UNL     1     -32.283   8.561   1.824  1.00 20.00     0.128 C 
HETATM    4  C4  UNL     1     -32.805   7.149   3.338  1.00 20.00     0.276 C 
HETATM    5  F5  UNL     1     -30.510   8.037   3.448  1.00 20.00    -0.241 F 
HETATM    6  F6  UNL     1     -32.277   5.948   3.007  1.00 20.00    -0.203 F 
HETATM    7  F7  UNL     1     -33.459   6.982   4.508  1.00 20.00    -0.203 F 
HETATM    8 CL8  UNL     1     -32.364  10.225   1.186  1.00 20.00    -0.122 Cl
ENDROOT
TORSDOF 0
ENDMDL
MODEL 9
REMARK VINA RESULT:      -3.9      3.512      4.331
REMARK  0 active torsions:
REMARK  status: ('A' for Active; 'I' for Inactive)
ROOT
HETATM    1  C1  UNL     1     -33.283   7.707   1.710  1.00 20.00     0.105 C 
HETATM    2  C2  UNL     1     -31.779   7.840   3.219  1.00 20.00     0.260 C 
HETATM    3  C3  UNL     1     -33.306   7.586   3.248  1.00 20.00     0.128 C 
HETATM    4  C4  UNL     1     -32.007   8.565   1.865  1.00 20.00     0.276 C 
HETATM    5  F5  UNL     1     -31.288   8.603   4.220  1.00 20.00    -0.241 F 
HETATM    6  F6  UNL     1     -32.213   9.900   1.953  1.00 20.00    -0.203 F 
HETATM    7  F7  UNL     1     -31.052   8.375   0.930  1.00 20.00    -0.203 F 
HETATM    8 CL8  UNL     1     -33.911   6.073   3.976  1.00 20.00    -0.122 Cl
ENDROOT
TORSDOF 0
ENDMDL
