MODEL 1
REMARK VINA RESULT:      -4.5      0.000      0.000
REMARK  0 active torsions:
REMARK  status: ('A' for Active; 'I' for Inactive)
ROOT
HETATM    1  C1  UNL     1     -33.894  15.150  -6.765  1.00 20.00     0.009 C 
HETATM    2  C2  UNL     1     -35.384  13.918  -5.167  1.00 20.00     0.012 C 
HETATM    3  C3  UNL     1     -35.885  16.306  -5.771  1.00 20.00     0.012 C 
HETATM    4  C4  UNL     1     -33.071  14.586  -4.464  1.00 20.00     0.012 C 
HETATM    5  C5  UNL     1     -33.571  16.967  -5.065  1.00 20.00     0.012 C 
HETATM    6  C6  UNL     1     -35.348  14.962  -6.300  1.00 20.00    -0.013 C 
HETATM    7  C7  UNL     1     -33.021  15.630  -5.592  1.00 20.00    -0.013 C 
HETATM    8  C8  UNL     1     -34.522  14.393  -3.985  1.00 20.00     0.021 C 
HETATM    9  C9  UNL     1     -35.026  16.790  -4.591  1.00 20.00     0.021 C 
HETATM   10  C10 UNL     1     -35.074  15.733  -3.478  1.00 20.00     0.178 C 
HETATM   11  F11 UNL     1     -34.325  16.157  -2.424  1.00 20.00    -0.249 F 
ENDROOT
TORSDOF 0
ENDMDL
MODEL 2
REMARK VINA RESULT:      -4.4      1.264      2.619
REMARK  0 active torsions:
REMARK  status: ('A' for Active; 'I' for Inactive)
ROOT
HETATM    1  C1  UNL     1     -33.609  16.986  -5.073  1.00 20.00     0.009 C 
HETATM    2  C2  UNL     1     -33.082  14.607  -4.481  1.00 20.00     0.012 C 
HETATM    3  C3  UNL     1     -33.849  15.187  -6.804  1.00 20.00     0.012 C 
HETATM    4  C4  UNL     1     -35.126  15.710  -3.535  1.00 20.00     0.012 C 
HETATM    5  C5  UNL     1     -35.890  16.289  -5.851  1.00 20.00     0.012 C 
HETATM    6  C6  UNL     1     -33.019  15.667  -5.598  1.00 20.00    -0.013 C 
HETATM    7  C7  UNL     1     -35.073  16.777  -4.643  1.00 20.00    -0.013 C 
HETATM    8  C8  UNL     1     -34.543  14.382  -4.051  1.00 20.00     0.021 C 
HETATM    9  C9  UNL     1     -35.312  14.965  -6.382  1.00 20.00     0.021 C 
HETATM   10  C10 UNL     1     -35.350  13.908  -5.269  1.00 20.00     0.178 C 
HETATM   11  F11 UNL     1     -36.641  13.696  -4.895  1.00 20.00    -0.249 F 
ENDROOT
TORSDOF 0
ENDMDL
MODEL 3
REMARK VINA RESULT:      -4.4      1.634      3.082
REMARK  0 active torsions:
REMARK  status: ('A' for Active; 'I' for Inactive)
ROOT
HETATM    1  C1  UNL     1     -34.929  15.874  -3.408  1.00 20.00     0.009 C 
HETATM    2  C2  UNL     1     -33.621  16.989  -5.236  1.00 20.00     0.012 C 
HETATM    3  C3  UNL     1     -36.029  16.369  -5.607  1.00 20.00     0.012 C 
HETATM    4  C4  UNL     1     -33.114  14.617  -4.599  1.00 20.00     0.012 C 
HETATM    5  C5  UNL     1     -35.514  13.999  -4.968  1.00 20.00     0.012 C 
HETATM    6  C6  UNL     1     -35.007  16.877  -4.572  1.00 20.00    -0.013 C 
HETATM    7  C7  UNL     1     -34.493  14.493  -3.929  1.00 20.00    -0.013 C 
HETATM    8  C8  UNL     1     -33.181  15.614  -5.770  1.00 20.00     0.021 C 
HETATM    9  C9  UNL     1     -35.598  14.993  -6.142  1.00 20.00     0.021 C 
HETATM   10  C10 UNL     1     -34.215  15.128  -6.796  1.00 20.00     0.178 C 
HETATM   11  F11 UNL     1     -33.829  13.918  -7.283  1.00 20.00    -0.249 F 
ENDROOT
TORSDOF 0
ENDMDL
MODEL 4
REMARK VINA RESULT:      -4.3      1.461      2.358
REMARK  0 active torsions:
REMARK  status: ('A' for Active; 'I' for Inactive)
ROOT
HETATM    1  C1  UNL     1     -33.444  17.034  -4.649  1.00 20.00     0.009 C 
HETATM    2  C2  UNL     1     -33.638  15.554  -6.665  1.00 20.00     0.012 C 
HETATM    3  C3  UNL     1     -35.669  16.732  -5.766  1.00 20.00     0.012 C 
HETATM    4  C4  UNL     1     -33.228  14.547  -4.405  1.00 20.00     0.012 C 
HETATM    5  C5  UNL     1     -35.252  15.722  -3.509  1.00 20.00     0.012 C 
HETATM    6  C6  UNL     1     -34.151  16.848  -6.002  1.00 20.00    -0.013 C 
HETATM    7  C7  UNL     1     -33.734  15.833  -3.730  1.00 20.00    -0.013 C 
HETATM    8  C8  UNL     1     -33.933  14.346  -5.758  1.00 20.00     0.021 C 
HETATM    9  C9  UNL     1     -35.971  15.529  -4.857  1.00 20.00     0.021 C 
HETATM   10  C10 UNL     1     -35.450  14.254  -5.536  1.00 20.00     0.178 C 
HETATM   11  F11 UNL     1     -35.722  13.181  -4.745  1.00 20.00    -0.249 F 
ENDROOT
TORSDOF 0
ENDMDL
MODEL 5
REMARK VINA RESULT:      -4.3      1.274      2.642
REMARK  0 active torsions:
REMARK  status: ('A' for Active; 'I' for Inactive)
ROOT
HETATM    1  C1  UNL     1     -35.387  13.907  -5.031  1.00 20.00     0.009 C 
HETATM    2  C2  UNL     1     -33.050  14.641  -4.490  1.00 20.00     0.012 C 
HETATM    3  C3  UNL     1     -35.013  15.820  -3.452  1.00 20.00     0.012 C 
HETATM    4  C4  UNL     1     -34.003  15.070  -6.769  1.00 20.00     0.012 C 
HETATM    5  C5  UNL     1     -35.960  16.245  -5.735  1.00 20.00     0.012 C 
HETATM    6  C6  UNL     1     -34.472  14.456  -3.924  1.00 20.00    -0.013 C 
HETATM    7  C7  UNL     1     -35.427  14.885  -6.219  1.00 20.00    -0.013 C 
HETATM    8  C8  UNL     1     -33.078  15.626  -5.671  1.00 20.00     0.021 C 
HETATM    9  C9  UNL     1     -35.048  16.809  -4.630  1.00 20.00     0.021 C 
HETATM   10  C10 UNL     1     -33.623  16.974  -5.178  1.00 20.00     0.178 C 
HETATM   11  F11 UNL     1     -33.641  17.856  -6.214  1.00 20.00    -0.249 F 
ENDROOT
TORSDOF 0
ENDMDL
MODEL 6
REMARK VINA RESULT:      -4.3      0.840      2.453
REMARK  0 active torsions:
REMARK  status: ('A' for Active; 'I' for Inactive)
ROOT
HETATM    1  C1  UNL     1     -35.322  14.668  -6.252  1.00 20.00     0.009 C 
HETATM    2  C2  UNL     1     -35.237  17.102  -5.653  1.00 20.00     0.012 C 
HETATM    3  C3  UNL     1     -33.142  15.714  -5.585  1.00 20.00     0.012 C 
HETATM    4  C4  UNL     1     -36.362  15.472  -4.116  1.00 20.00     0.012 C 
HETATM    5  C5  UNL     1     -34.274  14.088  -4.048  1.00 20.00     0.012 C 
HETATM    6  C6  UNL     1     -34.472  15.948  -6.328  1.00 20.00    -0.013 C 
HETATM    7  C7  UNL     1     -35.608  14.309  -4.782  1.00 20.00    -0.013 C 
HETATM    8  C8  UNL     1     -35.518  16.758  -4.180  1.00 20.00     0.021 C 
HETATM    9  C9  UNL     1     -33.416  15.365  -4.113  1.00 20.00     0.021 C 
HETATM   10  C10 UNL     1     -34.180  16.527  -3.462  1.00 20.00     0.178 C 
HETATM   11  F11 UNL     1     -34.418  16.233  -2.155  1.00 20.00    -0.249 F 
ENDROOT
TORSDOF 0
ENDMDL
MODEL 7
REMARK VINA RESULT:      -4.3      1.628      2.980
REMARK  0 active torsions:
REMARK  status: ('A' for Active; 'I' for Inactive)
ROOT
HETATM    1  C1  UNL     1     -33.686  17.067  -5.043  1.00 20.00     0.009 C 
HETATM    2  C2  UNL     1     -34.912  15.889  -3.200  1.00 20.00     0.012 C 
HETATM    3  C3  UNL     1     -33.041  14.727  -4.412  1.00 20.00     0.012 C 
HETATM    4  C4  UNL     1     -36.055  16.322  -5.390  1.00 20.00     0.012 C 
HETATM    5  C5  UNL     1     -34.189  15.164  -6.598  1.00 20.00     0.012 C 
HETATM    6  C6  UNL     1     -33.539  16.082  -3.872  1.00 20.00    -0.013 C 
HETATM    7  C7  UNL     1     -34.691  16.520  -6.072  1.00 20.00    -0.013 C 
HETATM    8  C8  UNL     1     -35.922  15.331  -4.219  1.00 20.00     0.021 C 
HETATM    9  C9  UNL     1     -34.044  14.166  -5.434  1.00 20.00     0.021 C 
HETATM   10  C10 UNL     1     -35.403  13.985  -4.744  1.00 20.00     0.178 C 
HETATM   11  F11 UNL     1     -36.296  13.478  -5.638  1.00 20.00    -0.249 F 
ENDROOT
TORSDOF 0
ENDMDL
MODEL 8
REMARK VINA RESULT:      -4.3      1.435      2.705
REMARK  0 active torsions:
REMARK  status: ('A' for Active; 'I' for Inactive)
ROOT
HETATM    1  C1  UNL     1     -33.060  14.631  -4.478  1.00 20.00     0.009 C 
HETATM    2  C2  UNL     1     -35.025  15.813  -3.462  1.00 20.00     0.012 C 
HETATM    3  C3  UNL     1     -35.390  13.926  -5.083  1.00 20.00     0.012 C 
HETATM    4  C4  UNL     1     -33.595  16.985  -5.156  1.00 20.00     0.012 C 
HETATM    5  C5  UNL     1     -33.959  15.104  -6.772  1.00 20.00     0.012 C 
HETATM    6  C6  UNL     1     -34.492  14.450  -3.946  1.00 20.00    -0.013 C 
HETATM    7  C7  UNL     1     -33.052  15.633  -5.647  1.00 20.00    -0.013 C 
HETATM    8  C8  UNL     1     -35.031  16.819  -4.627  1.00 20.00     0.021 C 
HETATM    9  C9  UNL     1     -35.397  14.925  -6.252  1.00 20.00     0.021 C 
HETATM   10  C10 UNL     1     -35.929  16.274  -5.747  1.00 20.00     0.178 C 
HETATM   11  F11 UNL     1     -35.950  17.162  -6.777  1.00 20.00    -0.249 F 
ENDROOT
TORSDOF 0
ENDMDL
MODEL 9
REMARK VINA RESULT:      -4.3      1.208      2.428
REMARK  0 active torsions:
REMARK  status: ('A' for Active; 'I' for Inactive)
ROOT
HETATM    1  C1  UNL     1     -36.180  15.647  -6.267  1.00 20.00     0.009 C 
HETATM    2  C2  UNL     1     -35.451  16.186  -3.929  1.00 20.00     0.012 C 
HETATM    3  C3  UNL     1     -34.054  16.920  -5.885  1.00 20.00     0.012 C 
HETATM    4  C4  UNL     1     -35.359  13.821  -4.756  1.00 20.00     0.012 C 
HETATM    5  C5  UNL     1     -33.966  14.552  -6.707  1.00 20.00     0.012 C 
HETATM    6  C6  UNL     1     -35.493  16.699  -5.381  1.00 20.00    -0.013 C 
HETATM    7  C7  UNL     1     -35.403  14.319  -6.210  1.00 20.00    -0.013 C 
HETATM    8  C8  UNL     1     -34.667  14.864  -3.860  1.00 20.00     0.021 C 
HETATM    9  C9  UNL     1     -33.265  15.601  -5.823  1.00 20.00     0.021 C 
HETATM   10  C10 UNL     1     -33.239  15.109  -4.369  1.00 20.00     0.178 C 
HETATM   11  F11 UNL     1     -32.534  13.947  -4.301  1.00 20.00    -0.249 F 
ENDROOT
TORSDOF 0
ENDMDL
