MODEL 1
REMARK VINA RESULT:      -5.1      0.000      0.000
REMARK  1 active torsions:
REMARK  status: ('A' for Active; 'I' for Inactive)
REMARK    1  A    between atoms: C1_1  and  C2_2 
ROOT
HETATM    1  C2  UNL     1     -34.557   5.595   4.127  1.00 20.00     0.357 C 
HETATM    2  F5  UNL     1     -35.834   5.883   3.774  1.00 20.00    -0.187 F 
HETATM    3  F6  UNL     1     -34.541   4.304   4.541  1.00 20.00    -0.187 F 
HETATM    4 BR7  UNL     1     -33.987   6.754   5.573  1.00 20.00    -0.005 Br
ENDROOT
BRANCH   1   5
HETATM    5  C1  UNL     1     -33.651   5.751   2.934  1.00 20.00     0.436 C 
HETATM    6  F3  UNL     1     -33.038   4.576   2.651  1.00 20.00    -0.207 F 
HETATM    7  F4  UNL     1     -32.667   6.637   3.237  1.00 20.00    -0.207 F 
ENDBRANCH   1   5
TORSDOF 1
ENDMDL
MODEL 2
REMARK VINA RESULT:      -5.1      1.729      2.787
REMARK  1 active torsions:
REMARK  status: ('A' for Active; 'I' for Inactive)
REMARK    1  A    between atoms: C1_1  and  C2_2 
ROOT
HETATM    1  C2  UNL     1     -34.665   5.572   4.137  1.00 20.00     0.357 C 
HETATM    2  F5  UNL     1     -34.507   4.237   3.960  1.00 20.00    -0.187 F 
HETATM    3  F6  UNL     1     -35.903   5.888   3.685  1.00 20.00    -0.187 F 
HETATM    4 BR7  UNL     1     -33.327   6.541   3.122  1.00 20.00    -0.005 Br
ENDROOT
BRANCH   1   5
HETATM    5  C1  UNL     1     -34.564   5.906   5.602  1.00 20.00     0.436 C 
HETATM    6  F3  UNL     1     -33.640   6.878   5.801  1.00 20.00    -0.207 F 
HETATM    7  F4  UNL     1     -34.125   4.813   6.278  1.00 20.00    -0.207 F 
ENDBRANCH   1   5
TORSDOF 1
ENDMDL
MODEL 3
REMARK VINA RESULT:      -5.0      1.051      2.523
REMARK  1 active torsions:
REMARK  status: ('A' for Active; 'I' for Inactive)
REMARK    1  A    between atoms: C1_1  and  C2_2 
ROOT
HETATM    1  C2  UNL     1     -34.521   5.712   4.014  1.00 20.00     0.357 C 
HETATM    2  F5  UNL     1     -33.740   5.391   2.953  1.00 20.00    -0.187 F 
HETATM    3  F6  UNL     1     -35.729   6.078   3.521  1.00 20.00    -0.187 F 
HETATM    4 BR7  UNL     1     -33.737   7.191   4.993  1.00 20.00    -0.005 Br
ENDROOT
BRANCH   1   5
HETATM    5  C1  UNL     1     -34.685   4.511   4.908  1.00 20.00     0.436 C 
HETATM    6  F3  UNL     1     -34.197   4.775   6.145  1.00 20.00    -0.207 F 
HETATM    7  F4  UNL     1     -33.945   3.485   4.412  1.00 20.00    -0.207 F 
ENDBRANCH   1   5
TORSDOF 1
ENDMDL
MODEL 4
REMARK VINA RESULT:      -5.0      1.842      2.635
REMARK  1 active torsions:
REMARK  status: ('A' for Active; 'I' for Inactive)
REMARK    1  A    between atoms: C1_1  and  C2_2 
ROOT
HETATM    1  C2  UNL     1     -34.709   5.849   4.170  1.00 20.00     0.357 C 
HETATM    2  F5  UNL     1     -35.928   6.069   3.619  1.00 20.00    -0.187 F 
HETATM    3  F6  UNL     1     -34.452   6.894   4.994  1.00 20.00    -0.187 F 
HETATM    4 BR7  UNL     1     -33.358   5.758   2.783  1.00 20.00    -0.005 Br
ENDROOT
BRANCH   1   5
HETATM    5  C1  UNL     1     -34.735   4.573   4.970  1.00 20.00     0.436 C 
HETATM    6  F3  UNL     1     -34.123   4.755   6.166  1.00 20.00    -0.207 F 
HETATM    7  F4  UNL     1     -34.021   3.623   4.312  1.00 20.00    -0.207 F 
ENDBRANCH   1   5
TORSDOF 1
ENDMDL
MODEL 5
REMARK VINA RESULT:      -5.0      0.831      1.164
REMARK  1 active torsions:
REMARK  status: ('A' for Active; 'I' for Inactive)
REMARK    1  A    between atoms: C1_1  and  C2_2 
ROOT
HETATM    1  C2  UNL     1     -34.529   5.566   4.271  1.00 20.00     0.357 C 
HETATM    2  F5  UNL     1     -35.808   5.816   3.897  1.00 20.00    -0.187 F 
HETATM    3  F6  UNL     1     -34.494   4.297   4.744  1.00 20.00    -0.187 F 
HETATM    4 BR7  UNL     1     -33.990   6.801   5.666  1.00 20.00    -0.005 Br
ENDROOT
BRANCH   1   5
HETATM    5  C1  UNL     1     -33.617   5.684   3.078  1.00 20.00     0.436 C 
HETATM    6  F3  UNL     1     -34.323   6.048   1.980  1.00 20.00    -0.207 F 
HETATM    7  F4  UNL     1     -33.083   4.464   2.806  1.00 20.00    -0.207 F 
ENDBRANCH   1   5
TORSDOF 1
ENDMDL
MODEL 6
REMARK VINA RESULT:      -4.9      1.833      2.737
REMARK  1 active torsions:
REMARK  status: ('A' for Active; 'I' for Inactive)
REMARK    1  A    between atoms: C1_1  and  C2_2 
ROOT
HETATM    1  C2  UNL     1     -34.533   5.481   4.137  1.00 20.00     0.357 C 
HETATM    2  F5  UNL     1     -34.436   4.140   3.958  1.00 20.00    -0.187 F 
HETATM    3  F6  UNL     1     -35.814   5.827   3.863  1.00 20.00    -0.187 F 
HETATM    4 BR7  UNL     1     -33.331   6.403   2.927  1.00 20.00    -0.005 Br
ENDROOT
BRANCH   1   5
HETATM    5  C1  UNL     1     -34.213   5.827   5.568  1.00 20.00     0.436 C 
HETATM    6  F3  UNL     1     -35.099   5.233   6.405  1.00 20.00    -0.207 F 
HETATM    7  F4  UNL     1     -34.357   7.167   5.742  1.00 20.00    -0.207 F 
ENDBRANCH   1   5
TORSDOF 1
ENDMDL
MODEL 7
REMARK VINA RESULT:      -4.9      2.051      2.814
REMARK  1 active torsions:
REMARK  status: ('A' for Active; 'I' for Inactive)
REMARK    1  A    between atoms: C1_1  and  C2_2 
ROOT
HETATM    1  C2  UNL     1     -34.428   6.233   4.041  1.00 20.00     0.357 C 
HETATM    2  F5  UNL     1     -35.730   5.978   3.764  1.00 20.00    -0.187 F 
HETATM    3  F6  UNL     1     -34.230   7.558   3.831  1.00 20.00    -0.187 F 
HETATM    4 BR7  UNL     1     -33.281   5.204   2.864  1.00 20.00    -0.005 Br
ENDROOT
BRANCH   1   5
HETATM    5  C1  UNL     1     -34.140   5.904   5.483  1.00 20.00     0.436 C 
HETATM    6  F3  UNL     1     -35.009   4.967   5.934  1.00 20.00    -0.207 F 
HETATM    7  F4  UNL     1     -34.342   7.014   6.240  1.00 20.00    -0.207 F 
ENDBRANCH   1   5
TORSDOF 1
ENDMDL
MODEL 8
REMARK VINA RESULT:      -4.9      1.321      2.651
REMARK  1 active torsions:
REMARK  status: ('A' for Active; 'I' for Inactive)
REMARK    1  A    between atoms: C1_1  and  C2_2 
ROOT
HETATM    1  C2  UNL     1     -33.611   5.732   2.939  1.00 20.00     0.357 C 
HETATM    2  F5  UNL     1     -32.735   4.753   2.606  1.00 20.00    -0.187 F 
HETATM    3  F6  UNL     1     -34.440   5.900   1.881  1.00 20.00    -0.187 F 
HETATM    4 BR7  UNL     1     -32.659   7.384   3.294  1.00 20.00    -0.005 Br
ENDROOT
BRANCH   1   5
HETATM    5  C1  UNL     1     -34.411   5.312   4.144  1.00 20.00     0.436 C 
HETATM    6  F3  UNL     1     -34.478   3.960   4.217  1.00 20.00    -0.207 F 
HETATM    7  F4  UNL     1     -35.688   5.755   4.005  1.00 20.00    -0.207 F 
ENDBRANCH   1   5
TORSDOF 1
ENDMDL
MODEL 9
REMARK VINA RESULT:      -4.8      1.839      2.506
REMARK  1 active torsions:
REMARK  status: ('A' for Active; 'I' for Inactive)
REMARK    1  A    between atoms: C1_1  and  C2_2 
ROOT
HETATM    1  C2  UNL     1     -34.496   6.017   4.271  1.00 20.00     0.357 C 
HETATM    2  F5  UNL     1     -35.755   5.972   3.771  1.00 20.00    -0.187 F 
HETATM    3  F6  UNL     1     -34.467   7.020   5.183  1.00 20.00    -0.187 F 
HETATM    4 BR7  UNL     1     -33.228   6.385   2.851  1.00 20.00    -0.005 Br
ENDROOT
BRANCH   1   5
HETATM    5  C1  UNL     1     -34.170   4.712   4.949  1.00 20.00     0.436 C 
HETATM    6  F3  UNL     1     -34.454   3.671   4.128  1.00 20.00    -0.207 F 
HETATM    7  F4  UNL     1     -34.964   4.570   6.042  1.00 20.00    -0.207 F 
ENDBRANCH   1   5
TORSDOF 1
ENDMDL
