MODEL 1
REMARK VINA RESULT:      -5.0      0.000      0.000
REMARK  1 active torsions:
REMARK  status: ('A' for Active; 'I' for Inactive)
REMARK    1  A    between atoms: C2_2  and  C3_3 
ROOT
HETATM    1  C1  UNL     1     -34.296   4.278   4.655  1.00 20.00     0.058 C 
HETATM    2  C2  UNL     1     -34.334   5.700   4.096  1.00 20.00     0.189 C 
HETATM    3 CL6  UNL     1     -36.019   6.098   3.611  1.00 20.00    -0.094 Cl
HETATM    4 CL7  UNL     1     -33.882   6.832   5.426  1.00 20.00    -0.094 Cl
ENDROOT
BRANCH   2   5
HETATM    5  C3  UNL     1     -33.369   5.914   2.923  1.00 20.00     0.354 C 
HETATM    6  F4  UNL     1     -34.078   6.094   1.776  1.00 20.00    -0.184 F 
HETATM    7  F5  UNL     1     -32.614   4.799   2.732  1.00 20.00    -0.184 F 
HETATM    8 CL8  UNL     1     -32.278   7.306   3.128  1.00 20.00    -0.045 Cl
ENDBRANCH   2   5
TORSDOF 1
ENDMDL
MODEL 2
REMARK VINA RESULT:      -5.0      1.165      1.707
REMARK  1 active torsions:
REMARK  status: ('A' for Active; 'I' for Inactive)
REMARK    1  A    between atoms: C2_2  and  C3_3 
ROOT
HETATM    1  C1  UNL     1     -33.963   6.712   5.297  1.00 20.00     0.058 C 
HETATM    2  C2  UNL     1     -34.280   5.773   4.133  1.00 20.00     0.189 C 
HETATM    3 CL6  UNL     1     -34.207   4.072   4.712  1.00 20.00    -0.094 Cl
HETATM    4 CL7  UNL     1     -35.978   6.086   3.612  1.00 20.00    -0.094 Cl
ENDROOT
BRANCH   2   5
HETATM    5  C3  UNL     1     -33.354   5.974   2.926  1.00 20.00     0.354 C 
HETATM    6  F4  UNL     1     -34.101   6.136   1.801  1.00 20.00    -0.184 F 
HETATM    7  F5  UNL     1     -32.603   4.858   2.725  1.00 20.00    -0.184 F 
HETATM    8 CL8  UNL     1     -32.262   7.371   3.076  1.00 20.00    -0.045 Cl
ENDBRANCH   2   5
TORSDOF 1
ENDMDL
MODEL 3
REMARK VINA RESULT:      -4.9      1.182      1.711
REMARK  1 active torsions:
REMARK  status: ('A' for Active; 'I' for Inactive)
REMARK    1  A    between atoms: C2_2  and  C3_3 
ROOT
HETATM    1  C1  UNL     1     -35.748   6.064   3.698  1.00 20.00     0.058 C 
HETATM    2  C2  UNL     1     -34.293   5.784   4.073  1.00 20.00     0.189 C 
HETATM    3 CL6  UNL     1     -33.838   6.810   5.477  1.00 20.00    -0.094 Cl
HETATM    4 CL7  UNL     1     -34.178   4.066   4.610  1.00 20.00    -0.094 Cl
ENDROOT
BRANCH   2   5
HETATM    5  C3  UNL     1     -33.317   5.998   2.908  1.00 20.00     0.354 C 
HETATM    6  F4  UNL     1     -34.016   6.184   1.757  1.00 20.00    -0.184 F 
HETATM    7  F5  UNL     1     -32.565   4.881   2.720  1.00 20.00    -0.184 F 
HETATM    8 CL8  UNL     1     -32.223   7.385   3.126  1.00 20.00    -0.045 Cl
ENDBRANCH   2   5
TORSDOF 1
ENDMDL
MODEL 4
REMARK VINA RESULT:      -4.7      1.818      2.407
REMARK  1 active torsions:
REMARK  status: ('A' for Active; 'I' for Inactive)
REMARK    1  A    between atoms: C2_2  and  C3_3 
ROOT
HETATM    1  C1  UNL     1     -34.460   4.926   5.419  1.00 20.00     0.058 C 
HETATM    2  C2  UNL     1     -34.276   5.718   4.125  1.00 20.00     0.189 C 
HETATM    3 CL6  UNL     1     -33.359   4.717   2.946  1.00 20.00    -0.094 Cl
HETATM    4 CL7  UNL     1     -35.909   6.013   3.417  1.00 20.00    -0.094 Cl
ENDROOT
BRANCH   2   5
HETATM    5  C3  UNL     1     -33.585   7.072   4.339  1.00 20.00     0.354 C 
HETATM    6  F4  UNL     1     -34.290   8.048   3.706  1.00 20.00    -0.184 F 
HETATM    7  F5  UNL     1     -32.352   7.060   3.765  1.00 20.00    -0.184 F 
HETATM    8 CL8  UNL     1     -33.408   7.532   6.049  1.00 20.00    -0.045 Cl
ENDBRANCH   2   5
TORSDOF 1
ENDMDL
MODEL 5
REMARK VINA RESULT:      -4.7      2.094      2.553
REMARK  1 active torsions:
REMARK  status: ('A' for Active; 'I' for Inactive)
REMARK    1  A    between atoms: C2_2  and  C3_3 
ROOT
HETATM    1  C1  UNL     1     -35.649   5.932   3.439  1.00 20.00     0.058 C 
HETATM    2  C2  UNL     1     -34.253   5.763   4.037  1.00 20.00     0.189 C 
HETATM    3 CL6  UNL     1     -34.373   4.805   5.554  1.00 20.00    -0.094 Cl
HETATM    4 CL7  UNL     1     -33.263   4.801   2.876  1.00 20.00    -0.094 Cl
ENDROOT
BRANCH   2   5
HETATM    5  C3  UNL     1     -33.542   7.098   4.296  1.00 20.00     0.354 C 
HETATM    6  F4  UNL     1     -34.205   8.099   3.658  1.00 20.00    -0.184 F 
HETATM    7  F5  UNL     1     -32.291   7.070   3.763  1.00 20.00    -0.184 F 
HETATM    8 CL8  UNL     1     -33.411   7.527   6.019  1.00 20.00    -0.045 Cl
ENDBRANCH   2   5
TORSDOF 1
ENDMDL
MODEL 6
REMARK VINA RESULT:      -4.6      1.885      2.093
REMARK  1 active torsions:
REMARK  status: ('A' for Active; 'I' for Inactive)
REMARK    1  A    between atoms: C2_2  and  C3_3 
ROOT
HETATM    1  C1  UNL     1     -33.478   4.873   3.010  1.00 20.00     0.058 C 
HETATM    2  C2  UNL     1     -34.240   5.742   4.010  1.00 20.00     0.189 C 
HETATM    3 CL6  UNL     1     -35.913   6.005   3.407  1.00 20.00    -0.094 Cl
HETATM    4 CL7  UNL     1     -34.370   4.825   5.558  1.00 20.00    -0.094 Cl
ENDROOT
BRANCH   2   5
HETATM    5  C3  UNL     1     -33.550   7.083   4.293  1.00 20.00     0.354 C 
HETATM    6  F4  UNL     1     -34.222   8.083   3.662  1.00 20.00    -0.184 F 
HETATM    7  F5  UNL     1     -32.295   7.080   3.770  1.00 20.00    -0.184 F 
HETATM    8 CL8  UNL     1     -33.440   7.490   6.023  1.00 20.00    -0.045 Cl
ENDBRANCH   2   5
TORSDOF 1
ENDMDL
MODEL 7
REMARK VINA RESULT:      -4.6      1.732      3.064
REMARK  1 active torsions:
REMARK  status: ('A' for Active; 'I' for Inactive)
REMARK    1  A    between atoms: C2_2  and  C3_3 
ROOT
HETATM    1  C1  UNL     1     -32.862   4.605   2.726  1.00 20.00     0.058 C 
HETATM    2  C2  UNL     1     -33.680   5.832   3.128  1.00 20.00     0.189 C 
HETATM    3 CL6  UNL     1     -32.567   7.216   3.405  1.00 20.00    -0.094 Cl
HETATM    4 CL7  UNL     1     -34.741   6.272   1.737  1.00 20.00    -0.094 Cl
ENDROOT
BRANCH   2   5
HETATM    5  C3  UNL     1     -34.563   5.592   4.360  1.00 20.00     0.354 C 
HETATM    6  F4  UNL     1     -34.460   4.293   4.747  1.00 20.00    -0.184 F 
HETATM    7  F5  UNL     1     -35.869   5.792   4.041  1.00 20.00    -0.184 F 
HETATM    8 CL8  UNL     1     -34.157   6.623   5.753  1.00 20.00    -0.045 Cl
ENDBRANCH   2   5
TORSDOF 1
ENDMDL
MODEL 8
REMARK VINA RESULT:      -4.5      2.017      3.029
REMARK  1 active torsions:
REMARK  status: ('A' for Active; 'I' for Inactive)
REMARK    1  A    between atoms: C2_2  and  C3_3 
ROOT
HETATM    1  C1  UNL     1     -32.841   7.082   3.320  1.00 20.00     0.058 C 
HETATM    2  C2  UNL     1     -33.771   5.900   3.047  1.00 20.00     0.189 C 
HETATM    3 CL6  UNL     1     -34.771   6.259   1.596  1.00 20.00    -0.094 Cl
HETATM    4 CL7  UNL     1     -32.750   4.468   2.649  1.00 20.00    -0.094 Cl
ENDROOT
BRANCH   2   5
HETATM    5  C3  UNL     1     -34.664   5.545   4.244  1.00 20.00     0.354 C 
HETATM    6  F4  UNL     1     -34.606   4.206   4.474  1.00 20.00    -0.184 F 
HETATM    7  F5  UNL     1     -35.962   5.826   3.956  1.00 20.00    -0.184 F 
HETATM    8 CL8  UNL     1     -34.224   6.388   5.750  1.00 20.00    -0.045 Cl
ENDBRANCH   2   5
TORSDOF 1
ENDMDL
MODEL 9
REMARK VINA RESULT:      -4.5      1.857      3.020
REMARK  1 active torsions:
REMARK  status: ('A' for Active; 'I' for Inactive)
REMARK    1  A    between atoms: C2_2  and  C3_3 
ROOT
HETATM    1  C1  UNL     1     -34.553   6.411   1.969  1.00 20.00     0.058 C 
HETATM    2  C2  UNL     1     -33.694   5.949   3.146  1.00 20.00     0.189 C 
HETATM    3 CL6  UNL     1     -32.730   4.516   2.646  1.00 20.00    -0.094 Cl
HETATM    4 CL7  UNL     1     -32.526   7.268   3.533  1.00 20.00    -0.094 Cl
ENDROOT
BRANCH   2   5
HETATM    5  C3  UNL     1     -34.513   5.637   4.406  1.00 20.00     0.354 C 
HETATM    6  F4  UNL     1     -34.322   4.339   4.764  1.00 20.00    -0.184 F 
HETATM    7  F5  UNL     1     -35.841   5.767   4.141  1.00 20.00    -0.184 F 
HETATM    8 CL8  UNL     1     -34.112   6.665   5.803  1.00 20.00    -0.045 Cl
ENDBRANCH   2   5
TORSDOF 1
ENDMDL
