MODEL 1
REMARK VINA RESULT:      -5.4      0.000      0.000
REMARK  1 active torsions:
REMARK  status: ('A' for Active; 'I' for Inactive)
REMARK    1  A    between atoms: C1_1  and  C4_4 
ROOT
HETATM    1  C2  UNL     1     -33.731   7.324   5.674  1.00 20.00     0.013 C 
HETATM    2  C3  UNL     1     -34.630   6.119   6.003  1.00 20.00     0.010 C 
HETATM    3  C4  UNL     1     -33.133   6.503   4.505  1.00 20.00     0.062 C 
HETATM    4  C5  UNL     1     -34.447   5.643   4.533  1.00 20.00    -0.037 C 
HETATM    5  C7  UNL     1     -34.201   4.142   4.397  1.00 20.00     0.015 C 
HETATM    6  C8  UNL     1     -35.574   6.103   3.604  1.00 20.00     0.015 C 
ENDROOT
BRANCH   3   7
HETATM    7  C1  UNL     1     -32.768   7.245   3.216  1.00 20.00     0.128 C 
HETATM    8  C6  UNL     1     -31.665   8.263   3.310  1.00 20.00     0.091 C 
HETATM    9  O9  UNL     1     -33.349   7.017   2.156  1.00 20.00    -0.298 OA
ENDBRANCH   3   7
TORSDOF 1
ENDMDL
MODEL 2
REMARK VINA RESULT:      -5.1      1.421      2.338
REMARK  1 active torsions:
REMARK  status: ('A' for Active; 'I' for Inactive)
REMARK    1  A    between atoms: C1_1  and  C4_4 
ROOT
HETATM    1  C2  UNL     1     -32.663   5.002   3.024  1.00 20.00     0.013 C 
HETATM    2  C3  UNL     1     -33.970   4.516   3.676  1.00 20.00     0.010 C 
HETATM    3  C4  UNL     1     -33.368   6.347   2.719  1.00 20.00     0.062 C 
HETATM    4  C5  UNL     1     -34.364   6.007   3.885  1.00 20.00    -0.037 C 
HETATM    5  C7  UNL     1     -35.823   6.312   3.553  1.00 20.00     0.015 C 
HETATM    6  C8  UNL     1     -33.990   6.542   5.270  1.00 20.00     0.015 C 
ENDROOT
BRANCH   3   7
HETATM    7  C1  UNL     1     -32.539   7.632   2.813  1.00 20.00     0.128 C 
HETATM    8  C6  UNL     1     -32.667   8.605   1.673  1.00 20.00     0.091 C 
HETATM    9  O9  UNL     1     -31.808   7.857   3.776  1.00 20.00    -0.298 OA
ENDBRANCH   3   7
TORSDOF 1
ENDMDL
MODEL 3
REMARK VINA RESULT:      -4.7     11.759     13.255
REMARK  1 active torsions:
REMARK  status: ('A' for Active; 'I' for Inactive)
REMARK    1  A    between atoms: C1_1  and  C4_4 
ROOT
HETATM    1  C2  UNL     1     -33.690  14.421  -4.334  1.00 20.00     0.013 C 
HETATM    2  C3  UNL     1     -33.009  15.518  -5.173  1.00 20.00     0.010 C 
HETATM    3  C4  UNL     1     -35.053  14.901  -4.894  1.00 20.00     0.062 C 
HETATM    4  C5  UNL     1     -34.258  15.515  -6.101  1.00 20.00    -0.037 C 
HETATM    5  C7  UNL     1     -34.732  16.911  -6.502  1.00 20.00     0.015 C 
HETATM    6  C8  UNL     1     -34.095  14.616  -7.330  1.00 20.00     0.015 C 
ENDROOT
BRANCH   3   7
HETATM    7  C1  UNL     1     -36.125  13.846  -5.182  1.00 20.00     0.128 C 
HETATM    8  C6  UNL     1     -37.520  14.350  -5.435  1.00 20.00     0.091 C 
HETATM    9  O9  UNL     1     -35.857  12.646  -5.208  1.00 20.00    -0.298 OA
ENDBRANCH   3   7
TORSDOF 1
ENDMDL
MODEL 4
REMARK VINA RESULT:      -4.6      1.796      2.225
REMARK  1 active torsions:
REMARK  status: ('A' for Active; 'I' for Inactive)
REMARK    1  A    between atoms: C1_1  and  C4_4 
ROOT
HETATM    1  C2  UNL     1     -34.522   4.972   5.799  1.00 20.00     0.013 C 
HETATM    2  C3  UNL     1     -34.676   4.139   4.513  1.00 20.00     0.010 C 
HETATM    3  C4  UNL     1     -33.446   5.816   5.071  1.00 20.00     0.062 C 
HETATM    4  C5  UNL     1     -34.096   5.346   3.720  1.00 20.00    -0.037 C 
HETATM    5  C7  UNL     1     -33.076   4.951   2.654  1.00 20.00     0.015 C 
HETATM    6  C8  UNL     1     -35.177   6.260   3.137  1.00 20.00     0.015 C 
ENDROOT
BRANCH   3   7
HETATM    7  C1  UNL     1     -33.383   7.317   5.371  1.00 20.00     0.128 C 
HETATM    8  C6  UNL     1     -32.445   8.137   4.527  1.00 20.00     0.091 C 
HETATM    9  O9  UNL     1     -34.067   7.825   6.257  1.00 20.00    -0.298 OA
ENDBRANCH   3   7
TORSDOF 1
ENDMDL
MODEL 5
REMARK VINA RESULT:      -4.6     11.863     12.956
REMARK  1 active torsions:
REMARK  status: ('A' for Active; 'I' for Inactive)
REMARK    1  A    between atoms: C1_1  and  C4_4 
ROOT
HETATM    1  C2  UNL     1     -36.099  15.311  -4.057  1.00 20.00     0.013 C 
HETATM    2  C3  UNL     1     -34.962  16.334  -3.872  1.00 20.00     0.010 C 
HETATM    3  C4  UNL     1     -35.534  15.005  -5.467  1.00 20.00     0.062 C 
HETATM    4  C5  UNL     1     -34.157  15.561  -4.956  1.00 20.00    -0.037 C 
HETATM    5  C7  UNL     1     -33.450  16.467  -5.962  1.00 20.00     0.015 C 
HETATM    6  C8  UNL     1     -33.189  14.530  -4.368  1.00 20.00     0.015 C 
ENDROOT
BRANCH   3   7
HETATM    7  C1  UNL     1     -35.600  13.560  -5.971  1.00 20.00     0.128 C 
HETATM    8  C6  UNL     1     -35.249  13.331  -7.416  1.00 20.00     0.091 C 
HETATM    9  O9  UNL     1     -35.924  12.634  -5.230  1.00 20.00    -0.298 OA
ENDBRANCH   3   7
TORSDOF 1
ENDMDL
MODEL 6
REMARK VINA RESULT:      -4.5     11.547     12.955
REMARK  1 active torsions:
REMARK  status: ('A' for Active; 'I' for Inactive)
REMARK    1  A    between atoms: C1_1  and  C4_4 
ROOT
HETATM    1  C2  UNL     1     -34.423  15.779  -6.625  1.00 20.00     0.013 C 
HETATM    2  C3  UNL     1     -33.248  16.129  -5.695  1.00 20.00     0.010 C 
HETATM    3  C4  UNL     1     -34.446  14.366  -5.991  1.00 20.00     0.062 C 
HETATM    4  C5  UNL     1     -33.724  14.992  -4.745  1.00 20.00    -0.037 C 
HETATM    5  C7  UNL     1     -32.589  14.130  -4.196  1.00 20.00     0.015 C 
HETATM    6  C8  UNL     1     -34.633  15.489  -3.618  1.00 20.00     0.015 C 
ENDROOT
BRANCH   3   7
HETATM    7  C1  UNL     1     -35.805  13.689  -5.789  1.00 20.00     0.128 C 
HETATM    8  C6  UNL     1     -37.010  14.418  -6.320  1.00 20.00     0.091 C 
HETATM    9  O9  UNL     1     -35.906  12.603  -5.221  1.00 20.00    -0.298 OA
ENDBRANCH   3   7
TORSDOF 1
ENDMDL
MODEL 7
REMARK VINA RESULT:      -4.5      1.889      3.318
REMARK  1 active torsions:
REMARK  status: ('A' for Active; 'I' for Inactive)
REMARK    1  A    between atoms: C1_1  and  C4_4 
ROOT
HETATM    1  C2  UNL     1     -32.341   7.897   3.652  1.00 20.00     0.013 C 
HETATM    2  C3  UNL     1     -32.481   7.395   2.204  1.00 20.00     0.010 C 
HETATM    3  C4  UNL     1     -33.733   7.285   3.951  1.00 20.00     0.062 C 
HETATM    4  C5  UNL     1     -33.501   6.339   2.719  1.00 20.00    -0.037 C 
HETATM    5  C7  UNL     1     -34.730   6.182   1.826  1.00 20.00     0.015 C 
HETATM    6  C8  UNL     1     -32.863   4.981   3.022  1.00 20.00     0.015 C 
ENDROOT
BRANCH   3   7
HETATM    7  C1  UNL     1     -33.961   6.654   5.328  1.00 20.00     0.128 C 
HETATM    8  C6  UNL     1     -34.795   5.401   5.369  1.00 20.00     0.091 C 
HETATM    9  O9  UNL     1     -33.485   7.147   6.349  1.00 20.00    -0.298 OA
ENDBRANCH   3   7
TORSDOF 1
ENDMDL
MODEL 8
REMARK VINA RESULT:      -4.4      1.473      3.300
REMARK  1 active torsions:
REMARK  status: ('A' for Active; 'I' for Inactive)
REMARK    1  A    between atoms: C1_1  and  C4_4 
ROOT
HETATM    1  C2  UNL     1     -32.974   7.523   5.307  1.00 20.00     0.013 C 
HETATM    2  C3  UNL     1     -32.076   8.109   4.201  1.00 20.00     0.010 C 
HETATM    3  C4  UNL     1     -34.077   7.316   4.240  1.00 20.00     0.062 C 
HETATM    4  C5  UNL     1     -32.936   7.336   3.161  1.00 20.00    -0.037 C 
HETATM    5  C7  UNL     1     -33.282   8.152   1.917  1.00 20.00     0.015 C 
HETATM    6  C8  UNL     1     -32.345   5.976   2.780  1.00 20.00     0.015 C 
ENDROOT
BRANCH   3   7
HETATM    7  C1  UNL     1     -34.962   6.071   4.350  1.00 20.00     0.128 C 
HETATM    8  C6  UNL     1     -34.659   5.123   5.479  1.00 20.00     0.091 C 
HETATM    9  O9  UNL     1     -35.876   5.858   3.556  1.00 20.00    -0.298 OA
ENDBRANCH   3   7
TORSDOF 1
ENDMDL
MODEL 9
REMARK VINA RESULT:      -4.4     11.731     12.572
REMARK  1 active torsions:
REMARK  status: ('A' for Active; 'I' for Inactive)
REMARK    1  A    between atoms: C1_1  and  C4_4 
ROOT
HETATM    1  C2  UNL     1     -33.470  14.407  -4.632  1.00 20.00     0.013 C 
HETATM    2  C3  UNL     1     -33.405  15.731  -3.848  1.00 20.00     0.010 C 
HETATM    3  C4  UNL     1     -34.958  14.288  -4.220  1.00 20.00     0.062 C 
HETATM    4  C5  UNL     1     -34.949  15.843  -4.005  1.00 20.00    -0.037 C 
HETATM    5  C7  UNL     1     -35.668  16.292  -2.735  1.00 20.00     0.015 C 
HETATM    6  C8  UNL     1     -35.372  16.693  -5.207  1.00 20.00     0.015 C 
ENDROOT
BRANCH   3   7
HETATM    7  C1  UNL     1     -35.941  13.693  -5.234  1.00 20.00     0.128 C 
HETATM    8  C6  UNL     1     -35.376  13.294  -6.570  1.00 20.00     0.091 C 
HETATM    9  O9  UNL     1     -37.132  13.547  -4.966  1.00 20.00    -0.298 OA
ENDBRANCH   3   7
TORSDOF 1
ENDMDL
