MODEL 1
REMARK VINA RESULT:      -4.3      0.000      0.000
REMARK  1 active torsions:
REMARK  status: ('A' for Active; 'I' for Inactive)
REMARK    1  A    between atoms: C2_2  and  C4_4 
ROOT
HETATM    1  C1  UNL     1     -34.465   5.963   5.796  1.00 20.00    -0.034 C 
HETATM    2  C2  UNL     1     -34.751   5.327   4.650  1.00 20.00    -0.016 C 
HETATM    3  C3  UNL     1     -33.729   7.260   5.865  1.00 20.00     0.036 C 
ENDROOT
BRANCH   2   4
HETATM    4  C4  UNL     1     -34.366   5.840   3.301  1.00 20.00     0.141 C 
HETATM    5 CL5  UNL     1     -33.007   4.892   2.659  1.00 20.00    -0.126 Cl
ENDBRANCH   2   4
TORSDOF 1
ENDMDL
MODEL 2
REMARK VINA RESULT:      -4.1      1.749      2.273
REMARK  1 active torsions:
REMARK  status: ('A' for Active; 'I' for Inactive)
REMARK    1  A    between atoms: C2_2  and  C4_4 
ROOT
HETATM    1  C1  UNL     1     -34.284   6.241   5.836  1.00 20.00    -0.034 C 
HETATM    2  C2  UNL     1     -33.706   7.223   5.129  1.00 20.00    -0.016 C 
HETATM    3  C3  UNL     1     -34.654   4.912   5.265  1.00 20.00     0.036 C 
ENDROOT
BRANCH   2   4
HETATM    4  C4  UNL     1     -33.363   7.107   3.680  1.00 20.00     0.141 C 
HETATM    5 CL5  UNL     1     -31.851   7.978   3.344  1.00 20.00    -0.126 Cl
ENDBRANCH   2   4
TORSDOF 1
ENDMDL
MODEL 3
REMARK VINA RESULT:      -4.0      1.408      1.731
REMARK  1 active torsions:
REMARK  status: ('A' for Active; 'I' for Inactive)
REMARK    1  A    between atoms: C2_2  and  C4_4 
ROOT
HETATM    1  C1  UNL     1     -33.349   7.368   4.486  1.00 20.00    -0.034 C 
HETATM    2  C2  UNL     1     -33.989   6.596   3.595  1.00 20.00    -0.016 C 
HETATM    3  C3  UNL     1     -33.639   7.363   5.950  1.00 20.00     0.036 C 
ENDROOT
BRANCH   2   4
HETATM    4  C4  UNL     1     -35.074   5.637   3.960  1.00 20.00     0.141 C 
HETATM    5 CL5  UNL     1     -34.366   4.086   4.461  1.00 20.00    -0.126 Cl
ENDBRANCH   2   4
TORSDOF 1
ENDMDL
MODEL 4
REMARK VINA RESULT:      -3.9      2.086      2.880
REMARK  1 active torsions:
REMARK  status: ('A' for Active; 'I' for Inactive)
REMARK    1  A    between atoms: C2_2  and  C4_4 
ROOT
HETATM    1  C1  UNL     1     -34.466   5.914   3.072  1.00 20.00    -0.034 C 
HETATM    2  C2  UNL     1     -35.086   5.714   4.244  1.00 20.00    -0.016 C 
HETATM    3  C3  UNL     1     -32.991   6.098   2.932  1.00 20.00     0.036 C 
ENDROOT
BRANCH   2   4
HETATM    4  C4  UNL     1     -34.376   5.651   5.556  1.00 20.00     0.141 C 
HETATM    5 CL5  UNL     1     -33.878   7.282   6.054  1.00 20.00    -0.126 Cl
ENDBRANCH   2   4
TORSDOF 1
ENDMDL
MODEL 5
REMARK VINA RESULT:      -3.9      1.468      1.835
REMARK  1 active torsions:
REMARK  status: ('A' for Active; 'I' for Inactive)
REMARK    1  A    between atoms: C2_2  and  C4_4 
ROOT
HETATM    1  C1  UNL     1     -33.404   7.255   5.260  1.00 20.00    -0.034 C 
HETATM    2  C2  UNL     1     -34.371   6.361   5.513  1.00 20.00    -0.016 C 
HETATM    3  C3  UNL     1     -32.851   7.519   3.899  1.00 20.00     0.036 C 
ENDROOT
BRANCH   2   4
HETATM    4  C4  UNL     1     -35.014   5.517   4.461  1.00 20.00     0.141 C 
HETATM    5 CL5  UNL     1     -34.195   3.944   4.363  1.00 20.00    -0.126 Cl
ENDBRANCH   2   4
TORSDOF 1
ENDMDL
MODEL 6
REMARK VINA RESULT:      -3.9      1.701      2.157
REMARK  1 active torsions:
REMARK  status: ('A' for Active; 'I' for Inactive)
REMARK    1  A    between atoms: C2_2  and  C4_4 
ROOT
HETATM    1  C1  UNL     1     -34.753   5.329   4.159  1.00 20.00    -0.034 C 
HETATM    2  C2  UNL     1     -34.107   6.141   3.309  1.00 20.00    -0.016 C 
HETATM    3  C3  UNL     1     -34.607   5.393   5.643  1.00 20.00     0.036 C 
ENDROOT
BRANCH   2   4
HETATM    4  C4  UNL     1     -33.160   7.211   3.746  1.00 20.00     0.141 C 
HETATM    5 CL5  UNL     1     -32.283   7.853   2.341  1.00 20.00    -0.126 Cl
ENDBRANCH   2   4
TORSDOF 1
ENDMDL
MODEL 7
REMARK VINA RESULT:      -3.8      2.436      2.978
REMARK  1 active torsions:
REMARK  status: ('A' for Active; 'I' for Inactive)
REMARK    1  A    between atoms: C2_2  and  C4_4 
ROOT
HETATM    1  C1  UNL     1     -32.816   7.118   2.728  1.00 20.00    -0.034 C 
HETATM    2  C2  UNL     1     -33.779   6.550   3.470  1.00 20.00    -0.016 C 
HETATM    3  C3  UNL     1     -31.807   8.077   3.266  1.00 20.00     0.036 C 
ENDROOT
BRANCH   2   4
HETATM    4  C4  UNL     1     -33.959   6.810   4.930  1.00 20.00     0.141 C 
HETATM    5 CL5  UNL     1     -34.601   5.359   5.728  1.00 20.00    -0.126 Cl
ENDBRANCH   2   4
TORSDOF 1
ENDMDL
MODEL 8
REMARK VINA RESULT:      -3.6      3.807      4.367
REMARK  1 active torsions:
REMARK  status: ('A' for Active; 'I' for Inactive)
REMARK    1  A    between atoms: C2_2  and  C4_4 
ROOT
HETATM    1  C1  UNL     1     -32.427   7.456   3.379  1.00 20.00    -0.034 C 
HETATM    2  C2  UNL     1     -31.811   8.449   2.721  1.00 20.00    -0.016 C 
HETATM    3  C3  UNL     1     -33.422   6.535   2.754  1.00 20.00     0.036 C 
ENDROOT
BRANCH   2   4
HETATM    4  C4  UNL     1     -32.047   8.756   1.278  1.00 20.00     0.141 C 
HETATM    5 CL5  UNL     1     -32.710  10.395   1.109  1.00 20.00    -0.126 Cl
ENDBRANCH   2   4
TORSDOF 1
ENDMDL
MODEL 9
REMARK VINA RESULT:      -3.5      4.224      4.982
REMARK  1 active torsions:
REMARK  status: ('A' for Active; 'I' for Inactive)
REMARK    1  A    between atoms: C2_2  and  C4_4 
ROOT
HETATM    1  C1  UNL     1     -32.125   9.510   0.670  1.00 20.00    -0.034 C 
HETATM    2  C2  UNL     1     -31.659   8.442   1.335  1.00 20.00    -0.016 C 
HETATM    3  C3  UNL     1     -32.867  10.633   1.315  1.00 20.00     0.036 C 
ENDROOT
BRANCH   2   4
HETATM    4  C4  UNL     1     -31.829   8.245   2.805  1.00 20.00     0.141 C 
HETATM    5 CL5  UNL     1     -32.937   6.891   3.111  1.00 20.00    -0.126 Cl
ENDBRANCH   2   4
TORSDOF 1
ENDMDL
