MODEL 1
REMARK VINA RESULT:      -4.3      0.000      0.000
REMARK  1 active torsions:
REMARK  status: ('A' for Active; 'I' for Inactive)
REMARK    1  A    between atoms: C4_4  and  C5_5 
ROOT
HETATM    1  C1  UNL     1     -33.930   6.687   5.179  1.00 20.00     0.069 C 
HETATM    2  C2  UNL     1     -34.386   4.328   4.698  1.00 20.00     0.032 C 
HETATM    3  C3  UNL     1     -35.688   6.123   3.545  1.00 20.00     0.032 C 
HETATM    4  C5  UNL     1     -34.304   5.744   4.099  1.00 20.00     0.054 C 
HETATM    5  N6  UNL     1     -33.636   7.426   6.025  1.00 20.00    -0.196 NA
ENDROOT
BRANCH   4   6
HETATM    6  C4  UNL     1     -33.228   5.740   2.991  1.00 20.00     0.138 C 
HETATM    7 CL7  UNL     1     -32.537   7.350   2.651  1.00 20.00    -0.129 Cl
ENDBRANCH   4   6
TORSDOF 1
ENDMDL
MODEL 2
REMARK VINA RESULT:      -4.2      1.921      2.627
REMARK  1 active torsions:
REMARK  status: ('A' for Active; 'I' for Inactive)
REMARK    1  A    between atoms: C4_4  and  C5_5 
ROOT
HETATM    1  C1  UNL     1     -33.312   6.396   3.504  1.00 20.00     0.069 C 
HETATM    2  C2  UNL     1     -35.725   5.987   3.642  1.00 20.00     0.032 C 
HETATM    3  C3  UNL     1     -34.105   4.136   4.089  1.00 20.00     0.032 C 
HETATM    4  C5  UNL     1     -34.350   5.647   4.249  1.00 20.00     0.054 C 
HETATM    5  N6  UNL     1     -32.498   6.984   2.922  1.00 20.00    -0.196 NA
ENDROOT
BRANCH   4   6
HETATM    6  C4  UNL     1     -34.360   6.069   5.734  1.00 20.00     0.138 C 
HETATM    7 CL7  UNL     1     -33.510   7.607   6.051  1.00 20.00    -0.129 Cl
ENDBRANCH   4   6
TORSDOF 1
ENDMDL
MODEL 3
REMARK VINA RESULT:      -3.9      1.873      2.576
REMARK  1 active torsions:
REMARK  status: ('A' for Active; 'I' for Inactive)
REMARK    1  A    between atoms: C4_4  and  C5_5 
ROOT
HETATM    1  C1  UNL     1     -33.485   5.102   3.267  1.00 20.00     0.069 C 
HETATM    2  C2  UNL     1     -35.671   6.147   3.638  1.00 20.00     0.032 C 
HETATM    3  C3  UNL     1     -34.540   4.903   5.487  1.00 20.00     0.032 C 
HETATM    4  C5  UNL     1     -34.307   5.816   4.271  1.00 20.00     0.054 C 
HETATM    5  N6  UNL     1     -32.841   4.542   2.481  1.00 20.00    -0.196 NA
ENDROOT
BRANCH   4   6
HETATM    6  C4  UNL     1     -33.628   7.143   4.677  1.00 20.00     0.138 C 
HETATM    7 CL7  UNL     1     -32.373   7.690   3.532  1.00 20.00    -0.129 Cl
ENDBRANCH   4   6
TORSDOF 1
ENDMDL
MODEL 4
REMARK VINA RESULT:      -3.8      1.713      2.366
REMARK  1 active torsions:
REMARK  status: ('A' for Active; 'I' for Inactive)
REMARK    1  A    between atoms: C4_4  and  C5_5 
ROOT
HETATM    1  C1  UNL     1     -34.140   4.617   4.242  1.00 20.00     0.069 C 
HETATM    2  C2  UNL     1     -35.604   6.419   3.455  1.00 20.00     0.032 C 
HETATM    3  C3  UNL     1     -33.982   6.833   5.310  1.00 20.00     0.032 C 
HETATM    4  C5  UNL     1     -34.201   6.076   3.990  1.00 20.00     0.054 C 
HETATM    5  N6  UNL     1     -34.092   3.474   4.439  1.00 20.00    -0.196 NA
ENDROOT
BRANCH   4   6
HETATM    6  C4  UNL     1     -33.164   6.482   2.920  1.00 20.00     0.138 C 
HETATM    7 CL7  UNL     1     -32.091   7.815   3.428  1.00 20.00    -0.129 Cl
ENDBRANCH   4   6
TORSDOF 1
ENDMDL
MODEL 5
REMARK VINA RESULT:      -3.8      1.730      1.920
REMARK  1 active torsions:
REMARK  status: ('A' for Active; 'I' for Inactive)
REMARK    1  A    between atoms: C4_4  and  C5_5 
ROOT
HETATM    1  C1  UNL     1     -33.325   6.884   3.821  1.00 20.00     0.069 C 
HETATM    2  C2  UNL     1     -34.455   5.966   5.793  1.00 20.00     0.032 C 
HETATM    3  C3  UNL     1     -35.678   6.176   3.624  1.00 20.00     0.032 C 
HETATM    4  C5  UNL     1     -34.313   5.872   4.262  1.00 20.00     0.054 C 
HETATM    5  N6  UNL     1     -32.551   7.677   3.476  1.00 20.00    -0.196 NA
ENDROOT
BRANCH   4   6
HETATM    6  C4  UNL     1     -33.822   4.451   3.909  1.00 20.00     0.138 C 
HETATM    7 CL7  UNL     1     -32.854   4.374   2.411  1.00 20.00    -0.129 Cl
ENDBRANCH   4   6
TORSDOF 1
ENDMDL
MODEL 6
REMARK VINA RESULT:      -3.7      2.055      2.731
REMARK  1 active torsions:
REMARK  status: ('A' for Active; 'I' for Inactive)
REMARK    1  A    between atoms: C4_4  and  C5_5 
ROOT
HETATM    1  C1  UNL     1     -32.723   7.138   3.269  1.00 20.00     0.069 C 
HETATM    2  C2  UNL     1     -34.956   6.411   2.566  1.00 20.00     0.032 C 
HETATM    3  C3  UNL     1     -33.134   4.734   2.906  1.00 20.00     0.032 C 
HETATM    4  C5  UNL     1     -33.725   6.058   3.422  1.00 20.00     0.054 C 
HETATM    5  N6  UNL     1     -31.938   7.985   3.150  1.00 20.00    -0.196 NA
ENDROOT
BRANCH   4   6
HETATM    6  C4  UNL     1     -34.176   5.944   4.895  1.00 20.00     0.138 C 
HETATM    7 CL7  UNL     1     -33.695   7.336   5.904  1.00 20.00    -0.129 Cl
ENDBRANCH   4   6
TORSDOF 1
ENDMDL
MODEL 7
REMARK VINA RESULT:      -3.6      1.864      2.348
REMARK  1 active torsions:
REMARK  status: ('A' for Active; 'I' for Inactive)
REMARK    1  A    between atoms: C4_4  and  C5_5 
ROOT
HETATM    1  C1  UNL     1     -33.761   6.895   4.877  1.00 20.00     0.069 C 
HETATM    2  C2  UNL     1     -35.239   6.460   2.971  1.00 20.00     0.032 C 
HETATM    3  C3  UNL     1     -32.939   7.363   2.600  1.00 20.00     0.032 C 
HETATM    4  C5  UNL     1     -33.784   6.421   3.474  1.00 20.00     0.054 C 
HETATM    5  N6  UNL     1     -33.743   7.266   5.977  1.00 20.00    -0.196 NA
ENDROOT
BRANCH   4   6
HETATM    6  C4  UNL     1     -33.283   4.962   3.389  1.00 20.00     0.138 C 
HETATM    7 CL7  UNL     1     -34.158   3.837   4.464  1.00 20.00    -0.129 Cl
ENDBRANCH   4   6
TORSDOF 1
ENDMDL
MODEL 8
REMARK VINA RESULT:      -3.5      1.985      2.355
REMARK  1 active torsions:
REMARK  status: ('A' for Active; 'I' for Inactive)
REMARK    1  A    between atoms: C4_4  and  C5_5 
ROOT
HETATM    1  C1  UNL     1     -34.431   4.986   4.619  1.00 20.00     0.069 C 
HETATM    2  C2  UNL     1     -32.995   5.195   2.644  1.00 20.00     0.032 C 
HETATM    3  C3  UNL     1     -35.197   6.373   2.730  1.00 20.00     0.032 C 
HETATM    4  C5  UNL     1     -33.985   5.929   3.567  1.00 20.00     0.054 C 
HETATM    5  N6  UNL     1     -34.780   4.248   5.444  1.00 20.00    -0.196 NA
ENDROOT
BRANCH   4   6
HETATM    6  C4  UNL     1     -33.256   7.135   4.198  1.00 20.00     0.138 C 
HETATM    7 CL7  UNL     1     -33.614   7.368   5.931  1.00 20.00    -0.129 Cl
ENDBRANCH   4   6
TORSDOF 1
ENDMDL
MODEL 9
REMARK VINA RESULT:      -3.5      2.225      2.827
REMARK  1 active torsions:
REMARK  status: ('A' for Active; 'I' for Inactive)
REMARK    1  A    between atoms: C4_4  and  C5_5 
ROOT
HETATM    1  C1  UNL     1     -34.140   4.402   4.169  1.00 20.00     0.069 C 
HETATM    2  C2  UNL     1     -33.267   6.579   3.459  1.00 20.00     0.032 C 
HETATM    3  C3  UNL     1     -35.733   6.184   3.563  1.00 20.00     0.032 C 
HETATM    4  C5  UNL     1     -34.387   5.861   4.235  1.00 20.00     0.054 C 
HETATM    5  N6  UNL     1     -33.947   3.259   4.118  1.00 20.00    -0.196 NA
ENDROOT
BRANCH   4   6
HETATM    6  C4  UNL     1     -34.349   6.349   5.700  1.00 20.00     0.138 C 
HETATM    7 CL7  UNL     1     -33.238   7.719   5.974  1.00 20.00    -0.129 Cl
ENDBRANCH   4   6
TORSDOF 1
ENDMDL
