MODEL 1
REMARK VINA RESULT:      -6.3      0.000      0.000
REMARK  1 active torsions:
REMARK  status: ('A' for Active; 'I' for Inactive)
REMARK    1  A    between atoms: C7_7  and  O9_9 
ROOT
HETATM    1  C1  UNL     1     -33.517   5.856   2.709  1.00 20.00    -0.019 A 
HETATM    2  C2  UNL     1     -33.067   7.002   3.255  1.00 20.00    -0.080 A 
HETATM    3  C3  UNL     1     -34.863   4.818   4.680  1.00 20.00     0.012 C 
HETATM    4  C4  UNL     1     -33.932   5.368   5.754  1.00 20.00     0.033 C 
HETATM    5  C5  UNL     1     -34.786   5.832   3.536  1.00 20.00     0.019 A 
HETATM    6  C6  UNL     1     -34.285   7.160   4.157  1.00 20.00     0.050 A 
HETATM    7  C7  UNL     1     -34.134   6.877   5.654  1.00 20.00     0.127 C 
HETATM    8  C8  UNL     1     -31.800   7.853   3.044  1.00 20.00     0.043 C 
ENDROOT
BRANCH   7   9
HETATM    9  O9  UNL     1     -33.037   7.593   6.191  1.00 20.00    -0.395 OA
HETATM   10  H21 UNL     1     -33.177   7.650   7.151  1.00 20.00     0.210 HD
ENDBRANCH   7   9
TORSDOF 1
ENDMDL
MODEL 2
REMARK VINA RESULT:      -5.8      1.516      2.373
REMARK  1 active torsions:
REMARK  status: ('A' for Active; 'I' for Inactive)
REMARK    1  A    between atoms: C7_7  and  O9_9 
ROOT
HETATM    1  C1  UNL     1     -34.152   4.263   4.536  1.00 20.00    -0.019 A 
HETATM    2  C2  UNL     1     -33.744   4.803   3.371  1.00 20.00    -0.080 A 
HETATM    3  C3  UNL     1     -34.490   6.378   6.016  1.00 20.00     0.012 C 
HETATM    4  C4  UNL     1     -33.346   7.150   5.370  1.00 20.00     0.033 C 
HETATM    5  C5  UNL     1     -35.010   5.452   4.913  1.00 20.00     0.019 A 
HETATM    6  C6  UNL     1     -34.560   6.074   3.567  1.00 20.00     0.050 A 
HETATM    7  C7  UNL     1     -33.833   7.367   3.940  1.00 20.00     0.127 C 
HETATM    8  C8  UNL     1     -32.809   4.318   2.246  1.00 20.00     0.043 C 
ENDROOT
BRANCH   7   9
HETATM    9  O9  UNL     1     -32.759   7.613   3.050  1.00 20.00    -0.395 OA
HETATM   10  H21 UNL     1     -32.734   8.572   2.891  1.00 20.00     0.210 HD
ENDBRANCH   7   9
TORSDOF 1
ENDMDL
MODEL 3
REMARK VINA RESULT:      -5.8      1.509      2.426
REMARK  1 active torsions:
REMARK  status: ('A' for Active; 'I' for Inactive)
REMARK    1  A    between atoms: C7_7  and  O9_9 
ROOT
HETATM    1  C1  UNL     1     -32.790   7.126   3.607  1.00 20.00    -0.019 A 
HETATM    2  C2  UNL     1     -33.640   7.105   4.652  1.00 20.00    -0.080 A 
HETATM    3  C3  UNL     1     -33.249   4.816   2.499  1.00 20.00     0.012 C 
HETATM    4  C4  UNL     1     -33.533   4.112   3.820  1.00 20.00     0.033 C 
HETATM    5  C5  UNL     1     -33.676   6.268   2.728  1.00 20.00     0.019 A 
HETATM    6  C6  UNL     1     -34.668   6.253   3.917  1.00 20.00     0.050 A 
HETATM    7  C7  UNL     1     -34.816   4.780   4.305  1.00 20.00     0.127 C 
HETATM    8  C8  UNL     1     -33.603   7.721   6.064  1.00 20.00     0.043 C 
ENDROOT
BRANCH   7   9
HETATM    9  O9  UNL     1     -34.985   4.644   5.704  1.00 20.00    -0.395 OA
HETATM   10  H21 UNL     1     -34.418   5.311   6.126  1.00 20.00     0.210 HD
ENDBRANCH   7   9
TORSDOF 1
ENDMDL
MODEL 4
REMARK VINA RESULT:      -5.1      1.754      3.482
REMARK  1 active torsions:
REMARK  status: ('A' for Active; 'I' for Inactive)
REMARK    1  A    between atoms: C7_7  and  O9_9 
ROOT
HETATM    1  C1  UNL     1     -33.780   7.233   5.478  1.00 20.00    -0.019 A 
HETATM    2  C2  UNL     1     -34.298   6.034   5.150  1.00 20.00    -0.080 A 
HETATM    3  C3  UNL     1     -32.631   7.945   3.253  1.00 20.00     0.012 C 
HETATM    4  C4  UNL     1     -32.248   6.521   2.865  1.00 20.00     0.033 C 
HETATM    5  C5  UNL     1     -33.911   7.795   4.078  1.00 20.00     0.019 A 
HETATM    6  C6  UNL     1     -34.525   6.425   3.696  1.00 20.00     0.050 A 
HETATM    7  C7  UNL     1     -33.596   5.849   2.624  1.00 20.00     0.127 C 
HETATM    8  C8  UNL     1     -34.574   4.744   5.946  1.00 20.00     0.043 C 
ENDROOT
BRANCH   7   9
HETATM    9  O9  UNL     1     -33.511   4.441   2.739  1.00 20.00    -0.395 OA
HETATM   10  H21 UNL     1     -33.270   4.244   3.660  1.00 20.00     0.210 HD
ENDBRANCH   7   9
TORSDOF 1
ENDMDL
MODEL 5
REMARK VINA RESULT:      -4.2     11.535     12.956
REMARK  1 active torsions:
REMARK  status: ('A' for Active; 'I' for Inactive)
REMARK    1  A    between atoms: C7_7  and  O9_9 
ROOT
HETATM    1  C1  UNL     1     -33.599  16.179  -6.155  1.00 20.00    -0.019 A 
HETATM    2  C2  UNL     1     -33.818  14.885  -6.456  1.00 20.00    -0.080 A 
HETATM    3  C3  UNL     1     -34.364  16.286  -3.669  1.00 20.00     0.012 C 
HETATM    4  C4  UNL     1     -35.468  15.251  -3.847  1.00 20.00     0.033 C 
HETATM    5  C5  UNL     1     -33.297  15.902  -4.696  1.00 20.00     0.019 A 
HETATM    6  C6  UNL     1     -33.530  14.409  -5.037  1.00 20.00     0.050 A 
HETATM    7  C7  UNL     1     -34.701  13.969  -4.155  1.00 20.00     0.127 C 
HETATM    8  C8  UNL     1     -34.206  14.147  -7.752  1.00 20.00     0.043 C 
ENDROOT
BRANCH   7   9
HETATM    9  O9  UNL     1     -35.508  13.021  -4.830  1.00 20.00    -0.395 OA
HETATM   10  H21 UNL     1     -36.365  12.999  -4.372  1.00 20.00     0.210 HD
ENDBRANCH   7   9
TORSDOF 1
ENDMDL
MODEL 6
REMARK VINA RESULT:      -4.0     12.071     13.440
REMARK  1 active torsions:
REMARK  status: ('A' for Active; 'I' for Inactive)
REMARK    1  A    between atoms: C7_7  and  O9_9 
ROOT
HETATM    1  C1  UNL     1     -33.812  16.019  -5.982  1.00 20.00    -0.019 A 
HETATM    2  C2  UNL     1     -34.561  15.551  -4.965  1.00 20.00    -0.080 A 
HETATM    3  C3  UNL     1     -34.479  14.411  -7.918  1.00 20.00     0.012 C 
HETATM    4  C4  UNL     1     -34.670  13.207  -7.003  1.00 20.00     0.033 C 
HETATM    5  C5  UNL     1     -34.815  15.624  -7.046  1.00 20.00     0.019 A 
HETATM    6  C6  UNL     1     -35.691  15.100  -5.881  1.00 20.00     0.050 A 
HETATM    7  C7  UNL     1     -35.870  13.604  -6.148  1.00 20.00     0.127 C 
HETATM    8  C8  UNL     1     -34.363  15.500  -3.437  1.00 20.00     0.043 C 
ENDROOT
BRANCH   7   9
HETATM    9  O9  UNL     1     -35.913  12.879  -4.932  1.00 20.00    -0.395 OA
HETATM   10  H21 UNL     1     -36.832  12.590  -4.805  1.00 20.00     0.210 HD
ENDBRANCH   7   9
TORSDOF 1
ENDMDL
MODEL 7
REMARK VINA RESULT:      -4.0     11.970     12.831
REMARK  1 active torsions:
REMARK  status: ('A' for Active; 'I' for Inactive)
REMARK    1  A    between atoms: C7_7  and  O9_9 
ROOT
HETATM    1  C1  UNL     1     -35.996  15.757  -3.794  1.00 20.00    -0.019 A 
HETATM    2  C2  UNL     1     -34.702  15.723  -3.421  1.00 20.00    -0.080 A 
HETATM    3  C3  UNL     1     -35.903  14.643  -6.145  1.00 20.00     0.012 C 
HETATM    4  C4  UNL     1     -34.526  15.204  -6.481  1.00 20.00     0.033 C 
HETATM    5  C5  UNL     1     -35.904  14.492  -4.622  1.00 20.00     0.019 A 
HETATM    6  C6  UNL     1     -34.420  14.434  -4.183  1.00 20.00     0.050 A 
HETATM    7  C7  UNL     1     -33.610  14.507  -5.480  1.00 20.00     0.127 C 
HETATM    8  C8  UNL     1     -33.827  16.635  -2.540  1.00 20.00     0.043 C 
ENDROOT
BRANCH   7   9
HETATM    9  O9  UNL     1     -32.406  15.225  -5.279  1.00 20.00    -0.395 OA
HETATM   10  H21 UNL     1     -32.411  15.971  -5.901  1.00 20.00     0.210 HD
ENDBRANCH   7   9
TORSDOF 1
ENDMDL
MODEL 8
REMARK VINA RESULT:      -3.9     12.129     13.006
REMARK  1 active torsions:
REMARK  status: ('A' for Active; 'I' for Inactive)
REMARK    1  A    between atoms: C7_7  and  O9_9 
ROOT
HETATM    1  C1  UNL     1     -36.080  15.494  -4.226  1.00 20.00    -0.019 A 
HETATM    2  C2  UNL     1     -34.942  14.782  -4.338  1.00 20.00    -0.080 A 
HETATM    3  C3  UNL     1     -37.427  14.674  -6.299  1.00 20.00     0.012 C 
HETATM    4  C4  UNL     1     -36.190  14.489  -7.169  1.00 20.00     0.033 C 
HETATM    5  C5  UNL     1     -36.940  14.425  -4.869  1.00 20.00     0.019 A 
HETATM    6  C6  UNL     1     -35.639  13.592  -4.984  1.00 20.00     0.050 A 
HETATM    7  C7  UNL     1     -35.445  13.348  -6.483  1.00 20.00     0.127 C 
HETATM    8  C8  UNL     1     -33.477  15.056  -3.947  1.00 20.00     0.043 C 
ENDROOT
BRANCH   7   9
HETATM    9  O9  UNL     1     -34.068  13.343  -6.815  1.00 20.00    -0.395 OA
HETATM   10  H21 UNL     1     -33.661  14.097  -6.356  1.00 20.00     0.210 HD
ENDBRANCH   7   9
TORSDOF 1
ENDMDL
MODEL 9
REMARK VINA RESULT:      -3.9     12.356     13.080
REMARK  1 active torsions:
REMARK  status: ('A' for Active; 'I' for Inactive)
REMARK    1  A    between atoms: C7_7  and  O9_9 
ROOT
HETATM    1  C1  UNL     1     -35.925  14.104  -4.959  1.00 20.00    -0.019 A 
HETATM    2  C2  UNL     1     -35.119  14.286  -6.023  1.00 20.00    -0.080 A 
HETATM    3  C3  UNL     1     -34.905  15.760  -3.229  1.00 20.00     0.012 C 
HETATM    4  C4  UNL     1     -33.475  15.566  -3.717  1.00 20.00     0.033 C 
HETATM    5  C5  UNL     1     -35.777  15.528  -4.465  1.00 20.00     0.019 A 
HETATM    6  C6  UNL     1     -34.864  15.752  -5.696  1.00 20.00     0.050 A 
HETATM    7  C7  UNL     1     -33.503  16.154  -5.125  1.00 20.00     0.127 C 
HETATM    8  C8  UNL     1     -34.639  13.365  -7.161  1.00 20.00     0.043 C 
ENDROOT
BRANCH   7   9
HETATM    9  O9  UNL     1     -32.453  15.647  -5.928  1.00 20.00    -0.395 OA
HETATM   10  H21 UNL     1     -32.191  14.791  -5.549  1.00 20.00     0.210 HD
ENDBRANCH   7   9
TORSDOF 1
ENDMDL
