MODEL 1
REMARK VINA RESULT:      -5.0      0.000      0.000
REMARK  0 active torsions:
REMARK  status: ('A' for Active; 'I' for Inactive)
ROOT
HETATM    1  C1  UNL     1     -36.706  15.272  -4.375  1.00 20.00     0.131 C 
HETATM    2  C2  UNL     1     -36.164  14.554  -5.599  1.00 20.00     0.079 C 
HETATM    3  C3  UNL     1     -34.774  13.968  -5.339  1.00 20.00     0.016 C 
HETATM    4  C4  UNL     1     -33.699  16.602  -2.619  1.00 20.00     0.006 C 
HETATM    5  C5  UNL     1     -34.792  17.214  -1.732  1.00 20.00     0.005 C 
HETATM    6  C6  UNL     1     -35.759  16.273  -3.747  1.00 20.00     0.064 C 
HETATM    7  C7  UNL     1     -34.440  15.556  -3.444  1.00 20.00     0.005 C 
HETATM    8  C8  UNL     1     -36.143  16.836  -2.377  1.00 20.00    -0.007 C 
HETATM    9  C9  UNL     1     -33.764  14.968  -4.704  1.00 20.00    -0.043 C 
HETATM   10  C10 UNL     1     -37.097  18.019  -2.463  1.00 20.00     0.011 C 
HETATM   11  C11 UNL     1     -32.493  14.196  -4.299  1.00 20.00     0.015 C 
HETATM   12  C12 UNL     1     -33.356  16.035  -5.739  1.00 20.00     0.015 C 
HETATM   13  O13 UNL     1     -37.862  15.114  -3.993  1.00 20.00    -0.298 OA
ENDROOT
TORSDOF 0
ENDMDL
MODEL 2
REMARK VINA RESULT:      -4.9      1.451      2.820
REMARK  0 active torsions:
REMARK  status: ('A' for Active; 'I' for Inactive)
ROOT
HETATM    1  C1  UNL     1     -35.363  13.932  -4.974  1.00 20.00     0.131 C 
HETATM    2  C2  UNL     1     -33.851  14.071  -5.013  1.00 20.00     0.079 C 
HETATM    3  C3  UNL     1     -33.336  14.940  -3.862  1.00 20.00     0.016 C 
HETATM    4  C4  UNL     1     -36.594  17.113  -3.471  1.00 20.00     0.006 C 
HETATM    5  C5  UNL     1     -37.943  16.462  -3.807  1.00 20.00     0.005 C 
HETATM    6  C6  UNL     1     -36.124  15.234  -4.840  1.00 20.00     0.064 C 
HETATM    7  C7  UNL     1     -35.593  15.971  -3.607  1.00 20.00     0.005 C 
HETATM    8  C8  UNL     1     -37.622  15.141  -4.540  1.00 20.00    -0.007 C 
HETATM    9  C9  UNL     1     -34.084  16.295  -3.695  1.00 20.00    -0.043 C 
HETATM   10  C10 UNL     1     -38.470  14.949  -5.789  1.00 20.00     0.011 C 
HETATM   11  C11 UNL     1     -33.617  16.958  -2.384  1.00 20.00     0.015 C 
HETATM   12  C12 UNL     1     -33.724  17.243  -4.855  1.00 20.00     0.015 C 
HETATM   13  O13 UNL     1     -35.916  12.848  -5.139  1.00 20.00    -0.298 OA
ENDROOT
TORSDOF 0
ENDMDL
MODEL 3
REMARK VINA RESULT:      -4.8      2.345      3.653
REMARK  0 active torsions:
REMARK  status: ('A' for Active; 'I' for Inactive)
ROOT
HETATM    1  C1  UNL     1     -33.266  18.177  -4.024  1.00 20.00     0.131 C 
HETATM    2  C2  UNL     1     -33.561  17.370  -5.277  1.00 20.00     0.079 C 
HETATM    3  C3  UNL     1     -34.989  16.816  -5.267  1.00 20.00     0.016 C 
HETATM    4  C4  UNL     1     -35.347  16.618  -1.353  1.00 20.00     0.006 C 
HETATM    5  C5  UNL     1     -34.586  17.645  -0.503  1.00 20.00     0.005 C 
HETATM    6  C6  UNL     1     -33.617  17.489  -2.721  1.00 20.00     0.064 C 
HETATM    7  C7  UNL     1     -35.087  17.065  -2.787  1.00 20.00     0.005 C 
HETATM    8  C8  UNL     1     -33.583  18.340  -1.449  1.00 20.00    -0.007 C 
HETATM    9  C9  UNL     1     -35.388  16.091  -3.949  1.00 20.00    -0.043 C 
HETATM   10  C10 UNL     1     -32.192  18.451  -0.842  1.00 20.00     0.011 C 
HETATM   11  C11 UNL     1     -36.897  15.784  -3.992  1.00 20.00     0.015 C 
HETATM   12  C12 UNL     1     -34.637  14.749  -3.837  1.00 20.00     0.015 C 
HETATM   13  O13 UNL     1     -32.696  19.263  -4.075  1.00 20.00    -0.298 OA
ENDROOT
TORSDOF 0
ENDMDL
MODEL 4
REMARK VINA RESULT:      -4.8      1.494      2.320
REMARK  0 active torsions:
REMARK  status: ('A' for Active; 'I' for Inactive)
ROOT
HETATM    1  C1  UNL     1     -37.058  15.060  -5.029  1.00 20.00     0.131 C 
HETATM    2  C2  UNL     1     -37.487  14.972  -6.483  1.00 20.00     0.079 C 
HETATM    3  C3  UNL     1     -36.404  14.329  -7.353  1.00 20.00     0.016 C 
HETATM    4  C4  UNL     1     -33.352  15.443  -5.132  1.00 20.00     0.006 C 
HETATM    5  C5  UNL     1     -33.572  15.589  -3.619  1.00 20.00     0.005 C 
HETATM    6  C6  UNL     1     -35.690  15.666  -4.799  1.00 20.00     0.064 C 
HETATM    7  C7  UNL     1     -34.676  14.887  -5.642  1.00 20.00     0.005 C 
HETATM    8  C8  UNL     1     -35.098  15.547  -3.393  1.00 20.00    -0.007 C 
HETATM    9  C9  UNL     1     -34.981  14.931  -7.157  1.00 20.00    -0.043 C 
HETATM   10  C10 UNL     1     -35.576  16.643  -2.451  1.00 20.00     0.011 C 
HETATM   11  C11 UNL     1     -33.966  14.056  -7.918  1.00 20.00     0.015 C 
HETATM   12  C12 UNL     1     -34.922  16.350  -7.755  1.00 20.00     0.015 C 
HETATM   13  O13 UNL     1     -37.814  14.749  -4.113  1.00 20.00    -0.298 OA
ENDROOT
TORSDOF 0
ENDMDL
MODEL 5
REMARK VINA RESULT:      -4.7      1.702      4.139
REMARK  0 active torsions:
REMARK  status: ('A' for Active; 'I' for Inactive)
ROOT
HETATM    1  C1  UNL     1     -33.982  14.764  -4.176  1.00 20.00     0.131 C 
HETATM    2  C2  UNL     1     -33.285  15.944  -3.522  1.00 20.00     0.079 C 
HETATM    3  C3  UNL     1     -34.207  16.669  -2.537  1.00 20.00     0.016 C 
HETATM    4  C4  UNL     1     -37.580  15.729  -4.335  1.00 20.00     0.006 C 
HETATM    5  C5  UNL     1     -37.649  14.395  -5.092  1.00 20.00     0.005 C 
HETATM    6  C6  UNL     1     -35.342  15.070  -4.767  1.00 20.00     0.064 C 
HETATM    7  C7  UNL     1     -36.207  15.702  -3.672  1.00 20.00     0.005 C 
HETATM    8  C8  UNL     1     -36.199  13.880  -5.207  1.00 20.00    -0.007 C 
HETATM    9  C9  UNL     1     -35.613  17.014  -3.109  1.00 20.00    -0.043 C 
HETATM   10  C10 UNL     1     -35.865  13.392  -6.610  1.00 20.00     0.011 C 
HETATM   11  C11 UNL     1     -36.499  17.534  -1.960  1.00 20.00     0.015 C 
HETATM   12  C12 UNL     1     -35.495  18.136  -4.159  1.00 20.00     0.015 C 
HETATM   13  O13 UNL     1     -33.432  13.673  -4.295  1.00 20.00    -0.298 OA
ENDROOT
TORSDOF 0
ENDMDL
MODEL 6
REMARK VINA RESULT:      -4.7      1.726      3.864
REMARK  0 active torsions:
REMARK  status: ('A' for Active; 'I' for Inactive)
ROOT
HETATM    1  C1  UNL     1     -34.236  14.651  -5.502  1.00 20.00     0.131 C 
HETATM    2  C2  UNL     1     -33.165  15.460  -4.791  1.00 20.00     0.079 C 
HETATM    3  C3  UNL     1     -33.612  15.877  -3.388  1.00 20.00     0.016 C 
HETATM    4  C4  UNL     1     -37.470  15.936  -4.165  1.00 20.00     0.006 C 
HETATM    5  C5  UNL     1     -38.010  14.963  -5.222  1.00 20.00     0.005 C 
HETATM    6  C6  UNL     1     -35.619  15.268  -5.489  1.00 20.00     0.064 C 
HETATM    7  C7  UNL     1     -36.000  15.555  -4.034  1.00 20.00     0.005 C 
HETATM    8  C8  UNL     1     -36.781  14.390  -5.960  1.00 20.00    -0.007 C 
HETATM    9  C9  UNL     1     -35.026  16.527  -3.330  1.00 20.00    -0.043 C 
HETATM   10  C10 UNL     1     -36.957  14.393  -7.471  1.00 20.00     0.011 C 
HETATM   11  C11 UNL     1     -35.433  16.693  -1.853  1.00 20.00     0.015 C 
HETATM   12  C12 UNL     1     -34.988  17.929  -3.968  1.00 20.00     0.015 C 
HETATM   13  O13 UNL     1     -33.967  13.625  -6.120  1.00 20.00    -0.298 OA
ENDROOT
TORSDOF 0
ENDMDL
MODEL 7
REMARK VINA RESULT:      -4.6      2.282      4.105
REMARK  0 active torsions:
REMARK  status: ('A' for Active; 'I' for Inactive)
ROOT
HETATM    1  C1  UNL     1     -36.319  13.917  -5.258  1.00 20.00     0.131 C 
HETATM    2  C2  UNL     1     -37.788  14.300  -5.210  1.00 20.00     0.079 C 
HETATM    3  C3  UNL     1     -38.137  15.330  -6.288  1.00 20.00     0.016 C 
HETATM    4  C4  UNL     1     -34.562  16.963  -6.496  1.00 20.00     0.006 C 
HETATM    5  C5  UNL     1     -33.343  16.075  -6.211  1.00 20.00     0.005 C 
HETATM    6  C6  UNL     1     -35.353  15.083  -5.285  1.00 20.00     0.064 C 
HETATM    7  C7  UNL     1     -35.738  15.994  -6.454  1.00 20.00     0.005 C 
HETATM    8  C8  UNL     1     -33.886  14.770  -5.589  1.00 20.00    -0.007 C 
HETATM    9  C9  UNL     1     -37.175  16.553  -6.343  1.00 20.00    -0.043 C 
HETATM   10  C10 UNL     1     -33.100  14.342  -4.358  1.00 20.00     0.011 C 
HETATM   11  C11 UNL     1     -37.507  17.386  -7.597  1.00 20.00     0.015 C 
HETATM   12  C12 UNL     1     -37.392  17.451  -5.110  1.00 20.00     0.015 C 
HETATM   13  O13 UNL     1     -35.953  12.748  -5.181  1.00 20.00    -0.298 OA
ENDROOT
TORSDOF 0
ENDMDL
MODEL 8
REMARK VINA RESULT:      -4.5      1.848      4.466
REMARK  0 active torsions:
REMARK  status: ('A' for Active; 'I' for Inactive)
ROOT
HETATM    1  C1  UNL     1     -33.954  14.791  -4.384  1.00 20.00     0.131 C 
HETATM    2  C2  UNL     1     -33.704  15.915  -3.393  1.00 20.00     0.079 C 
HETATM    3  C3  UNL     1     -35.016  16.532  -2.900  1.00 20.00     0.016 C 
HETATM    4  C4  UNL     1     -37.115  15.718  -6.128  1.00 20.00     0.006 C 
HETATM    5  C5  UNL     1     -36.753  14.460  -6.929  1.00 20.00     0.005 C 
HETATM    6  C6  UNL     1     -34.900  15.133  -5.516  1.00 20.00     0.064 C 
HETATM    7  C7  UNL     1     -36.206  15.648  -4.906  1.00 20.00     0.005 C 
HETATM    8  C8  UNL     1     -35.387  13.978  -6.394  1.00 20.00    -0.007 C 
HETATM    9  C9  UNL     1     -36.014  16.910  -4.033  1.00 20.00    -0.043 C 
HETATM   10  C10 UNL     1     -34.416  13.627  -7.512  1.00 20.00     0.011 C 
HETATM   11  C11 UNL     1     -37.359  17.309  -3.393  1.00 20.00     0.015 C 
HETATM   12  C12 UNL     1     -35.486  18.127  -4.817  1.00 20.00     0.015 C 
HETATM   13  O13 UNL     1     -33.351  13.724  -4.316  1.00 20.00    -0.298 OA
ENDROOT
TORSDOF 0
ENDMDL
MODEL 9
REMARK VINA RESULT:      -4.5      1.425      2.498
REMARK  0 active torsions:
REMARK  status: ('A' for Active; 'I' for Inactive)
ROOT
HETATM    1  C1  UNL     1     -36.784  14.485  -4.883  1.00 20.00     0.131 C 
HETATM    2  C2  UNL     1     -35.337  14.048  -5.027  1.00 20.00     0.079 C 
HETATM    3  C3  UNL     1     -34.454  14.652  -3.931  1.00 20.00     0.016 C 
HETATM    4  C4  UNL     1     -36.626  17.885  -3.363  1.00 20.00     0.006 C 
HETATM    5  C5  UNL     1     -38.140  17.790  -3.594  1.00 20.00     0.005 C 
HETATM    6  C6  UNL     1     -36.991  15.976  -4.723  1.00 20.00     0.064 C 
HETATM    7  C7  UNL     1     -36.137  16.453  -3.544  1.00 20.00     0.005 C 
HETATM    8  C8  UNL     1     -38.390  16.450  -4.320  1.00 20.00    -0.007 C 
HETATM    9  C9  UNL     1     -34.627  16.188  -3.741  1.00 20.00    -0.043 C 
HETATM   10  C10 UNL     1     -39.334  16.598  -5.505  1.00 20.00     0.011 C 
HETATM   11  C11 UNL     1     -33.855  16.618  -2.478  1.00 20.00     0.015 C 
HETATM   12  C12 UNL     1     -34.021  16.939  -4.942  1.00 20.00     0.015 C 
HETATM   13  O13 UNL     1     -37.713  13.689  -4.988  1.00 20.00    -0.298 OA
ENDROOT
TORSDOF 0
ENDMDL
