MODEL 1
REMARK VINA RESULT:      -5.4      0.000      0.000
REMARK  0 active torsions:
REMARK  status: ('A' for Active; 'I' for Inactive)
ROOT
HETATM    1  C1  UNL     1     -33.350   5.406   2.970  1.00 20.00    -0.080 C 
HETATM    2  C2  UNL     1     -33.516   4.270   2.281  1.00 20.00     0.015 C 
HETATM    3  C3  UNL     1     -32.094   6.234   2.918  1.00 20.00     0.043 C 
HETATM    4  C4  UNL     1     -34.431   6.469   6.248  1.00 20.00     0.002 C 
HETATM    5  C5  UNL     1     -33.354   7.360   5.655  1.00 20.00     0.006 C 
HETATM    6  C6  UNL     1     -34.558   5.367   5.208  1.00 20.00     0.014 C 
HETATM    7  C7  UNL     1     -33.754   7.463   4.176  1.00 20.00     0.006 C 
HETATM    8  C8  UNL     1     -34.396   6.079   3.844  1.00 20.00    -0.017 C 
HETATM    9  C9  UNL     1     -32.592   7.667   3.169  1.00 20.00    -0.040 C 
HETATM   10  C10 UNL     1     -35.760   6.237   3.159  1.00 20.00     0.020 C 
HETATM   11  C11 UNL     1     -33.110   8.293   1.856  1.00 20.00     0.015 C 
HETATM   12  C12 UNL     1     -31.466   8.568   3.695  1.00 20.00     0.015 C 
ENDROOT
TORSDOF 0
ENDMDL
MODEL 2
REMARK VINA RESULT:      -4.8     11.540     12.726
REMARK  0 active torsions:
REMARK  status: ('A' for Active; 'I' for Inactive)
ROOT
HETATM    1  C1  UNL     1     -34.458  16.071  -5.787  1.00 20.00    -0.080 C 
HETATM    2  C2  UNL     1     -33.659  16.378  -6.816  1.00 20.00     0.015 C 
HETATM    3  C3  UNL     1     -35.959  16.001  -5.892  1.00 20.00     0.043 C 
HETATM    4  C4  UNL     1     -34.307  16.808  -2.255  1.00 20.00     0.002 C 
HETATM    5  C5  UNL     1     -35.666  16.302  -2.703  1.00 20.00     0.006 C 
HETATM    6  C6  UNL     1     -33.541  16.902  -3.566  1.00 20.00     0.014 C 
HETATM    7  C7  UNL     1     -35.319  15.191  -3.705  1.00 20.00     0.006 C 
HETATM    8  C8  UNL     1     -34.003  15.679  -4.392  1.00 20.00    -0.017 C 
HETATM    9  C9  UNL     1     -36.349  14.951  -4.839  1.00 20.00    -0.040 C 
HETATM   10  C10 UNL     1     -32.922  14.589  -4.381  1.00 20.00     0.020 C 
HETATM   11  C11 UNL     1     -36.200  13.528  -5.420  1.00 20.00     0.015 C 
HETATM   12  C12 UNL     1     -37.809  15.117  -4.396  1.00 20.00     0.015 C 
ENDROOT
TORSDOF 0
ENDMDL
MODEL 3
REMARK VINA RESULT:      -4.4     11.318     12.371
REMARK  0 active torsions:
REMARK  status: ('A' for Active; 'I' for Inactive)
ROOT
HETATM    1  C1  UNL     1     -36.275  14.930  -4.549  1.00 20.00    -0.080 C 
HETATM    2  C2  UNL     1     -37.516  14.548  -4.876  1.00 20.00     0.015 C 
HETATM    3  C3  UNL     1     -35.094  13.997  -4.535  1.00 20.00     0.043 C 
HETATM    4  C4  UNL     1     -34.989  17.290  -2.138  1.00 20.00     0.002 C 
HETATM    5  C5  UNL     1     -33.926  16.354  -2.683  1.00 20.00     0.006 C 
HETATM    6  C6  UNL     1     -36.259  16.764  -2.787  1.00 20.00     0.014 C 
HETATM    7  C7  UNL     1     -34.280  16.245  -4.174  1.00 20.00     0.006 C 
HETATM    8  C8  UNL     1     -35.839  16.347  -4.216  1.00 20.00    -0.017 C 
HETATM    9  C9  UNL     1     -33.904  14.911  -4.868  1.00 20.00    -0.040 C 
HETATM   10  C10 UNL     1     -36.310  17.392  -5.236  1.00 20.00     0.020 C 
HETATM   11  C11 UNL     1     -33.786  15.104  -6.396  1.00 20.00     0.015 C 
HETATM   12  C12 UNL     1     -32.580  14.309  -4.377  1.00 20.00     0.015 C 
ENDROOT
TORSDOF 0
ENDMDL
MODEL 4
REMARK VINA RESULT:      -4.3     11.795     12.936
REMARK  0 active torsions:
REMARK  status: ('A' for Active; 'I' for Inactive)
ROOT
HETATM    1  C1  UNL     1     -35.885  17.547  -4.449  1.00 20.00    -0.080 C 
HETATM    2  C2  UNL     1     -36.827  18.219  -5.121  1.00 20.00     0.015 C 
HETATM    3  C3  UNL     1     -34.891  18.204  -3.528  1.00 20.00     0.043 C 
HETATM    4  C4  UNL     1     -33.871  14.663  -5.267  1.00 20.00     0.002 C 
HETATM    5  C5  UNL     1     -33.361  15.425  -4.058  1.00 20.00     0.006 C 
HETATM    6  C6  UNL     1     -35.033  15.525  -5.736  1.00 20.00     0.014 C 
HETATM    7  C7  UNL     1     -34.647  15.808  -3.311  1.00 20.00     0.006 C 
HETATM    8  C8  UNL     1     -35.702  16.038  -4.439  1.00 20.00    -0.017 C 
HETATM    9  C9  UNL     1     -34.589  17.118  -2.483  1.00 20.00    -0.040 C 
HETATM   10  C10 UNL     1     -36.999  15.264  -4.166  1.00 20.00     0.020 C 
HETATM   11  C11 UNL     1     -35.671  17.117  -1.382  1.00 20.00     0.015 C 
HETATM   12  C12 UNL     1     -33.236  17.360  -1.799  1.00 20.00     0.015 C 
ENDROOT
TORSDOF 0
ENDMDL
MODEL 5
REMARK VINA RESULT:      -4.3     11.236     12.974
REMARK  0 active torsions:
REMARK  status: ('A' for Active; 'I' for Inactive)
ROOT
HETATM    1  C1  UNL     1     -34.659  16.639  -2.903  1.00 20.00    -0.080 C 
HETATM    2  C2  UNL     1     -33.635  16.936  -2.093  1.00 20.00     0.015 C 
HETATM    3  C3  UNL     1     -36.078  17.068  -2.640  1.00 20.00     0.043 C 
HETATM    4  C4  UNL     1     -35.448  13.737  -4.901  1.00 20.00     0.002 C 
HETATM    5  C5  UNL     1     -36.626  14.677  -4.722  1.00 20.00     0.006 C 
HETATM    6  C6  UNL     1     -34.376  14.380  -4.036  1.00 20.00     0.014 C 
HETATM    7  C7  UNL     1     -35.990  16.070  -4.841  1.00 20.00     0.006 C 
HETATM    8  C8  UNL     1     -34.562  15.904  -4.229  1.00 20.00    -0.017 C 
HETATM    9  C9  UNL     1     -36.684  17.206  -4.046  1.00 20.00    -0.040 C 
HETATM   10  C10 UNL     1     -33.478  16.459  -5.163  1.00 20.00     0.020 C 
HETATM   11  C11 UNL     1     -36.335  18.585  -4.647  1.00 20.00     0.015 C 
HETATM   12  C12 UNL     1     -38.214  17.093  -4.011  1.00 20.00     0.015 C 
ENDROOT
TORSDOF 0
ENDMDL
MODEL 6
REMARK VINA RESULT:      -4.3     11.137     12.616
REMARK  0 active torsions:
REMARK  status: ('A' for Active; 'I' for Inactive)
ROOT
HETATM    1  C1  UNL     1     -33.648  14.879  -4.265  1.00 20.00    -0.080 C 
HETATM    2  C2  UNL     1     -32.571  14.088  -4.185  1.00 20.00     0.015 C 
HETATM    3  C3  UNL     1     -33.897  16.042  -3.342  1.00 20.00     0.043 C 
HETATM    4  C4  UNL     1     -37.105  14.241  -5.093  1.00 20.00     0.002 C 
HETATM    5  C5  UNL     1     -36.886  15.594  -4.442  1.00 20.00     0.006 C 
HETATM    6  C6  UNL     1     -35.717  13.621  -5.042  1.00 20.00     0.014 C 
HETATM    7  C7  UNL     1     -35.579  16.088  -5.079  1.00 20.00     0.006 C 
HETATM    8  C8  UNL     1     -34.743  14.790  -5.316  1.00 20.00    -0.017 C 
HETATM    9  C9  UNL     1     -34.706  17.025  -4.204  1.00 20.00    -0.040 C 
HETATM   10  C10 UNL     1     -34.210  14.715  -6.753  1.00 20.00     0.020 C 
HETATM   11  C11 UNL     1     -33.761  17.871  -5.084  1.00 20.00     0.015 C 
HETATM   12  C12 UNL     1     -35.518  17.996  -3.335  1.00 20.00     0.015 C 
ENDROOT
TORSDOF 0
ENDMDL
MODEL 7
REMARK VINA RESULT:      -4.3     11.012     13.153
REMARK  0 active torsions:
REMARK  status: ('A' for Active; 'I' for Inactive)
ROOT
HETATM    1  C1  UNL     1     -33.662  14.887  -4.828  1.00 20.00    -0.080 C 
HETATM    2  C2  UNL     1     -32.947  14.093  -4.021  1.00 20.00     0.015 C 
HETATM    3  C3  UNL     1     -33.044  15.822  -5.835  1.00 20.00     0.043 C 
HETATM    4  C4  UNL     1     -36.741  16.717  -4.373  1.00 20.00     0.002 C 
HETATM    5  C5  UNL     1     -35.965  17.149  -5.603  1.00 20.00     0.006 C 
HETATM    6  C6  UNL     1     -35.809  15.699  -3.734  1.00 20.00     0.014 C 
HETATM    7  C7  UNL     1     -35.439  15.825  -6.174  1.00 20.00     0.006 C 
HETATM    8  C8  UNL     1     -35.178  14.932  -4.920  1.00 20.00    -0.017 C 
HETATM    9  C9  UNL     1     -34.098  15.902  -6.951  1.00 20.00    -0.040 C 
HETATM   10  C10 UNL     1     -35.826  13.548  -5.065  1.00 20.00     0.020 C 
HETATM   11  C11 UNL     1     -33.954  14.703  -7.913  1.00 20.00     0.015 C 
HETATM   12  C12 UNL     1     -33.937  17.182  -7.783  1.00 20.00     0.015 C 
ENDROOT
TORSDOF 0
ENDMDL
MODEL 8
REMARK VINA RESULT:      -4.2     11.858     12.883
REMARK  0 active torsions:
REMARK  status: ('A' for Active; 'I' for Inactive)
ROOT
HETATM    1  C1  UNL     1     -34.854  14.274  -6.231  1.00 20.00    -0.080 C 
HETATM    2  C2  UNL     1     -34.498  13.455  -7.230  1.00 20.00     0.015 C 
HETATM    3  C3  UNL     1     -34.016  14.496  -5.000  1.00 20.00     0.043 C 
HETATM    4  C4  UNL     1     -38.040  15.084  -4.737  1.00 20.00     0.002 C 
HETATM    5  C5  UNL     1     -36.856  15.534  -3.901  1.00 20.00     0.006 C 
HETATM    6  C6  UNL     1     -37.372  14.342  -5.885  1.00 20.00     0.014 C 
HETATM    7  C7  UNL     1     -35.861  16.058  -4.947  1.00 20.00     0.006 C 
HETATM    8  C8  UNL     1     -36.093  15.153  -6.199  1.00 20.00    -0.017 C 
HETATM    9  C9  UNL     1     -34.359  15.935  -4.581  1.00 20.00    -0.040 C 
HETATM   10  C10 UNL     1     -36.289  15.987  -7.472  1.00 20.00     0.020 C 
HETATM   11  C11 UNL     1     -33.515  16.945  -5.389  1.00 20.00     0.015 C 
HETATM   12  C12 UNL     1     -34.062  16.172  -3.094  1.00 20.00     0.015 C 
ENDROOT
TORSDOF 0
ENDMDL
MODEL 9
REMARK VINA RESULT:      -4.2     11.435     13.399
REMARK  0 active torsions:
REMARK  status: ('A' for Active; 'I' for Inactive)
ROOT
HETATM    1  C1  UNL     1     -34.858  14.156  -6.805  1.00 20.00    -0.080 C 
HETATM    2  C2  UNL     1     -35.167  12.899  -7.149  1.00 20.00     0.015 C 
HETATM    3  C3  UNL     1     -34.246  15.151  -7.755  1.00 20.00     0.043 C 
HETATM    4  C4  UNL     1     -33.589  15.627  -3.761  1.00 20.00     0.002 C 
HETATM    5  C5  UNL     1     -33.487  16.552  -4.960  1.00 20.00     0.006 C 
HETATM    6  C6  UNL     1     -34.123  14.344  -4.378  1.00 20.00     0.014 C 
HETATM    7  C7  UNL     1     -34.807  16.311  -5.708  1.00 20.00     0.006 C 
HETATM    8  C8  UNL     1     -35.130  14.804  -5.458  1.00 20.00    -0.017 C 
HETATM    9  C9  UNL     1     -34.764  16.506  -7.246  1.00 20.00    -0.040 C 
HETATM   10  C10 UNL     1     -36.570  14.609  -4.961  1.00 20.00     0.020 C 
HETATM   11  C11 UNL     1     -36.178  16.784  -7.801  1.00 20.00     0.015 C 
HETATM   12  C12 UNL     1     -33.857  17.659  -7.699  1.00 20.00     0.015 C 
ENDROOT
TORSDOF 0
ENDMDL
