MODEL 1
REMARK VINA RESULT:      -5.8      0.000      0.000
REMARK  0 active torsions:
REMARK  status: ('A' for Active; 'I' for Inactive)
ROOT
HETATM    1  C1  UNL     1     -34.405   4.647   5.279  1.00 20.00    -0.025 C 
HETATM    2  C2  UNL     1     -33.932   4.289   4.076  1.00 20.00    -0.025 C 
HETATM    3  C3  UNL     1     -35.374   6.057   3.726  1.00 20.00     0.017 C 
HETATM    4  C4  UNL     1     -33.616   6.980   5.027  1.00 20.00     0.013 C 
HETATM    5  C5  UNL     1     -34.864   6.081   5.169  1.00 20.00     0.009 C 
HETATM    6  C6  UNL     1     -34.062   5.492   3.168  1.00 20.00     0.012 C 
HETATM    7  C7  UNL     1     -33.025   6.540   3.650  1.00 20.00    -0.010 C 
HETATM    8  C8  UNL     1     -32.866   7.709   2.688  1.00 20.00     0.010 C 
ENDROOT
TORSDOF 0
ENDMDL
MODEL 2
REMARK VINA RESULT:      -5.4      1.037      2.051
REMARK  0 active torsions:
REMARK  status: ('A' for Active; 'I' for Inactive)
ROOT
HETATM    1  C1  UNL     1     -33.711   4.498   3.247  1.00 20.00    -0.025 C 
HETATM    2  C2  UNL     1     -33.253   5.721   2.938  1.00 20.00    -0.025 C 
HETATM    3  C3  UNL     1     -35.359   6.007   3.839  1.00 20.00     0.017 C 
HETATM    4  C4  UNL     1     -34.075   5.104   5.620  1.00 20.00     0.013 C 
HETATM    5  C5  UNL     1     -34.770   4.674   4.309  1.00 20.00     0.009 C 
HETATM    6  C6  UNL     1     -33.996   6.710   3.808  1.00 20.00     0.012 C 
HETATM    7  C7  UNL     1     -33.491   6.507   5.261  1.00 20.00    -0.010 C 
HETATM    8  C8  UNL     1     -33.968   7.594   6.215  1.00 20.00     0.010 C 
ENDROOT
TORSDOF 0
ENDMDL
MODEL 3
REMARK VINA RESULT:      -5.2      0.967      1.858
REMARK  0 active torsions:
REMARK  status: ('A' for Active; 'I' for Inactive)
ROOT
HETATM    1  C1  UNL     1     -34.220   6.630   5.687  1.00 20.00    -0.025 C 
HETATM    2  C2  UNL     1     -34.319   5.293   5.696  1.00 20.00    -0.025 C 
HETATM    3  C3  UNL     1     -35.368   6.024   3.775  1.00 20.00     0.017 C 
HETATM    4  C4  UNL     1     -33.097   6.650   3.480  1.00 20.00     0.013 C 
HETATM    5  C5  UNL     1     -34.365   7.078   4.251  1.00 20.00     0.009 C 
HETATM    6  C6  UNL     1     -34.514   4.848   4.263  1.00 20.00     0.012 C 
HETATM    7  C7  UNL     1     -33.171   5.091   3.525  1.00 20.00    -0.010 C 
HETATM    8  C8  UNL     1     -33.134   4.469   2.136  1.00 20.00     0.010 C 
ENDROOT
TORSDOF 0
ENDMDL
MODEL 4
REMARK VINA RESULT:      -4.5      0.851      2.958
REMARK  0 active torsions:
REMARK  status: ('A' for Active; 'I' for Inactive)
ROOT
HETATM    1  C1  UNL     1     -32.766   6.703   2.702  1.00 20.00    -0.025 C 
HETATM    2  C2  UNL     1     -32.916   7.399   3.839  1.00 20.00    -0.025 C 
HETATM    3  C3  UNL     1     -34.991   6.542   3.304  1.00 20.00     0.017 C 
HETATM    4  C4  UNL     1     -33.652   4.626   3.716  1.00 20.00     0.013 C 
HETATM    5  C5  UNL     1     -33.897   5.704   2.638  1.00 20.00     0.009 C 
HETATM    6  C6  UNL     1     -34.139   6.851   4.541  1.00 20.00     0.012 C 
HETATM    7  C7  UNL     1     -33.775   5.431   5.049  1.00 20.00    -0.010 C 
HETATM    8  C8  UNL     1     -34.823   4.846   5.986  1.00 20.00     0.010 C 
ENDROOT
TORSDOF 0
ENDMDL
MODEL 5
REMARK VINA RESULT:      -4.4      0.862      2.478
REMARK  0 active torsions:
REMARK  status: ('A' for Active; 'I' for Inactive)
ROOT
HETATM    1  C1  UNL     1     -34.548   5.964   2.255  1.00 20.00    -0.025 C 
HETATM    2  C2  UNL     1     -35.485   6.033   3.213  1.00 20.00    -0.025 C 
HETATM    3  C3  UNL     1     -33.667   4.951   4.136  1.00 20.00     0.017 C 
HETATM    4  C4  UNL     1     -32.868   7.133   3.648  1.00 20.00     0.013 C 
HETATM    5  C5  UNL     1     -33.215   5.801   2.946  1.00 20.00     0.009 C 
HETATM    6  C6  UNL     1     -34.772   5.933   4.543  1.00 20.00     0.012 C 
HETATM    7  C7  UNL     1     -33.981   7.254   4.736  1.00 20.00    -0.010 C 
HETATM    8  C8  UNL     1     -33.406   7.405   6.138  1.00 20.00     0.010 C 
ENDROOT
TORSDOF 0
ENDMDL
MODEL 6
REMARK VINA RESULT:      -4.2      0.841      2.879
REMARK  0 active torsions:
REMARK  status: ('A' for Active; 'I' for Inactive)
ROOT
HETATM    1  C1  UNL     1     -33.512   7.540   2.343  1.00 20.00    -0.025 C 
HETATM    2  C2  UNL     1     -34.446   6.597   2.148  1.00 20.00    -0.025 C 
HETATM    3  C3  UNL     1     -32.670   5.568   3.204  1.00 20.00     0.017 C 
HETATM    4  C4  UNL     1     -33.458   7.151   4.787  1.00 20.00     0.013 C 
HETATM    5  C5  UNL     1     -32.636   7.073   3.482  1.00 20.00     0.009 C 
HETATM    6  C6  UNL     1     -34.201   5.508   3.170  1.00 20.00     0.012 C 
HETATM    7  C7  UNL     1     -34.582   6.091   4.556  1.00 20.00    -0.010 C 
HETATM    8  C8  UNL     1     -34.621   5.038   5.655  1.00 20.00     0.010 C 
ENDROOT
TORSDOF 0
ENDMDL
MODEL 7
REMARK VINA RESULT:      -4.0      0.950      1.869
REMARK  0 active torsions:
REMARK  status: ('A' for Active; 'I' for Inactive)
ROOT
HETATM    1  C1  UNL     1     -35.116   4.907   4.151  1.00 20.00    -0.025 C 
HETATM    2  C2  UNL     1     -35.523   6.151   3.857  1.00 20.00    -0.025 C 
HETATM    3  C3  UNL     1     -33.587   6.359   5.097  1.00 20.00     0.017 C 
HETATM    4  C4  UNL     1     -32.898   5.259   3.110  1.00 20.00     0.013 C 
HETATM    5  C5  UNL     1     -33.635   4.978   4.438  1.00 20.00     0.009 C 
HETATM    6  C6  UNL     1     -34.307   7.049   3.933  1.00 20.00     0.012 C 
HETATM    7  C7  UNL     1     -33.400   6.687   2.727  1.00 20.00    -0.010 C 
HETATM    8  C8  UNL     1     -32.254   7.670   2.528  1.00 20.00     0.010 C 
ENDROOT
TORSDOF 0
ENDMDL
MODEL 8
REMARK VINA RESULT:      -3.8      8.168      9.803
REMARK  0 active torsions:
REMARK  status: ('A' for Active; 'I' for Inactive)
ROOT
HETATM    1  C1  UNL     1     -41.512   7.677  -0.670  1.00 20.00    -0.025 C 
HETATM    2  C2  UNL     1     -40.806   6.727  -0.040  1.00 20.00    -0.025 C 
HETATM    3  C3  UNL     1     -42.825   6.900   1.065  1.00 20.00     0.017 C 
HETATM    4  C4  UNL     1     -43.407   6.147  -1.109  1.00 20.00     0.013 C 
HETATM    5  C5  UNL     1     -42.970   7.427  -0.365  1.00 20.00     0.009 C 
HETATM    6  C6  UNL     1     -41.797   5.833   0.673  1.00 20.00     0.012 C 
HETATM    7  C7  UNL     1     -42.556   5.034  -0.419  1.00 20.00    -0.010 C 
HETATM    8  C8  UNL     1     -43.417   3.915   0.150  1.00 20.00     0.010 C 
ENDROOT
TORSDOF 0
ENDMDL
MODEL 9
REMARK VINA RESULT:      -3.8     11.854     12.835
REMARK  0 active torsions:
REMARK  status: ('A' for Active; 'I' for Inactive)
ROOT
HETATM    1  C1  UNL     1     -33.643  16.673  -2.831  1.00 20.00    -0.025 C 
HETATM    2  C2  UNL     1     -34.905  16.351  -2.509  1.00 20.00    -0.025 C 
HETATM    3  C3  UNL     1     -34.864  16.681  -4.793  1.00 20.00     0.017 C 
HETATM    4  C4  UNL     1     -33.452  14.805  -4.445  1.00 20.00     0.013 C 
HETATM    5  C5  UNL     1     -33.457  16.342  -4.293  1.00 20.00     0.009 C 
HETATM    6  C6  UNL     1     -35.555  15.790  -3.755  1.00 20.00     0.012 C 
HETATM    7  C7  UNL     1     -34.903  14.408  -4.025  1.00 20.00    -0.010 C 
HETATM    8  C8  UNL     1     -35.621  13.611  -5.106  1.00 20.00     0.010 C 
ENDROOT
TORSDOF 0
ENDMDL
