MODEL 1
REMARK VINA RESULT:      -5.4      0.000      0.000
REMARK  1 active torsions:
REMARK  status: ('A' for Active; 'I' for Inactive)
REMARK    1  A    between atoms: C1_1  and  C4_4 
ROOT
HETATM    1  C3  UNL     1     -35.506   6.088   3.693  1.00 20.00     0.018 A 
HETATM    2  C4  UNL     1     -34.206   6.819   3.907  1.00 20.00     0.017 A 
HETATM    3  C5  UNL     1     -34.310   5.339   4.229  1.00 20.00    -0.040 A 
HETATM    4  C8  UNL     1     -34.318   4.950   5.686  1.00 20.00     0.015 C 
HETATM    5  C9  UNL     1     -33.668   4.313   3.330  1.00 20.00     0.015 C 
ENDROOT
BRANCH   2   6
HETATM    6  C1  UNL     1     -33.458   7.284   2.747  1.00 20.00    -0.019 C 
HETATM    7  C2  UNL     1     -32.294   7.961   2.736  1.00 20.00    -0.091 C 
HETATM    8  C6  UNL     1     -31.647   8.372   1.442  1.00 20.00     0.042 C 
HETATM    9  C7  UNL     1     -31.548   8.362   3.977  1.00 20.00     0.042 C 
ENDBRANCH   2   6
TORSDOF 1
ENDMDL
MODEL 2
REMARK VINA RESULT:      -5.4      1.423      4.584
REMARK  1 active torsions:
REMARK  status: ('A' for Active; 'I' for Inactive)
REMARK    1  A    between atoms: C1_1  and  C4_4 
ROOT
HETATM    1  C3  UNL     1     -31.271   8.582   1.338  1.00 20.00     0.018 A 
HETATM    2  C4  UNL     1     -32.403   8.524   2.330  1.00 20.00     0.017 A 
HETATM    3  C5  UNL     1     -32.533   9.366   1.073  1.00 20.00    -0.040 A 
HETATM    4  C8  UNL     1     -32.479  10.863   1.239  1.00 20.00     0.015 C 
HETATM    5  C9  UNL     1     -33.412   8.912  -0.065  1.00 20.00     0.015 C 
ENDROOT
BRANCH   2   6
HETATM    6  C1  UNL     1     -33.147   7.281   2.481  1.00 20.00    -0.019 C 
HETATM    7  C2  UNL     1     -33.626   6.742   3.618  1.00 20.00    -0.091 C 
HETATM    8  C6  UNL     1     -34.379   5.440   3.603  1.00 20.00     0.042 C 
HETATM    9  C7  UNL     1     -33.462   7.367   4.974  1.00 20.00     0.042 C 
ENDBRANCH   2   6
TORSDOF 1
ENDMDL
MODEL 3
REMARK VINA RESULT:      -5.0      1.504      2.739
REMARK  1 active torsions:
REMARK  status: ('A' for Active; 'I' for Inactive)
REMARK    1  A    between atoms: C1_1  and  C4_4 
ROOT
HETATM    1  C3  UNL     1     -32.523   6.235   2.904  1.00 20.00     0.018 A 
HETATM    2  C4  UNL     1     -33.379   7.342   2.347  1.00 20.00     0.017 A 
HETATM    3  C5  UNL     1     -33.721   6.715   3.688  1.00 20.00    -0.040 A 
HETATM    4  C8  UNL     1     -34.933   5.820   3.740  1.00 20.00     0.015 C 
HETATM    5  C9  UNL     1     -33.463   7.463   4.971  1.00 20.00     0.015 C 
ENDROOT
BRANCH   2   6
HETATM    6  C1  UNL     1     -32.830   8.688   2.267  1.00 20.00    -0.019 C 
HETATM    7  C2  UNL     1     -32.725   9.471   1.176  1.00 20.00    -0.091 C 
HETATM    8  C6  UNL     1     -32.128  10.848   1.262  1.00 20.00     0.042 C 
HETATM    9  C7  UNL     1     -33.181   9.059  -0.195  1.00 20.00     0.042 C 
ENDBRANCH   2   6
TORSDOF 1
ENDMDL
MODEL 4
REMARK VINA RESULT:      -4.4     11.177     12.015
REMARK  1 active torsions:
REMARK  status: ('A' for Active; 'I' for Inactive)
REMARK    1  A    between atoms: C1_1  and  C4_4 
ROOT
HETATM    1  C3  UNL     1     -33.184  14.385  -4.206  1.00 20.00     0.018 A 
HETATM    2  C4  UNL     1     -33.921  15.699  -4.177  1.00 20.00     0.017 A 
HETATM    3  C5  UNL     1     -34.340  14.612  -5.151  1.00 20.00    -0.040 A 
HETATM    4  C8  UNL     1     -34.025  14.834  -6.608  1.00 20.00     0.015 C 
HETATM    5  C9  UNL     1     -35.600  13.818  -4.916  1.00 20.00     0.015 C 
ENDROOT
BRANCH   2   6
HETATM    6  C1  UNL     1     -34.739  16.024  -3.017  1.00 20.00    -0.019 C 
HETATM    7  C2  UNL     1     -34.426  16.838  -1.991  1.00 20.00    -0.091 C 
HETATM    8  C6  UNL     1     -35.390  17.069  -0.861  1.00 20.00     0.042 C 
HETATM    9  C7  UNL     1     -33.121  17.572  -1.874  1.00 20.00     0.042 C 
ENDBRANCH   2   6
TORSDOF 1
ENDMDL
MODEL 5
REMARK VINA RESULT:      -4.3      1.337      4.472
REMARK  1 active torsions:
REMARK  status: ('A' for Active; 'I' for Inactive)
REMARK    1  A    between atoms: C1_1  and  C4_4 
ROOT
HETATM    1  C3  UNL     1     -33.378   7.772   1.378  1.00 20.00     0.018 A 
HETATM    2  C4  UNL     1     -32.313   7.579   2.426  1.00 20.00     0.017 A 
HETATM    3  C5  UNL     1     -32.253   8.774   1.490  1.00 20.00    -0.040 A 
HETATM    4  C8  UNL     1     -31.189   8.759   0.423  1.00 20.00     0.015 C 
HETATM    5  C9  UNL     1     -32.595  10.155   1.989  1.00 20.00     0.015 C 
ENDROOT
BRANCH   2   6
HETATM    6  C1  UNL     1     -32.665   7.743   3.830  1.00 20.00    -0.019 C 
HETATM    7  C2  UNL     1     -33.568   7.038   4.539  1.00 20.00    -0.091 C 
HETATM    8  C6  UNL     1     -33.816   7.335   5.992  1.00 20.00     0.042 C 
HETATM    9  C7  UNL     1     -34.392   5.920   3.967  1.00 20.00     0.042 C 
ENDBRANCH   2   6
TORSDOF 1
ENDMDL
MODEL 6
REMARK VINA RESULT:      -4.3     11.200     12.070
REMARK  1 active torsions:
REMARK  status: ('A' for Active; 'I' for Inactive)
REMARK    1  A    between atoms: C1_1  and  C4_4 
ROOT
HETATM    1  C3  UNL     1     -35.330  16.520  -4.250  1.00 20.00     0.018 A 
HETATM    2  C4  UNL     1     -34.644  16.057  -2.991  1.00 20.00     0.017 A 
HETATM    3  C5  UNL     1     -34.385  15.344  -4.307  1.00 20.00    -0.040 A 
HETATM    4  C8  UNL     1     -34.982  13.969  -4.473  1.00 20.00     0.015 C 
HETATM    5  C9  UNL     1     -33.078  15.531  -5.035  1.00 20.00     0.015 C 
ENDROOT
BRANCH   2   6
HETATM    6  C1  UNL     1     -33.629  16.907  -2.386  1.00 20.00    -0.019 C 
HETATM    7  C2  UNL     1     -33.714  17.598  -1.232  1.00 20.00    -0.091 C 
HETATM    8  C6  UNL     1     -32.567  18.437  -0.743  1.00 20.00     0.042 C 
HETATM    9  C7  UNL     1     -34.927  17.599  -0.346  1.00 20.00     0.042 C 
ENDBRANCH   2   6
TORSDOF 1
ENDMDL
MODEL 7
REMARK VINA RESULT:      -4.3      0.885      4.240
REMARK  1 active torsions:
REMARK  status: ('A' for Active; 'I' for Inactive)
REMARK    1  A    between atoms: C1_1  and  C4_4 
ROOT
HETATM    1  C3  UNL     1     -33.646   8.202   2.539  1.00 20.00     0.018 A 
HETATM    2  C4  UNL     1     -33.075   6.874   2.115  1.00 20.00     0.017 A 
HETATM    3  C5  UNL     1     -32.154   8.056   2.364  1.00 20.00    -0.040 A 
HETATM    4  C8  UNL     1     -31.521   8.702   1.158  1.00 20.00     0.015 C 
HETATM    5  C9  UNL     1     -31.296   8.110   3.603  1.00 20.00     0.015 C 
ENDROOT
BRANCH   2   6
HETATM    6  C1  UNL     1     -33.126   5.753   3.043  1.00 20.00    -0.019 C 
HETATM    7  C2  UNL     1     -34.182   5.327   3.761  1.00 20.00    -0.091 C 
HETATM    8  C6  UNL     1     -34.068   4.144   4.682  1.00 20.00     0.042 C 
HETATM    9  C7  UNL     1     -35.538   5.971   3.717  1.00 20.00     0.042 C 
ENDBRANCH   2   6
TORSDOF 1
ENDMDL
MODEL 8
REMARK VINA RESULT:      -4.1     11.252     12.292
REMARK  1 active torsions:
REMARK  status: ('A' for Active; 'I' for Inactive)
REMARK    1  A    between atoms: C1_1  and  C4_4 
ROOT
HETATM    1  C3  UNL     1     -34.285  18.461  -2.627  1.00 20.00     0.018 A 
HETATM    2  C4  UNL     1     -33.646  17.097  -2.584  1.00 20.00     0.017 A 
HETATM    3  C5  UNL     1     -34.022  17.804  -1.293  1.00 20.00    -0.040 A 
HETATM    4  C8  UNL     1     -32.894  18.346  -0.453  1.00 20.00     0.015 C 
HETATM    5  C9  UNL     1     -35.214  17.349  -0.490  1.00 20.00     0.015 C 
ENDROOT
BRANCH   2   6
HETATM    6  C1  UNL     1     -34.403  15.947  -3.058  1.00 20.00    -0.019 C 
HETATM    7  C2  UNL     1     -34.154  15.187  -4.142  1.00 20.00    -0.091 C 
HETATM    8  C6  UNL     1     -35.040  14.026  -4.496  1.00 20.00     0.042 C 
HETATM    9  C7  UNL     1     -33.001  15.418  -5.077  1.00 20.00     0.042 C 
ENDBRANCH   2   6
TORSDOF 1
ENDMDL
MODEL 9
REMARK VINA RESULT:      -3.8     11.165     12.505
REMARK  1 active torsions:
REMARK  status: ('A' for Active; 'I' for Inactive)
REMARK    1  A    between atoms: C1_1  and  C4_4 
ROOT
HETATM    1  C3  UNL     1     -33.142  17.817  -1.478  1.00 20.00     0.018 A 
HETATM    2  C4  UNL     1     -33.749  16.717  -2.308  1.00 20.00     0.017 A 
HETATM    3  C5  UNL     1     -34.640  17.761  -1.658  1.00 20.00    -0.040 A 
HETATM    4  C8  UNL     1     -35.475  17.318  -0.483  1.00 20.00     0.015 C 
HETATM    5  C9  UNL     1     -35.285  18.842  -2.489  1.00 20.00     0.015 C 
ENDROOT
BRANCH   2   6
HETATM    6  C1  UNL     1     -33.525  16.712  -3.747  1.00 20.00    -0.019 C 
HETATM    7  C2  UNL     1     -33.706  15.690  -4.605  1.00 20.00    -0.091 C 
HETATM    8  C6  UNL     1     -33.426  15.850  -6.074  1.00 20.00     0.042 C 
HETATM    9  C7  UNL     1     -34.192  14.329  -4.194  1.00 20.00     0.042 C 
ENDBRANCH   2   6
TORSDOF 1
ENDMDL
