MODEL 1
REMARK VINA RESULT:      -6.2      0.000      0.000
REMARK  2 active torsions:
REMARK  status: ('A' for Active; 'I' for Inactive)
REMARK    1  A    between atoms: C1_1  and  C2_2 
REMARK    2  A    between atoms: C1_1  and  C3_3 
ROOT
HETATM    1  C1  UNL     1     -33.602   6.159   3.036  1.00 20.00     0.386 C 
HETATM    2  F4  UNL     1     -32.528   5.327   2.903  1.00 20.00    -0.191 F 
HETATM    3  F5  UNL     1     -34.298   6.052   1.867  1.00 20.00    -0.191 F 
ENDROOT
BRANCH   1   4
HETATM    4  C2  UNL     1     -33.069   7.582   3.132  1.00 20.00     0.390 C 
HETATM    5  F6  UNL     1     -32.072   7.604   4.058  1.00 20.00    -0.181 F 
HETATM    6  F7  UNL     1     -34.030   8.420   3.595  1.00 20.00    -0.181 F 
HETATM    7 CL9  UNL     1     -32.431   8.204   1.602  1.00 20.00    -0.042 Cl
ENDBRANCH   1   4
BRANCH   1   8
HETATM    8  C3  UNL     1     -34.486   5.643   4.175  1.00 20.00     0.328 C 
HETATM    9  F8  UNL     1     -35.794   5.836   3.861  1.00 20.00    -0.200 F 
HETATM   10 CL10 UNL     1     -34.147   6.460   5.721  1.00 20.00    -0.059 Cl
HETATM   11 CL11 UNL     1     -34.236   3.885   4.397  1.00 20.00    -0.059 Cl
ENDBRANCH   1   8
TORSDOF 2
ENDMDL
MODEL 2
REMARK VINA RESULT:      -5.7      1.113      3.467
REMARK  2 active torsions:
REMARK  status: ('A' for Active; 'I' for Inactive)
REMARK    1  A    between atoms: C1_1  and  C2_2 
REMARK    2  A    between atoms: C1_1  and  C3_3 
ROOT
HETATM    1  C1  UNL     1     -33.565   6.232   2.898  1.00 20.00     0.386 C 
HETATM    2  F4  UNL     1     -34.261   5.994   1.748  1.00 20.00    -0.191 F 
HETATM    3  F5  UNL     1     -32.454   5.443   2.825  1.00 20.00    -0.191 F 
ENDROOT
BRANCH   1   4
HETATM    4  C2  UNL     1     -34.415   5.733   4.059  1.00 20.00     0.390 C 
HETATM    5  F6  UNL     1     -35.722   5.973   3.765  1.00 20.00    -0.181 F 
HETATM    6  F7  UNL     1     -34.146   6.441   5.183  1.00 20.00    -0.181 F 
HETATM    7 CL9  UNL     1     -34.219   4.004   4.388  1.00 20.00    -0.042 Cl
ENDBRANCH   1   4
BRANCH   1   8
HETATM    8  C3  UNL     1     -33.119   7.697   2.909  1.00 20.00     0.328 C 
HETATM    9  F8  UNL     1     -34.120   8.475   3.400  1.00 20.00    -0.200 F 
HETATM   10 CL10 UNL     1     -32.686   8.287   1.285  1.00 20.00    -0.059 Cl
HETATM   11 CL11 UNL     1     -31.701   7.898   3.982  1.00 20.00    -0.059 Cl
ENDBRANCH   1   8
TORSDOF 2
ENDMDL
MODEL 3
REMARK VINA RESULT:      -5.7      1.093      3.402
REMARK  2 active torsions:
REMARK  status: ('A' for Active; 'I' for Inactive)
REMARK    1  A    between atoms: C1_1  and  C2_2 
REMARK    2  A    between atoms: C1_1  and  C3_3 
ROOT
HETATM    1  C1  UNL     1     -33.594   6.168   2.948  1.00 20.00     0.386 C 
HETATM    2  F4  UNL     1     -34.190   5.915   1.747  1.00 20.00    -0.191 F 
HETATM    3  F5  UNL     1     -32.461   5.407   2.964  1.00 20.00    -0.191 F 
ENDROOT
BRANCH   1   4
HETATM    4  C2  UNL     1     -34.520   5.646   4.038  1.00 20.00     0.390 C 
HETATM    5  F6  UNL     1     -34.412   4.290   4.077  1.00 20.00    -0.181 F 
HETATM    6  F7  UNL     1     -35.814   5.910   3.729  1.00 20.00    -0.181 F 
HETATM    7 CL9  UNL     1     -34.154   6.288   5.646  1.00 20.00    -0.042 Cl
ENDBRANCH   1   4
BRANCH   1   8
HETATM    8  C3  UNL     1     -33.187   7.644   2.994  1.00 20.00     0.328 C 
HETATM    9  F8  UNL     1     -34.194   8.378   3.537  1.00 20.00    -0.200 F 
HETATM   10 CL10 UNL     1     -32.817   8.296   1.379  1.00 20.00    -0.059 Cl
HETATM   11 CL11 UNL     1     -31.746   7.850   4.033  1.00 20.00    -0.059 Cl
ENDBRANCH   1   8
TORSDOF 2
ENDMDL
MODEL 4
REMARK VINA RESULT:      -5.5      0.762      2.185
REMARK  2 active torsions:
REMARK  status: ('A' for Active; 'I' for Inactive)
REMARK    1  A    between atoms: C1_1  and  C2_2 
REMARK    2  A    between atoms: C1_1  and  C3_3 
ROOT
HETATM    1  C1  UNL     1     -33.820   6.779   3.993  1.00 20.00     0.386 C 
HETATM    2  F4  UNL     1     -34.520   7.949   3.931  1.00 20.00    -0.191 F 
HETATM    3  F5  UNL     1     -32.832   6.989   4.910  1.00 20.00    -0.191 F 
ENDROOT
BRANCH   1   4
HETATM    4  C2  UNL     1     -33.159   6.569   2.637  1.00 20.00     0.390 C 
HETATM    5  F6  UNL     1     -34.116   6.182   1.750  1.00 20.00    -0.181 F 
HETATM    6  F7  UNL     1     -32.268   5.550   2.695  1.00 20.00    -0.181 F 
HETATM    7 CL9  UNL     1     -32.360   8.018   2.007  1.00 20.00    -0.042 Cl
ENDBRANCH   1   4
BRANCH   1   8
HETATM    8  C3  UNL     1     -34.746   5.679   4.521  1.00 20.00     0.328 C 
HETATM    9  F8  UNL     1     -35.970   5.797   3.943  1.00 20.00    -0.200 F 
HETATM   10 CL10 UNL     1     -34.943   5.749   6.289  1.00 20.00    -0.059 Cl
HETATM   11 CL11 UNL     1     -34.095   4.070   4.086  1.00 20.00    -0.059 Cl
ENDBRANCH   1   8
TORSDOF 2
ENDMDL
MODEL 5
REMARK VINA RESULT:      -5.5      1.295      3.605
REMARK  2 active torsions:
REMARK  status: ('A' for Active; 'I' for Inactive)
REMARK    1  A    between atoms: C1_1  and  C2_2 
REMARK    2  A    between atoms: C1_1  and  C3_3 
ROOT
HETATM    1  C1  UNL     1     -33.727   7.065   4.132  1.00 20.00     0.386 C 
HETATM    2  F4  UNL     1     -33.236   7.167   5.401  1.00 20.00    -0.191 F 
HETATM    3  F5  UNL     1     -34.619   8.088   3.998  1.00 20.00    -0.191 F 
ENDROOT
BRANCH   1   4
HETATM    4  C2  UNL     1     -34.502   5.757   4.044  1.00 20.00     0.390 C 
HETATM    5  F6  UNL     1     -33.899   4.964   3.117  1.00 20.00    -0.181 F 
HETATM    6  F7  UNL     1     -35.759   5.979   3.587  1.00 20.00    -0.181 F 
HETATM    7 CL9  UNL     1     -34.578   4.875   5.577  1.00 20.00    -0.042 Cl
ENDBRANCH   1   4
BRANCH   1   8
HETATM    8  C3  UNL     1     -32.580   7.290   3.142  1.00 20.00     0.328 C 
HETATM    9  F8  UNL     1     -32.076   6.091   2.747  1.00 20.00    -0.200 F 
HETATM   10 CL10 UNL     1     -31.259   8.257   3.842  1.00 20.00    -0.059 Cl
HETATM   11 CL11 UNL     1     -33.186   8.129   1.682  1.00 20.00    -0.059 Cl
ENDBRANCH   1   8
TORSDOF 2
ENDMDL
MODEL 6
REMARK VINA RESULT:      -5.4      1.336      3.518
REMARK  2 active torsions:
REMARK  status: ('A' for Active; 'I' for Inactive)
REMARK    1  A    between atoms: C1_1  and  C2_2 
REMARK    2  A    between atoms: C1_1  and  C3_3 
ROOT
HETATM    1  C1  UNL     1     -33.840   6.740   4.195  1.00 20.00     0.386 C 
HETATM    2  F4  UNL     1     -32.916   6.974   5.172  1.00 20.00    -0.191 F 
HETATM    3  F5  UNL     1     -34.582   7.882   4.108  1.00 20.00    -0.191 F 
ENDROOT
BRANCH   1   4
HETATM    4  C2  UNL     1     -34.755   5.628   4.689  1.00 20.00     0.390 C 
HETATM    5  F6  UNL     1     -35.964   5.767   4.079  1.00 20.00    -0.181 F 
HETATM    6  F7  UNL     1     -34.988   5.758   6.018  1.00 20.00    -0.181 F 
HETATM    7 CL9  UNL     1     -34.139   4.002   4.354  1.00 20.00    -0.042 Cl
ENDBRANCH   1   4
BRANCH   1   8
HETATM    8  C3  UNL     1     -33.109   6.535   2.865  1.00 20.00     0.328 C 
HETATM    9  F8  UNL     1     -32.267   5.472   2.967  1.00 20.00    -0.200 F 
HETATM   10 CL10 UNL     1     -32.163   7.965   2.383  1.00 20.00    -0.059 Cl
HETATM   11 CL11 UNL     1     -34.287   6.170   1.569  1.00 20.00    -0.059 Cl
ENDBRANCH   1   8
TORSDOF 2
ENDMDL
MODEL 7
REMARK VINA RESULT:      -5.3      1.117      1.431
REMARK  2 active torsions:
REMARK  status: ('A' for Active; 'I' for Inactive)
REMARK    1  A    between atoms: C1_1  and  C2_2 
REMARK    2  A    between atoms: C1_1  and  C3_3 
ROOT
HETATM    1  C1  UNL     1     -33.376   6.180   2.950  1.00 20.00     0.386 C 
HETATM    2  F4  UNL     1     -32.304   5.341   2.850  1.00 20.00    -0.191 F 
HETATM    3  F5  UNL     1     -34.046   6.065   1.767  1.00 20.00    -0.191 F 
ENDROOT
BRANCH   1   4
HETATM    4  C2  UNL     1     -32.838   7.601   3.043  1.00 20.00     0.390 C 
HETATM    5  F6  UNL     1     -31.945   7.654   4.070  1.00 20.00    -0.181 F 
HETATM    6  F7  UNL     1     -33.831   8.466   3.366  1.00 20.00    -0.181 F 
HETATM    7 CL9  UNL     1     -32.032   8.152   1.566  1.00 20.00    -0.042 Cl
ENDBRANCH   1   4
BRANCH   1   8
HETATM    8  C3  UNL     1     -34.288   5.680   4.074  1.00 20.00     0.328 C 
HETATM    9  F8  UNL     1     -33.985   6.328   5.230  1.00 20.00    -0.200 F 
HETATM   10 CL10 UNL     1     -34.131   3.927   4.348  1.00 20.00    -0.059 Cl
HETATM   11 CL11 UNL     1     -35.997   6.042   3.684  1.00 20.00    -0.059 Cl
ENDBRANCH   1   8
TORSDOF 2
ENDMDL
MODEL 8
REMARK VINA RESULT:      -5.3      1.189      2.104
REMARK  2 active torsions:
REMARK  status: ('A' for Active; 'I' for Inactive)
REMARK    1  A    between atoms: C1_1  and  C2_2 
REMARK    2  A    between atoms: C1_1  and  C3_3 
ROOT
HETATM    1  C1  UNL     1     -33.649   7.134   4.203  1.00 20.00     0.386 C 
HETATM    2  F4  UNL     1     -34.574   8.131   4.090  1.00 20.00    -0.191 F 
HETATM    3  F5  UNL     1     -33.228   7.167   5.500  1.00 20.00    -0.191 F 
ENDROOT
BRANCH   1   4
HETATM    4  C2  UNL     1     -32.465   7.507   3.320  1.00 20.00     0.390 C 
HETATM    5  F6  UNL     1     -31.835   6.361   2.945  1.00 20.00    -0.181 F 
HETATM    6  F7  UNL     1     -31.554   8.223   4.024  1.00 20.00    -0.181 F 
HETATM    7 CL9  UNL     1     -32.923   8.402   1.863  1.00 20.00    -0.042 Cl
ENDBRANCH   1   4
BRANCH   1   8
HETATM    8  C3  UNL     1     -34.340   5.791   3.952  1.00 20.00     0.328 C 
HETATM    9  F8  UNL     1     -35.560   6.003   3.392  1.00 20.00    -0.200 F 
HETATM   10 CL10 UNL     1     -34.557   4.849   5.448  1.00 20.00    -0.059 Cl
HETATM   11 CL11 UNL     1     -33.379   4.813   2.801  1.00 20.00    -0.059 Cl
ENDBRANCH   1   8
TORSDOF 2
ENDMDL
MODEL 9
REMARK VINA RESULT:      -5.1      1.328      3.535
REMARK  2 active torsions:
REMARK  status: ('A' for Active; 'I' for Inactive)
REMARK    1  A    between atoms: C1_1  and  C2_2 
REMARK    2  A    between atoms: C1_1  and  C3_3 
ROOT
HETATM    1  C1  UNL     1     -33.890   6.674   4.118  1.00 20.00     0.386 C 
HETATM    2  F4  UNL     1     -32.836   6.850   4.967  1.00 20.00    -0.191 F 
HETATM    3  F5  UNL     1     -34.557   7.864   4.105  1.00 20.00    -0.191 F 
ENDROOT
BRANCH   1   4
HETATM    4  C2  UNL     1     -34.810   5.632   4.740  1.00 20.00     0.390 C 
HETATM    5  F6  UNL     1     -36.008   5.681   4.096  1.00 20.00    -0.181 F 
HETATM    6  F7  UNL     1     -35.067   5.938   6.036  1.00 20.00    -0.181 F 
HETATM    7 CL9  UNL     1     -34.181   3.980   4.636  1.00 20.00    -0.042 Cl
ENDBRANCH   1   4
BRANCH   1   8
HETATM    8  C3  UNL     1     -33.348   6.408   2.710  1.00 20.00     0.328 C 
HETATM    9  F8  UNL     1     -34.368   6.446   1.813  1.00 20.00    -0.200 F 
HETATM   10 CL10 UNL     1     -32.539   4.826   2.582  1.00 20.00    -0.059 Cl
HETATM   11 CL11 UNL     1     -32.177   7.681   2.253  1.00 20.00    -0.059 Cl
ENDBRANCH   1   8
TORSDOF 2
ENDMDL
