MODEL 1
REMARK VINA RESULT:      -7.7      0.000      0.000
REMARK  0 active torsions:
REMARK  status: ('A' for Active; 'I' for Inactive)
ROOT
HETATM    1  C1  UNL     1     -34.332   5.987   5.902  1.00 20.00    -0.021 C 
HETATM    2  C2  UNL     1     -34.065   4.174   4.197  1.00 20.00    -0.021 C 
HETATM    3  C3  UNL     1     -33.767   7.168   5.615  1.00 20.00    -0.023 C 
HETATM    4  C4  UNL     1     -33.372   4.485   3.093  1.00 20.00    -0.023 C 
HETATM    5  C5  UNL     1     -34.922   5.299   4.703  1.00 20.00     0.035 C 
HETATM    6  C6  UNL     1     -33.889   7.471   4.170  1.00 20.00     0.033 A 
HETATM    7  C7  UNL     1     -33.655   5.877   2.671  1.00 20.00     0.033 A 
HETATM    8  C8  UNL     1     -34.792   6.361   3.594  1.00 20.00     0.015 A 
HETATM    9  C9  UNL     1     -32.732   6.978   3.260  1.00 20.00     0.098 A 
HETATM   10 CL10 UNL     1     -32.026   8.172   2.102  1.00 20.00    -0.124 Cl
ENDROOT
TORSDOF 0
ENDMDL
MODEL 2
REMARK VINA RESULT:      -6.0      1.572      2.412
REMARK  0 active torsions:
REMARK  status: ('A' for Active; 'I' for Inactive)
ROOT
HETATM    1  C1  UNL     1     -33.120   7.702   4.723  1.00 20.00    -0.021 C 
HETATM    2  C2  UNL     1     -34.358   5.890   5.928  1.00 20.00    -0.021 C 
HETATM    3  C3  UNL     1     -32.515   7.355   3.578  1.00 20.00    -0.023 C 
HETATM    4  C4  UNL     1     -34.347   4.676   5.361  1.00 20.00    -0.023 C 
HETATM    5  C5  UNL     1     -34.440   7.014   4.934  1.00 20.00     0.035 C 
HETATM    6  C6  UNL     1     -33.335   6.377   2.827  1.00 20.00     0.033 A 
HETATM    7  C7  UNL     1     -34.424   4.785   3.885  1.00 20.00     0.033 A 
HETATM    8  C8  UNL     1     -34.667   6.281   3.598  1.00 20.00     0.015 A 
HETATM    9  C9  UNL     1     -33.072   4.877   3.128  1.00 20.00     0.098 A 
HETATM   10 CL10 UNL     1     -32.839   3.778   1.713  1.00 20.00    -0.124 Cl
ENDROOT
TORSDOF 0
ENDMDL
MODEL 3
REMARK VINA RESULT:      -5.6      1.705      2.664
REMARK  0 active torsions:
REMARK  status: ('A' for Active; 'I' for Inactive)
ROOT
HETATM    1  C1  UNL     1     -34.042   3.926   4.071  1.00 20.00    -0.021 C 
HETATM    2  C2  UNL     1     -32.917   5.595   2.581  1.00 20.00    -0.021 C 
HETATM    3  C3  UNL     1     -34.350   4.339   5.309  1.00 20.00    -0.023 C 
HETATM    4  C4  UNL     1     -32.686   6.806   3.105  1.00 20.00    -0.023 C 
HETATM    5  C5  UNL     1     -34.220   4.990   3.024  1.00 20.00     0.035 C 
HETATM    6  C6  UNL     1     -34.791   5.752   5.296  1.00 20.00     0.033 A 
HETATM    7  C7  UNL     1     -33.803   7.219   3.987  1.00 20.00     0.033 A 
HETATM    8  C8  UNL     1     -34.888   6.138   3.806  1.00 20.00     0.015 A 
HETATM    9  C9  UNL     1     -33.684   6.824   5.484  1.00 20.00     0.098 A 
HETATM   10 CL10 UNL     1     -33.985   8.119   6.707  1.00 20.00    -0.124 Cl
ENDROOT
TORSDOF 0
ENDMDL
MODEL 4
REMARK VINA RESULT:      -5.0      1.107      2.410
REMARK  0 active torsions:
REMARK  status: ('A' for Active; 'I' for Inactive)
ROOT
HETATM    1  C1  UNL     1     -35.367   5.777   3.980  1.00 20.00    -0.021 C 
HETATM    2  C2  UNL     1     -34.095   6.916   5.812  1.00 20.00    -0.021 C 
HETATM    3  C3  UNL     1     -35.057   6.132   2.726  1.00 20.00    -0.023 C 
HETATM    4  C4  UNL     1     -33.176   7.816   5.435  1.00 20.00    -0.023 C 
HETATM    5  C5  UNL     1     -34.178   5.726   4.898  1.00 20.00     0.035 C 
HETATM    6  C6  UNL     1     -33.602   6.373   2.593  1.00 20.00     0.033 A 
HETATM    7  C7  UNL     1     -32.484   7.373   4.202  1.00 20.00     0.033 A 
HETATM    8  C8  UNL     1     -32.990   5.940   3.940  1.00 20.00     0.015 A 
HETATM    9  C9  UNL     1     -33.114   7.823   2.856  1.00 20.00     0.098 A 
HETATM   10 CL10 UNL     1     -32.010   8.559   1.631  1.00 20.00    -0.124 Cl
ENDROOT
TORSDOF 0
ENDMDL
