MODEL 1
REMARK VINA RESULT:      -5.0      0.000      0.000
REMARK  0 active torsions:
REMARK  status: ('A' for Active; 'I' for Inactive)
ROOT
HETATM    1  C1  UNL     1     -33.534   7.677   5.383  1.00 20.00     0.006 C 
HETATM    2  C2  UNL     1     -33.923   6.202   5.486  1.00 20.00     0.009 C 
HETATM    3  C3  UNL     1     -32.677   7.936   4.170  1.00 20.00    -0.005 A 
HETATM    4  C4  UNL     1     -32.096   6.811   3.371  1.00 20.00    -0.000 A 
HETATM    5  C5  UNL     1     -33.248   7.656   2.822  1.00 20.00    -0.000 A 
HETATM    6  C6  UNL     1     -33.406   6.178   3.012  1.00 20.00     0.003 A 
HETATM    7  C7  UNL     1     -34.315   5.613   4.107  1.00 20.00    -0.043 C 
HETATM    8  C8  UNL     1     -34.152   4.081   4.159  1.00 20.00     0.015 C 
HETATM    9  C9  UNL     1     -35.788   5.928   3.789  1.00 20.00     0.015 C 
ENDROOT
TORSDOF 0
ENDMDL
MODEL 2
REMARK VINA RESULT:      -4.8      0.952      3.233
REMARK  0 active torsions:
REMARK  status: ('A' for Active; 'I' for Inactive)
ROOT
HETATM    1  C1  UNL     1     -33.528   4.817   2.901  1.00 20.00     0.006 C 
HETATM    2  C2  UNL     1     -32.384   5.831   2.913  1.00 20.00     0.009 C 
HETATM    3  C3  UNL     1     -34.462   5.028   4.065  1.00 20.00    -0.005 A 
HETATM    4  C4  UNL     1     -34.107   5.945   5.194  1.00 20.00    -0.000 A 
HETATM    5  C5  UNL     1     -35.182   6.329   4.175  1.00 20.00    -0.000 A 
HETATM    6  C6  UNL     1     -33.961   7.180   4.356  1.00 20.00     0.003 A 
HETATM    7  C7  UNL     1     -32.880   7.254   3.275  1.00 20.00    -0.043 C 
HETATM    8  C8  UNL     1     -31.688   8.073   3.807  1.00 20.00     0.015 C 
HETATM    9  C9  UNL     1     -33.429   7.964   2.024  1.00 20.00     0.015 C 
ENDROOT
TORSDOF 0
ENDMDL
MODEL 3
REMARK VINA RESULT:      -4.7      0.714      3.005
REMARK  0 active torsions:
REMARK  status: ('A' for Active; 'I' for Inactive)
ROOT
HETATM    1  C1  UNL     1     -33.812   6.700   5.761  1.00 20.00     0.006 C 
HETATM    2  C2  UNL     1     -33.587   7.826   4.752  1.00 20.00     0.009 C 
HETATM    3  C3  UNL     1     -34.649   5.593   5.172  1.00 20.00    -0.005 A 
HETATM    4  C4  UNL     1     -35.363   5.765   3.867  1.00 20.00    -0.000 A 
HETATM    5  C5  UNL     1     -34.131   4.863   3.981  1.00 20.00    -0.000 A 
HETATM    6  C6  UNL     1     -34.136   6.038   3.051  1.00 20.00     0.003 A 
HETATM    7  C7  UNL     1     -33.281   7.277   3.335  1.00 20.00    -0.043 C 
HETATM    8  C8  UNL     1     -33.612   8.368   2.299  1.00 20.00     0.015 C 
HETATM    9  C9  UNL     1     -31.787   6.931   3.206  1.00 20.00     0.015 C 
ENDROOT
TORSDOF 0
ENDMDL
MODEL 4
REMARK VINA RESULT:      -4.4      1.138      2.920
REMARK  0 active torsions:
REMARK  status: ('A' for Active; 'I' for Inactive)
ROOT
HETATM    1  C1  UNL     1     -33.944   6.912   5.656  1.00 20.00     0.006 C 
HETATM    2  C2  UNL     1     -34.183   7.342   4.208  1.00 20.00     0.009 C 
HETATM    3  C3  UNL     1     -34.415   5.499   5.895  1.00 20.00    -0.005 A 
HETATM    4  C4  UNL     1     -35.247   4.773   4.884  1.00 20.00    -0.000 A 
HETATM    5  C5  UNL     1     -33.782   4.396   5.118  1.00 20.00    -0.000 A 
HETATM    6  C6  UNL     1     -34.248   4.853   3.769  1.00 20.00     0.003 A 
HETATM    7  C7  UNL     1     -33.828   6.214   3.206  1.00 20.00    -0.043 C 
HETATM    8  C8  UNL     1     -34.581   6.470   1.887  1.00 20.00     0.015 C 
HETATM    9  C9  UNL     1     -32.318   6.221   2.906  1.00 20.00     0.015 C 
ENDROOT
TORSDOF 0
ENDMDL
MODEL 5
REMARK VINA RESULT:      -4.1      1.055      1.911
REMARK  0 active torsions:
REMARK  status: ('A' for Active; 'I' for Inactive)
ROOT
HETATM    1  C1  UNL     1     -34.744   5.675   5.896  1.00 20.00     0.006 C 
HETATM    2  C2  UNL     1     -34.240   4.893   4.683  1.00 20.00     0.009 C 
HETATM    3  C3  UNL     1     -34.011   6.984   6.049  1.00 20.00    -0.005 A 
HETATM    4  C4  UNL     1     -32.780   7.286   5.252  1.00 20.00    -0.000 A 
HETATM    5  C5  UNL     1     -34.107   7.987   4.951  1.00 20.00    -0.000 A 
HETATM    6  C6  UNL     1     -33.427   7.156   3.906  1.00 20.00     0.003 A 
HETATM    7  C7  UNL     1     -34.011   5.814   3.458  1.00 20.00    -0.043 C 
HETATM    8  C8  UNL     1     -33.020   5.126   2.499  1.00 20.00     0.015 C 
HETATM    9  C9  UNL     1     -35.334   6.037   2.702  1.00 20.00     0.015 C 
ENDROOT
TORSDOF 0
ENDMDL
MODEL 6
REMARK VINA RESULT:      -4.0     11.618     12.764
REMARK  0 active torsions:
REMARK  status: ('A' for Active; 'I' for Inactive)
ROOT
HETATM    1  C1  UNL     1     -33.871  16.203  -6.187  1.00 20.00     0.006 C 
HETATM    2  C2  UNL     1     -35.342  15.792  -6.243  1.00 20.00     0.009 C 
HETATM    3  C3  UNL     1     -33.257  15.867  -4.851  1.00 20.00    -0.005 A 
HETATM    4  C4  UNL     1     -34.101  15.443  -3.689  1.00 20.00    -0.000 A 
HETATM    5  C5  UNL     1     -33.212  14.439  -4.427  1.00 20.00    -0.000 A 
HETATM    6  C6  UNL     1     -34.695  14.239  -4.356  1.00 20.00     0.003 A 
HETATM    7  C7  UNL     1     -35.577  14.402  -5.598  1.00 20.00    -0.043 C 
HETATM    8  C8  UNL     1     -37.057  14.292  -5.185  1.00 20.00     0.015 C 
HETATM    9  C9  UNL     1     -35.276  13.284  -6.612  1.00 20.00     0.015 C 
ENDROOT
TORSDOF 0
ENDMDL
MODEL 7
REMARK VINA RESULT:      -3.9     11.443     13.299
REMARK  0 active torsions:
REMARK  status: ('A' for Active; 'I' for Inactive)
ROOT
HETATM    1  C1  UNL     1     -33.137  14.527  -4.541  1.00 20.00     0.006 C 
HETATM    2  C2  UNL     1     -33.134  15.645  -5.583  1.00 20.00     0.009 C 
HETATM    3  C3  UNL     1     -34.532  14.240  -4.047  1.00 20.00    -0.005 A 
HETATM    4  C4  UNL     1     -35.677  15.149  -4.369  1.00 20.00    -0.000 A 
HETATM    5  C5  UNL     1     -35.553  13.773  -5.027  1.00 20.00    -0.000 A 
HETATM    6  C6  UNL     1     -35.567  15.019  -5.859  1.00 20.00     0.003 A 
HETATM    7  C7  UNL     1     -34.308  15.502  -6.584  1.00 20.00    -0.043 C 
HETATM    8  C8  UNL     1     -34.587  16.877  -7.221  1.00 20.00     0.015 C 
HETATM    9  C9  UNL     1     -33.935  14.519  -7.709  1.00 20.00     0.015 C 
ENDROOT
TORSDOF 0
ENDMDL
MODEL 8
REMARK VINA RESULT:      -3.9     11.504     12.885
REMARK  0 active torsions:
REMARK  status: ('A' for Active; 'I' for Inactive)
ROOT
HETATM    1  C1  UNL     1     -33.146  14.591  -4.444  1.00 20.00     0.006 C 
HETATM    2  C2  UNL     1     -34.610  14.395  -4.048  1.00 20.00     0.009 C 
HETATM    3  C3  UNL     1     -33.003  15.646  -5.512  1.00 20.00    -0.005 A 
HETATM    4  C4  UNL     1     -34.195  16.189  -6.238  1.00 20.00    -0.000 A 
HETATM    5  C5  UNL     1     -33.447  17.036  -5.206  1.00 20.00    -0.000 A 
HETATM    6  C6  UNL     1     -34.898  16.710  -5.021  1.00 20.00     0.003 A 
HETATM    7  C7  UNL     1     -35.359  15.745  -3.925  1.00 20.00    -0.043 C 
HETATM    8  C8  UNL     1     -36.871  15.488  -4.081  1.00 20.00     0.015 C 
HETATM    9  C9  UNL     1     -35.119  16.366  -2.536  1.00 20.00     0.015 C 
ENDROOT
TORSDOF 0
ENDMDL
MODEL 9
REMARK VINA RESULT:      -3.8      8.230     10.034
REMARK  0 active torsions:
REMARK  status: ('A' for Active; 'I' for Inactive)
ROOT
HETATM    1  C1  UNL     1     -40.758   6.118   0.233  1.00 20.00     0.006 C 
HETATM    2  C2  UNL     1     -41.347   5.151  -0.794  1.00 20.00     0.009 C 
HETATM    3  C3  UNL     1     -41.517   7.421   0.260  1.00 20.00    -0.005 A 
HETATM    4  C4  UNL     1     -42.525   7.759  -0.795  1.00 20.00    -0.000 A 
HETATM    5  C5  UNL     1     -42.962   7.396   0.627  1.00 20.00    -0.000 A 
HETATM    6  C6  UNL     1     -43.417   6.580  -0.544  1.00 20.00     0.003 A 
HETATM    7  C7  UNL     1     -42.897   5.158  -0.769  1.00 20.00    -0.043 C 
HETATM    8  C8  UNL     1     -43.416   4.637  -2.123  1.00 20.00     0.015 C 
HETATM    9  C9  UNL     1     -43.417   4.222   0.337  1.00 20.00     0.015 C 
ENDROOT
TORSDOF 0
ENDMDL
