MODEL 1
REMARK VINA RESULT:      -4.9      0.000      0.000
REMARK  0 active torsions:
REMARK  status: ('A' for Active; 'I' for Inactive)
ROOT
HETATM    1  C1  UNL     1     -33.853   7.319   5.974  1.00 20.00     0.004 C 
HETATM    2  C2  UNL     1     -33.397   8.175   4.788  1.00 20.00     0.005 C 
HETATM    3  C3  UNL     1     -34.015   5.817   5.681  1.00 20.00     0.042 C 
HETATM    4  C4  UNL     1     -33.067   7.161   2.418  1.00 20.00     0.013 A 
HETATM    5  C5  UNL     1     -32.563   7.404   3.813  1.00 20.00    -0.007 A 
HETATM    6  C6  UNL     1     -33.029   6.021   3.410  1.00 20.00     0.029 A 
HETATM    7  C7  UNL     1     -34.198   5.473   4.196  1.00 20.00     0.117 C 
HETATM    8 CL8  UNL     1     -35.779   6.060   3.601  1.00 20.00    -0.101 Cl
HETATM    9 CL9  UNL     1     -34.210   3.681   4.013  1.00 20.00    -0.101 Cl
ENDROOT
TORSDOF 0
ENDMDL
MODEL 2
REMARK VINA RESULT:      -4.7      1.404      2.811
REMARK  0 active torsions:
REMARK  status: ('A' for Active; 'I' for Inactive)
ROOT
HETATM    1  C1  UNL     1     -32.989   7.732   4.751  1.00 20.00     0.004 C 
HETATM    2  C2  UNL     1     -33.382   6.685   5.798  1.00 20.00     0.005 C 
HETATM    3  C3  UNL     1     -33.570   7.511   3.344  1.00 20.00     0.042 C 
HETATM    4  C4  UNL     1     -34.814   4.606   5.178  1.00 20.00     0.013 A 
HETATM    5  C5  UNL     1     -34.717   6.067   5.516  1.00 20.00    -0.007 A 
HETATM    6  C6  UNL     1     -35.021   5.640   4.095  1.00 20.00     0.029 A 
HETATM    7  C7  UNL     1     -34.012   6.068   3.055  1.00 20.00     0.117 C 
HETATM    8 CL8  UNL     1     -32.595   4.980   2.964  1.00 20.00    -0.101 Cl
HETATM    9 CL9  UNL     1     -34.808   6.017   1.441  1.00 20.00    -0.101 Cl
ENDROOT
TORSDOF 0
ENDMDL
MODEL 3
REMARK VINA RESULT:      -4.3      1.969      3.294
REMARK  0 active torsions:
REMARK  status: ('A' for Active; 'I' for Inactive)
ROOT
HETATM    1  C1  UNL     1     -34.099   5.030   3.345  1.00 20.00     0.004 C 
HETATM    2  C2  UNL     1     -34.814   5.407   4.646  1.00 20.00     0.005 C 
HETATM    3  C3  UNL     1     -32.915   5.933   2.955  1.00 20.00     0.042 C 
HETATM    4  C4  UNL     1     -34.149   7.520   6.007  1.00 20.00     0.013 A 
HETATM    5  C5  UNL     1     -33.905   6.087   5.622  1.00 20.00    -0.007 A 
HETATM    6  C6  UNL     1     -32.986   7.174   5.107  1.00 20.00     0.029 A 
HETATM    7  C7  UNL     1     -32.935   7.326   3.603  1.00 20.00     0.117 C 
HETATM    8 CL8  UNL     1     -34.281   8.307   2.952  1.00 20.00    -0.101 Cl
HETATM    9 CL9  UNL     1     -31.413   8.187   3.174  1.00 20.00    -0.101 Cl
ENDROOT
TORSDOF 0
ENDMDL
MODEL 4
REMARK VINA RESULT:      -4.2      1.163      1.784
REMARK  0 active torsions:
REMARK  status: ('A' for Active; 'I' for Inactive)
ROOT
HETATM    1  C1  UNL     1     -33.189   7.987   3.957  1.00 20.00     0.004 C 
HETATM    2  C2  UNL     1     -32.868   7.301   2.626  1.00 20.00     0.005 C 
HETATM    3  C3  UNL     1     -33.750   7.068   5.056  1.00 20.00     0.042 C 
HETATM    4  C4  UNL     1     -33.385   4.785   2.227  1.00 20.00     0.013 A 
HETATM    5  C5  UNL     1     -32.503   5.860   2.798  1.00 20.00    -0.007 A 
HETATM    6  C6  UNL     1     -33.352   5.011   3.721  1.00 20.00     0.029 A 
HETATM    7  C7  UNL     1     -34.376   5.764   4.540  1.00 20.00     0.117 C 
HETATM    8 CL8  UNL     1     -35.883   6.100   3.638  1.00 20.00    -0.101 Cl
HETATM    9 CL9  UNL     1     -34.834   4.742   5.950  1.00 20.00    -0.101 Cl
ENDROOT
TORSDOF 0
ENDMDL
MODEL 5
REMARK VINA RESULT:      -3.9      2.193      3.107
REMARK  0 active torsions:
REMARK  status: ('A' for Active; 'I' for Inactive)
ROOT
HETATM    1  C1  UNL     1     -34.124   7.015   5.451  1.00 20.00     0.004 C 
HETATM    2  C2  UNL     1     -33.832   5.552   5.104  1.00 20.00     0.005 C 
HETATM    3  C3  UNL     1     -33.996   8.010   4.285  1.00 20.00     0.042 C 
HETATM    4  C4  UNL     1     -33.032   4.845   2.734  1.00 20.00     0.013 A 
HETATM    5  C5  UNL     1     -34.139   5.231   3.674  1.00 20.00    -0.007 A 
HETATM    6  C6  UNL     1     -33.681   6.204   2.608  1.00 20.00     0.029 A 
HETATM    7  C7  UNL     1     -33.129   7.515   3.117  1.00 20.00     0.117 C 
HETATM    8 CL8  UNL     1     -31.412   7.410   3.605  1.00 20.00    -0.101 Cl
HETATM    9 CL9  UNL     1     -33.214   8.720   1.781  1.00 20.00    -0.101 Cl
ENDROOT
TORSDOF 0
ENDMDL
MODEL 6
REMARK VINA RESULT:      -3.7     12.049     13.244
REMARK  0 active torsions:
REMARK  status: ('A' for Active; 'I' for Inactive)
ROOT
HETATM    1  C1  UNL     1     -35.513  13.268  -6.012  1.00 20.00     0.004 C 
HETATM    2  C2  UNL     1     -34.733  13.972  -7.126  1.00 20.00     0.005 C 
HETATM    3  C3  UNL     1     -35.580  14.024  -4.673  1.00 20.00     0.042 C 
HETATM    4  C4  UNL     1     -33.490  16.218  -6.715  1.00 20.00     0.013 A 
HETATM    5  C5  UNL     1     -34.760  15.463  -6.991  1.00 20.00    -0.007 A 
HETATM    6  C6  UNL     1     -34.521  16.062  -5.622  1.00 20.00     0.029 A 
HETATM    7  C7  UNL     1     -34.477  15.074  -4.478  1.00 20.00     0.117 C 
HETATM    8 CL8  UNL     1     -32.881  14.288  -4.293  1.00 20.00    -0.101 Cl
HETATM    9 CL9  UNL     1     -34.793  15.969  -2.947  1.00 20.00    -0.101 Cl
ENDROOT
TORSDOF 0
ENDMDL
MODEL 7
REMARK VINA RESULT:      -3.7     12.129     13.628
REMARK  0 active torsions:
REMARK  status: ('A' for Active; 'I' for Inactive)
ROOT
HETATM    1  C1  UNL     1     -33.158  14.814  -4.512  1.00 20.00     0.004 C 
HETATM    2  C2  UNL     1     -34.417  14.013  -4.168  1.00 20.00     0.005 C 
HETATM    3  C3  UNL     1     -33.290  15.771  -5.709  1.00 20.00     0.042 C 
HETATM    4  C4  UNL     1     -36.573  14.169  -5.613  1.00 20.00     0.013 A 
HETATM    5  C5  UNL     1     -35.674  14.732  -4.547  1.00 20.00    -0.007 A 
HETATM    6  C6  UNL     1     -35.738  15.394  -5.908  1.00 20.00     0.029 A 
HETATM    7  C7  UNL     1     -34.435  15.432  -6.674  1.00 20.00     0.117 C 
HETATM    8 CL8  UNL     1     -34.093  13.910  -7.550  1.00 20.00    -0.101 Cl
HETATM    9 CL9  UNL     1     -34.550  16.730  -7.918  1.00 20.00    -0.101 Cl
ENDROOT
TORSDOF 0
ENDMDL
MODEL 8
REMARK VINA RESULT:      -3.7     11.862     12.635
REMARK  0 active torsions:
REMARK  status: ('A' for Active; 'I' for Inactive)
ROOT
HETATM    1  C1  UNL     1     -36.252  14.964  -4.419  1.00 20.00     0.004 C 
HETATM    2  C2  UNL     1     -36.194  16.362  -3.796  1.00 20.00     0.005 C 
HETATM    3  C3  UNL     1     -34.922  14.192  -4.436  1.00 20.00     0.042 C 
HETATM    4  C4  UNL     1     -33.957  17.394  -2.964  1.00 20.00     0.013 A 
HETATM    5  C5  UNL     1     -35.130  16.478  -2.749  1.00 20.00    -0.007 A 
HETATM    6  C6  UNL     1     -33.764  15.898  -3.050  1.00 20.00     0.029 A 
HETATM    7  C7  UNL     1     -33.670  15.074  -4.314  1.00 20.00     0.117 C 
HETATM    8 CL8  UNL     1     -33.452  16.068  -5.784  1.00 20.00    -0.101 Cl
HETATM    9 CL9  UNL     1     -32.222  14.011  -4.188  1.00 20.00    -0.101 Cl
ENDROOT
TORSDOF 0
ENDMDL
MODEL 9
REMARK VINA RESULT:      -3.6     12.068     12.694
REMARK  0 active torsions:
REMARK  status: ('A' for Active; 'I' for Inactive)
ROOT
HETATM    1  C1  UNL     1     -34.426  16.409  -2.838  1.00 20.00     0.004 C 
HETATM    2  C2  UNL     1     -33.504  15.670  -3.813  1.00 20.00     0.005 C 
HETATM    3  C3  UNL     1     -35.930  16.130  -3.010  1.00 20.00     0.042 C 
HETATM    4  C4  UNL     1     -34.449  14.167  -5.713  1.00 20.00     0.013 A 
HETATM    5  C5  UNL     1     -34.081  14.365  -4.268  1.00 20.00    -0.007 A 
HETATM    6  C6  UNL     1     -35.538  14.331  -4.679  1.00 20.00     0.029 A 
HETATM    7  C7  UNL     1     -36.325  15.590  -4.392  1.00 20.00     0.117 C 
HETATM    8 CL8  UNL     1     -36.114  16.848  -5.646  1.00 20.00    -0.101 Cl
HETATM    9 CL9  UNL     1     -38.076  15.169  -4.372  1.00 20.00    -0.101 Cl
ENDROOT
TORSDOF 0
ENDMDL
