MODEL 1
REMARK VINA RESULT:      -5.0      0.000      0.000
REMARK  0 active torsions:
REMARK  status: ('A' for Active; 'I' for Inactive)
ROOT
HETATM    1  C1  UNL     1     -35.532  13.511  -6.061  1.00 20.00     0.132 C 
HETATM    2  C2  UNL     1     -35.176  13.150  -7.475  1.00 20.00     0.079 C 
HETATM    3  C3  UNL     1     -34.343  14.346  -7.907  1.00 20.00     0.017 C 
HETATM    4  C4  UNL     1     -33.848  16.599  -6.818  1.00 20.00     0.011 C 
HETATM    5  C5  UNL     1     -33.139  16.032  -5.595  1.00 20.00     0.010 C 
HETATM    6  C6  UNL     1     -35.359  14.991  -5.770  1.00 20.00     0.071 C 
HETATM    7  C7  UNL     1     -34.920  15.556  -7.144  1.00 20.00    -0.033 C 
HETATM    8  C8  UNL     1     -34.260  15.393  -4.747  1.00 20.00    -0.037 C 
HETATM    9  C9  UNL     1     -36.085  16.180  -7.918  1.00 20.00     0.016 C 
HETATM   10  C10 UNL     1     -33.697  14.240  -3.909  1.00 20.00     0.015 C 
HETATM   11  C11 UNL     1     -34.839  16.447  -3.781  1.00 20.00     0.015 C 
HETATM   12  O12 UNL     1     -35.969  12.702  -5.252  1.00 20.00    -0.298 OA
ENDROOT
TORSDOF 0
ENDMDL
MODEL 2
REMARK VINA RESULT:      -4.8     11.071     13.230
REMARK  0 active torsions:
REMARK  status: ('A' for Active; 'I' for Inactive)
ROOT
HETATM    1  C1  UNL     1     -33.822   7.211   5.478  1.00 20.00     0.132 C 
HETATM    2  C2  UNL     1     -34.227   5.852   5.974  1.00 20.00     0.079 C 
HETATM    3  C3  UNL     1     -34.212   5.030   4.696  1.00 20.00     0.017 C 
HETATM    4  C4  UNL     1     -33.939   5.653   2.237  1.00 20.00     0.011 C 
HETATM    5  C5  UNL     1     -32.531   6.220   2.372  1.00 20.00     0.010 C 
HETATM    6  C6  UNL     1     -33.997   7.366   3.978  1.00 20.00     0.071 C 
HETATM    7  C7  UNL     1     -34.610   6.003   3.567  1.00 20.00    -0.033 C 
HETATM    8  C8  UNL     1     -32.711   7.554   3.125  1.00 20.00    -0.037 C 
HETATM    9  C9  UNL     1     -36.133   6.070   3.421  1.00 20.00     0.016 C 
HETATM   10  C10 UNL     1     -31.444   7.886   3.922  1.00 20.00     0.015 C 
HETATM   11  C11 UNL     1     -32.947   8.692   2.110  1.00 20.00     0.015 C 
HETATM   12  O12 UNL     1     -33.446   8.111   6.219  1.00 20.00    -0.298 OA
ENDROOT
TORSDOF 0
ENDMDL
MODEL 3
REMARK VINA RESULT:      -4.6      1.663      3.167
REMARK  0 active torsions:
REMARK  status: ('A' for Active; 'I' for Inactive)
ROOT
HETATM    1  C1  UNL     1     -35.463  13.802  -5.102  1.00 20.00     0.132 C 
HETATM    2  C2  UNL     1     -34.420  14.179  -4.089  1.00 20.00     0.079 C 
HETATM    3  C3  UNL     1     -34.517  15.695  -4.083  1.00 20.00     0.017 C 
HETATM    4  C4  UNL     1     -35.782  17.358  -5.546  1.00 20.00     0.011 C 
HETATM    5  C5  UNL     1     -37.176  16.861  -5.183  1.00 20.00     0.010 C 
HETATM    6  C6  UNL     1     -35.852  14.960  -6.004  1.00 20.00     0.071 C 
HETATM    7  C7  UNL     1     -34.917  16.095  -5.517  1.00 20.00    -0.033 C 
HETATM    8  C8  UNL     1     -37.307  15.496  -5.890  1.00 20.00    -0.037 C 
HETATM    9  C9  UNL     1     -33.678  16.251  -6.404  1.00 20.00     0.016 C 
HETATM   10  C10 UNL     1     -38.275  14.592  -5.118  1.00 20.00     0.015 C 
HETATM   11  C11 UNL     1     -37.875  15.702  -7.309  1.00 20.00     0.015 C 
HETATM   12  O12 UNL     1     -35.906  12.666  -5.219  1.00 20.00    -0.298 OA
ENDROOT
TORSDOF 0
ENDMDL
MODEL 4
REMARK VINA RESULT:      -4.6      1.596      3.308
REMARK  0 active torsions:
REMARK  status: ('A' for Active; 'I' for Inactive)
ROOT
HETATM    1  C1  UNL     1     -36.408  14.779  -4.559  1.00 20.00     0.132 C 
HETATM    2  C2  UNL     1     -37.288  15.996  -4.500  1.00 20.00     0.079 C 
HETATM    3  C3  UNL     1     -36.273  17.112  -4.316  1.00 20.00     0.017 C 
HETATM    4  C4  UNL     1     -33.762  17.116  -3.866  1.00 20.00     0.011 C 
HETATM    5  C5  UNL     1     -33.367  16.418  -5.162  1.00 20.00     0.010 C 
HETATM    6  C6  UNL     1     -35.022  15.027  -3.993  1.00 20.00     0.071 C 
HETATM    7  C7  UNL     1     -35.114  16.496  -3.507  1.00 20.00    -0.033 C 
HETATM    8  C8  UNL     1     -33.824  14.956  -4.980  1.00 20.00    -0.037 C 
HETATM    9  C9  UNL     1     -35.389  16.596  -2.003  1.00 20.00     0.016 C 
HETATM   10  C10 UNL     1     -34.139  14.327  -6.342  1.00 20.00     0.015 C 
HETATM   11  C11 UNL     1     -32.689  14.138  -4.329  1.00 20.00     0.015 C 
HETATM   12  O12 UNL     1     -36.794  13.692  -4.971  1.00 20.00    -0.298 OA
ENDROOT
TORSDOF 0
ENDMDL
MODEL 5
REMARK VINA RESULT:      -4.4      1.362      3.418
REMARK  0 active torsions:
REMARK  status: ('A' for Active; 'I' for Inactive)
ROOT
HETATM    1  C1  UNL     1     -36.843  14.664  -4.817  1.00 20.00     0.132 C 
HETATM    2  C2  UNL     1     -37.042  15.887  -3.967  1.00 20.00     0.079 C 
HETATM    3  C3  UNL     1     -35.924  16.795  -4.452  1.00 20.00     0.017 C 
HETATM    4  C4  UNL     1     -33.943  16.423  -6.016  1.00 20.00     0.011 C 
HETATM    5  C5  UNL     1     -34.774  16.107  -7.253  1.00 20.00     0.010 C 
HETATM    6  C6  UNL     1     -35.460  14.598  -5.439  1.00 20.00     0.071 C 
HETATM    7  C7  UNL     1     -34.769  15.857  -4.858  1.00 20.00    -0.033 C 
HETATM    8  C8  UNL     1     -35.367  14.707  -6.986  1.00 20.00    -0.037 C 
HETATM    9  C9  UNL     1     -33.883  15.532  -3.651  1.00 20.00     0.016 C 
HETATM   10  C10 UNL     1     -36.696  14.545  -7.732  1.00 20.00     0.015 C 
HETATM   11  C11 UNL     1     -34.394  13.628  -7.505  1.00 20.00     0.015 C 
HETATM   12  O12 UNL     1     -37.693  13.791  -4.944  1.00 20.00    -0.298 OA
ENDROOT
TORSDOF 0
ENDMDL
MODEL 6
REMARK VINA RESULT:      -4.3      1.699      2.545
REMARK  0 active torsions:
REMARK  status: ('A' for Active; 'I' for Inactive)
ROOT
HETATM    1  C1  UNL     1     -34.346  14.260  -4.811  1.00 20.00     0.132 C 
HETATM    2  C2  UNL     1     -34.663  14.109  -6.272  1.00 20.00     0.079 C 
HETATM    3  C3  UNL     1     -35.672  15.224  -6.493  1.00 20.00     0.017 C 
HETATM    4  C4  UNL     1     -36.886  16.806  -4.903  1.00 20.00     0.011 C 
HETATM    5  C5  UNL     1     -35.633  17.492  -4.374  1.00 20.00     0.010 C 
HETATM    6  C6  UNL     1     -35.391  15.067  -4.062  1.00 20.00     0.071 C 
HETATM    7  C7  UNL     1     -36.439  15.365  -5.163  1.00 20.00    -0.033 C 
HETATM    8  C8  UNL     1     -34.950  16.438  -3.477  1.00 20.00    -0.037 C 
HETATM    9  C9  UNL     1     -37.626  14.398  -5.116  1.00 20.00     0.016 C 
HETATM   10  C10 UNL     1     -33.436  16.675  -3.442  1.00 20.00     0.015 C 
HETATM   11  C11 UNL     1     -35.487  16.562  -2.036  1.00 20.00     0.015 C 
HETATM   12  O12 UNL     1     -33.374  13.737  -4.278  1.00 20.00    -0.298 OA
ENDROOT
TORSDOF 0
ENDMDL
MODEL 7
REMARK VINA RESULT:      -4.3      1.854      3.871
REMARK  0 active torsions:
REMARK  status: ('A' for Active; 'I' for Inactive)
ROOT
HETATM    1  C1  UNL     1     -33.936  16.393  -5.675  1.00 20.00     0.132 C 
HETATM    2  C2  UNL     1     -33.403  16.136  -4.294  1.00 20.00     0.079 C 
HETATM    3  C3  UNL     1     -34.175  14.893  -3.883  1.00 20.00     0.017 C 
HETATM    4  C4  UNL     1     -36.123  13.632  -4.943  1.00 20.00     0.011 C 
HETATM    5  C5  UNL     1     -35.387  13.248  -6.221  1.00 20.00     0.010 C 
HETATM    6  C6  UNL     1     -35.253  15.686  -5.939  1.00 20.00     0.071 C 
HETATM    7  C7  UNL     1     -35.547  15.003  -4.579  1.00 20.00    -0.033 C 
HETATM    8  C8  UNL     1     -35.258  14.565  -7.015  1.00 20.00    -0.037 C 
HETATM    9  C9  UNL     1     -36.528  15.808  -3.722  1.00 20.00     0.016 C 
HETATM   10  C10 UNL     1     -34.017  14.520  -7.914  1.00 20.00     0.015 C 
HETATM   11  C11 UNL     1     -36.496  14.746  -7.918  1.00 20.00     0.015 C 
HETATM   12  O12 UNL     1     -33.389  17.141  -6.477  1.00 20.00    -0.298 OA
ENDROOT
TORSDOF 0
ENDMDL
MODEL 8
REMARK VINA RESULT:      -4.3      2.063      3.797
REMARK  0 active torsions:
REMARK  status: ('A' for Active; 'I' for Inactive)
ROOT
HETATM    1  C1  UNL     1     -35.262  16.973  -6.144  1.00 20.00     0.132 C 
HETATM    2  C2  UNL     1     -33.761  17.017  -6.112  1.00 20.00     0.079 C 
HETATM    3  C3  UNL     1     -33.421  15.712  -5.410  1.00 20.00     0.017 C 
HETATM    4  C4  UNL     1     -34.845  13.954  -4.231  1.00 20.00     0.011 C 
HETATM    5  C5  UNL     1     -35.655  13.556  -5.459  1.00 20.00     0.010 C 
HETATM    6  C6  UNL     1     -35.844  15.987  -5.148  1.00 20.00     0.071 C 
HETATM    7  C7  UNL     1     -34.581  15.449  -4.429  1.00 20.00    -0.033 C 
HETATM    8  C8  UNL     1     -36.595  14.752  -5.720  1.00 20.00    -0.037 C 
HETATM    9  C9  UNL     1     -34.329  16.150  -3.090  1.00 20.00     0.016 C 
HETATM   10  C10 UNL     1     -36.943  14.835  -7.210  1.00 20.00     0.015 C 
HETATM   11  C11 UNL     1     -37.907  14.557  -4.933  1.00 20.00     0.015 C 
HETATM   12  O12 UNL     1     -35.939  17.699  -6.862  1.00 20.00    -0.298 OA
ENDROOT
TORSDOF 0
ENDMDL
MODEL 9
REMARK VINA RESULT:      -4.2      1.881      2.657
REMARK  0 active torsions:
REMARK  status: ('A' for Active; 'I' for Inactive)
ROOT
HETATM    1  C1  UNL     1     -37.082  15.828  -4.532  1.00 20.00     0.132 C 
HETATM    2  C2  UNL     1     -37.639  14.494  -4.942  1.00 20.00     0.079 C 
HETATM    3  C3  UNL     1     -36.381  13.724  -5.308  1.00 20.00     0.017 C 
HETATM    4  C4  UNL     1     -33.937  14.412  -5.559  1.00 20.00     0.011 C 
HETATM    5  C5  UNL     1     -33.743  14.841  -4.109  1.00 20.00     0.010 C 
HETATM    6  C6  UNL     1     -35.668  16.055  -5.037  1.00 20.00     0.071 C 
HETATM    7  C7  UNL     1     -35.394  14.772  -5.861  1.00 20.00    -0.033 C 
HETATM    8  C8  UNL     1     -34.538  16.156  -3.975  1.00 20.00    -0.037 C 
HETATM    9  C9  UNL     1     -35.614  14.985  -7.362  1.00 20.00     0.016 C 
HETATM   10  C10 UNL     1     -35.017  16.339  -2.530  1.00 20.00     0.015 C 
HETATM   11  C11 UNL     1     -33.626  17.349  -4.329  1.00 20.00     0.015 C 
HETATM   12  O12 UNL     1     -37.726  16.660  -3.905  1.00 20.00    -0.298 OA
ENDROOT
TORSDOF 0
ENDMDL
