MODEL 1
REMARK VINA RESULT:      -4.2      0.000      0.000
REMARK  1 active torsions:
REMARK  status: ('A' for Active; 'I' for Inactive)
REMARK    1  A    between atoms: C4_4  and  C6_6 
ROOT
HETATM    1  C1  UNL     1     -34.330   4.722   5.470  1.00 20.00     0.279 C 
HETATM    2  C2  UNL     1     -33.533   5.323   3.256  1.00 20.00     0.284 C 
HETATM    3  C3  UNL     1     -34.610   6.149   5.927  1.00 20.00     0.104 C 
HETATM    4  C4  UNL     1     -33.708   6.836   3.424  1.00 20.00     0.075 C 
HETATM    5  N7  UNL     1     -34.505   4.545   4.029  1.00 20.00     0.085 N 
HETATM    6  S8  UNL     1     -33.460   7.328   5.166  1.00 20.00    -0.161 SA
HETATM    7  H21 UNL     1     -34.387   3.558   3.803  1.00 20.00     0.315 HD
ENDROOT
BRANCH   4   8
HETATM    8  C6  UNL     1     -32.716   7.600   2.552  1.00 20.00     0.012 C 
HETATM    9  C5  UNL     1     -31.609   8.191   3.362  1.00 20.00     0.006 C 
ENDBRANCH   4   8
TORSDOF 1
ENDMDL
MODEL 2
REMARK VINA RESULT:      -4.0      2.073      3.831
REMARK  1 active torsions:
REMARK  status: ('A' for Active; 'I' for Inactive)
REMARK    1  A    between atoms: C4_4  and  C6_6 
ROOT
HETATM    1  C1  UNL     1     -31.623   8.130   3.681  1.00 20.00     0.279 C 
HETATM    2  C2  UNL     1     -33.096   7.237   5.392  1.00 20.00     0.284 C 
HETATM    3  C3  UNL     1     -32.491   7.719   2.497  1.00 20.00     0.104 C 
HETATM    4  C4  UNL     1     -34.162   6.705   4.428  1.00 20.00     0.075 C 
HETATM    5  N7  UNL     1     -32.405   8.424   4.881  1.00 20.00     0.085 N 
HETATM    6  S8  UNL     1     -33.408   6.193   2.845  1.00 20.00    -0.161 SA
HETATM    7  H21 UNL     1     -31.777   8.772   5.604  1.00 20.00     0.315 HD
ENDROOT
BRANCH   4   8
HETATM    8  C6  UNL     1     -34.896   5.510   5.032  1.00 20.00     0.012 C 
HETATM    9  C5  UNL     1     -34.383   4.216   4.490  1.00 20.00     0.006 C 
ENDBRANCH   4   8
TORSDOF 1
ENDMDL
MODEL 3
REMARK VINA RESULT:      -4.0      1.635      1.934
REMARK  1 active torsions:
REMARK  status: ('A' for Active; 'I' for Inactive)
REMARK    1  A    between atoms: C4_4  and  C6_6 
ROOT
HETATM    1  C1  UNL     1     -34.868   5.087   5.392  1.00 20.00     0.279 C 
HETATM    2  C2  UNL     1     -33.917   7.238   4.787  1.00 20.00     0.284 C 
HETATM    3  C3  UNL     1     -34.100   4.279   4.352  1.00 20.00     0.104 C 
HETATM    4  C4  UNL     1     -33.021   6.709   3.662  1.00 20.00     0.075 C 
HETATM    5  N7  UNL     1     -34.128   6.259   5.857  1.00 20.00     0.085 N 
HETATM    6  S8  UNL     1     -33.780   5.255   2.858  1.00 20.00    -0.161 SA
HETATM    7  H21 UNL     1     -34.656   6.704   6.607  1.00 20.00     0.315 HD
ENDROOT
BRANCH   4   8
HETATM    8  C6  UNL     1     -32.781   7.785   2.605  1.00 20.00     0.012 C 
HETATM    9  C5  UNL     1     -31.511   8.531   2.855  1.00 20.00     0.006 C 
ENDBRANCH   4   8
TORSDOF 1
ENDMDL
MODEL 4
REMARK VINA RESULT:      -3.5     12.245     13.129
REMARK  1 active torsions:
REMARK  status: ('A' for Active; 'I' for Inactive)
REMARK    1  A    between atoms: C4_4  and  C6_6 
ROOT
HETATM    1  C1  UNL     1     -34.013  14.731  -6.575  1.00 20.00     0.279 C 
HETATM    2  C2  UNL     1     -34.332  14.504  -4.179  1.00 20.00     0.284 C 
HETATM    3  C3  UNL     1     -33.611  16.201  -6.540  1.00 20.00     0.104 C 
HETATM    4  C4  UNL     1     -33.971  15.951  -3.827  1.00 20.00     0.075 C 
HETATM    5  N7  UNL     1     -33.626  14.010  -5.364  1.00 20.00     0.085 N 
HETATM    6  S8  UNL     1     -34.434  17.082  -5.185  1.00 20.00    -0.161 SA
HETATM    7  H21 UNL     1     -33.845  13.022  -5.486  1.00 20.00     0.315 HD
ENDROOT
BRANCH   4   8
HETATM    8  C6  UNL     1     -34.683  16.396  -2.552  1.00 20.00     0.012 C 
HETATM    9  C5  UNL     1     -33.783  17.197  -1.669  1.00 20.00     0.006 C 
ENDBRANCH   4   8
TORSDOF 1
ENDMDL
MODEL 5
REMARK VINA RESULT:      -3.5     12.265     12.854
REMARK  1 active torsions:
REMARK  status: ('A' for Active; 'I' for Inactive)
REMARK    1  A    between atoms: C4_4  and  C6_6 
ROOT
HETATM    1  C1  UNL     1     -35.589  13.520  -6.750  1.00 20.00     0.279 C 
HETATM    2  C2  UNL     1     -35.282  14.280  -4.465  1.00 20.00     0.284 C 
HETATM    3  C3  UNL     1     -34.233  13.996  -7.257  1.00 20.00     0.104 C 
HETATM    4  C4  UNL     1     -33.879  14.860  -4.673  1.00 20.00     0.075 C 
HETATM    5  N7  UNL     1     -35.564  13.138  -5.339  1.00 20.00     0.085 N 
HETATM    6  S8  UNL     1     -33.682  15.484  -6.378  1.00 20.00    -0.161 SA
HETATM    7  H21 UNL     1     -36.473  12.751  -5.088  1.00 20.00     0.315 HD
ENDROOT
BRANCH   4   8
HETATM    8  C6  UNL     1     -33.612  16.004  -3.697  1.00 20.00     0.012 C 
HETATM    9  C5  UNL     1     -34.761  16.216  -2.766  1.00 20.00     0.006 C 
ENDBRANCH   4   8
TORSDOF 1
ENDMDL
MODEL 6
REMARK VINA RESULT:      -3.4     11.898     12.492
REMARK  1 active torsions:
REMARK  status: ('A' for Active; 'I' for Inactive)
REMARK    1  A    between atoms: C4_4  and  C6_6 
ROOT
HETATM    1  C1  UNL     1     -35.933  13.409  -5.712  1.00 20.00     0.279 C 
HETATM    2  C2  UNL     1     -34.421  14.346  -4.059  1.00 20.00     0.284 C 
HETATM    3  C3  UNL     1     -36.846  14.627  -5.796  1.00 20.00     0.104 C 
HETATM    4  C4  UNL     1     -35.140  15.693  -3.925  1.00 20.00     0.075 C 
HETATM    5  N7  UNL     1     -34.549  13.761  -5.396  1.00 20.00     0.085 N 
HETATM    6  S8  UNL     1     -36.935  15.501  -4.209  1.00 20.00    -0.161 SA
HETATM    7  H21 UNL     1     -33.979  12.917  -5.439  1.00 20.00     0.315 HD
ENDROOT
BRANCH   4   8
HETATM    8  C6  UNL     1     -34.924  16.290  -2.537  1.00 20.00     0.012 C 
HETATM    9  C5  UNL     1     -33.588  16.949  -2.421  1.00 20.00     0.006 C 
ENDBRANCH   4   8
TORSDOF 1
ENDMDL
MODEL 7
REMARK VINA RESULT:      -3.3     12.167     12.516
REMARK  1 active torsions:
REMARK  status: ('A' for Active; 'I' for Inactive)
REMARK    1  A    between atoms: C4_4  and  C6_6 
ROOT
HETATM    1  C1  UNL     1     -37.232  14.486  -5.194  1.00 20.00     0.279 C 
HETATM    2  C2  UNL     1     -36.281  16.161  -3.716  1.00 20.00     0.284 C 
HETATM    3  C3  UNL     1     -36.051  13.525  -5.120  1.00 20.00     0.104 C 
HETATM    4  C4  UNL     1     -34.969  15.417  -3.447  1.00 20.00     0.075 C 
HETATM    5  N7  UNL     1     -37.409  15.260  -3.966  1.00 20.00     0.085 N 
HETATM    6  S8  UNL     1     -34.485  14.413  -4.895  1.00 20.00    -0.161 SA
HETATM    7  H21 UNL     1     -38.259  15.816  -4.049  1.00 20.00     0.315 HD
ENDROOT
BRANCH   4   8
HETATM    8  C6  UNL     1     -33.841  16.396  -3.130  1.00 20.00     0.012 C 
HETATM    9  C5  UNL     1     -34.022  17.031  -1.790  1.00 20.00     0.006 C 
ENDBRANCH   4   8
TORSDOF 1
ENDMDL
MODEL 8
REMARK VINA RESULT:      -3.3     12.529     13.126
REMARK  1 active torsions:
REMARK  status: ('A' for Active; 'I' for Inactive)
REMARK    1  A    between atoms: C4_4  and  C6_6 
ROOT
HETATM    1  C1  UNL     1     -34.370  13.592  -7.226  1.00 20.00     0.279 C 
HETATM    2  C2  UNL     1     -33.594  15.003  -5.408  1.00 20.00     0.284 C 
HETATM    3  C3  UNL     1     -35.856  13.773  -6.940  1.00 20.00     0.104 C 
HETATM    4  C4  UNL     1     -34.986  15.370  -4.880  1.00 20.00     0.075 C 
HETATM    5  N7  UNL     1     -33.576  14.763  -6.853  1.00 20.00     0.085 N 
HETATM    6  S8  UNL     1     -36.168  14.008  -5.168  1.00 20.00    -0.161 SA
HETATM    7  H21 UNL     1     -32.611  14.611  -7.147  1.00 20.00     0.315 HD
ENDROOT
BRANCH   4   8
HETATM    8  C6  UNL     1     -34.939  15.673  -3.385  1.00 20.00     0.012 C 
HETATM    9  C5  UNL     1     -33.714  16.443  -3.015  1.00 20.00     0.006 C 
ENDBRANCH   4   8
TORSDOF 1
ENDMDL
MODEL 9
REMARK VINA RESULT:      -3.2     12.633     13.502
REMARK  1 active torsions:
REMARK  status: ('A' for Active; 'I' for Inactive)
REMARK    1  A    between atoms: C4_4  and  C6_6 
ROOT
HETATM    1  C1  UNL     1     -33.419  15.777  -6.531  1.00 20.00     0.279 C 
HETATM    2  C2  UNL     1     -33.347  17.275  -4.621  1.00 20.00     0.284 C 
HETATM    3  C3  UNL     1     -34.443  14.816  -5.936  1.00 20.00     0.104 C 
HETATM    4  C4  UNL     1     -34.364  16.507  -3.772  1.00 20.00     0.075 C 
HETATM    5  N7  UNL     1     -33.593  17.150  -6.061  1.00 20.00     0.085 N 
HETATM    6  S8  UNL     1     -34.290  14.717  -4.132  1.00 20.00    -0.161 SA
HETATM    7  H21 UNL     1     -32.937  17.753  -6.557  1.00 20.00     0.315 HD
ENDROOT
BRANCH   4   8
HETATM    8  C6  UNL     1     -34.104  16.720  -2.283  1.00 20.00     0.012 C 
HETATM    9  C5  UNL     1     -35.377  16.854  -1.513  1.00 20.00     0.006 C 
ENDBRANCH   4   8
TORSDOF 1
ENDMDL
