MODEL 1
REMARK VINA RESULT:      -7.3      0.000      0.000
REMARK  0 active torsions:
REMARK  status: ('A' for Active; 'I' for Inactive)
ROOT
HETATM    1  C1  UNL     1     -34.716   5.956   5.905  1.00 20.00    -0.021 C 
HETATM    2  C2  UNL     1     -33.959   4.336   3.995  1.00 20.00    -0.021 C 
HETATM    3  C3  UNL     1     -33.884   7.021   5.945  1.00 20.00    -0.025 C 
HETATM    4  C4  UNL     1     -33.275   4.743   2.904  1.00 20.00    -0.025 C 
HETATM    5  C5  UNL     1     -32.616   8.116   3.706  1.00 20.00     0.009 C 
HETATM    6  C6  UNL     1     -32.499   7.246   2.408  1.00 20.00     0.009 C 
HETATM    7  C7  UNL     1     -34.893   5.400   4.506  1.00 20.00     0.035 C 
HETATM    8  C8  UNL     1     -33.189   7.086   4.642  1.00 20.00     0.013 C 
HETATM    9  C9  UNL     1     -33.613   6.159   2.492  1.00 20.00     0.013 C 
HETATM   10  C10 UNL     1     -34.338   6.580   3.746  1.00 20.00     0.012 C 
ENDROOT
TORSDOF 0
ENDMDL
MODEL 2
REMARK VINA RESULT:      -6.9      0.802      3.523
REMARK  0 active torsions:
REMARK  status: ('A' for Active; 'I' for Inactive)
ROOT
HETATM    1  C1  UNL     1     -32.947   6.857   2.403  1.00 20.00    -0.021 C 
HETATM    2  C2  UNL     1     -32.972   7.793   4.845  1.00 20.00    -0.021 C 
HETATM    3  C3  UNL     1     -32.998   5.506   2.440  1.00 20.00    -0.025 C 
HETATM    4  C4  UNL     1     -33.520   7.133   5.888  1.00 20.00    -0.025 C 
HETATM    5  C5  UNL     1     -34.329   4.032   4.409  1.00 20.00     0.009 C 
HETATM    6  C6  UNL     1     -34.683   4.737   5.763  1.00 20.00     0.009 C 
HETATM    7  C7  UNL     1     -33.689   7.505   3.554  1.00 20.00     0.035 C 
HETATM    8  C8  UNL     1     -33.507   5.121   3.774  1.00 20.00     0.013 C 
HETATM    9  C9  UNL     1     -34.696   6.270   5.485  1.00 20.00     0.013 C 
HETATM   10  C10 UNL     1     -34.480   6.298   3.992  1.00 20.00     0.012 C 
ENDROOT
TORSDOF 0
ENDMDL
MODEL 3
REMARK VINA RESULT:      -6.7      0.644      3.183
REMARK  0 active torsions:
REMARK  status: ('A' for Active; 'I' for Inactive)
ROOT
HETATM    1  C1  UNL     1     -32.929   8.014   3.198  1.00 20.00    -0.021 C 
HETATM    2  C2  UNL     1     -33.724   7.342   5.597  1.00 20.00    -0.021 C 
HETATM    3  C3  UNL     1     -32.472   6.918   2.553  1.00 20.00    -0.025 C 
HETATM    4  C4  UNL     1     -34.152   6.101   5.917  1.00 20.00    -0.025 C 
HETATM    5  C5  UNL     1     -33.465   4.332   2.941  1.00 20.00     0.009 C 
HETATM    6  C6  UNL     1     -34.285   4.031   4.242  1.00 20.00     0.009 C 
HETATM    7  C7  UNL     1     -34.046   7.701   4.172  1.00 20.00     0.035 C 
HETATM    8  C8  UNL     1     -33.019   5.736   3.252  1.00 20.00     0.013 C 
HETATM    9  C9  UNL     1     -34.828   5.396   4.761  1.00 20.00     0.013 C 
HETATM   10  C10 UNL     1     -34.386   6.325   3.657  1.00 20.00     0.012 C 
ENDROOT
TORSDOF 0
ENDMDL
MODEL 4
REMARK VINA RESULT:      -6.5      0.900      1.859
REMARK  0 active torsions:
REMARK  status: ('A' for Active; 'I' for Inactive)
ROOT
HETATM    1  C1  UNL     1     -34.946   4.494   4.581  1.00 20.00    -0.021 C 
HETATM    2  C2  UNL     1     -33.236   5.282   2.764  1.00 20.00    -0.021 C 
HETATM    3  C3  UNL     1     -34.625   5.052   5.770  1.00 20.00    -0.025 C 
HETATM    4  C4  UNL     1     -32.555   6.446   2.840  1.00 20.00    -0.025 C 
HETATM    5  C5  UNL     1     -33.452   7.574   6.062  1.00 20.00     0.009 C 
HETATM    6  C6  UNL     1     -32.737   8.217   4.825  1.00 20.00     0.009 C 
HETATM    7  C7  UNL     1     -34.596   5.379   3.402  1.00 20.00     0.035 C 
HETATM    8  C8  UNL     1     -33.757   6.215   5.491  1.00 20.00     0.013 C 
HETATM    9  C9  UNL     1     -33.328   7.533   3.556  1.00 20.00     0.013 C 
HETATM   10  C10 UNL     1     -34.403   6.667   4.164  1.00 20.00     0.012 C 
ENDROOT
TORSDOF 0
ENDMDL
MODEL 5
REMARK VINA RESULT:      -5.7      0.839      2.843
REMARK  0 active torsions:
REMARK  status: ('A' for Active; 'I' for Inactive)
ROOT
HETATM    1  C1  UNL     1     -32.382   7.353   2.554  1.00 20.00    -0.021 C 
HETATM    2  C2  UNL     1     -34.707   6.157   2.471  1.00 20.00    -0.021 C 
HETATM    3  C3  UNL     1     -32.283   8.060   3.702  1.00 20.00    -0.025 C 
HETATM    4  C4  UNL     1     -35.408   5.818   3.575  1.00 20.00    -0.025 C 
HETATM    5  C5  UNL     1     -33.475   7.315   6.120  1.00 20.00     0.009 C 
HETATM    6  C6  UNL     1     -34.652   6.281   6.090  1.00 20.00     0.009 C 
HETATM    7  C7  UNL     1     -33.221   6.101   2.705  1.00 20.00     0.035 C 
HETATM    8  C8  UNL     1     -33.289   7.520   4.641  1.00 20.00     0.013 C 
HETATM    9  C9  UNL     1     -34.521   5.486   4.755  1.00 20.00     0.013 C 
HETATM   10  C10 UNL     1     -33.226   6.039   4.212  1.00 20.00     0.012 C 
ENDROOT
TORSDOF 0
ENDMDL
MODEL 6
REMARK VINA RESULT:      -5.3      0.951      2.720
REMARK  0 active torsions:
REMARK  status: ('A' for Active; 'I' for Inactive)
ROOT
HETATM    1  C1  UNL     1     -32.896   8.144   4.987  1.00 20.00    -0.021 C 
HETATM    2  C2  UNL     1     -33.630   7.321   2.615  1.00 20.00    -0.021 C 
HETATM    3  C3  UNL     1     -33.627   7.506   5.929  1.00 20.00    -0.025 C 
HETATM    4  C4  UNL     1     -34.176   6.107   2.386  1.00 20.00    -0.025 C 
HETATM    5  C5  UNL     1     -34.589   4.892   5.675  1.00 20.00     0.009 C 
HETATM    6  C6  UNL     1     -34.671   4.259   4.244  1.00 20.00     0.009 C 
HETATM    7  C7  UNL     1     -32.650   7.294   3.757  1.00 20.00     0.035 C 
HETATM    8  C8  UNL     1     -34.197   6.296   5.299  1.00 20.00     0.013 C 
HETATM    9  C9  UNL     1     -33.674   5.046   3.343  1.00 20.00     0.013 C 
HETATM   10  C10 UNL     1     -33.026   5.960   4.353  1.00 20.00     0.012 C 
ENDROOT
TORSDOF 0
ENDMDL
MODEL 7
REMARK VINA RESULT:      -4.8      0.959      2.497
REMARK  0 active torsions:
REMARK  status: ('A' for Active; 'I' for Inactive)
ROOT
HETATM    1  C1  UNL     1     -34.802   4.960   5.552  1.00 20.00    -0.021 C 
HETATM    2  C2  UNL     1     -33.905   7.369   6.036  1.00 20.00    -0.021 C 
HETATM    3  C3  UNL     1     -35.164   4.869   4.253  1.00 20.00    -0.025 C 
HETATM    4  C4  UNL     1     -33.354   8.160   5.090  1.00 20.00    -0.025 C 
HETATM    5  C5  UNL     1     -33.920   6.260   2.170  1.00 20.00     0.009 C 
HETATM    6  C6  UNL     1     -33.053   7.517   2.519  1.00 20.00     0.009 C 
HETATM    7  C7  UNL     1     -33.644   5.910   5.776  1.00 20.00     0.035 C 
HETATM    8  C8  UNL     1     -34.494   5.971   3.531  1.00 20.00     0.013 C 
HETATM    9  C9  UNL     1     -32.634   7.376   4.014  1.00 20.00     0.013 C 
HETATM   10  C10 UNL     1     -33.182   6.009   4.343  1.00 20.00     0.012 C 
ENDROOT
TORSDOF 0
ENDMDL
MODEL 8
REMARK VINA RESULT:      -4.5     11.859     12.763
REMARK  0 active torsions:
REMARK  status: ('A' for Active; 'I' for Inactive)
ROOT
HETATM    1  C1  UNL     1     -35.531  13.258  -6.549  1.00 20.00    -0.021 C 
HETATM    2  C2  UNL     1     -36.848  14.709  -4.816  1.00 20.00    -0.021 C 
HETATM    3  C3  UNL     1     -34.401  13.906  -6.910  1.00 20.00    -0.025 C 
HETATM    4  C4  UNL     1     -36.258  15.612  -4.002  1.00 20.00    -0.025 C 
HETATM    5  C5  UNL     1     -32.945  15.596  -5.222  1.00 20.00     0.009 C 
HETATM    6  C6  UNL     1     -33.651  16.174  -3.948  1.00 20.00     0.009 C 
HETATM    7  C7  UNL     1     -35.944  13.545  -5.119  1.00 20.00     0.035 C 
HETATM    8  C8  UNL     1     -34.124  14.920  -5.870  1.00 20.00     0.013 C 
HETATM    9  C9  UNL     1     -34.844  15.225  -3.623  1.00 20.00     0.013 C 
HETATM   10  C10 UNL     1     -34.638  14.136  -4.646  1.00 20.00     0.012 C 
ENDROOT
TORSDOF 0
ENDMDL
MODEL 9
REMARK VINA RESULT:      -4.5     11.906     13.151
REMARK  0 active torsions:
REMARK  status: ('A' for Active; 'I' for Inactive)
ROOT
HETATM    1  C1  UNL     1     -33.577  16.103  -3.897  1.00 20.00    -0.021 C 
HETATM    2  C2  UNL     1     -33.506  16.325  -6.503  1.00 20.00    -0.021 C 
HETATM    3  C3  UNL     1     -34.712  15.465  -3.533  1.00 20.00    -0.025 C 
HETATM    4  C4  UNL     1     -34.140  15.474  -7.338  1.00 20.00    -0.025 C 
HETATM    5  C5  UNL     1     -35.972  13.493  -5.063  1.00 20.00     0.009 C 
HETATM    6  C6  UNL     1     -35.628  13.391  -6.588  1.00 20.00     0.009 C 
HETATM    7  C7  UNL     1     -33.049  15.644  -5.241  1.00 20.00     0.035 C 
HETATM    8  C8  UNL     1     -35.217  14.749  -4.723  1.00 20.00     0.013 C 
HETATM    9  C9  UNL     1     -34.238  14.069  -6.783  1.00 20.00     0.013 C 
HETATM   10  C10 UNL     1     -33.860  14.376  -5.355  1.00 20.00     0.012 C 
ENDROOT
TORSDOF 0
ENDMDL
