MODEL 1
REMARK VINA RESULT:      -5.2      0.000      0.000
REMARK  2 active torsions:
REMARK  status: ('A' for Active; 'I' for Inactive)
REMARK    1  A    between atoms: C7_7  and  C9_9 
REMARK    2  A    between atoms: C8_8  and  C10_10 
ROOT
HETATM    1  C1  UNL     1     -31.473   8.248   3.307  1.00 20.00    -0.030 C 
HETATM    2  C2  UNL     1     -32.149   7.970   4.447  1.00 20.00    -0.025 C 
HETATM    3  C5  UNL     1     -32.249   7.806   2.063  1.00 20.00     0.032 C 
HETATM    4  C9  UNL     1     -33.315   7.128   4.075  1.00 20.00     0.020 C 
HETATM    5  C10 UNL     1     -33.605   7.825   2.718  1.00 20.00     0.005 C 
ENDROOT
BRANCH   4   6
HETATM    6  C7  UNL     1     -34.760   6.860   4.563  1.00 20.00     0.016 C 
HETATM    7  C3  UNL     1     -34.526   5.986   5.796  1.00 20.00    -0.025 C 
HETATM    8  C4  UNL     1     -34.017   4.815   5.369  1.00 20.00    -0.025 C 
HETATM    9  C8  UNL     1     -34.025   4.833   3.859  1.00 20.00     0.013 C 
HETATM   10  C6  UNL     1     -35.297   5.719   3.685  1.00 20.00     0.018 C 
ENDBRANCH   4   6
TORSDOF 2
ENDMDL
MODEL 2
REMARK VINA RESULT:      -5.0      1.667      4.369
REMARK  2 active torsions:
REMARK  status: ('A' for Active; 'I' for Inactive)
REMARK    1  A    between atoms: C7_7  and  C9_9 
REMARK    2  A    between atoms: C8_8  and  C10_10 
ROOT
HETATM    1  C1  UNL     1     -34.317   6.448   3.719  1.00 20.00    -0.030 C 
HETATM    2  C2  UNL     1     -33.877   7.729   3.743  1.00 20.00    -0.025 C 
HETATM    3  C5  UNL     1     -33.535   5.596   2.716  1.00 20.00     0.032 C 
HETATM    4  C9  UNL     1     -32.929   7.892   2.611  1.00 20.00     0.020 C 
HETATM    5  C10 UNL     1     -32.308   6.471   2.702  1.00 20.00     0.005 C 
ENDROOT
BRANCH   4   6
HETATM    6  C7  UNL     1     -31.670   8.721   2.258  1.00 20.00     0.016 C 
HETATM    7  C3  UNL     1     -32.235  10.138   2.161  1.00 20.00    -0.025 C 
HETATM    8  C4  UNL     1     -33.057  10.173   1.095  1.00 20.00    -0.025 C 
HETATM    9  C8  UNL     1     -32.956   8.839   0.394  1.00 20.00     0.013 C 
HETATM   10  C6  UNL     1     -31.463   8.551   0.744  1.00 20.00     0.018 C 
ENDBRANCH   4   6
TORSDOF 2
ENDMDL
MODEL 3
REMARK VINA RESULT:      -5.0      1.764      3.107
REMARK  2 active torsions:
REMARK  status: ('A' for Active; 'I' for Inactive)
REMARK    1  A    between atoms: C7_7  and  C9_9 
REMARK    2  A    between atoms: C8_8  and  C10_10 
ROOT
HETATM    1  C1  UNL     1     -32.912   9.665   0.161  1.00 20.00    -0.030 C 
HETATM    2  C2  UNL     1     -32.768   8.349   0.445  1.00 20.00    -0.025 C 
HETATM    3  C5  UNL     1     -32.770  10.537   1.411  1.00 20.00     0.032 C 
HETATM    4  C9  UNL     1     -32.742   8.216   1.924  1.00 20.00     0.020 C 
HETATM    5  C10 UNL     1     -31.969   9.535   2.202  1.00 20.00     0.005 C 
ENDROOT
BRANCH   4   6
HETATM    6  C7  UNL     1     -32.114   7.296   3.000  1.00 20.00     0.016 C 
HETATM    7  C3  UNL     1     -32.738   5.941   2.667  1.00 20.00    -0.025 C 
HETATM    8  C4  UNL     1     -34.056   6.029   2.927  1.00 20.00    -0.025 C 
HETATM    9  C8  UNL     1     -34.312   7.380   3.553  1.00 20.00     0.013 C 
HETATM   10  C6  UNL     1     -32.938   7.518   4.278  1.00 20.00     0.018 C 
ENDBRANCH   4   6
TORSDOF 2
ENDMDL
MODEL 4
REMARK VINA RESULT:      -4.7      0.872      3.744
REMARK  2 active torsions:
REMARK  status: ('A' for Active; 'I' for Inactive)
REMARK    1  A    between atoms: C7_7  and  C9_9 
REMARK    2  A    between atoms: C8_8  and  C10_10 
ROOT
HETATM    1  C1  UNL     1     -33.946   3.835   4.073  1.00 20.00    -0.030 C 
HETATM    2  C2  UNL     1     -33.377   4.561   3.081  1.00 20.00    -0.025 C 
HETATM    3  C5  UNL     1     -34.753   4.715   5.032  1.00 20.00     0.032 C 
HETATM    4  C9  UNL     1     -33.570   5.995   3.417  1.00 20.00     0.020 C 
HETATM    5  C10 UNL     1     -34.978   5.836   4.051  1.00 20.00     0.005 C 
ENDROOT
BRANCH   4   6
HETATM    6  C7  UNL     1     -33.747   7.348   2.685  1.00 20.00     0.016 C 
HETATM    7  C3  UNL     1     -32.307   7.703   2.313  1.00 20.00    -0.025 C 
HETATM    8  C4  UNL     1     -31.642   7.945   3.458  1.00 20.00    -0.025 C 
HETATM    9  C8  UNL     1     -32.641   7.886   4.590  1.00 20.00     0.013 C 
HETATM   10  C6  UNL     1     -33.871   8.411   3.788  1.00 20.00     0.018 C 
ENDBRANCH   4   6
TORSDOF 2
ENDMDL
MODEL 5
REMARK VINA RESULT:      -4.7     11.341     12.318
REMARK  2 active torsions:
REMARK  status: ('A' for Active; 'I' for Inactive)
REMARK    1  A    between atoms: C7_7  and  C9_9 
REMARK    2  A    between atoms: C8_8  and  C10_10 
ROOT
HETATM    1  C1  UNL     1     -34.346  17.356  -0.930  1.00 20.00    -0.030 C 
HETATM    2  C2  UNL     1     -35.098  16.713  -1.855  1.00 20.00    -0.025 C 
HETATM    3  C5  UNL     1     -33.020  17.848  -1.516  1.00 20.00     0.032 C 
HETATM    4  C9  UNL     1     -34.252  16.529  -3.062  1.00 20.00     0.020 C 
HETATM    5  C10 UNL     1     -33.491  17.878  -2.947  1.00 20.00     0.005 C 
ENDROOT
BRANCH   4   6
HETATM    6  C7  UNL     1     -34.420  16.436  -4.599  1.00 20.00     0.016 C 
HETATM    7  C3  UNL     1     -35.321  15.211  -4.750  1.00 20.00    -0.025 C 
HETATM    8  C4  UNL     1     -34.613  14.137  -4.353  1.00 20.00    -0.025 C 
HETATM    9  C8  UNL     1     -33.205  14.598  -4.059  1.00 20.00     0.013 C 
HETATM   10  C6  UNL     1     -33.152  15.740  -5.120  1.00 20.00     0.018 C 
ENDBRANCH   4   6
TORSDOF 2
ENDMDL
MODEL 6
REMARK VINA RESULT:      -4.3     11.677     12.660
REMARK  2 active torsions:
REMARK  status: ('A' for Active; 'I' for Inactive)
REMARK    1  A    between atoms: C7_7  and  C9_9 
REMARK    2  A    between atoms: C8_8  and  C10_10 
ROOT
HETATM    1  C1  UNL     1     -33.709  18.264  -0.883  1.00 20.00    -0.030 C 
HETATM    2  C2  UNL     1     -33.127  17.429  -1.775  1.00 20.00    -0.025 C 
HETATM    3  C5  UNL     1     -35.235  18.156  -0.911  1.00 20.00     0.032 C 
HETATM    4  C9  UNL     1     -34.210  16.862  -2.620  1.00 20.00     0.020 C 
HETATM    5  C10 UNL     1     -35.275  16.767  -1.494  1.00 20.00     0.005 C 
ENDROOT
BRANCH   4   6
HETATM    6  C7  UNL     1     -34.516  15.561  -3.402  1.00 20.00     0.016 C 
HETATM    7  C3  UNL     1     -33.320  15.466  -4.349  1.00 20.00    -0.025 C 
HETATM    8  C4  UNL     1     -33.411  16.492  -5.217  1.00 20.00    -0.025 C 
HETATM    9  C8  UNL     1     -34.716  17.203  -4.953  1.00 20.00     0.013 C 
HETATM   10  C6  UNL     1     -35.526  15.952  -4.492  1.00 20.00     0.018 C 
ENDBRANCH   4   6
TORSDOF 2
ENDMDL
MODEL 7
REMARK VINA RESULT:      -4.2     11.527     12.808
REMARK  2 active torsions:
REMARK  status: ('A' for Active; 'I' for Inactive)
REMARK    1  A    between atoms: C7_7  and  C9_9 
REMARK    2  A    between atoms: C8_8  and  C10_10 
ROOT
HETATM    1  C1  UNL     1     -32.994  15.554  -5.327  1.00 20.00    -0.030 C 
HETATM    2  C2  UNL     1     -33.432  16.779  -4.953  1.00 20.00    -0.025 C 
HETATM    3  C5  UNL     1     -33.353  14.480  -4.297  1.00 20.00     0.032 C 
HETATM    4  C9  UNL     1     -33.918  16.665  -3.553  1.00 20.00     0.020 C 
HETATM    5  C10 UNL     1     -34.508  15.235  -3.692  1.00 20.00     0.005 C 
ENDROOT
BRANCH   4   6
HETATM    6  C7  UNL     1     -34.981  17.316  -2.634  1.00 20.00     0.016 C 
HETATM    7  C3  UNL     1     -34.656  18.803  -2.768  1.00 20.00    -0.025 C 
HETATM    8  C4  UNL     1     -33.450  19.005  -2.202  1.00 20.00    -0.025 C 
HETATM    9  C8  UNL     1     -33.015  17.703  -1.573  1.00 20.00     0.013 C 
HETATM   10  C6  UNL     1     -34.438  17.184  -1.202  1.00 20.00     0.018 C 
ENDBRANCH   4   6
TORSDOF 2
ENDMDL
MODEL 8
REMARK VINA RESULT:      -4.1     11.315     12.561
REMARK  2 active torsions:
REMARK  status: ('A' for Active; 'I' for Inactive)
REMARK    1  A    between atoms: C7_7  and  C9_9 
REMARK    2  A    between atoms: C8_8  and  C10_10 
ROOT
HETATM    1  C1  UNL     1     -36.053  17.558  -2.409  1.00 20.00    -0.030 C 
HETATM    2  C2  UNL     1     -35.695  17.351  -3.698  1.00 20.00    -0.025 C 
HETATM    3  C5  UNL     1     -35.105  16.854  -1.434  1.00 20.00     0.032 C 
HETATM    4  C9  UNL     1     -34.624  16.321  -3.699  1.00 20.00     0.020 C 
HETATM    5  C10 UNL     1     -33.939  16.784  -2.385  1.00 20.00     0.005 C 
ENDROOT
BRANCH   4   6
HETATM    6  C7  UNL     1     -33.381  15.935  -4.538  1.00 20.00     0.016 C 
HETATM    7  C3  UNL     1     -33.992  15.665  -5.913  1.00 20.00    -0.025 C 
HETATM    8  C4  UNL     1     -34.765  14.568  -5.802  1.00 20.00    -0.025 C 
HETATM    9  C8  UNL     1     -34.583  14.017  -4.408  1.00 20.00     0.013 C 
HETATM   10  C6  UNL     1     -33.099  14.459  -4.220  1.00 20.00     0.018 C 
ENDBRANCH   4   6
TORSDOF 2
ENDMDL
MODEL 9
REMARK VINA RESULT:      -4.1     11.582     12.783
REMARK  2 active torsions:
REMARK  status: ('A' for Active; 'I' for Inactive)
REMARK    1  A    between atoms: C7_7  and  C9_9 
REMARK    2  A    between atoms: C8_8  and  C10_10 
ROOT
HETATM    1  C1  UNL     1     -37.594  14.898  -4.815  1.00 20.00    -0.030 C 
HETATM    2  C2  UNL     1     -36.749  15.524  -3.961  1.00 20.00    -0.025 C 
HETATM    3  C5  UNL     1     -36.847  13.978  -5.783  1.00 20.00     0.032 C 
HETATM    4  C9  UNL     1     -35.366  15.249  -4.428  1.00 20.00     0.020 C 
HETATM    5  C10 UNL     1     -35.632  13.797  -4.911  1.00 20.00     0.005 C 
ENDROOT
BRANCH   4   6
HETATM    6  C7  UNL     1     -33.946  15.087  -3.831  1.00 20.00     0.016 C 
HETATM    7  C3  UNL     1     -33.732  16.434  -3.141  1.00 20.00    -0.025 C 
HETATM    8  C4  UNL     1     -33.663  17.374  -4.103  1.00 20.00    -0.025 C 
HETATM    9  C8  UNL     1     -33.697  16.668  -5.437  1.00 20.00     0.013 C 
HETATM   10  C6  UNL     1     -32.969  15.365  -4.984  1.00 20.00     0.018 C 
ENDBRANCH   4   6
TORSDOF 2
ENDMDL
