MODEL 1
REMARK VINA RESULT:      -7.4      0.000      0.000
REMARK  1 active torsions:
REMARK  status: ('A' for Active; 'I' for Inactive)
REMARK    1  A    between atoms: C2_2  and  C10_10 
ROOT
HETATM    1  C1  UNL     1     -33.382   5.522   2.652  1.00 20.00    -0.018 A 
HETATM    2  C2  UNL     1     -33.066   6.792   2.973  1.00 20.00    -0.075 A 
HETATM    3  C3  UNL     1     -34.635   5.694   5.967  1.00 20.00     0.001 C 
HETATM    4  C4  UNL     1     -34.440   4.658   4.867  1.00 20.00     0.009 C 
HETATM    5  C5  UNL     1     -33.884   6.914   5.445  1.00 20.00     0.010 C 
HETATM    6  C6  UNL     1     -34.577   5.470   3.580  1.00 20.00     0.016 A 
HETATM    7  C7  UNL     1     -34.218   6.930   3.954  1.00 20.00     0.022 A 
ENDROOT
BRANCH   2   8
HETATM    8  C10 UNL     1     -31.951   7.756   2.522  1.00 20.00     0.006 C 
HETATM    9  C8  UNL     1     -32.540   8.770   1.568  1.00 20.00     0.014 C 
HETATM   10  C9  UNL     1     -31.327   8.403   3.738  1.00 20.00     0.014 C 
ENDBRANCH   2   8
TORSDOF 1
ENDMDL
MODEL 2
REMARK VINA RESULT:      -5.7      1.107      2.427
REMARK  1 active torsions:
REMARK  status: ('A' for Active; 'I' for Inactive)
REMARK    1  A    between atoms: C2_2  and  C10_10 
ROOT
HETATM    1  C1  UNL     1     -32.195   8.565   3.644  1.00 20.00    -0.018 A 
HETATM    2  C2  UNL     1     -32.508   8.144   2.403  1.00 20.00    -0.075 A 
HETATM    3  C3  UNL     1     -34.595   6.060   4.387  1.00 20.00     0.001 C 
HETATM    4  C4  UNL     1     -33.789   7.128   5.116  1.00 20.00     0.009 C 
HETATM    5  C5  UNL     1     -34.349   6.370   2.915  1.00 20.00     0.010 C 
HETATM    6  C6  UNL     1     -32.506   7.234   4.294  1.00 20.00     0.016 A 
HETATM    7  C7  UNL     1     -32.868   6.743   2.870  1.00 20.00     0.022 A 
ENDROOT
BRANCH   2   8
HETATM    8  C10 UNL     1     -32.509   8.821   1.019  1.00 20.00     0.006 C 
HETATM    9  C8  UNL     1     -32.846  10.284   1.193  1.00 20.00     0.014 C 
HETATM   10  C9  UNL     1     -31.164   8.613   0.359  1.00 20.00     0.014 C 
ENDBRANCH   2   8
TORSDOF 1
ENDMDL
MODEL 3
REMARK VINA RESULT:      -5.3      0.904      3.859
REMARK  1 active torsions:
REMARK  status: ('A' for Active; 'I' for Inactive)
REMARK    1  A    between atoms: C2_2  and  C10_10 
ROOT
HETATM    1  C1  UNL     1     -34.284   6.570   2.287  1.00 20.00    -0.018 A 
HETATM    2  C2  UNL     1     -33.907   6.374   3.566  1.00 20.00    -0.075 A 
HETATM    3  C3  UNL     1     -31.558   8.829   2.520  1.00 20.00     0.001 C 
HETATM    4  C4  UNL     1     -32.646   8.444   1.526  1.00 20.00     0.009 C 
HETATM    5  C5  UNL     1     -31.967   8.100   3.796  1.00 20.00     0.010 C 
HETATM    6  C6  UNL     1     -32.899   6.967   1.824  1.00 20.00     0.016 A 
HETATM    7  C7  UNL     1     -32.458   6.744   3.292  1.00 20.00     0.022 A 
ENDROOT
BRANCH   2   8
HETATM    8  C10 UNL     1     -34.656   5.941   4.841  1.00 20.00     0.006 C 
HETATM    9  C8  UNL     1     -34.495   4.448   5.016  1.00 20.00     0.014 C 
HETATM   10  C9  UNL     1     -34.126   6.722   6.022  1.00 20.00     0.014 C 
ENDBRANCH   2   8
TORSDOF 1
ENDMDL
MODEL 4
REMARK VINA RESULT:      -5.2      0.937      4.103
REMARK  1 active torsions:
REMARK  status: ('A' for Active; 'I' for Inactive)
REMARK    1  A    between atoms: C2_2  and  C10_10 
ROOT
HETATM    1  C1  UNL     1     -33.270   7.292   5.406  1.00 20.00    -0.018 A 
HETATM    2  C2  UNL     1     -34.011   6.516   4.591  1.00 20.00    -0.075 A 
HETATM    3  C3  UNL     1     -31.771   8.011   2.272  1.00 20.00     0.001 C 
HETATM    4  C4  UNL     1     -31.548   8.321   3.747  1.00 20.00     0.009 C 
HETATM    5  C5  UNL     1     -32.862   6.947   2.291  1.00 20.00     0.010 C 
HETATM    6  C6  UNL     1     -32.960   8.313   4.333  1.00 20.00     0.016 A 
HETATM    7  C7  UNL     1     -33.810   7.425   3.390  1.00 20.00     0.022 A 
ENDROOT
BRANCH   2   8
HETATM    8  C10 UNL     1     -34.778   5.194   4.790  1.00 20.00     0.006 C 
HETATM    9  C8  UNL     1     -34.103   4.113   3.976  1.00 20.00     0.014 C 
HETATM   10  C9  UNL     1     -34.828   4.861   6.264  1.00 20.00     0.014 C 
ENDBRANCH   2   8
TORSDOF 1
ENDMDL
MODEL 5
REMARK VINA RESULT:      -5.2      1.233      4.350
REMARK  1 active torsions:
REMARK  status: ('A' for Active; 'I' for Inactive)
REMARK    1  A    between atoms: C2_2  and  C10_10 
ROOT
HETATM    1  C1  UNL     1     -32.078   7.081   2.385  1.00 20.00    -0.018 A 
HETATM    2  C2  UNL     1     -32.992   7.718   3.144  1.00 20.00    -0.075 A 
HETATM    3  C3  UNL     1     -32.435  10.113   0.578  1.00 20.00     0.001 C 
HETATM    4  C4  UNL     1     -31.729   8.771   0.437  1.00 20.00     0.009 C 
HETATM    5  C5  UNL     1     -33.350   9.910   1.781  1.00 20.00     0.010 C 
HETATM    6  C6  UNL     1     -31.445   8.360   1.881  1.00 20.00     0.016 A 
HETATM    7  C7  UNL     1     -32.494   9.098   2.750  1.00 20.00     0.022 A 
ENDROOT
BRANCH   2   8
HETATM    8  C10 UNL     1     -34.127   7.237   4.068  1.00 20.00     0.006 C 
HETATM    9  C8  UNL     1     -34.566   5.860   3.624  1.00 20.00     0.014 C 
HETATM   10  C9  UNL     1     -33.647   7.255   5.502  1.00 20.00     0.014 C 
ENDBRANCH   2   8
TORSDOF 1
ENDMDL
MODEL 6
REMARK VINA RESULT:      -4.7     11.644     12.373
REMARK  1 active torsions:
REMARK  status: ('A' for Active; 'I' for Inactive)
REMARK    1  A    between atoms: C2_2  and  C10_10 
ROOT
HETATM    1  C1  UNL     1     -32.138  18.334  -0.740  1.00 20.00    -0.018 A 
HETATM    2  C2  UNL     1     -32.770  18.742   0.378  1.00 20.00    -0.075 A 
HETATM    3  C3  UNL     1     -35.365  16.959  -1.272  1.00 20.00     0.001 C 
HETATM    4  C4  UNL     1     -33.986  16.934  -1.921  1.00 20.00     0.009 C 
HETATM    5  C5  UNL     1     -35.119  17.656   0.061  1.00 20.00     0.010 C 
HETATM    6  C6  UNL     1     -33.401  18.301  -1.574  1.00 20.00     0.016 A 
HETATM    7  C7  UNL     1     -34.134  18.769  -0.292  1.00 20.00     0.022 A 
ENDROOT
BRANCH   2   8
HETATM    8  C10 UNL     1     -32.298  19.061   1.810  1.00 20.00     0.006 C 
HETATM    9  C8  UNL     1     -33.212  18.361   2.790  1.00 20.00     0.014 C 
HETATM   10  C9  UNL     1     -30.854  18.642   1.966  1.00 20.00     0.014 C 
ENDBRANCH   2   8
TORSDOF 1
ENDMDL
MODEL 7
REMARK VINA RESULT:      -4.6     11.151     12.233
REMARK  1 active torsions:
REMARK  status: ('A' for Active; 'I' for Inactive)
REMARK    1  A    between atoms: C2_2  and  C10_10 
ROOT
HETATM    1  C1  UNL     1     -35.348  16.382  -2.286  1.00 20.00    -0.018 A 
HETATM    2  C2  UNL     1     -34.195  16.452  -2.980  1.00 20.00    -0.075 A 
HETATM    3  C3  UNL     1     -33.419  18.450  -0.144  1.00 20.00     0.001 C 
HETATM    4  C4  UNL     1     -34.773  17.751  -0.149  1.00 20.00     0.009 C 
HETATM    5  C5  UNL     1     -32.721  17.885  -1.376  1.00 20.00     0.010 C 
HETATM    6  C6  UNL     1     -35.162  17.731  -1.626  1.00 20.00     0.016 A 
HETATM    7  C7  UNL     1     -33.834  17.819  -2.420  1.00 20.00     0.022 A 
ENDROOT
BRANCH   2   8
HETATM    8  C10 UNL     1     -33.491  15.506  -3.971  1.00 20.00     0.006 C 
HETATM    9  C8  UNL     1     -34.326  14.256  -4.127  1.00 20.00     0.014 C 
HETATM   10  C9  UNL     1     -33.277  16.225  -5.284  1.00 20.00     0.014 C 
ENDBRANCH   2   8
TORSDOF 1
ENDMDL
MODEL 8
REMARK VINA RESULT:      -4.5     11.596     12.474
REMARK  1 active torsions:
REMARK  status: ('A' for Active; 'I' for Inactive)
REMARK    1  A    between atoms: C2_2  and  C10_10 
ROOT
HETATM    1  C1  UNL     1     -35.588  15.923  -3.398  1.00 20.00    -0.018 A 
HETATM    2  C2  UNL     1     -34.315  16.158  -3.025  1.00 20.00    -0.075 A 
HETATM    3  C3  UNL     1     -33.866  15.119  -6.394  1.00 20.00     0.001 C 
HETATM    4  C4  UNL     1     -35.300  15.261  -5.899  1.00 20.00     0.009 C 
HETATM    5  C5  UNL     1     -33.034  15.673  -5.243  1.00 20.00     0.010 C 
HETATM    6  C6  UNL     1     -35.210  14.875  -4.423  1.00 20.00     0.016 A 
HETATM    7  C7  UNL     1     -33.744  15.141  -3.999  1.00 20.00     0.022 A 
ENDROOT
BRANCH   2   8
HETATM    8  C10 UNL     1     -33.666  17.105  -1.997  1.00 20.00     0.006 C 
HETATM    9  C8  UNL     1     -33.239  18.371  -2.704  1.00 20.00     0.014 C 
HETATM   10  C9  UNL     1     -34.644  17.371  -0.875  1.00 20.00     0.014 C 
ENDBRANCH   2   8
TORSDOF 1
ENDMDL
MODEL 9
REMARK VINA RESULT:      -4.5     11.232     12.773
REMARK  1 active torsions:
REMARK  status: ('A' for Active; 'I' for Inactive)
REMARK    1  A    between atoms: C2_2  and  C10_10 
ROOT
HETATM    1  C1  UNL     1     -34.644  14.412  -4.047  1.00 20.00    -0.018 A 
HETATM    2  C2  UNL     1     -34.277  15.611  -3.553  1.00 20.00    -0.075 A 
HETATM    3  C3  UNL     1     -33.752  16.107  -7.033  1.00 20.00     0.001 C 
HETATM    4  C4  UNL     1     -34.371  14.781  -6.608  1.00 20.00     0.009 C 
HETATM    5  C5  UNL     1     -33.713  16.913  -5.740  1.00 20.00     0.010 C 
HETATM    6  C6  UNL     1     -33.730  14.504  -5.249  1.00 20.00     0.016 A 
HETATM    7  C7  UNL     1     -33.303  15.883  -4.688  1.00 20.00     0.022 A 
ENDROOT
BRANCH   2   8
HETATM    8  C10 UNL     1     -34.686  16.417  -2.305  1.00 20.00     0.006 C 
HETATM    9  C8  UNL     1     -33.540  17.322  -1.913  1.00 20.00     0.014 C 
HETATM   10  C9  UNL     1     -35.954  17.186  -2.601  1.00 20.00     0.014 C 
ENDBRANCH   2   8
TORSDOF 1
ENDMDL
