MODEL 1
REMARK VINA RESULT:      -3.5      0.000      0.000
REMARK  0 active torsions:
REMARK  status: ('A' for Active; 'I' for Inactive)
ROOT
HETATM    1  C1  UNL     1     -35.259  16.774  -4.668  1.00 20.00     0.123 C 
HETATM    2  C2  UNL     1     -34.072  14.619  -7.014  1.00 20.00     0.123 C 
HETATM    3  C3  UNL     1     -37.282  14.349  -5.926  1.00 20.00     0.123 C 
HETATM    4  C4  UNL     1     -35.764  15.438  -4.121  1.00 20.00     0.296 C 
HETATM    5  C5  UNL     1     -33.881  14.735  -5.500  1.00 20.00     0.296 C 
HETATM    6  C6  UNL     1     -36.006  13.552  -5.646  1.00 20.00     0.296 C 
HETATM    7  N7  UNL     1     -35.091  14.310  -4.783  1.00 20.00     0.133 N 
HETATM    8  S8  UNL     1     -33.525  16.451  -5.040  1.00 20.00    -0.130 SA
HETATM    9  S9  UNL     1     -35.143  13.180  -7.195  1.00 20.00    -0.130 SA
HETATM   10  S10 UNL     1     -37.546  15.274  -4.402  1.00 20.00    -0.130 SA
ENDROOT
TORSDOF 0
ENDMDL
MODEL 2
REMARK VINA RESULT:      -3.5      0.005      3.260
REMARK  0 active torsions:
REMARK  status: ('A' for Active; 'I' for Inactive)
ROOT
HETATM    1  C1  UNL     1     -37.281  14.351  -5.925  1.00 20.00     0.123 C 
HETATM    2  C2  UNL     1     -35.258  16.778  -4.672  1.00 20.00     0.123 C 
HETATM    3  C3  UNL     1     -34.073  14.620  -7.016  1.00 20.00     0.123 C 
HETATM    4  C4  UNL     1     -36.006  13.555  -5.646  1.00 20.00     0.296 C 
HETATM    5  C5  UNL     1     -35.761  15.441  -4.123  1.00 20.00     0.296 C 
HETATM    6  C6  UNL     1     -33.880  14.739  -5.503  1.00 20.00     0.296 C 
HETATM    7  N7  UNL     1     -35.089  14.315  -4.783  1.00 20.00     0.133 N 
HETATM    8  S8  UNL     1     -37.544  15.278  -4.401  1.00 20.00    -0.130 SA
HETATM    9  S9  UNL     1     -33.525  16.456  -5.047  1.00 20.00    -0.130 SA
HETATM   10  S10 UNL     1     -35.143  13.181  -7.194  1.00 20.00    -0.130 SA
ENDROOT
TORSDOF 0
ENDMDL
MODEL 3
REMARK VINA RESULT:      -3.5      0.020      3.255
REMARK  0 active torsions:
REMARK  status: ('A' for Active; 'I' for Inactive)
ROOT
HETATM    1  C1  UNL     1     -34.052  14.631  -7.001  1.00 20.00     0.123 C 
HETATM    2  C2  UNL     1     -37.269  14.351  -5.940  1.00 20.00     0.123 C 
HETATM    3  C3  UNL     1     -35.265  16.785  -4.668  1.00 20.00     0.123 C 
HETATM    4  C4  UNL     1     -33.873  14.751  -5.487  1.00 20.00     0.296 C 
HETATM    5  C5  UNL     1     -35.993  13.559  -5.648  1.00 20.00     0.296 C 
HETATM    6  C6  UNL     1     -35.769  15.447  -4.124  1.00 20.00     0.296 C 
HETATM    7  N7  UNL     1     -35.088  14.322  -4.778  1.00 20.00     0.133 N 
HETATM    8  S8  UNL     1     -35.116  13.188  -7.189  1.00 20.00    -0.130 SA
HETATM    9  S9  UNL     1     -37.549  15.278  -4.420  1.00 20.00    -0.130 SA
HETATM   10  S10 UNL     1     -33.528  16.468  -5.026  1.00 20.00    -0.130 SA
ENDROOT
TORSDOF 0
ENDMDL
MODEL 4
REMARK VINA RESULT:      -3.4      1.701      2.547
REMARK  0 active torsions:
REMARK  status: ('A' for Active; 'I' for Inactive)
ROOT
HETATM    1  C1  UNL     1     -33.937  17.300  -6.126  1.00 20.00     0.123 C 
HETATM    2  C2  UNL     1     -35.894  14.590  -6.742  1.00 20.00     0.123 C 
HETATM    3  C3  UNL     1     -35.103  15.424  -3.542  1.00 20.00     0.123 C 
HETATM    4  C4  UNL     1     -33.294  16.259  -5.208  1.00 20.00     0.296 C 
HETATM    5  C5  UNL     1     -34.392  14.852  -6.868  1.00 20.00     0.296 C 
HETATM    6  C6  UNL     1     -34.610  14.335  -4.498  1.00 20.00     0.296 C 
HETATM    7  N7  UNL     1     -33.753  14.904  -5.546  1.00 20.00     0.133 N 
HETATM    8  S8  UNL     1     -34.098  16.436  -7.699  1.00 20.00    -0.130 SA
HETATM    9  S9  UNL     1     -36.015  13.517  -5.298  1.00 20.00    -0.130 SA
HETATM   10  S10 UNL     1     -33.727  16.586  -3.480  1.00 20.00    -0.130 SA
ENDROOT
TORSDOF 0
ENDMDL
MODEL 5
REMARK VINA RESULT:      -3.4      1.709      3.722
REMARK  0 active torsions:
REMARK  status: ('A' for Active; 'I' for Inactive)
ROOT
HETATM    1  C1  UNL     1     -35.907  14.595  -6.755  1.00 20.00     0.123 C 
HETATM    2  C2  UNL     1     -35.087  15.449  -3.569  1.00 20.00     0.123 C 
HETATM    3  C3  UNL     1     -33.967  17.325  -6.174  1.00 20.00     0.123 C 
HETATM    4  C4  UNL     1     -34.410  14.871  -6.901  1.00 20.00     0.296 C 
HETATM    5  C5  UNL     1     -34.594  14.361  -4.526  1.00 20.00     0.296 C 
HETATM    6  C6  UNL     1     -33.304  16.292  -5.260  1.00 20.00     0.296 C 
HETATM    7  N7  UNL     1     -33.755  14.933  -5.587  1.00 20.00     0.133 N 
HETATM    8  S8  UNL     1     -36.001  13.526  -5.306  1.00 20.00    -0.130 SA
HETATM    9  S9  UNL     1     -33.721  16.625  -3.528  1.00 20.00    -0.130 SA
HETATM   10  S10 UNL     1     -34.139  16.453  -7.741  1.00 20.00    -0.130 SA
ENDROOT
TORSDOF 0
ENDMDL
MODEL 6
REMARK VINA RESULT:      -3.4      1.711      2.188
REMARK  0 active torsions:
REMARK  status: ('A' for Active; 'I' for Inactive)
ROOT
HETATM    1  C1  UNL     1     -35.084  15.463  -3.582  1.00 20.00     0.123 C 
HETATM    2  C2  UNL     1     -33.967  17.307  -6.210  1.00 20.00     0.123 C 
HETATM    3  C3  UNL     1     -35.907  14.569  -6.757  1.00 20.00     0.123 C 
HETATM    4  C4  UNL     1     -34.594  14.363  -4.525  1.00 20.00     0.296 C 
HETATM    5  C5  UNL     1     -33.302  16.285  -5.285  1.00 20.00     0.296 C 
HETATM    6  C6  UNL     1     -34.409  14.844  -6.907  1.00 20.00     0.296 C 
HETATM    7  N7  UNL     1     -33.754  14.922  -5.595  1.00 20.00     0.133 N 
HETATM    8  S8  UNL     1     -33.718  16.639  -3.557  1.00 20.00    -0.130 SA
HETATM    9  S9  UNL     1     -34.141  16.416  -7.767  1.00 20.00    -0.130 SA
HETATM   10  S10 UNL     1     -36.000  13.519  -5.295  1.00 20.00    -0.130 SA
ENDROOT
TORSDOF 0
ENDMDL
MODEL 7
REMARK VINA RESULT:      -3.2      0.993      2.907
REMARK  0 active torsions:
REMARK  status: ('A' for Active; 'I' for Inactive)
ROOT
HETATM    1  C1  UNL     1     -33.188  15.521  -5.477  1.00 20.00     0.123 C 
HETATM    2  C2  UNL     1     -36.089  16.007  -3.772  1.00 20.00     0.123 C 
HETATM    3  C3  UNL     1     -35.860  13.501  -6.059  1.00 20.00     0.123 C 
HETATM    4  C4  UNL     1     -34.212  15.433  -6.609  1.00 20.00     0.296 C 
HETATM    5  C5  UNL     1     -35.422  16.735  -4.942  1.00 20.00     0.296 C 
HETATM    6  C6  UNL     1     -36.524  14.880  -6.072  1.00 20.00     0.296 C 
HETATM    7  N7  UNL     1     -35.520  15.947  -6.177  1.00 20.00     0.133 N 
HETATM    8  S8  UNL     1     -33.667  17.015  -4.589  1.00 20.00    -0.130 SA
HETATM    9  S9  UNL     1     -37.466  15.139  -4.546  1.00 20.00    -0.130 SA
HETATM   10  S10 UNL     1     -34.428  13.712  -7.133  1.00 20.00    -0.130 SA
ENDROOT
TORSDOF 0
ENDMDL
MODEL 8
REMARK VINA RESULT:      -3.2      0.984      2.906
REMARK  0 active torsions:
REMARK  status: ('A' for Active; 'I' for Inactive)
ROOT
HETATM    1  C1  UNL     1     -36.081  16.004  -3.789  1.00 20.00     0.123 C 
HETATM    2  C2  UNL     1     -35.888  13.494  -6.074  1.00 20.00     0.123 C 
HETATM    3  C3  UNL     1     -33.204  15.510  -5.532  1.00 20.00     0.123 C 
HETATM    4  C4  UNL     1     -35.428  16.729  -4.967  1.00 20.00     0.296 C 
HETATM    5  C5  UNL     1     -36.550  14.874  -6.081  1.00 20.00     0.296 C 
HETATM    6  C6  UNL     1     -34.245  15.422  -6.651  1.00 20.00     0.296 C 
HETATM    7  N7  UNL     1     -35.545  15.939  -6.202  1.00 20.00     0.133 N 
HETATM    8  S8  UNL     1     -37.471  15.138  -4.543  1.00 20.00    -0.130 SA
HETATM    9  S9  UNL     1     -34.470  13.700  -7.168  1.00 20.00    -0.130 SA
HETATM   10  S10 UNL     1     -33.668  17.006  -4.640  1.00 20.00    -0.130 SA
ENDROOT
TORSDOF 0
ENDMDL
MODEL 9
REMARK VINA RESULT:      -3.2      0.979      2.906
REMARK  0 active torsions:
REMARK  status: ('A' for Active; 'I' for Inactive)
ROOT
HETATM    1  C1  UNL     1     -35.878  13.469  -6.052  1.00 20.00     0.123 C 
HETATM    2  C2  UNL     1     -33.203  15.514  -5.587  1.00 20.00     0.123 C 
HETATM    3  C3  UNL     1     -36.066  16.031  -3.826  1.00 20.00     0.123 C 
HETATM    4  C4  UNL     1     -36.550  14.842  -6.084  1.00 20.00     0.296 C 
HETATM    5  C5  UNL     1     -34.255  15.394  -6.692  1.00 20.00     0.296 C 
HETATM    6  C6  UNL     1     -35.429  16.731  -5.029  1.00 20.00     0.296 C 
HETATM    7  N7  UNL     1     -35.554  15.912  -6.242  1.00 20.00     0.133 N 
HETATM    8  S8  UNL     1     -34.474  13.658  -7.166  1.00 20.00    -0.130 SA
HETATM    9  S9  UNL     1     -33.668  17.028  -4.725  1.00 20.00    -0.130 SA
HETATM   10  S10 UNL     1     -37.456  15.138  -4.544  1.00 20.00    -0.130 SA
ENDROOT
TORSDOF 0
ENDMDL
