MODEL 1
REMARK VINA RESULT:      -3.9      0.000      0.000
REMARK  0 active torsions:
REMARK  status: ('A' for Active; 'I' for Inactive)
ROOT
HETATM    1  C1  UNL     1     -33.084   7.079   3.652  1.00 20.00     0.196 C 
HETATM    2  C2  UNL     1     -33.811   7.570   4.886  1.00 20.00     0.092 C 
HETATM    3  C3  UNL     1     -33.971   6.494   5.959  1.00 20.00     0.019 C 
HETATM    4  C4  UNL     1     -34.817   5.295   5.528  1.00 20.00     0.087 C 
HETATM    5  O5  UNL     1     -32.003   7.514   3.280  1.00 20.00    -0.285 OA
HETATM    6  S6  UNL     1     -33.964   5.862   2.736  1.00 20.00    -0.020 SA
HETATM    7  S7  UNL     1     -34.022   4.392   4.166  1.00 20.00    -0.090 SA
ENDROOT
TORSDOF 0
ENDMDL
MODEL 2
REMARK VINA RESULT:      -3.8      1.520      1.937
REMARK  0 active torsions:
REMARK  status: ('A' for Active; 'I' for Inactive)
ROOT
HETATM    1  C1  UNL     1     -33.685   7.059   5.206  1.00 20.00     0.196 C 
HETATM    2  C2  UNL     1     -34.650   6.074   5.831  1.00 20.00     0.092 C 
HETATM    3  C3  UNL     1     -34.317   4.618   5.508  1.00 20.00     0.019 C 
HETATM    4  C4  UNL     1     -34.399   4.268   4.020  1.00 20.00     0.087 C 
HETATM    5  O5  UNL     1     -32.953   7.798   5.850  1.00 20.00    -0.285 OA
HETATM    6  S6  UNL     1     -33.750   7.113   3.449  1.00 20.00    -0.020 SA
HETATM    7  S7  UNL     1     -33.156   5.188   3.066  1.00 20.00    -0.090 SA
ENDROOT
TORSDOF 0
ENDMDL
MODEL 3
REMARK VINA RESULT:      -3.7      1.885      2.356
REMARK  0 active torsions:
REMARK  status: ('A' for Active; 'I' for Inactive)
ROOT
HETATM    1  C1  UNL     1     -33.519   5.676   3.030  1.00 20.00     0.196 C 
HETATM    2  C2  UNL     1     -32.990   7.092   2.944  1.00 20.00     0.092 C 
HETATM    3  C3  UNL     1     -32.508   7.636   4.288  1.00 20.00     0.019 C 
HETATM    4  C4  UNL     1     -33.604   7.753   5.350  1.00 20.00     0.087 C 
HETATM    5  O5  UNL     1     -33.009   4.721   2.460  1.00 20.00    -0.285 OA
HETATM    6  S6  UNL     1     -34.997   5.517   3.971  1.00 20.00    -0.020 SA
HETATM    7  S7  UNL     1     -34.262   6.118   5.789  1.00 20.00    -0.090 SA
ENDROOT
TORSDOF 0
ENDMDL
MODEL 4
REMARK VINA RESULT:      -3.6      2.024      2.798
REMARK  0 active torsions:
REMARK  status: ('A' for Active; 'I' for Inactive)
ROOT
HETATM    1  C1  UNL     1     -34.647   5.889   4.075  1.00 20.00     0.196 C 
HETATM    2  C2  UNL     1     -34.132   6.323   5.431  1.00 20.00     0.092 C 
HETATM    3  C3  UNL     1     -33.537   7.730   5.428  1.00 20.00     0.019 C 
HETATM    4  C4  UNL     1     -32.304   7.891   4.536  1.00 20.00     0.087 C 
HETATM    5  O5  UNL     1     -35.822   5.646   3.837  1.00 20.00    -0.285 OA
HETATM    6  S6  UNL     1     -33.390   5.687   2.861  1.00 20.00    -0.020 SA
HETATM    7  S7  UNL     1     -32.726   7.626   2.788  1.00 20.00    -0.090 SA
ENDROOT
TORSDOF 0
ENDMDL
MODEL 5
REMARK VINA RESULT:      -3.6      2.563      3.393
REMARK  0 active torsions:
REMARK  status: ('A' for Active; 'I' for Inactive)
ROOT
HETATM    1  C1  UNL     1     -34.382   5.813   5.172  1.00 20.00     0.196 C 
HETATM    2  C2  UNL     1     -35.003   5.757   3.792  1.00 20.00     0.092 C 
HETATM    3  C3  UNL     1     -33.993   5.980   2.668  1.00 20.00     0.019 C 
HETATM    4  C4  UNL     1     -33.331   7.360   2.680  1.00 20.00     0.087 C 
HETATM    5  O5  UNL     1     -34.344   4.863   5.941  1.00 20.00    -0.285 OA
HETATM    6  S6  UNL     1     -33.772   7.400   5.621  1.00 20.00    -0.020 SA
HETATM    7  S7  UNL     1     -32.327   7.587   4.177  1.00 20.00    -0.090 SA
ENDROOT
TORSDOF 0
ENDMDL
MODEL 6
REMARK VINA RESULT:      -3.6      2.490      3.286
REMARK  0 active torsions:
REMARK  status: ('A' for Active; 'I' for Inactive)
ROOT
HETATM    1  C1  UNL     1     -34.210   4.782   4.101  1.00 20.00     0.196 C 
HETATM    2  C2  UNL     1     -33.928   5.481   2.788  1.00 20.00     0.092 C 
HETATM    3  C3  UNL     1     -32.842   6.550   2.897  1.00 20.00     0.019 C 
HETATM    4  C4  UNL     1     -33.196   7.715   3.825  1.00 20.00     0.087 C 
HETATM    5  O5  UNL     1     -34.013   3.591   4.296  1.00 20.00    -0.285 OA
HETATM    6  S6  UNL     1     -34.926   5.820   5.328  1.00 20.00    -0.020 SA
HETATM    7  S7  UNL     1     -33.377   7.147   5.542  1.00 20.00    -0.090 SA
ENDROOT
TORSDOF 0
ENDMDL
MODEL 7
REMARK VINA RESULT:      -3.4     12.524     13.506
REMARK  0 active torsions:
REMARK  status: ('A' for Active; 'I' for Inactive)
ROOT
HETATM    1  C1  UNL     1     -35.551  13.772  -5.511  1.00 20.00     0.196 C 
HETATM    2  C2  UNL     1     -35.516  14.286  -6.935  1.00 20.00     0.092 C 
HETATM    3  C3  UNL     1     -34.110  14.646  -7.411  1.00 20.00     0.019 C 
HETATM    4  C4  UNL     1     -33.452  15.785  -6.629  1.00 20.00     0.087 C 
HETATM    5  O5  UNL     1     -35.896  12.640  -5.203  1.00 20.00    -0.285 OA
HETATM    6  S6  UNL     1     -35.117  14.975  -4.303  1.00 20.00    -0.020 SA
HETATM    7  S7  UNL     1     -33.183  15.314  -4.895  1.00 20.00    -0.090 SA
ENDROOT
TORSDOF 0
ENDMDL
MODEL 8
REMARK VINA RESULT:      -3.3     12.447     12.734
REMARK  0 active torsions:
REMARK  status: ('A' for Active; 'I' for Inactive)
ROOT
HETATM    1  C1  UNL     1     -35.468  13.926  -5.165  1.00 20.00     0.196 C 
HETATM    2  C2  UNL     1     -34.105  14.295  -5.712  1.00 20.00     0.092 C 
HETATM    3  C3  UNL     1     -33.170  14.880  -4.654  1.00 20.00     0.019 C 
HETATM    4  C4  UNL     1     -33.654  16.198  -4.045  1.00 20.00     0.087 C 
HETATM    5  O5  UNL     1     -35.903  12.783  -5.132  1.00 20.00    -0.285 OA
HETATM    6  S6  UNL     1     -36.427  15.303  -4.638  1.00 20.00    -0.020 SA
HETATM    7  S7  UNL     1     -35.205  15.961  -3.128  1.00 20.00    -0.090 SA
ENDROOT
TORSDOF 0
ENDMDL
MODEL 9
REMARK VINA RESULT:      -3.3     12.522     13.063
REMARK  0 active torsions:
REMARK  status: ('A' for Active; 'I' for Inactive)
ROOT
HETATM    1  C1  UNL     1     -35.349  13.821  -5.238  1.00 20.00     0.196 C 
HETATM    2  C2  UNL     1     -34.360  14.288  -4.192  1.00 20.00     0.092 C 
HETATM    3  C3  UNL     1     -34.799  15.564  -3.475  1.00 20.00     0.019 C 
HETATM    4  C4  UNL     1     -34.924  16.787  -4.386  1.00 20.00     0.087 C 
HETATM    5  O5  UNL     1     -35.958  12.761  -5.176  1.00 20.00    -0.285 OA
HETATM    6  S6  UNL     1     -35.506  14.905  -6.614  1.00 20.00    -0.020 SA
HETATM    7  S7  UNL     1     -36.234  16.546  -5.623  1.00 20.00    -0.090 SA
ENDROOT
TORSDOF 0
ENDMDL
