MODEL 1
REMARK VINA RESULT:      -4.9      0.000      0.000
REMARK  0 active torsions:
REMARK  status: ('A' for Active; 'I' for Inactive)
ROOT
HETATM    1  C1  UNL     1     -35.984  13.789  -5.532  1.00 20.00     0.135 C 
HETATM    2  C2  UNL     1     -36.541  14.823  -4.588  1.00 20.00     0.080 C 
HETATM    3  C3  UNL     1     -35.445  15.541  -3.810  1.00 20.00     0.016 C 
HETATM    4  C4  UNL     1     -34.200  13.890  -7.393  1.00 20.00     0.023 A 
HETATM    5  C5  UNL     1     -33.668  15.724  -5.654  1.00 20.00     0.014 C 
HETATM    6  C6  UNL     1     -34.403  15.291  -6.891  1.00 20.00     0.003 A 
HETATM    7  C7  UNL     1     -35.560  14.306  -6.868  1.00 20.00     0.021 A 
HETATM    8  C8  UNL     1     -34.518  16.494  -4.615  1.00 20.00    -0.047 C 
HETATM    9  C9  UNL     1     -36.646  14.478  -7.902  1.00 20.00     0.024 C 
HETATM   10  C10 UNL     1     -35.316  17.637  -5.268  1.00 20.00     0.015 C 
HETATM   11  C11 UNL     1     -33.538  17.134  -3.600  1.00 20.00     0.015 C 
HETATM   12  O12 UNL     1     -35.887  12.601  -5.254  1.00 20.00    -0.297 OA
ENDROOT
TORSDOF 0
ENDMDL
MODEL 2
REMARK VINA RESULT:      -4.8      1.368      2.142
REMARK  0 active torsions:
REMARK  status: ('A' for Active; 'I' for Inactive)
ROOT
HETATM    1  C1  UNL     1     -35.402  14.135  -5.145  1.00 20.00     0.135 C 
HETATM    2  C2  UNL     1     -36.560  15.098  -5.098  1.00 20.00     0.080 C 
HETATM    3  C3  UNL     1     -36.722  15.735  -3.722  1.00 20.00     0.016 C 
HETATM    4  C4  UNL     1     -32.906  14.357  -4.533  1.00 20.00     0.023 A 
HETATM    5  C5  UNL     1     -34.248  16.037  -3.103  1.00 20.00     0.014 C 
HETATM    6  C6  UNL     1     -33.528  15.717  -4.381  1.00 20.00     0.003 A 
HETATM    7  C7  UNL     1     -34.070  14.751  -5.421  1.00 20.00     0.021 A 
HETATM    8  C8  UNL     1     -35.620  16.735  -3.274  1.00 20.00    -0.047 C 
HETATM    9  C9  UNL     1     -33.736  15.021  -6.868  1.00 20.00     0.024 C 
HETATM   10  C10 UNL     1     -35.530  17.939  -4.230  1.00 20.00     0.015 C 
HETATM   11  C11 UNL     1     -36.040  17.276  -1.885  1.00 20.00     0.015 C 
HETATM   12  O12 UNL     1     -35.520  12.927  -4.986  1.00 20.00    -0.297 OA
ENDROOT
TORSDOF 0
ENDMDL
MODEL 3
REMARK VINA RESULT:      -4.7      1.691      2.769
REMARK  0 active torsions:
REMARK  status: ('A' for Active; 'I' for Inactive)
ROOT
HETATM    1  C1  UNL     1     -35.180  15.516  -7.062  1.00 20.00     0.135 C 
HETATM    2  C2  UNL     1     -33.757  15.913  -6.762  1.00 20.00     0.080 C 
HETATM    3  C3  UNL     1     -33.618  16.563  -5.391  1.00 20.00     0.016 C 
HETATM    4  C4  UNL     1     -36.913  14.092  -5.787  1.00 20.00     0.023 A 
HETATM    5  C5  UNL     1     -35.283  15.123  -4.069  1.00 20.00     0.014 C 
HETATM    6  C6  UNL     1     -35.620  14.014  -5.025  1.00 20.00     0.003 A 
HETATM    7  C7  UNL     1     -35.596  14.183  -6.534  1.00 20.00     0.021 A 
HETATM    8  C8  UNL     1     -33.829  15.649  -4.152  1.00 20.00    -0.047 C 
HETATM    9  C9  UNL     1     -35.223  12.980  -7.367  1.00 20.00     0.024 C 
HETATM   10  C10 UNL     1     -32.806  14.499  -4.120  1.00 20.00     0.015 C 
HETATM   11  C11 UNL     1     -33.582  16.524  -2.898  1.00 20.00     0.015 C 
HETATM   12  O12 UNL     1     -35.956  16.214  -7.701  1.00 20.00    -0.297 OA
ENDROOT
TORSDOF 0
ENDMDL
MODEL 4
REMARK VINA RESULT:      -4.6      1.239      1.448
REMARK  0 active torsions:
REMARK  status: ('A' for Active; 'I' for Inactive)
ROOT
HETATM    1  C1  UNL     1     -35.130  13.790  -6.415  1.00 20.00     0.135 C 
HETATM    2  C2  UNL     1     -35.582  13.633  -4.986  1.00 20.00     0.080 C 
HETATM    3  C3  UNL     1     -34.669  14.366  -4.010  1.00 20.00     0.016 C 
HETATM    4  C4  UNL     1     -34.591  15.849  -7.872  1.00 20.00     0.023 A 
HETATM    5  C5  UNL     1     -34.163  16.465  -5.401  1.00 20.00     0.014 C 
HETATM    6  C6  UNL     1     -35.115  16.355  -6.558  1.00 20.00     0.003 A 
HETATM    7  C7  UNL     1     -35.607  15.025  -7.105  1.00 20.00     0.021 A 
HETATM    8  C8  UNL     1     -34.694  15.919  -4.053  1.00 20.00    -0.047 C 
HETATM    9  C9  UNL     1     -36.999  14.981  -7.687  1.00 20.00     0.024 C 
HETATM   10  C10 UNL     1     -36.096  16.469  -3.730  1.00 20.00     0.015 C 
HETATM   11  C11 UNL     1     -33.734  16.416  -2.944  1.00 20.00     0.015 C 
HETATM   12  O12 UNL     1     -34.432  12.970  -6.998  1.00 20.00    -0.297 OA
ENDROOT
TORSDOF 0
ENDMDL
MODEL 5
REMARK VINA RESULT:      -4.5      1.512      1.752
REMARK  0 active torsions:
REMARK  status: ('A' for Active; 'I' for Inactive)
ROOT
HETATM    1  C1  UNL     1     -37.493  14.863  -5.112  1.00 20.00     0.135 C 
HETATM    2  C2  UNL     1     -37.483  16.290  -4.629  1.00 20.00     0.080 C 
HETATM    3  C3  UNL     1     -36.596  16.476  -3.403  1.00 20.00     0.016 C 
HETATM    4  C4  UNL     1     -35.617  13.209  -5.746  1.00 20.00     0.023 A 
HETATM    5  C5  UNL     1     -34.674  14.892  -4.029  1.00 20.00     0.014 C 
HETATM    6  C6  UNL     1     -34.969  14.533  -5.457  1.00 20.00     0.003 A 
HETATM    7  C7  UNL     1     -36.375  14.491  -6.030  1.00 20.00     0.021 A 
HETATM    8  C8  UNL     1     -35.063  16.332  -3.614  1.00 20.00    -0.047 C 
HETATM    9  C9  UNL     1     -36.549  14.848  -7.486  1.00 20.00     0.024 C 
HETATM   10  C10 UNL     1     -34.532  17.374  -4.615  1.00 20.00     0.015 C 
HETATM   11  C11 UNL     1     -34.391  16.617  -2.248  1.00 20.00     0.015 C 
HETATM   12  O12 UNL     1     -38.353  14.049  -4.800  1.00 20.00    -0.297 OA
ENDROOT
TORSDOF 0
ENDMDL
MODEL 6
REMARK VINA RESULT:      -4.4      1.487      2.023
REMARK  0 active torsions:
REMARK  status: ('A' for Active; 'I' for Inactive)
ROOT
HETATM    1  C1  UNL     1     -33.900  14.417  -4.442  1.00 20.00     0.135 C 
HETATM    2  C2  UNL     1     -34.260  15.525  -3.486  1.00 20.00     0.080 C 
HETATM    3  C3  UNL     1     -33.727  16.877  -3.946  1.00 20.00     0.016 C 
HETATM    4  C4  UNL     1     -34.231  14.112  -6.982  1.00 20.00     0.023 A 
HETATM    5  C5  UNL     1     -34.104  16.641  -6.475  1.00 20.00     0.014 C 
HETATM    6  C6  UNL     1     -34.923  15.387  -6.590  1.00 20.00     0.003 A 
HETATM    7  C7  UNL     1     -34.831  14.241  -5.596  1.00 20.00     0.021 A 
HETATM    8  C8  UNL     1     -34.378  17.496  -5.214  1.00 20.00    -0.047 C 
HETATM    9  C9  UNL     1     -36.082  13.436  -5.339  1.00 20.00     0.024 C 
HETATM   10  C10 UNL     1     -35.884  17.743  -5.010  1.00 20.00     0.015 C 
HETATM   11  C11 UNL     1     -33.709  18.875  -5.437  1.00 20.00     0.015 C 
HETATM   12  O12 UNL     1     -32.925  13.689  -4.299  1.00 20.00    -0.297 OA
ENDROOT
TORSDOF 0
ENDMDL
MODEL 7
REMARK VINA RESULT:      -4.4      2.033      4.088
REMARK  0 active torsions:
REMARK  status: ('A' for Active; 'I' for Inactive)
ROOT
HETATM    1  C1  UNL     1     -35.338  17.304  -4.762  1.00 20.00     0.135 C 
HETATM    2  C2  UNL     1     -36.346  16.612  -5.643  1.00 20.00     0.080 C 
HETATM    3  C3  UNL     1     -35.689  15.640  -6.615  1.00 20.00     0.016 C 
HETATM    4  C4  UNL     1     -33.464  16.434  -3.219  1.00 20.00     0.023 A 
HETATM    5  C5  UNL     1     -33.851  14.697  -5.089  1.00 20.00     0.014 C 
HETATM    6  C6  UNL     1     -34.211  15.237  -3.735  1.00 20.00     0.003 A 
HETATM    7  C7  UNL     1     -34.942  16.554  -3.533  1.00 20.00     0.021 A 
HETATM    8  C8  UNL     1     -35.051  14.359  -6.007  1.00 20.00    -0.047 C 
HETATM    9  C9  UNL     1     -35.865  16.667  -2.345  1.00 20.00     0.024 C 
HETATM   10  C10 UNL     1     -36.100  13.500  -5.279  1.00 20.00     0.015 C 
HETATM   11  C11 UNL     1     -34.506  13.521  -7.191  1.00 20.00     0.015 C 
HETATM   12  O12 UNL     1     -34.872  18.410  -5.007  1.00 20.00    -0.297 OA
ENDROOT
TORSDOF 0
ENDMDL
MODEL 8
REMARK VINA RESULT:      -4.4      2.467      4.510
REMARK  0 active torsions:
REMARK  status: ('A' for Active; 'I' for Inactive)
ROOT
HETATM    1  C1  UNL     1     -35.639  17.897  -3.483  1.00 20.00     0.135 C 
HETATM    2  C2  UNL     1     -36.480  16.940  -4.288  1.00 20.00     0.080 C 
HETATM    3  C3  UNL     1     -35.723  16.371  -5.482  1.00 20.00     0.016 C 
HETATM    4  C4  UNL     1     -33.308  17.699  -2.395  1.00 20.00     0.023 A 
HETATM    5  C5  UNL     1     -33.403  16.094  -4.416  1.00 20.00     0.014 C 
HETATM    6  C6  UNL     1     -33.656  16.350  -2.958  1.00 20.00     0.003 A 
HETATM    7  C7  UNL     1     -34.760  17.265  -2.454  1.00 20.00     0.021 A 
HETATM    8  C8  UNL     1     -34.556  15.392  -5.174  1.00 20.00    -0.047 C 
HETATM    9  C9  UNL     1     -35.404  16.924  -1.133  1.00 20.00     0.024 C 
HETATM   10  C10 UNL     1     -35.052  14.143  -4.424  1.00 20.00     0.015 C 
HETATM   11  C11 UNL     1     -33.992  14.920  -6.537  1.00 20.00     0.015 C 
HETATM   12  O12 UNL     1     -35.665  19.112  -3.634  1.00 20.00    -0.297 OA
ENDROOT
TORSDOF 0
ENDMDL
MODEL 9
REMARK VINA RESULT:      -4.4      1.461      3.277
REMARK  0 active torsions:
REMARK  status: ('A' for Active; 'I' for Inactive)
ROOT
HETATM    1  C1  UNL     1     -35.150  13.733  -5.569  1.00 20.00     0.135 C 
HETATM    2  C2  UNL     1     -34.909  13.954  -7.040  1.00 20.00     0.080 C 
HETATM    3  C3  UNL     1     -35.818  15.034  -7.616  1.00 20.00     0.016 C 
HETATM    4  C4  UNL     1     -35.187  15.321  -3.536  1.00 20.00     0.023 A 
HETATM    5  C5  UNL     1     -35.825  16.676  -5.641  1.00 20.00     0.014 C 
HETATM    6  C6  UNL     1     -34.763  16.130  -4.730  1.00 20.00     0.003 A 
HETATM    7  C7  UNL     1     -34.411  14.654  -4.655  1.00 20.00     0.021 A 
HETATM    8  C8  UNL     1     -35.555  16.495  -7.155  1.00 20.00    -0.047 C 
HETATM    9  C9  UNL     1     -32.979  14.291  -4.343  1.00 20.00     0.024 C 
HETATM   10  C10 UNL     1     -34.139  16.960  -7.539  1.00 20.00     0.015 C 
HETATM   11  C11 UNL     1     -36.561  17.395  -7.914  1.00 20.00     0.015 C 
HETATM   12  O12 UNL     1     -35.885  12.859  -5.127  1.00 20.00    -0.297 OA
ENDROOT
TORSDOF 0
ENDMDL
