MODEL 1
REMARK VINA RESULT:      -5.3      0.000      0.000
REMARK  3 active torsions:
REMARK  status: ('A' for Active; 'I' for Inactive)
REMARK    1  A    between atoms: C2_2  and  C8_8 
REMARK    2  A    between atoms: C6_6  and  C7_7 
REMARK    3  A    between atoms: C7_7  and  C8_8 
ROOT
HETATM    1  C5  UNL     1     -33.028   4.649   2.559  1.00 20.00     0.014 C 
HETATM    2  C8  UNL     1     -33.380   5.949   3.287  1.00 20.00     0.004 C 
ENDROOT
BRANCH   2   3
HETATM    3  C2  UNL     1     -33.408   7.086   2.294  1.00 20.00    -0.027 C 
HETATM    4  C1  UNL     1     -32.560   8.124   2.325  1.00 20.00    -0.035 C 
HETATM    5  C3  UNL     1     -31.481   8.286   3.345  1.00 20.00     0.036 C 
ENDBRANCH   2   3
BRANCH   2   6
HETATM    6  C7  UNL     1     -34.726   5.796   4.021  1.00 20.00     0.008 C 
BRANCH   6   7
HETATM    7  C6  UNL     1     -34.591   5.864   5.545  1.00 20.00    -0.004 C 
HETATM    8  C4  UNL     1     -33.864   7.126   5.982  1.00 20.00     0.005 C 
ENDBRANCH   6   7
ENDBRANCH   2   6
TORSDOF 3
ENDMDL
MODEL 2
REMARK VINA RESULT:      -5.3      1.222      2.329
REMARK  3 active torsions:
REMARK  status: ('A' for Active; 'I' for Inactive)
REMARK    1  A    between atoms: C2_2  and  C8_8 
REMARK    2  A    between atoms: C6_6  and  C7_7 
REMARK    3  A    between atoms: C7_7  and  C8_8 
ROOT
HETATM    1  C5  UNL     1     -33.579   7.452   5.419  1.00 20.00     0.014 C 
HETATM    2  C8  UNL     1     -33.543   7.512   3.890  1.00 20.00     0.004 C 
ENDROOT
BRANCH   2   3
HETATM    3  C2  UNL     1     -32.110   7.634   3.430  1.00 20.00    -0.027 C 
HETATM    4  C1  UNL     1     -31.724   8.376   2.382  1.00 20.00    -0.035 C 
HETATM    5  C3  UNL     1     -32.662   9.176   1.539  1.00 20.00     0.036 C 
ENDBRANCH   2   3
BRANCH   2   6
HETATM    6  C7  UNL     1     -34.233   6.270   3.295  1.00 20.00     0.008 C 
BRANCH   6   7
HETATM    7  C6  UNL     1     -34.913   5.395   4.351  1.00 20.00    -0.004 C 
HETATM    8  C4  UNL     1     -34.239   4.037   4.465  1.00 20.00     0.005 C 
ENDBRANCH   6   7
ENDBRANCH   2   6
TORSDOF 3
ENDMDL
MODEL 3
REMARK VINA RESULT:      -5.0      1.345      3.966
REMARK  3 active torsions:
REMARK  status: ('A' for Active; 'I' for Inactive)
REMARK    1  A    between atoms: C2_2  and  C8_8 
REMARK    2  A    between atoms: C6_6  and  C7_7 
REMARK    3  A    between atoms: C7_7  and  C8_8 
ROOT
HETATM    1  C5  UNL     1     -33.478   7.610   5.930  1.00 20.00     0.014 C 
HETATM    2  C8  UNL     1     -33.142   7.006   4.565  1.00 20.00     0.004 C 
ENDROOT
BRANCH   2   3
HETATM    3  C2  UNL     1     -34.422   6.671   3.838  1.00 20.00    -0.027 C 
HETATM    4  C1  UNL     1     -35.029   5.478   3.908  1.00 20.00    -0.035 C 
HETATM    5  C3  UNL     1     -34.515   4.330   4.712  1.00 20.00     0.036 C 
ENDBRANCH   2   3
BRANCH   2   6
HETATM    6  C7  UNL     1     -32.262   7.980   3.757  1.00 20.00     0.008 C 
BRANCH   6   7
HETATM    7  C6  UNL     1     -32.484   7.878   2.245  1.00 20.00    -0.004 C 
HETATM    8  C4  UNL     1     -32.257   9.217   1.560  1.00 20.00     0.005 C 
ENDBRANCH   6   7
ENDBRANCH   2   6
TORSDOF 3
ENDMDL
MODEL 4
REMARK VINA RESULT:      -4.8      1.263      3.997
REMARK  3 active torsions:
REMARK  status: ('A' for Active; 'I' for Inactive)
REMARK    1  A    between atoms: C2_2  and  C8_8 
REMARK    2  A    between atoms: C6_6  and  C7_7 
REMARK    3  A    between atoms: C7_7  and  C8_8 
ROOT
HETATM    1  C5  UNL     1     -32.827   5.942   2.799  1.00 20.00     0.014 C 
HETATM    2  C8  UNL     1     -33.130   7.377   3.236  1.00 20.00     0.004 C 
ENDROOT
BRANCH   2   3
HETATM    3  C2  UNL     1     -33.191   7.438   4.744  1.00 20.00    -0.027 C 
HETATM    4  C1  UNL     1     -33.991   6.662   5.489  1.00 20.00    -0.035 C 
HETATM    5  C3  UNL     1     -34.921   5.641   4.923  1.00 20.00     0.036 C 
ENDBRANCH   2   3
BRANCH   2   6
HETATM    6  C7  UNL     1     -32.070   8.339   2.667  1.00 20.00     0.008 C 
BRANCH   6   7
HETATM    7  C6  UNL     1     -32.360   8.770   1.226  1.00 20.00    -0.004 C 
HETATM    8  C4  UNL     1     -32.645  10.262   1.140  1.00 20.00     0.005 C 
ENDBRANCH   6   7
ENDBRANCH   2   6
TORSDOF 3
ENDMDL
MODEL 5
REMARK VINA RESULT:      -4.8      1.382      4.153
REMARK  3 active torsions:
REMARK  status: ('A' for Active; 'I' for Inactive)
REMARK    1  A    between atoms: C2_2  and  C8_8 
REMARK    2  A    between atoms: C6_6  and  C7_7 
REMARK    3  A    between atoms: C7_7  and  C8_8 
ROOT
HETATM    1  C5  UNL     1     -31.407   8.213   3.798  1.00 20.00     0.014 C 
HETATM    2  C8  UNL     1     -32.545   7.367   3.224  1.00 20.00     0.004 C 
ENDROOT
BRANCH   2   3
HETATM    3  C2  UNL     1     -33.666   7.288   4.233  1.00 20.00    -0.027 C 
HETATM    4  C1  UNL     1     -34.356   6.169   4.496  1.00 20.00    -0.035 C 
HETATM    5  C3  UNL     1     -34.102   4.859   3.825  1.00 20.00     0.036 C 
ENDBRANCH   2   3
BRANCH   2   6
HETATM    6  C7  UNL     1     -33.022   7.958   1.884  1.00 20.00     0.008 C 
BRANCH   6   7
HETATM    7  C6  UNL     1     -31.999   8.903   1.246  1.00 20.00    -0.004 C 
HETATM    8  C4  UNL     1     -32.633  10.233   0.867  1.00 20.00     0.005 C 
ENDBRANCH   6   7
ENDBRANCH   2   6
TORSDOF 3
ENDMDL
MODEL 6
REMARK VINA RESULT:      -4.7      0.630      3.160
REMARK  3 active torsions:
REMARK  status: ('A' for Active; 'I' for Inactive)
REMARK    1  A    between atoms: C2_2  and  C8_8 
REMARK    2  A    between atoms: C6_6  and  C7_7 
REMARK    3  A    between atoms: C7_7  and  C8_8 
ROOT
HETATM    1  C5  UNL     1     -33.021   4.926   2.799  1.00 20.00     0.014 C 
HETATM    2  C8  UNL     1     -34.210   5.774   3.258  1.00 20.00     0.004 C 
ENDROOT
BRANCH   2   3
HETATM    3  C2  UNL     1     -34.742   5.226   4.560  1.00 20.00    -0.027 C 
HETATM    4  C1  UNL     1     -34.555   5.815   5.749  1.00 20.00    -0.035 C 
HETATM    5  C3  UNL     1     -33.799   7.089   5.936  1.00 20.00     0.036 C 
ENDBRANCH   2   3
BRANCH   2   6
HETATM    6  C7  UNL     1     -33.787   7.250   3.388  1.00 20.00     0.008 C 
BRANCH   6   7
HETATM    7  C6  UNL     1     -32.607   7.620   2.485  1.00 20.00    -0.004 C 
HETATM    8  C4  UNL     1     -31.496   8.298   3.274  1.00 20.00     0.005 C 
ENDBRANCH   6   7
ENDBRANCH   2   6
TORSDOF 3
ENDMDL
MODEL 7
REMARK VINA RESULT:      -4.3      0.939      3.540
REMARK  3 active torsions:
REMARK  status: ('A' for Active; 'I' for Inactive)
REMARK    1  A    between atoms: C2_2  and  C8_8 
REMARK    2  A    between atoms: C6_6  and  C7_7 
REMARK    3  A    between atoms: C7_7  and  C8_8 
ROOT
HETATM    1  C5  UNL     1     -31.498   8.138   3.707  1.00 20.00     0.014 C 
HETATM    2  C8  UNL     1     -32.680   7.216   4.016  1.00 20.00     0.004 C 
ENDROOT
BRANCH   2   3
HETATM    3  C2  UNL     1     -33.379   7.701   5.263  1.00 20.00    -0.027 C 
HETATM    4  C1  UNL     1     -34.134   6.919   6.047  1.00 20.00    -0.035 C 
HETATM    5  C3  UNL     1     -34.379   5.469   5.786  1.00 20.00     0.036 C 
ENDBRANCH   2   3
BRANCH   2   6
HETATM    6  C7  UNL     1     -33.636   7.158   2.809  1.00 20.00     0.008 C 
BRANCH   6   7
HETATM    7  C6  UNL     1     -34.141   5.743   2.509  1.00 20.00    -0.004 C 
HETATM    8  C4  UNL     1     -32.999   4.738   2.499  1.00 20.00     0.005 C 
ENDBRANCH   6   7
ENDBRANCH   2   6
TORSDOF 3
ENDMDL
MODEL 8
REMARK VINA RESULT:      -3.5      1.628      3.148
REMARK  3 active torsions:
REMARK  status: ('A' for Active; 'I' for Inactive)
REMARK    1  A    between atoms: C2_2  and  C8_8 
REMARK    2  A    between atoms: C6_6  and  C7_7 
REMARK    3  A    between atoms: C7_7  and  C8_8 
ROOT
HETATM    1  C5  UNL     1     -35.777   6.118   3.740  1.00 20.00     0.014 C 
HETATM    2  C8  UNL     1     -34.455   5.738   4.412  1.00 20.00     0.004 C 
ENDROOT
BRANCH   2   3
HETATM    3  C2  UNL     1     -34.363   6.423   5.754  1.00 20.00    -0.027 C 
HETATM    4  C1  UNL     1     -33.564   7.470   6.003  1.00 20.00    -0.035 C 
HETATM    5  C3  UNL     1     -32.666   8.092   4.986  1.00 20.00     0.036 C 
ENDBRANCH   2   3
BRANCH   2   6
HETATM    6  C7  UNL     1     -34.348   4.206   4.541  1.00 20.00     0.008 C 
BRANCH   6   7
HETATM    7  C6  UNL     1     -33.612   3.553   3.368  1.00 20.00    -0.004 C 
HETATM    8  C4  UNL     1     -32.854   4.585   2.545  1.00 20.00     0.005 C 
ENDBRANCH   6   7
ENDBRANCH   2   6
TORSDOF 3
ENDMDL
MODEL 9
REMARK VINA RESULT:      -3.5     11.318     12.162
REMARK  3 active torsions:
REMARK  status: ('A' for Active; 'I' for Inactive)
REMARK    1  A    between atoms: C2_2  and  C8_8 
REMARK    2  A    between atoms: C6_6  and  C7_7 
REMARK    3  A    between atoms: C7_7  and  C8_8 
ROOT
HETATM    1  C5  UNL     1     -33.681  16.856  -5.014  1.00 20.00     0.014 C 
HETATM    2  C8  UNL     1     -33.589  15.860  -3.855  1.00 20.00     0.004 C 
ENDROOT
BRANCH   2   3
HETATM    3  C2  UNL     1     -34.649  16.185  -2.832  1.00 20.00    -0.027 C 
HETATM    4  C1  UNL     1     -34.449  16.995  -1.782  1.00 20.00    -0.035 C 
HETATM    5  C3  UNL     1     -33.153  17.677  -1.494  1.00 20.00     0.036 C 
ENDBRANCH   2   3
BRANCH   2   6
HETATM    6  C7  UNL     1     -33.725  14.419  -4.384  1.00 20.00     0.008 C 
BRANCH   6   7
HETATM    7  C6  UNL     1     -35.181  13.978  -4.560  1.00 20.00    -0.004 C 
HETATM    8  C4  UNL     1     -35.486  13.636  -6.010  1.00 20.00     0.005 C 
ENDBRANCH   6   7
ENDBRANCH   2   6
TORSDOF 3
ENDMDL
