MODEL 1
REMARK VINA RESULT:      -5.4      0.000      0.000
REMARK  0 active torsions:
REMARK  status: ('A' for Active; 'I' for Inactive)
ROOT
HETATM    1  C1  UNL     1     -34.202   4.134   4.238  1.00 20.00     0.004 C 
HETATM    2  C2  UNL     1     -34.484   4.755   5.604  1.00 20.00     0.005 C 
HETATM    3  C3  UNL     1     -33.141   4.927   3.471  1.00 20.00     0.042 C 
HETATM    4  C4  UNL     1     -33.478   7.133   5.690  1.00 20.00     0.013 A 
HETATM    5  C5  UNL     1     -34.686   6.241   5.542  1.00 20.00    -0.007 A 
HETATM    6  C6  UNL     1     -34.195   7.057   4.367  1.00 20.00     0.029 A 
HETATM    7  C7  UNL     1     -33.607   6.360   3.172  1.00 20.00     0.117 C 
HETATM    8 CL8  UNL     1     -32.229   7.329   2.564  1.00 20.00    -0.101 Cl
HETATM    9 CL9  UNL     1     -34.867   6.330   1.885  1.00 20.00    -0.101 Cl
ENDROOT
TORSDOF 0
ENDMDL
MODEL 2
REMARK VINA RESULT:      -4.4      1.445      2.848
REMARK  0 active torsions:
REMARK  status: ('A' for Active; 'I' for Inactive)
ROOT
HETATM    1  C1  UNL     1     -33.911   7.044   5.361  1.00 20.00     0.004 C 
HETATM    2  C2  UNL     1     -34.351   5.670   4.860  1.00 20.00     0.005 C 
HETATM    3  C3  UNL     1     -33.860   8.065   4.222  1.00 20.00     0.042 C 
HETATM    4  C4  UNL     1     -34.219   5.615   2.280  1.00 20.00     0.013 A 
HETATM    5  C5  UNL     1     -33.628   5.240   3.618  1.00 20.00    -0.007 A 
HETATM    6  C6  UNL     1     -32.923   6.238   2.728  1.00 20.00     0.029 A 
HETATM    7  C7  UNL     1     -32.827   7.677   3.155  1.00 20.00     0.117 C 
HETATM    8 CL8  UNL     1     -33.028   8.717   1.711  1.00 20.00    -0.101 Cl
HETATM    9 CL9  UNL     1     -31.165   7.944   3.796  1.00 20.00    -0.101 Cl
ENDROOT
TORSDOF 0
ENDMDL
MODEL 3
REMARK VINA RESULT:      -4.3      1.465      2.276
REMARK  0 active torsions:
REMARK  status: ('A' for Active; 'I' for Inactive)
ROOT
HETATM    1  C1  UNL     1     -34.362   6.352   6.114  1.00 20.00     0.004 C 
HETATM    2  C2  UNL     1     -33.436   7.563   6.021  1.00 20.00     0.005 C 
HETATM    3  C3  UNL     1     -34.007   5.295   5.065  1.00 20.00     0.042 C 
HETATM    4  C4  UNL     1     -32.137   7.481   3.790  1.00 20.00     0.013 A 
HETATM    5  C5  UNL     1     -33.259   8.059   4.616  1.00 20.00    -0.007 A 
HETATM    6  C6  UNL     1     -33.567   7.182   3.423  1.00 20.00     0.029 A 
HETATM    7  C7  UNL     1     -34.186   5.829   3.636  1.00 20.00     0.117 C 
HETATM    8 CL8  UNL     1     -33.466   4.679   2.466  1.00 20.00    -0.101 Cl
HETATM    9 CL9  UNL     1     -35.942   5.969   3.258  1.00 20.00    -0.101 Cl
ENDROOT
TORSDOF 0
ENDMDL
MODEL 4
REMARK VINA RESULT:      -4.0      1.828      2.942
REMARK  0 active torsions:
REMARK  status: ('A' for Active; 'I' for Inactive)
ROOT
HETATM    1  C1  UNL     1     -33.817   7.352   5.728  1.00 20.00     0.004 C 
HETATM    2  C2  UNL     1     -32.790   8.087   4.870  1.00 20.00     0.005 C 
HETATM    3  C3  UNL     1     -33.844   5.855   5.408  1.00 20.00     0.042 C 
HETATM    4  C4  UNL     1     -32.045   6.560   2.924  1.00 20.00     0.013 A 
HETATM    5  C5  UNL     1     -32.871   7.723   3.417  1.00 20.00    -0.007 A 
HETATM    6  C6  UNL     1     -33.547   6.451   2.957  1.00 20.00     0.029 A 
HETATM    7  C7  UNL     1     -34.270   5.591   3.956  1.00 20.00     0.117 C 
HETATM    8 CL8  UNL     1     -33.982   3.871   3.545  1.00 20.00    -0.101 Cl
HETATM    9 CL9  UNL     1     -36.033   5.911   3.775  1.00 20.00    -0.101 Cl
ENDROOT
TORSDOF 0
ENDMDL
MODEL 5
REMARK VINA RESULT:      -3.8     12.051     13.158
REMARK  0 active torsions:
REMARK  status: ('A' for Active; 'I' for Inactive)
ROOT
HETATM    1  C1  UNL     1     -34.022  15.415  -6.614  1.00 20.00     0.004 C 
HETATM    2  C2  UNL     1     -32.949  15.756  -5.582  1.00 20.00     0.005 C 
HETATM    3  C3  UNL     1     -35.422  15.748  -6.095  1.00 20.00     0.042 C 
HETATM    4  C4  UNL     1     -34.063  16.164  -3.288  1.00 20.00     0.013 A 
HETATM    5  C5  UNL     1     -33.279  15.259  -4.206  1.00 20.00    -0.007 A 
HETATM    6  C6  UNL     1     -34.695  14.902  -3.813  1.00 20.00     0.029 A 
HETATM    7  C7  UNL     1     -35.781  14.919  -4.853  1.00 20.00     0.117 C 
HETATM    8 CL8  UNL     1     -37.277  15.563  -4.108  1.00 20.00    -0.101 Cl
HETATM    9 CL9  UNL     1     -36.099  13.213  -5.335  1.00 20.00    -0.101 Cl
ENDROOT
TORSDOF 0
ENDMDL
MODEL 6
REMARK VINA RESULT:      -3.8     12.256     13.344
REMARK  0 active torsions:
REMARK  status: ('A' for Active; 'I' for Inactive)
ROOT
HETATM    1  C1  UNL     1     -33.657  15.772  -6.778  1.00 20.00     0.004 C 
HETATM    2  C2  UNL     1     -33.074  15.898  -5.372  1.00 20.00     0.005 C 
HETATM    3  C3  UNL     1     -35.174  15.579  -6.740  1.00 20.00     0.042 C 
HETATM    4  C4  UNL     1     -34.836  15.139  -3.642  1.00 20.00     0.013 A 
HETATM    5  C5  UNL     1     -33.583  14.847  -4.431  1.00 20.00    -0.007 A 
HETATM    6  C6  UNL     1     -34.856  14.081  -4.714  1.00 20.00     0.029 A 
HETATM    7  C7  UNL     1     -35.564  14.277  -6.026  1.00 20.00     0.117 C 
HETATM    8 CL8  UNL     1     -37.331  14.254  -5.731  1.00 20.00    -0.101 Cl
HETATM    9 CL9  UNL     1     -35.166  12.868  -7.075  1.00 20.00    -0.101 Cl
ENDROOT
TORSDOF 0
ENDMDL
MODEL 7
REMARK VINA RESULT:      -3.8     12.274     13.186
REMARK  0 active torsions:
REMARK  status: ('A' for Active; 'I' for Inactive)
ROOT
HETATM    1  C1  UNL     1     -32.954  17.795  -1.545  1.00 20.00     0.004 C 
HETATM    2  C2  UNL     1     -34.118  17.828  -0.557  1.00 20.00     0.005 C 
HETATM    3  C3  UNL     1     -33.428  18.054  -2.977  1.00 20.00     0.042 C 
HETATM    4  C4  UNL     1     -36.349  17.717  -1.855  1.00 20.00     0.013 A 
HETATM    5  C5  UNL     1     -35.300  17.027  -1.017  1.00 20.00    -0.007 A 
HETATM    6  C6  UNL     1     -35.482  16.649  -2.470  1.00 20.00     0.029 A 
HETATM    7  C7  UNL     1     -34.397  16.966  -3.461  1.00 20.00     0.117 C 
HETATM    8 CL8  UNL     1     -35.159  17.475  -5.000  1.00 20.00    -0.101 Cl
HETATM    9 CL9  UNL     1     -33.488  15.443  -3.777  1.00 20.00    -0.101 Cl
ENDROOT
TORSDOF 0
ENDMDL
MODEL 8
REMARK VINA RESULT:      -3.7     12.184     13.439
REMARK  0 active torsions:
REMARK  status: ('A' for Active; 'I' for Inactive)
ROOT
HETATM    1  C1  UNL     1     -35.155  13.719  -5.859  1.00 20.00     0.004 C 
HETATM    2  C2  UNL     1     -34.994  14.610  -7.089  1.00 20.00     0.005 C 
HETATM    3  C3  UNL     1     -35.019  14.524  -4.565  1.00 20.00     0.042 C 
HETATM    4  C4  UNL     1     -33.998  16.884  -6.377  1.00 20.00     0.013 A 
HETATM    5  C5  UNL     1     -33.808  15.523  -7.000  1.00 20.00    -0.007 A 
HETATM    6  C6  UNL     1     -33.159  15.850  -5.674  1.00 20.00     0.029 A 
HETATM    7  C7  UNL     1     -33.623  15.150  -4.427  1.00 20.00     0.117 C 
HETATM    8 CL8  UNL     1     -33.617  16.324  -3.075  1.00 20.00    -0.101 Cl
HETATM    9 CL9  UNL     1     -32.419  13.866  -4.044  1.00 20.00    -0.101 Cl
ENDROOT
TORSDOF 0
ENDMDL
MODEL 9
REMARK VINA RESULT:      -3.7     12.006     12.953
REMARK  0 active torsions:
REMARK  status: ('A' for Active; 'I' for Inactive)
ROOT
HETATM    1  C1  UNL     1     -36.548  15.473  -4.128  1.00 20.00     0.004 C 
HETATM    2  C2  UNL     1     -35.696  14.347  -4.709  1.00 20.00     0.005 C 
HETATM    3  C3  UNL     1     -35.799  16.807  -4.148  1.00 20.00     0.042 C 
HETATM    4  C4  UNL     1     -33.241  15.131  -4.885  1.00 20.00     0.013 A 
HETATM    5  C5  UNL     1     -34.298  14.329  -4.166  1.00 20.00    -0.007 A 
HETATM    6  C6  UNL     1     -33.689  15.547  -3.509  1.00 20.00     0.029 A 
HETATM    7  C7  UNL     1     -34.538  16.766  -3.274  1.00 20.00     0.117 C 
HETATM    8 CL8  UNL     1     -33.542  18.224  -3.579  1.00 20.00    -0.101 Cl
HETATM    9 CL9  UNL     1     -35.006  16.776  -1.535  1.00 20.00    -0.101 Cl
ENDROOT
TORSDOF 0
ENDMDL
