MODEL 1
REMARK VINA RESULT:      -4.6      0.000      0.000
REMARK  0 active torsions:
REMARK  status: ('A' for Active; 'I' for Inactive)
ROOT
HETATM    1  C1  UNL     1     -34.149  17.037  -2.050  1.00 20.00    -0.080 C 
HETATM    2  C2  UNL     1     -33.781  16.217  -3.043  1.00 20.00     0.015 C 
HETATM    3  C3  UNL     1     -35.377  16.816  -1.204  1.00 20.00     0.043 C 
HETATM    4  C4  UNL     1     -32.285  18.945   0.384  1.00 20.00     0.002 C 
HETATM    5  C5  UNL     1     -33.759  18.825   0.721  1.00 20.00     0.006 C 
HETATM    6  C6  UNL     1     -32.159  18.081  -0.861  1.00 20.00     0.014 C 
HETATM    7  C7  UNL     1     -34.451  18.980  -0.642  1.00 20.00     0.006 C 
HETATM    8  C8  UNL     1     -33.459  18.333  -1.661  1.00 20.00    -0.017 C 
HETATM    9  C9  UNL     1     -35.804  18.240  -0.807  1.00 20.00    -0.040 C 
HETATM   10  C10 UNL     1     -33.182  19.263  -2.849  1.00 20.00     0.020 C 
HETATM   11  C11 UNL     1     -36.642  18.883  -1.934  1.00 20.00     0.015 C 
HETATM   12  C12 UNL     1     -36.666  18.234   0.462  1.00 20.00     0.015 C 
ENDROOT
TORSDOF 0
ENDMDL
MODEL 2
REMARK VINA RESULT:      -4.5      2.630      4.400
REMARK  0 active torsions:
REMARK  status: ('A' for Active; 'I' for Inactive)
ROOT
HETATM    1  C1  UNL     1     -33.846  14.776  -4.229  1.00 20.00    -0.080 C 
HETATM    2  C2  UNL     1     -32.620  14.242  -4.302  1.00 20.00     0.015 C 
HETATM    3  C3  UNL     1     -35.108  13.990  -4.478  1.00 20.00     0.043 C 
HETATM    4  C4  UNL     1     -35.315  17.287  -2.090  1.00 20.00     0.002 C 
HETATM    5  C5  UNL     1     -36.345  16.485  -2.864  1.00 20.00     0.006 C 
HETATM    6  C6  UNL     1     -34.010  16.606  -2.472  1.00 20.00     0.014 C 
HETATM    7  C7  UNL     1     -35.704  16.325  -4.251  1.00 20.00     0.006 C 
HETATM    8  C8  UNL     1     -34.170  16.236  -3.966  1.00 20.00    -0.017 C 
HETATM    9  C9  UNL     1     -36.085  15.042  -5.034  1.00 20.00    -0.040 C 
HETATM   10  C10 UNL     1     -33.374  17.210  -4.844  1.00 20.00     0.020 C 
HETATM   11  C11 UNL     1     -35.857  15.239  -6.548  1.00 20.00     0.015 C 
HETATM   12  C12 UNL     1     -37.545  14.608  -4.840  1.00 20.00     0.015 C 
ENDROOT
TORSDOF 0
ENDMDL
MODEL 3
REMARK VINA RESULT:      -4.5      3.781      6.442
REMARK  0 active torsions:
REMARK  status: ('A' for Active; 'I' for Inactive)
ROOT
HETATM    1  C1  UNL     1     -34.525  15.768  -6.731  1.00 20.00    -0.080 C 
HETATM    2  C2  UNL     1     -34.042  16.158  -7.918  1.00 20.00     0.015 C 
HETATM    3  C3  UNL     1     -34.199  16.463  -5.434  1.00 20.00     0.043 C 
HETATM    4  C4  UNL     1     -37.699  14.392  -5.697  1.00 20.00     0.002 C 
HETATM    5  C5  UNL     1     -36.855  14.883  -4.536  1.00 20.00     0.006 C 
HETATM    6  C6  UNL     1     -36.865  14.791  -6.905  1.00 20.00     0.014 C 
HETATM    7  C7  UNL     1     -35.433  14.446  -4.920  1.00 20.00     0.006 C 
HETATM    8  C8  UNL     1     -35.398  14.551  -6.479  1.00 20.00    -0.017 C 
HETATM    9  C9  UNL     1     -34.280  15.337  -4.389  1.00 20.00    -0.040 C 
HETATM   10  C10 UNL     1     -34.860  13.265  -7.120  1.00 20.00     0.020 C 
HETATM   11  C11 UNL     1     -32.954  14.546  -4.349  1.00 20.00     0.015 C 
HETATM   12  C12 UNL     1     -34.527  15.895  -2.981  1.00 20.00     0.015 C 
ENDROOT
TORSDOF 0
ENDMDL
MODEL 4
REMARK VINA RESULT:      -4.3      2.985      5.254
REMARK  0 active torsions:
REMARK  status: ('A' for Active; 'I' for Inactive)
ROOT
HETATM    1  C1  UNL     1     -35.994  15.495  -4.981  1.00 20.00    -0.080 C 
HETATM    2  C2  UNL     1     -37.071  14.723  -4.784  1.00 20.00     0.015 C 
HETATM    3  C3  UNL     1     -35.891  16.507  -6.093  1.00 20.00     0.043 C 
HETATM    4  C4  UNL     1     -33.665  17.090  -2.728  1.00 20.00     0.002 C 
HETATM    5  C5  UNL     1     -33.579  17.617  -4.148  1.00 20.00     0.006 C 
HETATM    6  C6  UNL     1     -34.832  16.117  -2.807  1.00 20.00     0.014 C 
HETATM    7  C7  UNL     1     -33.733  16.354  -5.008  1.00 20.00     0.006 C 
HETATM    8  C8  UNL     1     -34.699  15.438  -4.190  1.00 20.00    -0.017 C 
HETATM    9  C9  UNL     1     -34.384  16.553  -6.401  1.00 20.00    -0.040 C 
HETATM   10  C10 UNL     1     -34.136  14.019  -4.034  1.00 20.00     0.020 C 
HETATM   11  C11 UNL     1     -33.996  15.402  -7.355  1.00 20.00     0.015 C 
HETATM   12  C12 UNL     1     -33.992  17.870  -7.086  1.00 20.00     0.015 C 
ENDROOT
TORSDOF 0
ENDMDL
MODEL 5
REMARK VINA RESULT:      -4.3      3.106      5.271
REMARK  0 active torsions:
REMARK  status: ('A' for Active; 'I' for Inactive)
ROOT
HETATM    1  C1  UNL     1     -35.390  14.516  -5.044  1.00 20.00    -0.080 C 
HETATM    2  C2  UNL     1     -35.983  13.342  -5.302  1.00 20.00     0.015 C 
HETATM    3  C3  UNL     1     -34.535  14.763  -3.827  1.00 20.00     0.043 C 
HETATM    4  C4  UNL     1     -33.874  17.024  -7.154  1.00 20.00     0.002 C 
HETATM    5  C5  UNL     1     -33.529  17.191  -5.686  1.00 20.00     0.006 C 
HETATM    6  C6  UNL     1     -34.684  15.736  -7.159  1.00 20.00     0.014 C 
HETATM    7  C7  UNL     1     -34.851  16.873  -4.971  1.00 20.00     0.006 C 
HETATM    8  C8  UNL     1     -35.529  15.786  -5.865  1.00 20.00    -0.017 C 
HETATM    9  C9  UNL     1     -34.728  16.264  -3.549  1.00 20.00    -0.040 C 
HETATM   10  C10 UNL     1     -36.984  16.150  -6.193  1.00 20.00     0.020 C 
HETATM   11  C11 UNL     1     -36.023  16.499  -2.741  1.00 20.00     0.015 C 
HETATM   12  C12 UNL     1     -33.563  16.836  -2.730  1.00 20.00     0.015 C 
ENDROOT
TORSDOF 0
ENDMDL
MODEL 6
REMARK VINA RESULT:      -4.3      3.739      5.341
REMARK  0 active torsions:
REMARK  status: ('A' for Active; 'I' for Inactive)
ROOT
HETATM    1  C1  UNL     1     -35.008  14.220  -6.422  1.00 20.00    -0.080 C 
HETATM    2  C2  UNL     1     -34.434  13.471  -7.373  1.00 20.00     0.015 C 
HETATM    3  C3  UNL     1     -36.386  13.950  -5.874  1.00 20.00     0.043 C 
HETATM    4  C4  UNL     1     -33.713  15.923  -3.514  1.00 20.00     0.002 C 
HETATM    5  C5  UNL     1     -35.224  15.794  -3.506  1.00 20.00     0.006 C 
HETATM    6  C6  UNL     1     -33.321  15.152  -4.765  1.00 20.00     0.014 C 
HETATM    7  C7  UNL     1     -35.612  16.057  -4.969  1.00 20.00     0.006 C 
HETATM    8  C8  UNL     1     -34.423  15.476  -5.800  1.00 20.00    -0.017 C 
HETATM    9  C9  UNL     1     -36.895  15.345  -5.472  1.00 20.00    -0.040 C 
HETATM   10  C10 UNL     1     -33.906  16.488  -6.830  1.00 20.00     0.020 C 
HETATM   11  C11 UNL     1     -37.479  16.078  -6.700  1.00 20.00     0.015 C 
HETATM   12  C12 UNL     1     -38.007  15.254  -4.418  1.00 20.00     0.015 C 
ENDROOT
TORSDOF 0
ENDMDL
MODEL 7
REMARK VINA RESULT:      -4.3      3.623      6.336
REMARK  0 active torsions:
REMARK  status: ('A' for Active; 'I' for Inactive)
ROOT
HETATM    1  C1  UNL     1     -34.478  15.633  -4.252  1.00 20.00    -0.080 C 
HETATM    2  C2  UNL     1     -33.828  16.208  -3.231  1.00 20.00     0.015 C 
HETATM    3  C3  UNL     1     -33.906  14.503  -5.068  1.00 20.00     0.043 C 
HETATM    4  C4  UNL     1     -37.959  14.870  -4.835  1.00 20.00     0.002 C 
HETATM    5  C5  UNL     1     -37.023  14.160  -5.794  1.00 20.00     0.006 C 
HETATM    6  C6  UNL     1     -36.995  15.580  -3.896  1.00 20.00     0.014 C 
HETATM    7  C7  UNL     1     -35.965  15.226  -6.115  1.00 20.00     0.006 C 
HETATM    8  C8  UNL     1     -35.831  16.055  -4.798  1.00 20.00    -0.017 C 
HETATM    9  C9  UNL     1     -34.546  14.698  -6.454  1.00 20.00    -0.040 C 
HETATM   10  C10 UNL     1     -35.944  17.562  -5.064  1.00 20.00     0.020 C 
HETATM   11  C11 UNL     1     -33.755  15.744  -7.268  1.00 20.00     0.015 C 
HETATM   12  C12 UNL     1     -34.547  13.391  -7.259  1.00 20.00     0.015 C 
ENDROOT
TORSDOF 0
ENDMDL
MODEL 8
REMARK VINA RESULT:      -4.2      2.984      5.705
REMARK  0 active torsions:
REMARK  status: ('A' for Active; 'I' for Inactive)
ROOT
HETATM    1  C1  UNL     1     -35.957  16.691  -3.224  1.00 20.00    -0.080 C 
HETATM    2  C2  UNL     1     -36.475  17.613  -2.402  1.00 20.00     0.015 C 
HETATM    3  C3  UNL     1     -34.644  15.997  -2.970  1.00 20.00     0.043 C 
HETATM    4  C4  UNL     1     -37.435  14.090  -5.247  1.00 20.00     0.002 C 
HETATM    5  C5  UNL     1     -35.936  13.934  -5.075  1.00 20.00     0.006 C 
HETATM    6  C6  UNL     1     -37.746  15.291  -4.366  1.00 20.00     0.014 C 
HETATM    7  C7  UNL     1     -35.413  15.374  -5.179  1.00 20.00     0.006 C 
HETATM    8  C8  UNL     1     -36.546  16.249  -4.553  1.00 20.00    -0.017 C 
HETATM    9  C9  UNL     1     -34.119  15.688  -4.383  1.00 20.00    -0.040 C 
HETATM   10  C10 UNL     1     -36.933  17.415  -5.472  1.00 20.00     0.020 C 
HETATM   11  C11 UNL     1     -33.403  16.923  -4.972  1.00 20.00     0.015 C 
HETATM   12  C12 UNL     1     -33.107  14.534  -4.365  1.00 20.00     0.015 C 
ENDROOT
TORSDOF 0
ENDMDL
MODEL 9
REMARK VINA RESULT:      -4.1      3.887      6.031
REMARK  0 active torsions:
REMARK  status: ('A' for Active; 'I' for Inactive)
ROOT
HETATM    1  C1  UNL     1     -34.804  16.815  -6.052  1.00 20.00    -0.080 C 
HETATM    2  C2  UNL     1     -34.166  17.928  -6.439  1.00 20.00     0.015 C 
HETATM    3  C3  UNL     1     -36.238  16.802  -5.588  1.00 20.00     0.043 C 
HETATM    4  C4  UNL     1     -34.683  13.388  -7.183  1.00 20.00     0.002 C 
HETATM    5  C5  UNL     1     -35.879  13.683  -6.297  1.00 20.00     0.006 C 
HETATM    6  C6  UNL     1     -34.034  14.756  -7.328  1.00 20.00     0.014 C 
HETATM    7  C7  UNL     1     -35.301  14.603  -5.211  1.00 20.00     0.006 C 
HETATM    8  C8  UNL     1     -34.195  15.429  -5.944  1.00 20.00    -0.017 C 
HETATM    9  C9  UNL     1     -36.285  15.629  -4.593  1.00 20.00    -0.040 C 
HETATM   10  C10 UNL     1     -32.866  15.398  -5.179  1.00 20.00     0.020 C 
HETATM   11  C11 UNL     1     -35.793  16.086  -3.202  1.00 20.00     0.015 C 
HETATM   12  C12 UNL     1     -37.713  15.094  -4.424  1.00 20.00     0.015 C 
ENDROOT
TORSDOF 0
ENDMDL
