MODEL 1
REMARK VINA RESULT:      -5.2      0.000      0.000
REMARK  2 active torsions:
REMARK  status: ('A' for Active; 'I' for Inactive)
REMARK    1  A    between atoms: C7_7  and  C10_10 
REMARK    2  A    between atoms: C8_8  and  C9_9 
ROOT
HETATM    1  C1  UNL     1     -33.204   8.950   2.621  1.00 20.00    -0.019 C 
HETATM    2  C3  UNL     1     -32.537   9.519   1.588  1.00 20.00    -0.087 C 
HETATM    3  C5  UNL     1     -31.519   8.550   0.966  1.00 20.00     0.039 C 
HETATM    4  C8  UNL     1     -32.854   7.504   2.630  1.00 20.00     0.021 C 
HETATM    5  C10 UNL     1     -31.377   7.681   2.188  1.00 20.00     0.005 C 
HETATM    6  C11 UNL     1     -32.683  10.906   1.081  1.00 20.00     0.043 C 
ENDROOT
BRANCH   4   7
HETATM    7  C9  UNL     1     -32.705   6.351   3.654  1.00 20.00     0.022 C 
HETATM    8  C4  UNL     1     -33.992   6.480   4.473  1.00 20.00    -0.082 C 
HETATM    9  C2  UNL     1     -35.023   6.171   3.661  1.00 20.00    -0.019 C 
HETATM   10  C12 UNL     1     -34.015   6.966   5.872  1.00 20.00     0.043 C 
HETATM   11  C7  UNL     1     -34.443   5.716   2.341  1.00 20.00     0.014 C 
HETATM   12  C6  UNL     1     -33.141   5.077   2.914  1.00 20.00     0.018 C 
ENDBRANCH   4   7
TORSDOF 2
ENDMDL
MODEL 2
REMARK VINA RESULT:      -5.1     10.002     11.515
REMARK  2 active torsions:
REMARK  status: ('A' for Active; 'I' for Inactive)
REMARK    1  A    between atoms: C7_7  and  C10_10 
REMARK    2  A    between atoms: C8_8  and  C9_9 
ROOT
HETATM    1  C1  UNL     1     -33.488  17.384  -2.567  1.00 20.00    -0.019 C 
HETATM    2  C3  UNL     1     -33.828  17.628  -1.278  1.00 20.00    -0.087 C 
HETATM    3  C5  UNL     1     -35.134  16.918  -0.891  1.00 20.00     0.039 C 
HETATM    4  C8  UNL     1     -34.404  16.328  -3.073  1.00 20.00     0.021 C 
HETATM    5  C10 UNL     1     -35.662  16.801  -2.296  1.00 20.00     0.005 C 
HETATM    6  C11 UNL     1     -33.106  18.487  -0.306  1.00 20.00     0.043 C 
ENDROOT
BRANCH   4   7
HETATM    7  C9  UNL     1     -35.049  15.892  -4.413  1.00 20.00     0.022 C 
HETATM    8  C4  UNL     1     -33.926  16.171  -5.416  1.00 20.00    -0.082 C 
HETATM    9  C2  UNL     1     -32.921  15.312  -5.149  1.00 20.00    -0.019 C 
HETATM   10  C12 UNL     1     -33.976  17.278  -6.398  1.00 20.00     0.043 C 
HETATM   11  C7  UNL     1     -33.398  14.375  -4.064  1.00 20.00     0.014 C 
HETATM   12  C6  UNL     1     -34.904  14.363  -4.469  1.00 20.00     0.018 C 
ENDBRANCH   4   7
TORSDOF 2
ENDMDL
MODEL 3
REMARK VINA RESULT:      -4.9     10.093     11.587
REMARK  2 active torsions:
REMARK  status: ('A' for Active; 'I' for Inactive)
REMARK    1  A    between atoms: C7_7  and  C10_10 
REMARK    2  A    between atoms: C8_8  and  C9_9 
ROOT
HETATM    1  C1  UNL     1     -35.273  16.673  -1.427  1.00 20.00    -0.019 C 
HETATM    2  C3  UNL     1     -35.059  17.565  -0.430  1.00 20.00    -0.087 C 
HETATM    3  C5  UNL     1     -33.842  18.459  -0.718  1.00 20.00     0.039 C 
HETATM    4  C8  UNL     1     -34.370  17.040  -2.550  1.00 20.00     0.021 C 
HETATM    5  C10 UNL     1     -33.177  17.500  -1.670  1.00 20.00     0.005 C 
HETATM    6  C11 UNL     1     -35.829  17.705   0.831  1.00 20.00     0.043 C 
ENDROOT
BRANCH   4   7
HETATM    7  C9  UNL     1     -33.612  16.343  -3.708  1.00 20.00     0.022 C 
HETATM    8  C4  UNL     1     -34.728  15.541  -4.384  1.00 20.00    -0.082 C 
HETATM    9  C2  UNL     1     -35.587  16.423  -4.933  1.00 20.00    -0.019 C 
HETATM   10  C12 UNL     1     -34.822  14.065  -4.308  1.00 20.00     0.043 C 
HETATM   11  C7  UNL     1     -35.004  17.805  -4.746  1.00 20.00     0.014 C 
HETATM   12  C6  UNL     1     -33.502  17.392  -4.826  1.00 20.00     0.018 C 
ENDBRANCH   4   7
TORSDOF 2
ENDMDL
MODEL 4
REMARK VINA RESULT:      -4.8      1.155      4.596
REMARK  2 active torsions:
REMARK  status: ('A' for Active; 'I' for Inactive)
REMARK    1  A    between atoms: C7_7  and  C10_10 
REMARK    2  A    between atoms: C8_8  and  C9_9 
ROOT
HETATM    1  C1  UNL     1     -33.259   6.706   2.483  1.00 20.00    -0.019 C 
HETATM    2  C3  UNL     1     -33.795   6.366   3.680  1.00 20.00    -0.087 C 
HETATM    3  C5  UNL     1     -33.522   7.436   4.748  1.00 20.00     0.039 C 
HETATM    4  C8  UNL     1     -32.786   8.111   2.593  1.00 20.00     0.021 C 
HETATM    5  C10 UNL     1     -32.312   8.020   4.068  1.00 20.00     0.005 C 
HETATM    6  C11 UNL     1     -34.535   5.123   4.013  1.00 20.00     0.043 C 
ENDROOT
BRANCH   4   7
HETATM    7  C9  UNL     1     -31.677   9.015   1.997  1.00 20.00     0.022 C 
HETATM    8  C4  UNL     1     -31.851   8.787   0.493  1.00 20.00    -0.082 C 
HETATM    9  C2  UNL     1     -33.040   9.314   0.137  1.00 20.00    -0.019 C 
HETATM   10  C12 UNL     1     -30.883   8.021  -0.325  1.00 20.00     0.043 C 
HETATM   11  C7  UNL     1     -33.615  10.004   1.352  1.00 20.00     0.014 C 
HETATM   12  C6  UNL     1     -32.258  10.438   1.987  1.00 20.00     0.018 C 
ENDBRANCH   4   7
TORSDOF 2
ENDMDL
MODEL 5
REMARK VINA RESULT:      -4.7     10.034     11.462
REMARK  2 active torsions:
REMARK  status: ('A' for Active; 'I' for Inactive)
REMARK    1  A    between atoms: C7_7  and  C10_10 
REMARK    2  A    between atoms: C8_8  and  C9_9 
ROOT
HETATM    1  C1  UNL     1     -35.533  15.909  -3.450  1.00 20.00    -0.019 C 
HETATM    2  C3  UNL     1     -34.239  16.131  -3.115  1.00 20.00    -0.087 C 
HETATM    3  C5  UNL     1     -33.285  15.212  -3.894  1.00 20.00     0.039 C 
HETATM    4  C8  UNL     1     -35.535  14.996  -4.624  1.00 20.00     0.021 C 
HETATM    5  C10 UNL     1     -34.310  14.149  -4.188  1.00 20.00     0.005 C 
HETATM    6  C11 UNL     1     -33.724  17.094  -2.110  1.00 20.00     0.043 C 
ENDROOT
BRANCH   4   7
HETATM    7  C9  UNL     1     -36.434  13.893  -5.237  1.00 20.00     0.022 C 
HETATM    8  C4  UNL     1     -37.612  14.706  -5.783  1.00 20.00    -0.082 C 
HETATM    9  C2  UNL     1     -37.147  15.463  -6.797  1.00 20.00    -0.019 C 
HETATM   10  C12 UNL     1     -38.962  14.681  -5.175  1.00 20.00     0.043 C 
HETATM   11  C7  UNL     1     -35.703  15.082  -7.026  1.00 20.00     0.014 C 
HETATM   12  C6  UNL     1     -35.832  13.582  -6.616  1.00 20.00     0.018 C 
ENDBRANCH   4   7
TORSDOF 2
ENDMDL
MODEL 6
REMARK VINA RESULT:      -4.6     10.564     11.646
REMARK  2 active torsions:
REMARK  status: ('A' for Active; 'I' for Inactive)
REMARK    1  A    between atoms: C7_7  and  C10_10 
REMARK    2  A    between atoms: C8_8  and  C9_9 
ROOT
HETATM    1  C1  UNL     1     -35.521  16.380  -2.064  1.00 20.00    -0.019 C 
HETATM    2  C3  UNL     1     -35.033  17.224  -1.124  1.00 20.00    -0.087 C 
HETATM    3  C5  UNL     1     -33.680  17.821  -1.543  1.00 20.00     0.039 C 
HETATM    4  C8  UNL     1     -34.660  16.514  -3.268  1.00 20.00     0.021 C 
HETATM    5  C10 UNL     1     -33.324  16.718  -2.505  1.00 20.00     0.005 C 
HETATM    6  C11 UNL     1     -35.643  17.559   0.187  1.00 20.00     0.043 C 
ENDROOT
BRANCH   4   7
HETATM    7  C9  UNL     1     -34.175  15.641  -4.453  1.00 20.00     0.022 C 
HETATM    8  C4  UNL     1     -35.494  15.255  -5.129  1.00 20.00    -0.082 C 
HETATM    9  C2  UNL     1     -36.030  16.379  -5.644  1.00 20.00    -0.019 C 
HETATM   10  C12 UNL     1     -36.055  13.885  -5.082  1.00 20.00     0.043 C 
HETATM   11  C7  UNL     1     -35.035  17.497  -5.437  1.00 20.00     0.014 C 
HETATM   12  C6  UNL     1     -33.745  16.628  -5.550  1.00 20.00     0.018 C 
ENDBRANCH   4   7
TORSDOF 2
ENDMDL
MODEL 7
REMARK VINA RESULT:      -4.3     10.455     11.568
REMARK  2 active torsions:
REMARK  status: ('A' for Active; 'I' for Inactive)
REMARK    1  A    between atoms: C7_7  and  C10_10 
REMARK    2  A    between atoms: C8_8  and  C9_9 
ROOT
HETATM    1  C1  UNL     1     -36.011  16.555  -2.757  1.00 20.00    -0.019 C 
HETATM    2  C3  UNL     1     -35.756  17.611  -1.947  1.00 20.00    -0.087 C 
HETATM    3  C5  UNL     1     -34.264  17.976  -1.942  1.00 20.00     0.039 C 
HETATM    4  C8  UNL     1     -34.766  16.274  -3.520  1.00 20.00     0.021 C 
HETATM    5  C10 UNL     1     -33.778  16.619  -2.375  1.00 20.00     0.005 C 
HETATM    6  C11 UNL     1     -36.730  18.356  -1.109  1.00 20.00     0.043 C 
ENDROOT
BRANCH   4   7
HETATM    7  C9  UNL     1     -34.044  15.062  -4.159  1.00 20.00     0.022 C 
HETATM    8  C4  UNL     1     -35.028  14.641  -5.255  1.00 20.00    -0.082 C 
HETATM    9  C2  UNL     1     -35.058  15.627  -6.173  1.00 20.00    -0.019 C 
HETATM   10  C12 UNL     1     -35.838  13.404  -5.182  1.00 20.00     0.043 C 
HETATM   11  C7  UNL     1     -34.017  16.650  -5.780  1.00 20.00     0.014 C 
HETATM   12  C6  UNL     1     -33.008  15.655  -5.128  1.00 20.00     0.018 C 
ENDBRANCH   4   7
TORSDOF 2
ENDMDL
MODEL 8
REMARK VINA RESULT:      -4.3     10.619     11.874
REMARK  2 active torsions:
REMARK  status: ('A' for Active; 'I' for Inactive)
REMARK    1  A    between atoms: C7_7  and  C10_10 
REMARK    2  A    between atoms: C8_8  and  C9_9 
ROOT
HETATM    1  C1  UNL     1     -34.103  16.271  -4.098  1.00 20.00    -0.019 C 
HETATM    2  C3  UNL     1     -34.416  16.698  -2.851  1.00 20.00    -0.087 C 
HETATM    3  C5  UNL     1     -35.932  16.659  -2.601  1.00 20.00     0.039 C 
HETATM    4  C8  UNL     1     -35.342  15.708  -4.697  1.00 20.00     0.021 C 
HETATM    5  C10 UNL     1     -36.323  16.724  -4.054  1.00 20.00     0.005 C 
HETATM    6  C11 UNL     1     -33.481  17.191  -1.809  1.00 20.00     0.043 C 
ENDROOT
BRANCH   4   7
HETATM    7  C9  UNL     1     -35.986  15.544  -6.096  1.00 20.00     0.022 C 
HETATM    8  C4  UNL     1     -34.929  14.724  -6.842  1.00 20.00    -0.082 C 
HETATM    9  C2  UNL     1     -34.883  13.504  -6.269  1.00 20.00    -0.019 C 
HETATM   10  C12 UNL     1     -34.081  15.286  -7.918  1.00 20.00     0.043 C 
HETATM   11  C7  UNL     1     -35.980  13.446  -5.231  1.00 20.00     0.014 C 
HETATM   12  C6  UNL     1     -36.987  14.386  -5.962  1.00 20.00     0.018 C 
ENDBRANCH   4   7
TORSDOF 2
ENDMDL
MODEL 9
REMARK VINA RESULT:      -4.3     10.201     11.410
REMARK  2 active torsions:
REMARK  status: ('A' for Active; 'I' for Inactive)
REMARK    1  A    between atoms: C7_7  and  C10_10 
REMARK    2  A    between atoms: C8_8  and  C9_9 
ROOT
HETATM    1  C1  UNL     1     -34.742  16.591  -1.732  1.00 20.00    -0.019 C 
HETATM    2  C3  UNL     1     -35.625  17.345  -1.034  1.00 20.00    -0.087 C 
HETATM    3  C5  UNL     1     -36.673  17.990  -1.954  1.00 20.00     0.039 C 
HETATM    4  C8  UNL     1     -35.252  16.489  -3.125  1.00 20.00     0.021 C 
HETATM    5  C10 UNL     1     -35.834  17.926  -3.202  1.00 20.00     0.005 C 
HETATM    6  C11 UNL     1     -35.631  17.598   0.429  1.00 20.00     0.043 C 
ENDROOT
BRANCH   4   7
HETATM    7  C9  UNL     1     -34.689  16.337  -4.560  1.00 20.00     0.022 C 
HETATM    8  C4  UNL     1     -34.165  14.898  -4.549  1.00 20.00    -0.082 C 
HETATM    9  C2  UNL     1     -35.230  14.079  -4.440  1.00 20.00    -0.019 C 
HETATM   10  C12 UNL     1     -32.723  14.564  -4.553  1.00 20.00     0.043 C 
HETATM   11  C7  UNL     1     -36.474  14.936  -4.504  1.00 20.00     0.014 C 
HETATM   12  C6  UNL     1     -35.902  16.033  -5.454  1.00 20.00     0.018 C 
ENDBRANCH   4   7
TORSDOF 2
ENDMDL
