MODEL 1
REMARK VINA RESULT:      -8.1      0.000      0.000
REMARK  0 active torsions:
REMARK  status: ('A' for Active; 'I' for Inactive)
ROOT
HETATM    1  C1  UNL     1     -33.512   7.332   5.825  1.00 20.00    -0.018 C 
HETATM    2  C2  UNL     1     -33.081   5.532   2.347  1.00 20.00    -0.018 C 
HETATM    3  C3  UNL     1     -34.393   6.357   5.456  1.00 20.00    -0.078 C 
HETATM    4  C4  UNL     1     -32.951   6.889   2.426  1.00 20.00    -0.078 C 
HETATM    5  C5  UNL     1     -34.647   4.928   5.907  1.00 20.00     0.035 C 
HETATM    6  C6  UNL     1     -31.778   7.851   2.330  1.00 20.00     0.035 C 
HETATM    7  C7  UNL     1     -34.494   4.099   4.524  1.00 20.00     0.013 C 
HETATM    8  C8  UNL     1     -31.874   8.652   3.734  1.00 20.00     0.013 C 
HETATM    9  C9  UNL     1     -32.693   7.670   4.579  1.00 20.00     0.017 C 
HETATM   10  C10 UNL     1     -33.666   5.075   3.684  1.00 20.00     0.017 C 
HETATM   11  C11 UNL     1     -34.525   6.289   3.992  1.00 20.00     0.030 C 
HETATM   12  C12 UNL     1     -33.761   7.435   3.524  1.00 20.00     0.030 C 
ENDROOT
TORSDOF 0
ENDMDL
MODEL 2
REMARK VINA RESULT:      -8.1      0.007      3.989
REMARK  0 active torsions:
REMARK  status: ('A' for Active; 'I' for Inactive)
ROOT
HETATM    1  C1  UNL     1     -33.084   5.537   2.345  1.00 20.00    -0.018 C 
HETATM    2  C2  UNL     1     -33.503   7.327   5.830  1.00 20.00    -0.018 C 
HETATM    3  C3  UNL     1     -32.953   6.894   2.428  1.00 20.00    -0.078 C 
HETATM    4  C4  UNL     1     -34.387   6.354   5.460  1.00 20.00    -0.078 C 
HETATM    5  C5  UNL     1     -31.780   7.856   2.332  1.00 20.00     0.035 C 
HETATM    6  C6  UNL     1     -34.641   4.923   5.908  1.00 20.00     0.035 C 
HETATM    7  C7  UNL     1     -31.871   8.652   3.739  1.00 20.00     0.013 C 
HETATM    8  C8  UNL     1     -34.492   4.098   4.522  1.00 20.00     0.013 C 
HETATM    9  C9  UNL     1     -33.666   5.077   3.682  1.00 20.00     0.017 C 
HETATM   10  C10 UNL     1     -32.688   7.668   4.582  1.00 20.00     0.017 C 
HETATM   11  C11 UNL     1     -33.760   7.438   3.531  1.00 20.00     0.030 C 
HETATM   12  C12 UNL     1     -34.523   6.291   3.998  1.00 20.00     0.030 C 
ENDROOT
TORSDOF 0
ENDMDL
MODEL 3
REMARK VINA RESULT:      -5.8      0.871      2.216
REMARK  0 active torsions:
REMARK  status: ('A' for Active; 'I' for Inactive)
ROOT
HETATM    1  C1  UNL     1     -34.499   4.963   5.636  1.00 20.00    -0.018 C 
HETATM    2  C2  UNL     1     -32.478   7.006   2.940  1.00 20.00    -0.018 C 
HETATM    3  C3  UNL     1     -34.537   4.576   4.328  1.00 20.00    -0.078 C 
HETATM    4  C4  UNL     1     -33.205   7.670   3.885  1.00 20.00    -0.078 C 
HETATM    5  C5  UNL     1     -33.954   3.408   3.548  1.00 20.00     0.035 C 
HETATM    6  C6  UNL     1     -32.851   8.500   5.109  1.00 20.00     0.035 C 
HETATM    7  C7  UNL     1     -33.097   4.157   2.396  1.00 20.00     0.013 C 
HETATM    8  C8  UNL     1     -33.652   7.730   6.289  1.00 20.00     0.013 C 
HETATM    9  C9  UNL     1     -33.847   6.347   5.659  1.00 20.00     0.017 C 
HETATM   10  C10 UNL     1     -32.891   5.536   3.030  1.00 20.00     0.017 C 
HETATM   11  C11 UNL     1     -34.345   5.725   3.429  1.00 20.00     0.030 C 
HETATM   12  C12 UNL     1     -34.356   6.870   4.327  1.00 20.00     0.030 C 
ENDROOT
TORSDOF 0
ENDMDL
MODEL 4
REMARK VINA RESULT:      -5.8      0.874      3.400
REMARK  0 active torsions:
REMARK  status: ('A' for Active; 'I' for Inactive)
ROOT
HETATM    1  C1  UNL     1     -32.501   7.017   2.950  1.00 20.00    -0.018 C 
HETATM    2  C2  UNL     1     -34.501   4.945   5.641  1.00 20.00    -0.018 C 
HETATM    3  C3  UNL     1     -33.234   7.671   3.898  1.00 20.00    -0.078 C 
HETATM    4  C4  UNL     1     -34.536   4.563   4.331  1.00 20.00    -0.078 C 
HETATM    5  C5  UNL     1     -32.888   8.499   5.125  1.00 20.00     0.035 C 
HETATM    6  C6  UNL     1     -33.944   3.403   3.547  1.00 20.00     0.035 C 
HETATM    7  C7  UNL     1     -33.679   7.717   6.302  1.00 20.00     0.013 C 
HETATM    8  C8  UNL     1     -33.094   4.164   2.396  1.00 20.00     0.013 C 
HETATM    9  C9  UNL     1     -32.901   5.543   3.035  1.00 20.00     0.017 C 
HETATM   10  C10 UNL     1     -33.862   6.335   5.668  1.00 20.00     0.017 C 
HETATM   11  C11 UNL     1     -34.378   6.858   4.339  1.00 20.00     0.030 C 
HETATM   12  C12 UNL     1     -34.356   5.716   3.437  1.00 20.00     0.030 C 
ENDROOT
TORSDOF 0
ENDMDL
MODEL 5
REMARK VINA RESULT:      -5.4      1.061      2.481
REMARK  0 active torsions:
REMARK  status: ('A' for Active; 'I' for Inactive)
ROOT
HETATM    1  C1  UNL     1     -34.338   6.231   2.115  1.00 20.00    -0.018 C 
HETATM    2  C2  UNL     1     -32.417   8.235   4.911  1.00 20.00    -0.018 C 
HETATM    3  C3  UNL     1     -34.186   5.681   3.355  1.00 20.00    -0.078 C 
HETATM    4  C4  UNL     1     -31.908   8.186   3.645  1.00 20.00    -0.078 C 
HETATM    5  C5  UNL     1     -35.126   5.406   4.518  1.00 20.00     0.035 C 
HETATM    6  C6  UNL     1     -31.776   9.193   2.513  1.00 20.00     0.035 C 
HETATM    7  C7  UNL     1     -34.408   6.198   5.735  1.00 20.00     0.013 C 
HETATM    8  C8  UNL     1     -32.544   8.446   1.298  1.00 20.00     0.013 C 
HETATM    9  C9  UNL     1     -33.421   7.453   2.067  1.00 20.00     0.017 C 
HETATM   10  C10 UNL     1     -33.540   7.198   4.966  1.00 20.00     0.017 C 
HETATM   11  C11 UNL     1     -32.962   6.173   4.006  1.00 20.00     0.030 C 
HETATM   12  C12 UNL     1     -32.304   6.945   2.963  1.00 20.00     0.030 C 
ENDROOT
TORSDOF 0
ENDMDL
MODEL 6
REMARK VINA RESULT:      -5.4      1.056      3.520
REMARK  0 active torsions:
REMARK  status: ('A' for Active; 'I' for Inactive)
ROOT
HETATM    1  C1  UNL     1     -32.465   8.177   4.905  1.00 20.00    -0.018 C 
HETATM    2  C2  UNL     1     -34.347   6.175   2.081  1.00 20.00    -0.018 C 
HETATM    3  C3  UNL     1     -31.939   8.130   3.646  1.00 20.00    -0.078 C 
HETATM    4  C4  UNL     1     -34.211   5.625   3.323  1.00 20.00    -0.078 C 
HETATM    5  C5  UNL     1     -31.792   9.138   2.517  1.00 20.00     0.035 C 
HETATM    6  C6  UNL     1     -35.167   5.348   4.472  1.00 20.00     0.035 C 
HETATM    7  C7  UNL     1     -32.543   8.392   1.291  1.00 20.00     0.013 C 
HETATM    8  C8  UNL     1     -34.467   6.138   5.700  1.00 20.00     0.013 C 
HETATM    9  C9  UNL     1     -33.588   7.140   4.944  1.00 20.00     0.017 C 
HETATM   10  C10 UNL     1     -33.429   7.399   2.047  1.00 20.00     0.017 C 
HETATM   11  C11 UNL     1     -32.325   6.889   2.957  1.00 20.00     0.030 C 
HETATM   12  C12 UNL     1     -32.997   6.116   3.990  1.00 20.00     0.030 C 
ENDROOT
TORSDOF 0
ENDMDL
MODEL 7
REMARK VINA RESULT:      -5.3     11.832     12.666
REMARK  0 active torsions:
REMARK  status: ('A' for Active; 'I' for Inactive)
ROOT
HETATM    1  C1  UNL     1     -32.100  18.505  -0.418  1.00 20.00    -0.018 C 
HETATM    2  C2  UNL     1     -35.756  17.470   0.624  1.00 20.00    -0.018 C 
HETATM    3  C3  UNL     1     -32.708  19.137   0.628  1.00 20.00    -0.078 C 
HETATM    4  C4  UNL     1     -35.451  17.631  -0.697  1.00 20.00    -0.078 C 
HETATM    5  C5  UNL     1     -32.518  19.119   2.136  1.00 20.00     0.035 C 
HETATM    6  C6  UNL     1     -35.272  16.680  -1.869  1.00 20.00     0.035 C 
HETATM    7  C7  UNL     1     -33.991  18.701   2.664  1.00 20.00     0.013 C 
HETATM    8  C8  UNL     1     -33.776  17.038  -2.377  1.00 20.00     0.013 C 
HETATM    9  C9  UNL     1     -33.186  17.691  -1.122  1.00 20.00     0.017 C 
HETATM   10  C10 UNL     1     -34.576  18.038   1.414  1.00 20.00     0.017 C 
HETATM   11  C11 UNL     1     -34.170  19.150   0.462  1.00 20.00     0.030 C 
HETATM   12  C12 UNL     1     -34.369  18.611  -0.874  1.00 20.00     0.030 C 
ENDROOT
TORSDOF 0
ENDMDL
MODEL 8
REMARK VINA RESULT:      -5.3     11.860     12.589
REMARK  0 active torsions:
REMARK  status: ('A' for Active; 'I' for Inactive)
ROOT
HETATM    1  C1  UNL     1     -35.773  17.451   0.470  1.00 20.00    -0.018 C 
HETATM    2  C2  UNL     1     -32.115  18.369  -0.671  1.00 20.00    -0.018 C 
HETATM    3  C3  UNL     1     -35.493  17.583  -0.860  1.00 20.00    -0.078 C 
HETATM    4  C4  UNL     1     -32.681  19.033   0.378  1.00 20.00    -0.078 C 
HETATM    5  C5  UNL     1     -35.367  16.609  -2.020  1.00 20.00     0.035 C 
HETATM    6  C6  UNL     1     -32.456  19.034   1.881  1.00 20.00     0.035 C 
HETATM    7  C7  UNL     1     -33.874  16.918  -2.567  1.00 20.00     0.013 C 
HETATM    8  C8  UNL     1     -33.928  18.665   2.450  1.00 20.00     0.013 C 
HETATM    9  C9  UNL     1     -34.560  17.999   1.223  1.00 20.00     0.017 C 
HETATM   10  C10 UNL     1     -33.239  17.573  -1.338  1.00 20.00     0.017 C 
HETATM   11  C11 UNL     1     -34.389  18.530  -1.078  1.00 20.00     0.030 C 
HETATM   12  C12 UNL     1     -34.145  19.084   0.245  1.00 20.00     0.030 C 
ENDROOT
TORSDOF 0
ENDMDL
