MODEL 1
REMARK VINA RESULT:      -5.6      0.000      0.000
REMARK  0 active torsions:
REMARK  status: ('A' for Active; 'I' for Inactive)
ROOT
HETATM    1  C1  UNL     1     -32.913   5.906   2.997  1.00 20.00     0.014 C 
HETATM    2  C2  UNL     1     -33.410   7.248   5.085  1.00 20.00     0.014 C 
HETATM    3  C3  UNL     1     -34.044   5.033   3.470  1.00 20.00    -0.004 A 
HETATM    4  C4  UNL     1     -34.481   6.217   5.313  1.00 20.00    -0.004 A 
HETATM    5  C5  UNL     1     -35.226   5.617   4.168  1.00 20.00    -0.001 A 
HETATM    6  C6  UNL     1     -34.195   4.802   4.936  1.00 20.00    -0.001 A 
HETATM    7  C7  UNL     1     -32.961   7.327   3.606  1.00 20.00    -0.046 C 
HETATM    8  C8  UNL     1     -33.929   8.222   2.802  1.00 20.00     0.015 C 
HETATM    9  C9  UNL     1     -31.563   7.966   3.529  1.00 20.00     0.015 C 
ENDROOT
TORSDOF 0
ENDMDL
MODEL 2
REMARK VINA RESULT:      -5.4      0.753      3.295
REMARK  0 active torsions:
REMARK  status: ('A' for Active; 'I' for Inactive)
ROOT
HETATM    1  C1  UNL     1     -33.782   6.799   5.131  1.00 20.00     0.014 C 
HETATM    2  C2  UNL     1     -33.302   5.425   3.060  1.00 20.00     0.014 C 
HETATM    3  C3  UNL     1     -33.124   7.913   4.362  1.00 20.00    -0.004 A 
HETATM    4  C4  UNL     1     -32.700   6.699   2.535  1.00 20.00    -0.004 A 
HETATM    5  C5  UNL     1     -33.287   8.026   2.883  1.00 20.00    -0.001 A 
HETATM    6  C6  UNL     1     -31.963   7.580   3.487  1.00 20.00    -0.001 A 
HETATM    7  C7  UNL     1     -34.305   5.668   4.214  1.00 20.00    -0.046 C 
HETATM    8  C8  UNL     1     -35.692   6.036   3.648  1.00 20.00     0.015 C 
HETATM    9  C9  UNL     1     -34.463   4.375   5.034  1.00 20.00     0.015 C 
ENDROOT
TORSDOF 0
ENDMDL
MODEL 3
REMARK VINA RESULT:      -4.3      1.100      2.465
REMARK  0 active torsions:
REMARK  status: ('A' for Active; 'I' for Inactive)
ROOT
HETATM    1  C1  UNL     1     -34.234   5.032   4.344  1.00 20.00     0.014 C 
HETATM    2  C2  UNL     1     -32.588   6.673   3.341  1.00 20.00     0.014 C 
HETATM    3  C3  UNL     1     -34.499   6.133   5.334  1.00 20.00    -0.004 A 
HETATM    4  C4  UNL     1     -33.046   7.581   4.448  1.00 20.00    -0.004 A 
HETATM    5  C5  UNL     1     -34.463   7.566   4.918  1.00 20.00    -0.001 A 
HETATM    6  C6  UNL     1     -33.353   6.979   5.778  1.00 20.00    -0.001 A 
HETATM    7  C7  UNL     1     -33.606   5.549   3.029  1.00 20.00    -0.046 C 
HETATM    8  C8  UNL     1     -34.706   6.074   2.081  1.00 20.00     0.015 C 
HETATM    9  C9  UNL     1     -32.887   4.392   2.313  1.00 20.00     0.015 C 
ENDROOT
TORSDOF 0
ENDMDL
MODEL 4
REMARK VINA RESULT:      -4.2      1.091      2.639
REMARK  0 active torsions:
REMARK  status: ('A' for Active; 'I' for Inactive)
ROOT
HETATM    1  C1  UNL     1     -33.344   7.300   3.563  1.00 20.00     0.014 C 
HETATM    2  C2  UNL     1     -35.115   5.566   4.080  1.00 20.00     0.014 C 
HETATM    3  C3  UNL     1     -33.137   7.314   5.054  1.00 20.00    -0.004 A 
HETATM    4  C4  UNL     1     -34.700   5.784   5.509  1.00 20.00    -0.004 A 
HETATM    5  C5  UNL     1     -33.278   6.067   5.861  1.00 20.00    -0.001 A 
HETATM    6  C6  UNL     1     -34.330   7.164   5.937  1.00 20.00    -0.001 A 
HETATM    7  C7  UNL     1     -34.028   6.004   3.068  1.00 20.00    -0.046 C 
HETATM    8  C8  UNL     1     -32.983   4.883   2.888  1.00 20.00     0.015 C 
HETATM    9  C9  UNL     1     -34.680   6.260   1.697  1.00 20.00     0.015 C 
ENDROOT
TORSDOF 0
ENDMDL
MODEL 5
REMARK VINA RESULT:      -4.2      8.701     10.268
REMARK  0 active torsions:
REMARK  status: ('A' for Active; 'I' for Inactive)
ROOT
HETATM    1  C1  UNL     1     -41.260   5.187  -0.808  1.00 20.00     0.014 C 
HETATM    2  C2  UNL     1     -43.417   6.453  -1.200  1.00 20.00     0.014 C 
HETATM    3  C3  UNL     1     -40.817   6.452  -0.124  1.00 20.00    -0.004 A 
HETATM    4  C4  UNL     1     -42.721   7.569  -0.470  1.00 20.00    -0.004 A 
HETATM    5  C5  UNL     1     -41.782   7.283   0.654  1.00 20.00    -0.001 A 
HETATM    6  C6  UNL     1     -41.258   7.757  -0.694  1.00 20.00    -0.001 A 
HETATM    7  C7  UNL     1     -42.800   5.066  -0.900  1.00 20.00    -0.046 C 
HETATM    8  C8  UNL     1     -43.372   4.500   0.417  1.00 20.00     0.015 C 
HETATM    9  C9  UNL     1     -43.170   4.086  -2.029  1.00 20.00     0.015 C 
ENDROOT
TORSDOF 0
ENDMDL
MODEL 6
REMARK VINA RESULT:      -4.1      0.898      2.176
REMARK  0 active torsions:
REMARK  status: ('A' for Active; 'I' for Inactive)
ROOT
HETATM    1  C1  UNL     1     -34.064   8.070   3.737  1.00 20.00     0.014 C 
HETATM    2  C2  UNL     1     -32.990   6.187   2.429  1.00 20.00     0.014 C 
HETATM    3  C3  UNL     1     -34.581   6.963   4.617  1.00 20.00    -0.004 A 
HETATM    4  C4  UNL     1     -33.633   5.302   3.461  1.00 20.00    -0.004 A 
HETATM    5  C5  UNL     1     -33.761   5.745   4.880  1.00 20.00    -0.001 A 
HETATM    6  C6  UNL     1     -34.982   5.678   3.975  1.00 20.00    -0.001 A 
HETATM    7  C7  UNL     1     -32.825   7.648   2.913  1.00 20.00    -0.046 C 
HETATM    8  C8  UNL     1     -31.544   7.787   3.763  1.00 20.00     0.015 C 
HETATM    9  C9  UNL     1     -32.680   8.577   1.695  1.00 20.00     0.015 C 
ENDROOT
TORSDOF 0
ENDMDL
MODEL 7
REMARK VINA RESULT:      -4.0     11.365     12.985
REMARK  0 active torsions:
REMARK  status: ('A' for Active; 'I' for Inactive)
ROOT
HETATM    1  C1  UNL     1     -34.233  15.896  -6.337  1.00 20.00     0.014 C 
HETATM    2  C2  UNL     1     -35.559  14.202  -5.003  1.00 20.00     0.014 C 
HETATM    3  C3  UNL     1     -33.247  15.793  -5.204  1.00 20.00    -0.004 A 
HETATM    4  C4  UNL     1     -34.418  14.298  -4.027  1.00 20.00    -0.004 A 
HETATM    5  C5  UNL     1     -33.017  14.497  -4.501  1.00 20.00    -0.001 A 
HETATM    6  C6  UNL     1     -33.775  15.628  -3.819  1.00 20.00    -0.001 A 
HETATM    7  C7  UNL     1     -35.170  14.668  -6.426  1.00 20.00    -0.046 C 
HETATM    8  C8  UNL     1     -34.478  13.522  -7.193  1.00 20.00     0.015 C 
HETATM    9  C9  UNL     1     -36.442  15.050  -7.205  1.00 20.00     0.015 C 
ENDROOT
TORSDOF 0
ENDMDL
MODEL 8
REMARK VINA RESULT:      -3.9     11.549     12.754
REMARK  0 active torsions:
REMARK  status: ('A' for Active; 'I' for Inactive)
ROOT
HETATM    1  C1  UNL     1     -35.304  15.607  -3.658  1.00 20.00     0.014 C 
HETATM    2  C2  UNL     1     -33.551  16.955  -4.890  1.00 20.00     0.014 C 
HETATM    3  C3  UNL     1     -34.546  14.419  -4.185  1.00 20.00    -0.004 A 
HETATM    4  C4  UNL     1     -32.999  15.609  -5.272  1.00 20.00    -0.004 A 
HETATM    5  C5  UNL     1     -33.060  14.456  -4.326  1.00 20.00    -0.001 A 
HETATM    6  C6  UNL     1     -33.959  14.503  -5.553  1.00 20.00    -0.001 A 
HETATM    7  C7  UNL     1     -34.450  16.896  -3.631  1.00 20.00    -0.046 C 
HETATM    8  C8  UNL     1     -33.585  16.939  -2.354  1.00 20.00     0.015 C 
HETATM    9  C9  UNL     1     -35.378  18.125  -3.609  1.00 20.00     0.015 C 
ENDROOT
TORSDOF 0
ENDMDL
MODEL 9
REMARK VINA RESULT:      -3.9     11.585     12.889
REMARK  0 active torsions:
REMARK  status: ('A' for Active; 'I' for Inactive)
ROOT
HETATM    1  C1  UNL     1     -35.480  13.898  -4.742  1.00 20.00     0.014 C 
HETATM    2  C2  UNL     1     -34.386  15.916  -5.809  1.00 20.00     0.014 C 
HETATM    3  C3  UNL     1     -35.553  13.378  -6.152  1.00 20.00    -0.004 A 
HETATM    4  C4  UNL     1     -34.588  15.160  -7.094  1.00 20.00    -0.004 A 
HETATM    5  C5  UNL     1     -34.471  13.673  -7.137  1.00 20.00    -0.001 A 
HETATM    6  C6  UNL     1     -35.830  14.349  -7.251  1.00 20.00    -0.001 A 
HETATM    7  C7  UNL     1     -34.405  14.996  -4.565  1.00 20.00    -0.046 C 
HETATM    8  C8  UNL     1     -33.017  14.356  -4.353  1.00 20.00     0.015 C 
HETATM    9  C9  UNL     1     -34.729  15.833  -3.314  1.00 20.00     0.015 C 
ENDROOT
TORSDOF 0
ENDMDL
