MODEL 1
REMARK VINA RESULT:      -6.7      0.000      0.000
REMARK  0 active torsions:
REMARK  status: ('A' for Active; 'I' for Inactive)
ROOT
HETATM    1  C1  UNL     1     -33.405   7.387   5.038  1.00 20.00    -0.019 A 
HETATM    2  C2  UNL     1     -32.890   7.344   3.802  1.00 20.00    -0.086 A 
HETATM    3  C3  UNL     1     -34.418   4.532   4.439  1.00 20.00     0.132 C 
HETATM    4  C4  UNL     1     -33.670   6.475   2.855  1.00 20.00     0.046 A 
HETATM    5  C5  UNL     1     -34.463   5.182   5.831  1.00 20.00     0.088 C 
HETATM    6  C6  UNL     1     -34.622   6.550   5.124  1.00 20.00     0.027 A 
HETATM    7  C7  UNL     1     -34.762   5.862   3.731  1.00 20.00     0.067 A 
HETATM    8  C8  UNL     1     -31.673   8.062   3.335  1.00 20.00     0.043 C 
HETATM    9  O9  UNL     1     -34.186   3.407   4.047  1.00 20.00    -0.298 OA
ENDROOT
TORSDOF 0
ENDMDL
MODEL 2
REMARK VINA RESULT:      -5.8      1.402      2.024
REMARK  0 active torsions:
REMARK  status: ('A' for Active; 'I' for Inactive)
ROOT
HETATM    1  C1  UNL     1     -34.483   5.884   5.843  1.00 20.00    -0.019 A 
HETATM    2  C2  UNL     1     -33.892   7.016   5.437  1.00 20.00    -0.086 A 
HETATM    3  C3  UNL     1     -33.586   4.739   3.118  1.00 20.00     0.132 C 
HETATM    4  C4  UNL     1     -33.908   7.201   3.944  1.00 20.00     0.046 A 
HETATM    5  C5  UNL     1     -34.166   3.885   4.258  1.00 20.00     0.088 C 
HETATM    6  C6  UNL     1     -34.996   5.120   4.684  1.00 20.00     0.027 A 
HETATM    7  C7  UNL     1     -34.544   5.914   3.420  1.00 20.00     0.067 A 
HETATM    8  C8  UNL     1     -33.264   8.040   6.315  1.00 20.00     0.043 C 
HETATM    9  O9  UNL     1     -32.704   4.563   2.304  1.00 20.00    -0.298 OA
ENDROOT
TORSDOF 0
ENDMDL
MODEL 3
REMARK VINA RESULT:      -5.3      2.007      3.673
REMARK  0 active torsions:
REMARK  status: ('A' for Active; 'I' for Inactive)
ROOT
HETATM    1  C1  UNL     1     -34.381   5.412   3.707  1.00 20.00    -0.019 A 
HETATM    2  C2  UNL     1     -34.356   5.723   5.010  1.00 20.00    -0.086 A 
HETATM    3  C3  UNL     1     -32.279   7.653   3.394  1.00 20.00     0.132 C 
HETATM    4  C4  UNL     1     -34.029   7.166   5.277  1.00 20.00     0.046 A 
HETATM    5  C5  UNL     1     -32.648   6.662   2.277  1.00 20.00     0.088 C 
HETATM    6  C6  UNL     1     -34.072   6.600   2.882  1.00 20.00     0.027 A 
HETATM    7  C7  UNL     1     -33.740   7.742   3.892  1.00 20.00     0.067 A 
HETATM    8  C8  UNL     1     -34.622   4.791   6.139  1.00 20.00     0.043 C 
HETATM    9  O9  UNL     1     -31.237   8.159   3.754  1.00 20.00    -0.298 OA
ENDROOT
TORSDOF 0
ENDMDL
MODEL 4
REMARK VINA RESULT:      -4.8      1.995      3.019
REMARK  0 active torsions:
REMARK  status: ('A' for Active; 'I' for Inactive)
ROOT
HETATM    1  C1  UNL     1     -33.266   7.538   1.678  1.00 20.00    -0.019 A 
HETATM    2  C2  UNL     1     -32.499   8.587   2.001  1.00 20.00    -0.086 A 
HETATM    3  C3  UNL     1     -33.552   7.133   4.727  1.00 20.00     0.132 C 
HETATM    4  C4  UNL     1     -31.772   8.421   3.307  1.00 20.00     0.046 A 
HETATM    5  C5  UNL     1     -34.388   6.378   3.680  1.00 20.00     0.088 C 
HETATM    6  C6  UNL     1     -33.180   6.489   2.719  1.00 20.00     0.027 A 
HETATM    7  C7  UNL     1     -32.282   7.086   3.847  1.00 20.00     0.067 A 
HETATM    8  C8  UNL     1     -32.327   9.827   1.198  1.00 20.00     0.043 C 
HETATM    9  O9  UNL     1     -33.801   7.600   5.819  1.00 20.00    -0.298 OA
ENDROOT
TORSDOF 0
ENDMDL
MODEL 5
REMARK VINA RESULT:      -4.6      2.429      3.971
REMARK  0 active torsions:
REMARK  status: ('A' for Active; 'I' for Inactive)
ROOT
HETATM    1  C1  UNL     1     -33.186   7.401   4.524  1.00 20.00    -0.019 A 
HETATM    2  C2  UNL     1     -33.893   6.500   3.828  1.00 20.00    -0.086 A 
HETATM    3  C3  UNL     1     -32.372   8.517   1.761  1.00 20.00     0.132 C 
HETATM    4  C4  UNL     1     -33.301   6.180   2.483  1.00 20.00     0.046 A 
HETATM    5  C5  UNL     1     -32.085   9.231   3.092  1.00 20.00     0.088 C 
HETATM    6  C6  UNL     1     -31.998   7.836   3.757  1.00 20.00     0.027 A 
HETATM    7  C7  UNL     1     -32.103   7.123   2.373  1.00 20.00     0.067 A 
HETATM    8  C8  UNL     1     -35.145   5.834   4.276  1.00 20.00     0.043 C 
HETATM    9  O9  UNL     1     -32.698   8.901   0.658  1.00 20.00    -0.298 OA
ENDROOT
TORSDOF 0
ENDMDL
MODEL 6
REMARK VINA RESULT:      -4.5     11.964     12.492
REMARK  0 active torsions:
REMARK  status: ('A' for Active; 'I' for Inactive)
ROOT
HETATM    1  C1  UNL     1     -35.930  16.095  -3.112  1.00 20.00    -0.019 A 
HETATM    2  C2  UNL     1     -34.991  16.589  -2.295  1.00 20.00    -0.086 A 
HETATM    3  C3  UNL     1     -33.639  14.401  -4.304  1.00 20.00     0.132 C 
HETATM    4  C4  UNL     1     -33.615  16.610  -2.903  1.00 20.00     0.046 A 
HETATM    5  C5  UNL     1     -35.126  14.184  -4.632  1.00 20.00     0.088 C 
HETATM    6  C6  UNL     1     -35.338  15.701  -4.409  1.00 20.00     0.027 A 
HETATM    7  C7  UNL     1     -33.802  15.937  -4.262  1.00 20.00     0.067 A 
HETATM    8  C8  UNL     1     -35.209  17.092  -0.912  1.00 20.00     0.043 C 
HETATM    9  O9  UNL     1     -32.702  13.651  -4.130  1.00 20.00    -0.298 OA
ENDROOT
TORSDOF 0
ENDMDL
MODEL 7
REMARK VINA RESULT:      -4.4      1.912      3.058
REMARK  0 active torsions:
REMARK  status: ('A' for Active; 'I' for Inactive)
ROOT
HETATM    1  C1  UNL     1     -32.532   6.454   2.640  1.00 20.00    -0.019 A 
HETATM    2  C2  UNL     1     -33.282   5.356   2.795  1.00 20.00    -0.086 A 
HETATM    3  C3  UNL     1     -33.715   7.336   5.353  1.00 20.00     0.132 C 
HETATM    4  C4  UNL     1     -34.540   5.593   3.585  1.00 20.00     0.046 A 
HETATM    5  C5  UNL     1     -32.549   8.053   4.653  1.00 20.00     0.088 C 
HETATM    6  C6  UNL     1     -33.166   7.616   3.302  1.00 20.00     0.027 A 
HETATM    7  C7  UNL     1     -34.436   7.056   4.015  1.00 20.00     0.067 A 
HETATM    8  C8  UNL     1     -32.972   4.001   2.265  1.00 20.00     0.043 C 
HETATM    9  O9  UNL     1     -33.965   7.077   6.512  1.00 20.00    -0.298 OA
ENDROOT
TORSDOF 0
ENDMDL
MODEL 8
REMARK VINA RESULT:      -4.2     12.125     13.033
REMARK  0 active torsions:
REMARK  status: ('A' for Active; 'I' for Inactive)
ROOT
HETATM    1  C1  UNL     1     -34.701  16.672  -4.846  1.00 20.00    -0.019 A 
HETATM    2  C2  UNL     1     -33.998  16.114  -3.852  1.00 20.00    -0.086 A 
HETATM    3  C3  UNL     1     -35.483  13.775  -5.577  1.00 20.00     0.132 C 
HETATM    4  C4  UNL     1     -33.495  14.733  -4.172  1.00 20.00     0.046 A 
HETATM    5  C5  UNL     1     -36.135  15.021  -6.199  1.00 20.00     0.088 C 
HETATM    6  C6  UNL     1     -34.785  15.754  -6.003  1.00 20.00     0.027 A 
HETATM    7  C7  UNL     1     -34.086  14.435  -5.549  1.00 20.00     0.067 A 
HETATM    8  C8  UNL     1     -33.698  16.736  -2.534  1.00 20.00     0.043 C 
HETATM    9  O9  UNL     1     -35.908  12.693  -5.228  1.00 20.00    -0.298 OA
ENDROOT
TORSDOF 0
ENDMDL
MODEL 9
REMARK VINA RESULT:      -4.0     12.700     13.369
REMARK  0 active torsions:
REMARK  status: ('A' for Active; 'I' for Inactive)
ROOT
HETATM    1  C1  UNL     1     -33.177  17.576  -1.619  1.00 20.00    -0.019 A 
HETATM    2  C2  UNL     1     -34.174  17.697  -0.732  1.00 20.00    -0.086 A 
HETATM    3  C3  UNL     1     -35.422  17.342  -3.727  1.00 20.00     0.132 C 
HETATM    4  C4  UNL     1     -35.429  16.973  -1.137  1.00 20.00     0.046 A 
HETATM    5  C5  UNL     1     -33.934  17.511  -4.075  1.00 20.00     0.088 C 
HETATM    6  C6  UNL     1     -33.600  16.749  -2.770  1.00 20.00     0.027 A 
HETATM    7  C7  UNL     1     -35.106  16.422  -2.525  1.00 20.00     0.067 A 
HETATM    8  C8  UNL     1     -34.121  18.449   0.550  1.00 20.00     0.043 C 
HETATM    9  O9  UNL     1     -36.449  17.776  -4.205  1.00 20.00    -0.298 OA
ENDROOT
TORSDOF 0
ENDMDL
