MODEL 1
REMARK VINA RESULT:      -7.9      0.000      0.000
REMARK  0 active torsions:
REMARK  status: ('A' for Active; 'I' for Inactive)
ROOT
HETATM    1  C1  UNL     1     -34.788   5.779   5.801  1.00 20.00    -0.021 C 
HETATM    2  C2  UNL     1     -33.993   6.850   6.042  1.00 20.00    -0.021 C 
HETATM    3  C3  UNL     1     -33.820   4.477   3.702  1.00 20.00    -0.021 C 
HETATM    4  C4  UNL     1     -33.099   5.089   2.730  1.00 20.00    -0.021 C 
HETATM    5  C5  UNL     1     -32.529   8.093   4.075  1.00 20.00    -0.015 C 
HETATM    6  C6  UNL     1     -32.545   7.689   2.778  1.00 20.00    -0.079 C 
HETATM    7  C7  UNL     1     -34.845   5.397   4.325  1.00 20.00     0.036 C 
HETATM    8  C8  UNL     1     -33.172   7.013   4.835  1.00 20.00     0.036 C 
HETATM    9  C9  UNL     1     -33.511   6.530   2.527  1.00 20.00     0.042 C 
HETATM   10  C10 UNL     1     -34.280   6.691   3.808  1.00 20.00     0.020 C 
HETATM   11  C11 UNL     1     -31.826   8.328   1.645  1.00 20.00     0.044 C 
ENDROOT
TORSDOF 0
ENDMDL
MODEL 2
REMARK VINA RESULT:      -5.5      0.909      2.356
REMARK  0 active torsions:
REMARK  status: ('A' for Active; 'I' for Inactive)
ROOT
HETATM    1  C1  UNL     1     -34.806   4.900   5.445  1.00 20.00    -0.021 C 
HETATM    2  C2  UNL     1     -35.108   4.893   4.123  1.00 20.00    -0.021 C 
HETATM    3  C3  UNL     1     -33.969   7.332   6.096  1.00 20.00    -0.021 C 
HETATM    4  C4  UNL     1     -33.379   8.166   5.204  1.00 20.00    -0.021 C 
HETATM    5  C5  UNL     1     -33.917   6.583   2.312  1.00 20.00    -0.015 C 
HETATM    6  C6  UNL     1     -32.971   7.493   2.664  1.00 20.00    -0.079 C 
HETATM    7  C7  UNL     1     -33.688   5.877   5.796  1.00 20.00     0.036 C 
HETATM    8  C8  UNL     1     -34.506   6.115   3.573  1.00 20.00     0.036 C 
HETATM    9  C9  UNL     1     -32.598   7.420   4.146  1.00 20.00     0.042 C 
HETATM   10  C10 UNL     1     -33.196   6.062   4.388  1.00 20.00     0.020 C 
HETATM   11  C11 UNL     1     -32.243   8.409   1.749  1.00 20.00     0.044 C 
ENDROOT
TORSDOF 0
ENDMDL
