MODEL 1
REMARK VINA RESULT:      -4.3      0.000      0.000
REMARK  1 active torsions:
REMARK  status: ('A' for Active; 'I' for Inactive)
REMARK    1  A    between atoms: C1_1  and  C3_3 
ROOT
HETATM    1  C1  UNL     1     -34.106   6.823   3.761  1.00 20.00     0.043 C 
HETATM    2  C2  UNL     1     -32.965   6.680   3.074  1.00 20.00     0.183 C 
HETATM    3  F4  UNL     1     -32.603   5.462   2.614  1.00 20.00    -0.193 F 
HETATM    4 CL5  UNL     1     -31.936   8.026   2.763  1.00 20.00    -0.052 Cl
ENDROOT
BRANCH   1   5
HETATM    5  C3  UNL     1     -35.048   5.702   4.058  1.00 20.00     0.145 C 
HETATM    6 CL6  UNL     1     -34.581   4.908   5.577  1.00 20.00    -0.126 Cl
ENDBRANCH   1   5
TORSDOF 1
ENDMDL
MODEL 2
REMARK VINA RESULT:      -4.3      1.564      1.573
REMARK  1 active torsions:
REMARK  status: ('A' for Active; 'I' for Inactive)
REMARK    1  A    between atoms: C1_1  and  C3_3 
ROOT
HETATM    1  C1  UNL     1     -33.931   6.384   3.438  1.00 20.00     0.043 C 
HETATM    2  C2  UNL     1     -33.154   7.276   4.065  1.00 20.00     0.183 C 
HETATM    3  F4  UNL     1     -33.417   7.617   5.345  1.00 20.00    -0.193 F 
HETATM    4 CL5  UNL     1     -31.815   8.010   3.268  1.00 20.00    -0.052 Cl
ENDROOT
BRANCH   1   5
HETATM    5  C3  UNL     1     -35.100   5.704   4.070  1.00 20.00     0.145 C 
HETATM    6 CL6  UNL     1     -34.545   4.644   5.383  1.00 20.00    -0.126 Cl
ENDBRANCH   1   5
TORSDOF 1
ENDMDL
MODEL 3
REMARK VINA RESULT:      -4.2      1.805      3.593
REMARK  1 active torsions:
REMARK  status: ('A' for Active; 'I' for Inactive)
REMARK    1  A    between atoms: C1_1  and  C3_3 
ROOT
HETATM    1  C1  UNL     1     -33.611   6.483   3.565  1.00 20.00     0.043 C 
HETATM    2  C2  UNL     1     -34.040   6.532   4.833  1.00 20.00     0.183 C 
HETATM    3  F4  UNL     1     -33.993   7.697   5.516  1.00 20.00    -0.193 F 
HETATM    4 CL5  UNL     1     -34.656   5.130   5.622  1.00 20.00    -0.052 Cl
ENDROOT
BRANCH   1   5
HETATM    5  C3  UNL     1     -33.075   7.660   2.818  1.00 20.00     0.145 C 
HETATM    6 CL6  UNL     1     -31.512   8.150   3.505  1.00 20.00    -0.126 Cl
ENDBRANCH   1   5
TORSDOF 1
ENDMDL
MODEL 4
REMARK VINA RESULT:      -4.2      1.058      3.226
REMARK  1 active torsions:
REMARK  status: ('A' for Active; 'I' for Inactive)
REMARK    1  A    between atoms: C1_1  and  C3_3 
ROOT
HETATM    1  C1  UNL     1     -33.653   6.629   3.490  1.00 20.00     0.043 C 
HETATM    2  C2  UNL     1     -33.655   5.292   3.412  1.00 20.00     0.183 C 
HETATM    3  F4  UNL     1     -32.928   4.671   2.458  1.00 20.00    -0.193 F 
HETATM    4 CL5  UNL     1     -34.575   4.336   4.511  1.00 20.00    -0.052 Cl
ENDROOT
BRANCH   1   5
HETATM    5  C3  UNL     1     -32.872   7.517   2.578  1.00 20.00     0.145 C 
HETATM    6 CL6  UNL     1     -31.487   8.210   3.449  1.00 20.00    -0.126 Cl
ENDBRANCH   1   5
TORSDOF 1
ENDMDL
MODEL 5
REMARK VINA RESULT:      -4.1      1.862      3.842
REMARK  1 active torsions:
REMARK  status: ('A' for Active; 'I' for Inactive)
REMARK    1  A    between atoms: C1_1  and  C3_3 
ROOT
HETATM    1  C1  UNL     1     -33.084   6.983   3.148  1.00 20.00     0.043 C 
HETATM    2  C2  UNL     1     -33.870   6.811   4.218  1.00 20.00     0.183 C 
HETATM    3  F4  UNL     1     -33.661   7.546   5.333  1.00 20.00    -0.193 F 
HETATM    4 CL5  UNL     1     -35.153   5.662   4.208  1.00 20.00    -0.052 Cl
ENDROOT
BRANCH   1   5
HETATM    5  C3  UNL     1     -31.962   7.967   3.085  1.00 20.00     0.145 C 
HETATM    6 CL6  UNL     1     -31.882   8.690   1.464  1.00 20.00    -0.126 Cl
ENDBRANCH   1   5
TORSDOF 1
ENDMDL
MODEL 6
REMARK VINA RESULT:      -4.0      1.400      3.553
REMARK  1 active torsions:
REMARK  status: ('A' for Active; 'I' for Inactive)
REMARK    1  A    between atoms: C1_1  and  C3_3 
ROOT
HETATM    1  C1  UNL     1     -33.422   6.669   4.014  1.00 20.00     0.043 C 
HETATM    2  C2  UNL     1     -34.545   5.985   4.268  1.00 20.00     0.183 C 
HETATM    3  F4  UNL     1     -35.576   6.033   3.397  1.00 20.00    -0.193 F 
HETATM    4 CL5  UNL     1     -34.707   5.036   5.697  1.00 20.00    -0.052 Cl
ENDROOT
BRANCH   1   5
HETATM    5  C3  UNL     1     -33.210   7.502   2.792  1.00 20.00     0.145 C 
HETATM    6 CL6  UNL     1     -31.641   8.328   2.889  1.00 20.00    -0.126 Cl
ENDBRANCH   1   5
TORSDOF 1
ENDMDL
MODEL 7
REMARK VINA RESULT:      -3.9      1.888      2.024
REMARK  1 active torsions:
REMARK  status: ('A' for Active; 'I' for Inactive)
REMARK    1  A    between atoms: C1_1  and  C3_3 
ROOT
HETATM    1  C1  UNL     1     -33.235   7.310   3.013  1.00 20.00     0.043 C 
HETATM    2  C2  UNL     1     -32.116   8.026   2.847  1.00 20.00     0.183 C 
HETATM    3  F4  UNL     1     -31.374   8.375   3.921  1.00 20.00    -0.193 F 
HETATM    4 CL5  UNL     1     -31.596   8.519   1.281  1.00 20.00    -0.052 Cl
ENDROOT
BRANCH   1   5
HETATM    5  C3  UNL     1     -33.739   6.841   4.339  1.00 20.00     0.145 C 
HETATM    6 CL6  UNL     1     -35.102   5.726   4.108  1.00 20.00    -0.126 Cl
ENDBRANCH   1   5
TORSDOF 1
ENDMDL
MODEL 8
REMARK VINA RESULT:      -3.9      1.871      3.686
REMARK  1 active torsions:
REMARK  status: ('A' for Active; 'I' for Inactive)
REMARK    1  A    between atoms: C1_1  and  C3_3 
ROOT
HETATM    1  C1  UNL     1     -32.578   7.693   3.684  1.00 20.00     0.043 C 
HETATM    2  C2  UNL     1     -33.652   7.132   4.253  1.00 20.00     0.183 C 
HETATM    3  F4  UNL     1     -34.601   6.556   3.483  1.00 20.00    -0.193 F 
HETATM    4 CL5  UNL     1     -33.856   7.130   5.964  1.00 20.00    -0.052 Cl
ENDROOT
BRANCH   1   5
HETATM    5  C3  UNL     1     -32.334   7.723   2.210  1.00 20.00     0.145 C 
HETATM    6 CL6  UNL     1     -32.329   9.402   1.632  1.00 20.00    -0.126 Cl
ENDBRANCH   1   5
TORSDOF 1
ENDMDL
MODEL 9
REMARK VINA RESULT:      -3.8      3.552      4.001
REMARK  1 active torsions:
REMARK  status: ('A' for Active; 'I' for Inactive)
REMARK    1  A    between atoms: C1_1  and  C3_3 
ROOT
HETATM    1  C1  UNL     1     -32.173   8.364   1.716  1.00 20.00     0.043 C 
HETATM    2  C2  UNL     1     -32.538   9.474   1.064  1.00 20.00     0.183 C 
HETATM    3  F4  UNL     1     -32.460  10.675   1.678  1.00 20.00    -0.193 F 
HETATM    4 CL5  UNL     1     -33.115   9.407  -0.558  1.00 20.00    -0.052 Cl
ENDROOT
BRANCH   1   5
HETATM    5  C3  UNL     1     -31.656   8.350   3.117  1.00 20.00     0.145 C 
HETATM    6 CL6  UNL     1     -32.814   7.524   4.181  1.00 20.00    -0.126 Cl
ENDBRANCH   1   5
TORSDOF 1
ENDMDL
