MODEL 1
REMARK VINA RESULT:      -6.8      0.000      0.000
REMARK  0 active torsions:
REMARK  status: ('A' for Active; 'I' for Inactive)
ROOT
HETATM    1  C1  UNL     1     -34.695   4.591   5.068  1.00 20.00     0.003 C 
HETATM    2  C2  UNL     1     -34.665   5.786   5.671  1.00 20.00     0.050 C 
HETATM    3  C3  UNL     1     -33.879   4.130   3.970  1.00 20.00    -0.004 C 
HETATM    4  C4  UNL     1     -33.412   4.868   2.955  1.00 20.00    -0.021 C 
HETATM    5  C5  UNL     1     -33.818   6.924   5.253  1.00 20.00     0.154 C 
HETATM    6  C6  UNL     1     -32.511   7.246   3.060  1.00 20.00     0.022 A 
HETATM    7  C7  UNL     1     -33.619   6.292   2.702  1.00 20.00     0.020 A 
HETATM    8  C8  UNL     1     -33.811   7.283   3.818  1.00 20.00     0.068 A 
HETATM    9  O9  UNL     1     -33.237   7.622   6.076  1.00 20.00    -0.293 OA
ENDROOT
TORSDOF 0
ENDMDL
MODEL 2
REMARK VINA RESULT:      -6.6      1.758      3.549
REMARK  0 active torsions:
REMARK  status: ('A' for Active; 'I' for Inactive)
ROOT
HETATM    1  C1  UNL     1     -32.863   7.798   3.704  1.00 20.00     0.003 C 
HETATM    2  C2  UNL     1     -33.005   6.833   2.787  1.00 20.00     0.050 C 
HETATM    3  C3  UNL     1     -33.004   7.689   5.136  1.00 20.00    -0.004 C 
HETATM    4  C4  UNL     1     -33.852   6.892   5.798  1.00 20.00    -0.021 C 
HETATM    5  C5  UNL     1     -33.433   5.447   3.076  1.00 20.00     0.154 C 
HETATM    6  C6  UNL     1     -34.490   4.496   5.221  1.00 20.00     0.022 A 
HETATM    7  C7  UNL     1     -34.835   5.961   5.247  1.00 20.00     0.020 A 
HETATM    8  C8  UNL     1     -34.626   5.262   3.931  1.00 20.00     0.068 A 
HETATM    9  O9  UNL     1     -32.898   4.489   2.531  1.00 20.00    -0.293 OA
ENDROOT
TORSDOF 0
ENDMDL
MODEL 3
REMARK VINA RESULT:      -6.5      1.180      1.974
REMARK  0 active torsions:
REMARK  status: ('A' for Active; 'I' for Inactive)
ROOT
HETATM    1  C1  UNL     1     -34.239   6.700   6.086  1.00 20.00     0.003 C 
HETATM    2  C2  UNL     1     -33.558   7.628   5.403  1.00 20.00     0.050 C 
HETATM    3  C3  UNL     1     -34.395   5.301   5.769  1.00 20.00    -0.004 C 
HETATM    4  C4  UNL     1     -34.470   4.760   4.546  1.00 20.00    -0.021 C 
HETATM    5  C5  UNL     1     -32.885   7.400   4.106  1.00 20.00     0.154 C 
HETATM    6  C6  UNL     1     -33.135   5.419   2.482  1.00 20.00     0.022 A 
HETATM    7  C7  UNL     1     -34.427   5.441   3.253  1.00 20.00     0.020 A 
HETATM    8  C8  UNL     1     -33.656   6.715   3.045  1.00 20.00     0.068 A 
HETATM    9  O9  UNL     1     -31.776   7.866   3.872  1.00 20.00    -0.293 OA
ENDROOT
TORSDOF 0
ENDMDL
MODEL 4
REMARK VINA RESULT:      -5.9      1.683      3.306
REMARK  0 active torsions:
REMARK  status: ('A' for Active; 'I' for Inactive)
ROOT
HETATM    1  C1  UNL     1     -32.964   6.431   2.430  1.00 20.00     0.003 C 
HETATM    2  C2  UNL     1     -33.709   5.336   2.622  1.00 20.00     0.050 C 
HETATM    3  C3  UNL     1     -32.413   7.317   3.428  1.00 20.00    -0.004 C 
HETATM    4  C4  UNL     1     -32.968   7.643   4.603  1.00 20.00    -0.021 C 
HETATM    5  C5  UNL     1     -34.195   4.863   3.937  1.00 20.00     0.154 C 
HETATM    6  C6  UNL     1     -34.241   6.111   6.187  1.00 20.00     0.022 A 
HETATM    7  C7  UNL     1     -34.249   7.202   5.150  1.00 20.00     0.020 A 
HETATM    8  C8  UNL     1     -34.837   5.855   4.828  1.00 20.00     0.068 A 
HETATM    9  O9  UNL     1     -34.181   3.674   4.232  1.00 20.00    -0.293 OA
ENDROOT
TORSDOF 0
ENDMDL
MODEL 5
REMARK VINA RESULT:      -5.6      1.835      2.717
REMARK  0 active torsions:
REMARK  status: ('A' for Active; 'I' for Inactive)
ROOT
HETATM    1  C1  UNL     1     -34.417   5.580   5.414  1.00 20.00     0.003 C 
HETATM    2  C2  UNL     1     -34.446   5.107   4.163  1.00 20.00     0.050 C 
HETATM    3  C3  UNL     1     -34.098   6.918   5.850  1.00 20.00    -0.004 C 
HETATM    4  C4  UNL     1     -33.215   7.755   5.289  1.00 20.00    -0.021 C 
HETATM    5  C5  UNL     1     -34.058   5.875   2.959  1.00 20.00     0.154 C 
HETATM    6  C6  UNL     1     -32.785   8.106   2.805  1.00 20.00     0.022 A 
HETATM    7  C7  UNL     1     -32.362   7.520   4.125  1.00 20.00     0.020 A 
HETATM    8  C8  UNL     1     -32.776   6.613   2.999  1.00 20.00     0.068 A 
HETATM    9  O9  UNL     1     -34.709   5.806   1.923  1.00 20.00    -0.293 OA
ENDROOT
TORSDOF 0
ENDMDL
MODEL 6
REMARK VINA RESULT:      -5.5      1.391      2.613
REMARK  0 active torsions:
REMARK  status: ('A' for Active; 'I' for Inactive)
ROOT
HETATM    1  C1  UNL     1     -33.756   4.624   3.351  1.00 20.00     0.003 C 
HETATM    2  C2  UNL     1     -33.086   5.650   2.814  1.00 20.00     0.050 C 
HETATM    3  C3  UNL     1     -34.693   4.653   4.448  1.00 20.00    -0.004 C 
HETATM    4  C4  UNL     1     -34.650   5.459   5.517  1.00 20.00    -0.021 C 
HETATM    5  C5  UNL     1     -33.117   7.040   3.321  1.00 20.00     0.154 C 
HETATM    6  C6  UNL     1     -34.004   7.920   5.571  1.00 20.00     0.022 A 
HETATM    7  C7  UNL     1     -33.656   6.480   5.839  1.00 20.00     0.020 A 
HETATM    8  C8  UNL     1     -32.920   7.245   4.773  1.00 20.00     0.068 A 
HETATM    9  O9  UNL     1     -33.182   7.996   2.557  1.00 20.00    -0.293 OA
ENDROOT
TORSDOF 0
ENDMDL
MODEL 7
REMARK VINA RESULT:      -5.1      1.686      2.667
REMARK  0 active torsions:
REMARK  status: ('A' for Active; 'I' for Inactive)
ROOT
HETATM    1  C1  UNL     1     -33.468   7.231   5.798  1.00 20.00     0.003 C 
HETATM    2  C2  UNL     1     -34.364   6.268   5.553  1.00 20.00     0.050 C 
HETATM    3  C3  UNL     1     -32.778   8.066   4.844  1.00 20.00    -0.004 C 
HETATM    4  C4  UNL     1     -32.380   7.715   3.614  1.00 20.00    -0.021 C 
HETATM    5  C5  UNL     1     -34.763   5.806   4.205  1.00 20.00     0.154 C 
HETATM    6  C6  UNL     1     -33.634   6.265   1.939  1.00 20.00     0.022 A 
HETATM    7  C7  UNL     1     -32.530   6.421   2.950  1.00 20.00     0.020 A 
HETATM    8  C8  UNL     1     -33.687   5.504   3.237  1.00 20.00     0.068 A 
HETATM    9  O9  UNL     1     -35.934   5.565   3.936  1.00 20.00    -0.293 OA
ENDROOT
TORSDOF 0
ENDMDL
MODEL 8
REMARK VINA RESULT:      -5.0      0.930      2.630
REMARK  0 active torsions:
REMARK  status: ('A' for Active; 'I' for Inactive)
ROOT
HETATM    1  C1  UNL     1     -32.350   7.664   3.346  1.00 20.00     0.003 C 
HETATM    2  C2  UNL     1     -32.526   7.771   4.669  1.00 20.00     0.050 C 
HETATM    3  C3  UNL     1     -33.182   6.970   2.393  1.00 20.00    -0.004 C 
HETATM    4  C4  UNL     1     -33.873   5.842   2.605  1.00 20.00    -0.021 C 
HETATM    5  C5  UNL     1     -33.598   7.099   5.436  1.00 20.00     0.154 C 
HETATM    6  C6  UNL     1     -35.160   5.191   4.702  1.00 20.00     0.022 A 
HETATM    7  C7  UNL     1     -33.945   5.043   3.826  1.00 20.00     0.020 A 
HETATM    8  C8  UNL     1     -33.815   5.656   5.193  1.00 20.00     0.068 A 
HETATM    9  O9  UNL     1     -34.204   7.683   6.328  1.00 20.00    -0.293 OA
ENDROOT
TORSDOF 0
ENDMDL
MODEL 9
REMARK VINA RESULT:      -4.3     12.507     13.140
REMARK  0 active torsions:
REMARK  status: ('A' for Active; 'I' for Inactive)
ROOT
HETATM    1  C1  UNL     1     -34.157  18.849   1.272  1.00 20.00     0.003 C 
HETATM    2  C2  UNL     1     -32.955  19.156   0.770  1.00 20.00     0.050 C 
HETATM    3  C3  UNL     1     -35.065  17.815   0.836  1.00 20.00    -0.004 C 
HETATM    4  C4  UNL     1     -35.246  17.387  -0.420  1.00 20.00    -0.021 C 
HETATM    5  C5  UNL     1     -32.351  18.525  -0.424  1.00 20.00     0.154 C 
HETATM    6  C6  UNL     1     -33.466  17.039  -2.206  1.00 20.00     0.022 A 
HETATM    7  C7  UNL     1     -34.593  17.860  -1.639  1.00 20.00     0.020 A 
HETATM    8  C8  UNL     1     -33.191  18.406  -1.636  1.00 20.00     0.068 A 
HETATM    9  O9  UNL     1     -31.164  18.222  -0.453  1.00 20.00    -0.293 OA
ENDROOT
TORSDOF 0
ENDMDL
