MODEL 1
REMARK VINA RESULT:      -5.9      0.000      0.000
REMARK  1 active torsions:
REMARK  status: ('A' for Active; 'I' for Inactive)
REMARK    1  A    between atoms: C7_7  and  C8_8 
ROOT
HETATM    1  C1  UNL     1     -34.423   4.992   5.637  1.00 20.00    -0.026 C 
HETATM    2  C2  UNL     1     -34.208   6.308   5.781  1.00 20.00    -0.025 C 
HETATM    3  C3  UNL     1     -35.411   6.039   3.830  1.00 20.00     0.017 C 
HETATM    4  C4  UNL     1     -33.349   4.941   3.406  1.00 20.00     0.014 C 
HETATM    5  C5  UNL     1     -34.676   4.740   4.169  1.00 20.00     0.009 C 
HETATM    6  C6  UNL     1     -34.304   6.932   4.405  1.00 20.00     0.013 C 
HETATM    7  C7  UNL     1     -33.058   6.463   3.607  1.00 20.00     0.007 C 
ENDROOT
BRANCH   7   8
HETATM    8  C8  UNL     1     -32.887   7.199   2.285  1.00 20.00     0.119 C 
HETATM    9 CL9  UNL     1     -31.785   8.574   2.487  1.00 20.00    -0.130 Cl
ENDBRANCH   7   8
TORSDOF 1
ENDMDL
MODEL 2
REMARK VINA RESULT:      -4.8      1.028      2.011
REMARK  1 active torsions:
REMARK  status: ('A' for Active; 'I' for Inactive)
REMARK    1  A    between atoms: C7_7  and  C8_8 
ROOT
HETATM    1  C1  UNL     1     -35.432   5.761   4.088  1.00 20.00    -0.026 C 
HETATM    2  C2  UNL     1     -35.176   6.130   2.824  1.00 20.00    -0.025 C 
HETATM    3  C3  UNL     1     -33.250   5.153   3.635  1.00 20.00     0.017 C 
HETATM    4  C4  UNL     1     -33.541   7.086   4.982  1.00 20.00     0.014 C 
HETATM    5  C5  UNL     1     -34.104   5.660   4.799  1.00 20.00     0.009 C 
HETATM    6  C6  UNL     1     -33.677   6.289   2.697  1.00 20.00     0.013 C 
HETATM    7  C7  UNL     1     -33.285   7.550   3.512  1.00 20.00     0.007 C 
ENDROOT
BRANCH   7   8
HETATM    8  C8  UNL     1     -31.841   7.981   3.284  1.00 20.00     0.119 C 
HETATM    9 CL9  UNL     1     -31.618   8.515   1.608  1.00 20.00    -0.130 Cl
ENDBRANCH   7   8
TORSDOF 1
ENDMDL
MODEL 3
REMARK VINA RESULT:      -4.2      2.168      3.487
REMARK  1 active torsions:
REMARK  status: ('A' for Active; 'I' for Inactive)
REMARK    1  A    between atoms: C7_7  and  C8_8 
ROOT
HETATM    1  C1  UNL     1     -33.412   7.377   1.682  1.00 20.00    -0.026 C 
HETATM    2  C2  UNL     1     -32.698   8.067   2.584  1.00 20.00    -0.025 C 
HETATM    3  C3  UNL     1     -32.530   5.840   3.164  1.00 20.00     0.017 C 
HETATM    4  C4  UNL     1     -34.835   6.344   3.425  1.00 20.00     0.014 C 
HETATM    5  C5  UNL     1     -33.789   6.063   2.324  1.00 20.00     0.009 C 
HETATM    6  C6  UNL     1     -32.611   7.217   3.833  1.00 20.00     0.013 C 
HETATM    7  C7  UNL     1     -34.030   7.191   4.462  1.00 20.00     0.007 C 
ENDROOT
BRANCH   7   8
HETATM    8  C8  UNL     1     -34.052   6.575   5.855  1.00 20.00     0.119 C 
HETATM    9 CL9  UNL     1     -34.677   4.917   5.783  1.00 20.00    -0.130 Cl
ENDBRANCH   7   8
TORSDOF 1
ENDMDL
MODEL 4
REMARK VINA RESULT:      -4.1      1.920      1.955
REMARK  1 active torsions:
REMARK  status: ('A' for Active; 'I' for Inactive)
REMARK    1  A    between atoms: C7_7  and  C8_8 
ROOT
HETATM    1  C1  UNL     1     -34.502   5.874   5.984  1.00 20.00    -0.026 C 
HETATM    2  C2  UNL     1     -33.928   6.917   5.365  1.00 20.00    -0.025 C 
HETATM    3  C3  UNL     1     -35.463   6.029   3.889  1.00 20.00     0.017 C 
HETATM    4  C4  UNL     1     -33.861   4.301   4.182  1.00 20.00     0.014 C 
HETATM    5  C5  UNL     1     -35.051   4.966   4.909  1.00 20.00     0.009 C 
HETATM    6  C6  UNL     1     -34.082   6.696   3.877  1.00 20.00     0.013 C 
HETATM    7  C7  UNL     1     -33.152   5.512   3.496  1.00 20.00     0.007 C 
ENDROOT
BRANCH   7   8
HETATM    8  C8  UNL     1     -33.013   5.325   1.991  1.00 20.00     0.119 C 
HETATM    9 CL9  UNL     1     -32.645   3.631   1.615  1.00 20.00    -0.130 Cl
ENDBRANCH   7   8
TORSDOF 1
ENDMDL
MODEL 5
REMARK VINA RESULT:      -4.0     11.851     12.859
REMARK  1 active torsions:
REMARK  status: ('A' for Active; 'I' for Inactive)
REMARK    1  A    between atoms: C7_7  and  C8_8 
ROOT
HETATM    1  C1  UNL     1     -33.606  16.718  -4.117  1.00 20.00    -0.026 C 
HETATM    2  C2  UNL     1     -34.390  16.007  -3.292  1.00 20.00    -0.025 C 
HETATM    3  C3  UNL     1     -33.107  14.489  -4.464  1.00 20.00     0.017 C 
HETATM    4  C4  UNL     1     -34.444  15.535  -6.124  1.00 20.00     0.014 C 
HETATM    5  C5  UNL     1     -33.201  15.801  -5.246  1.00 20.00     0.009 C 
HETATM    6  C6  UNL     1     -34.520  14.620  -3.882  1.00 20.00     0.013 C 
HETATM    7  C7  UNL     1     -35.390  14.750  -5.160  1.00 20.00     0.007 C 
ENDROOT
BRANCH   7   8
HETATM    8  C8  UNL     1     -35.812  13.403  -5.733  1.00 20.00     0.119 C 
HETATM    9 CL9  UNL     1     -34.957  13.089  -7.255  1.00 20.00    -0.130 Cl
ENDBRANCH   7   8
TORSDOF 1
ENDMDL
MODEL 6
REMARK VINA RESULT:      -3.9     11.665     12.817
REMARK  1 active torsions:
REMARK  status: ('A' for Active; 'I' for Inactive)
REMARK    1  A    between atoms: C7_7  and  C8_8 
ROOT
HETATM    1  C1  UNL     1     -34.745  14.134  -5.761  1.00 20.00    -0.026 C 
HETATM    2  C2  UNL     1     -33.943  15.049  -6.325  1.00 20.00    -0.025 C 
HETATM    3  C3  UNL     1     -33.007  14.512  -4.286  1.00 20.00     0.017 C 
HETATM    4  C4  UNL     1     -35.087  15.513  -3.733  1.00 20.00     0.014 C 
HETATM    5  C5  UNL     1     -34.502  14.189  -4.271  1.00 20.00     0.009 C 
HETATM    6  C6  UNL     1     -33.177  15.724  -5.209  1.00 20.00     0.013 C 
HETATM    7  C7  UNL     1     -34.194  16.593  -4.423  1.00 20.00     0.007 C 
ENDROOT
BRANCH   7   8
HETATM    8  C8  UNL     1     -33.529  17.524  -3.416  1.00 20.00     0.119 C 
HETATM    9 CL9  UNL     1     -33.876  16.985  -1.762  1.00 20.00    -0.130 Cl
ENDBRANCH   7   8
TORSDOF 1
ENDMDL
MODEL 7
REMARK VINA RESULT:      -3.9      2.199      3.575
REMARK  1 active torsions:
REMARK  status: ('A' for Active; 'I' for Inactive)
REMARK    1  A    between atoms: C7_7  and  C8_8 
ROOT
HETATM    1  C1  UNL     1     -32.287   7.988   1.955  1.00 20.00    -0.026 C 
HETATM    2  C2  UNL     1     -33.447   8.534   2.351  1.00 20.00    -0.025 C 
HETATM    3  C3  UNL     1     -32.514   7.534   4.209  1.00 20.00     0.017 C 
HETATM    4  C4  UNL     1     -32.950   5.731   2.727  1.00 20.00     0.014 C 
HETATM    5  C5  UNL     1     -31.953   6.891   2.938  1.00 20.00     0.009 C 
HETATM    6  C6  UNL     1     -33.893   7.790   3.590  1.00 20.00     0.013 C 
HETATM    7  C7  UNL     1     -34.317   6.368   3.136  1.00 20.00     0.007 C 
ENDROOT
BRANCH   7   8
HETATM    8  C8  UNL     1     -35.018   5.577   4.234  1.00 20.00     0.119 C 
HETATM    9 CL9  UNL     1     -34.224   4.008   4.462  1.00 20.00    -0.130 Cl
ENDBRANCH   7   8
TORSDOF 1
ENDMDL
MODEL 8
REMARK VINA RESULT:      -3.9     12.152     12.750
REMARK  1 active torsions:
REMARK  status: ('A' for Active; 'I' for Inactive)
REMARK    1  A    between atoms: C7_7  and  C8_8 
ROOT
HETATM    1  C1  UNL     1     -35.216  16.662  -1.715  1.00 20.00    -0.026 C 
HETATM    2  C2  UNL     1     -33.935  17.052  -1.806  1.00 20.00    -0.025 C 
HETATM    3  C3  UNL     1     -34.953  17.636  -3.793  1.00 20.00     0.017 C 
HETATM    4  C4  UNL     1     -35.059  15.264  -3.752  1.00 20.00     0.014 C 
HETATM    5  C5  UNL     1     -35.734  16.503  -3.124  1.00 20.00     0.009 C 
HETATM    6  C6  UNL     1     -33.597  17.138  -3.278  1.00 20.00     0.013 C 
HETATM    7  C7  UNL     1     -33.556  15.684  -3.819  1.00 20.00     0.007 C 
ENDROOT
BRANCH   7   8
HETATM    8  C8  UNL     1     -32.991  15.589  -5.231  1.00 20.00     0.119 C 
HETATM    9 CL9  UNL     1     -34.164  14.811  -6.310  1.00 20.00    -0.130 Cl
ENDBRANCH   7   8
TORSDOF 1
ENDMDL
MODEL 9
REMARK VINA RESULT:      -3.9      8.903     10.150
REMARK  1 active torsions:
REMARK  status: ('A' for Active; 'I' for Inactive)
REMARK    1  A    between atoms: C7_7  and  C8_8 
ROOT
HETATM    1  C1  UNL     1     -41.172   7.854  -0.423  1.00 20.00    -0.026 C 
HETATM    2  C2  UNL     1     -42.457   7.946  -0.797  1.00 20.00    -0.025 C 
HETATM    3  C3  UNL     1     -42.391   6.508   1.006  1.00 20.00     0.017 C 
HETATM    4  C4  UNL     1     -41.150   5.392  -0.682  1.00 20.00     0.014 C 
HETATM    5  C5  UNL     1     -41.019   6.553   0.328  1.00 20.00     0.009 C 
HETATM    6  C6  UNL     1     -43.157   6.697  -0.308  1.00 20.00     0.013 C 
HETATM    7  C7  UNL     1     -42.630   5.516  -1.167  1.00 20.00     0.007 C 
ENDROOT
BRANCH   7   8
HETATM    8  C8  UNL     1     -43.417   4.229  -0.957  1.00 20.00     0.119 C 
HETATM    9 CL9  UNL     1     -43.219   3.155  -2.354  1.00 20.00    -0.130 Cl
ENDBRANCH   7   8
TORSDOF 1
ENDMDL
