MODEL 1
REMARK VINA RESULT:      -5.0      0.000      0.000
REMARK  1 active torsions:
REMARK  status: ('A' for Active; 'I' for Inactive)
REMARK    1  A    between atoms: C1_1  and  C2_2 
ROOT
HETATM    1  C1  UNL     1     -33.305   5.846   2.940  1.00 20.00     0.432 C 
HETATM    2  F3  UNL     1     -32.341   6.767   3.166  1.00 20.00    -0.167 F 
HETATM    3  F4  UNL     1     -33.950   6.211   1.807  1.00 20.00    -0.167 F 
HETATM    4  F5  UNL     1     -32.689   4.669   2.688  1.00 20.00    -0.167 F 
ENDROOT
BRANCH   1   5
HETATM    5  C2  UNL     1     -34.265   5.739   4.111  1.00 20.00     0.267 C 
HETATM    6 CL6  UNL     1     -35.927   6.108   3.591  1.00 20.00    -0.079 Cl
HETATM    7 CL7  UNL     1     -34.205   4.106   4.817  1.00 20.00    -0.079 Cl
HETATM    8 BR8  UNL     1     -33.752   7.025   5.491  1.00 20.00    -0.040 Br
ENDBRANCH   1   5
TORSDOF 1
ENDMDL
MODEL 2
REMARK VINA RESULT:      -4.5      1.544      2.262
REMARK  1 active torsions:
REMARK  status: ('A' for Active; 'I' for Inactive)
REMARK    1  A    between atoms: C1_1  and  C2_2 
ROOT
HETATM    1  C1  UNL     1     -33.197   6.189   2.992  1.00 20.00     0.432 C 
HETATM    2  F3  UNL     1     -33.765   6.720   1.885  1.00 20.00    -0.167 F 
HETATM    3  F4  UNL     1     -32.623   5.019   2.626  1.00 20.00    -0.167 F 
HETATM    4  F5  UNL     1     -32.201   7.021   3.373  1.00 20.00    -0.167 F 
ENDROOT
BRANCH   1   5
HETATM    5  C2  UNL     1     -34.212   5.983   4.100  1.00 20.00     0.267 C 
HETATM    6 CL6  UNL     1     -33.866   7.064   5.472  1.00 20.00    -0.079 Cl
HETATM    7 CL7  UNL     1     -35.860   6.283   3.500  1.00 20.00    -0.079 Cl
HETATM    8 BR8  UNL     1     -34.116   4.136   4.734  1.00 20.00    -0.040 Br
ENDBRANCH   1   5
TORSDOF 1
ENDMDL
MODEL 3
REMARK VINA RESULT:      -4.4      1.794      2.248
REMARK  1 active torsions:
REMARK  status: ('A' for Active; 'I' for Inactive)
REMARK    1  A    between atoms: C1_1  and  C2_2 
ROOT
HETATM    1  C1  UNL     1     -33.386   7.156   4.112  1.00 20.00     0.432 C 
HETATM    2  F3  UNL     1     -34.063   8.219   3.624  1.00 20.00    -0.167 F 
HETATM    3  F4  UNL     1     -32.186   7.122   3.486  1.00 20.00    -0.167 F 
HETATM    4  F5  UNL     1     -33.146   7.396   5.422  1.00 20.00    -0.167 F 
ENDROOT
BRANCH   1   5
HETATM    5  C2  UNL     1     -34.151   5.861   3.910  1.00 20.00     0.267 C 
HETATM    6 CL6  UNL     1     -35.760   6.189   3.222  1.00 20.00    -0.079 Cl
HETATM    7 CL7  UNL     1     -33.249   4.766   2.834  1.00 20.00    -0.079 Cl
HETATM    8 BR8  UNL     1     -34.388   4.970   5.634  1.00 20.00    -0.040 Br
ENDBRANCH   1   5
TORSDOF 1
ENDMDL
MODEL 4
REMARK VINA RESULT:      -4.3      2.057      2.740
REMARK  1 active torsions:
REMARK  status: ('A' for Active; 'I' for Inactive)
REMARK    1  A    between atoms: C1_1  and  C2_2 
ROOT
HETATM    1  C1  UNL     1     -33.635   7.150   4.561  1.00 20.00     0.432 C 
HETATM    2  F3  UNL     1     -33.557   7.318   5.901  1.00 20.00    -0.167 F 
HETATM    3  F4  UNL     1     -34.363   8.180   4.070  1.00 20.00    -0.167 F 
HETATM    4  F5  UNL     1     -32.382   7.274   4.065  1.00 20.00    -0.167 F 
ENDROOT
BRANCH   1   5
HETATM    5  C2  UNL     1     -34.253   5.813   4.197  1.00 20.00     0.267 C 
HETATM    6 CL6  UNL     1     -34.358   4.764   5.631  1.00 20.00    -0.079 Cl
HETATM    7 CL7  UNL     1     -35.876   6.046   3.503  1.00 20.00    -0.079 Cl
HETATM    8 BR8  UNL     1     -33.136   4.922   2.863  1.00 20.00    -0.040 Br
ENDBRANCH   1   5
TORSDOF 1
ENDMDL
MODEL 5
REMARK VINA RESULT:      -4.3      2.320      3.036
REMARK  1 active torsions:
REMARK  status: ('A' for Active; 'I' for Inactive)
REMARK    1  A    between atoms: C1_1  and  C2_2 
ROOT
HETATM    1  C1  UNL     1     -34.615   5.597   4.251  1.00 20.00     0.432 C 
HETATM    2  F3  UNL     1     -34.260   6.392   5.287  1.00 20.00    -0.167 F 
HETATM    3  F4  UNL     1     -34.480   4.316   4.665  1.00 20.00    -0.167 F 
HETATM    4  F5  UNL     1     -35.931   5.804   4.016  1.00 20.00    -0.167 F 
ENDROOT
BRANCH   1   5
HETATM    5  C2  UNL     1     -33.774   5.871   3.019  1.00 20.00     0.267 C 
HETATM    6 CL6  UNL     1     -32.739   4.471   2.646  1.00 20.00    -0.079 Cl
HETATM    7 CL7  UNL     1     -34.815   6.237   1.622  1.00 20.00    -0.079 Cl
HETATM    8 BR8  UNL     1     -32.623   7.417   3.348  1.00 20.00    -0.040 Br
ENDBRANCH   1   5
TORSDOF 1
ENDMDL
MODEL 6
REMARK VINA RESULT:      -4.2      2.293      2.924
REMARK  1 active torsions:
REMARK  status: ('A' for Active; 'I' for Inactive)
REMARK    1  A    between atoms: C1_1  and  C2_2 
ROOT
HETATM    1  C1  UNL     1     -34.365   4.560   4.839  1.00 20.00     0.432 C 
HETATM    2  F3  UNL     1     -33.582   3.598   4.300  1.00 20.00    -0.167 F 
HETATM    3  F4  UNL     1     -35.643   4.120   4.771  1.00 20.00    -0.167 F 
HETATM    4  F5  UNL     1     -34.045   4.654   6.150  1.00 20.00    -0.167 F 
ENDROOT
BRANCH   1   5
HETATM    5  C2  UNL     1     -34.199   5.887   4.124  1.00 20.00     0.267 C 
HETATM    6 CL6  UNL     1     -32.929   5.771   2.881  1.00 20.00    -0.079 Cl
HETATM    7 CL7  UNL     1     -35.733   6.385   3.370  1.00 20.00    -0.079 Cl
HETATM    8 BR8  UNL     1     -33.674   7.260   5.413  1.00 20.00    -0.040 Br
ENDBRANCH   1   5
TORSDOF 1
ENDMDL
MODEL 7
REMARK VINA RESULT:      -4.0      2.413      2.800
REMARK  1 active torsions:
REMARK  status: ('A' for Active; 'I' for Inactive)
REMARK    1  A    between atoms: C1_1  and  C2_2 
ROOT
HETATM    1  C1  UNL     1     -34.294   4.630   4.743  1.00 20.00     0.432 C 
HETATM    2  F3  UNL     1     -33.977   4.567   6.056  1.00 20.00    -0.167 F 
HETATM    3  F4  UNL     1     -33.380   3.888   4.074  1.00 20.00    -0.167 F 
HETATM    4  F5  UNL     1     -35.493   4.022   4.587  1.00 20.00    -0.167 F 
ENDROOT
BRANCH   1   5
HETATM    5  C2  UNL     1     -34.320   6.061   4.239  1.00 20.00     0.267 C 
HETATM    6 CL6  UNL     1     -35.893   6.431   3.493  1.00 20.00    -0.079 Cl
HETATM    7 CL7  UNL     1     -34.005   7.196   5.572  1.00 20.00    -0.079 Cl
HETATM    8 BR8  UNL     1     -32.927   6.298   2.887  1.00 20.00    -0.040 Br
ENDBRANCH   1   5
TORSDOF 1
ENDMDL
MODEL 8
REMARK VINA RESULT:      -3.8      8.657      9.311
REMARK  1 active torsions:
REMARK  status: ('A' for Active; 'I' for Inactive)
REMARK    1  A    between atoms: C1_1  and  C2_2 
ROOT
HETATM    1  C1  UNL     1     -41.040   6.777  -0.310  1.00 20.00     0.432 C 
HETATM    2  F3  UNL     1     -40.464   5.672  -0.836  1.00 20.00    -0.167 F 
HETATM    3  F4  UNL     1     -40.409   7.039   0.858  1.00 20.00    -0.167 F 
HETATM    4  F5  UNL     1     -40.775   7.807  -1.147  1.00 20.00    -0.167 F 
ENDROOT
BRANCH   1   5
HETATM    5  C2  UNL     1     -42.531   6.590  -0.104  1.00 20.00     0.267 C 
HETATM    6 CL6  UNL     1     -42.883   6.224   1.603  1.00 20.00    -0.079 Cl
HETATM    7 CL7  UNL     1     -43.417   8.052  -0.599  1.00 20.00    -0.079 Cl
HETATM    8 BR8  UNL     1     -43.155   5.093  -1.195  1.00 20.00    -0.040 Br
ENDBRANCH   1   5
TORSDOF 1
ENDMDL
MODEL 9
REMARK VINA RESULT:      -3.8      2.730      3.142
REMARK  1 active torsions:
REMARK  status: ('A' for Active; 'I' for Inactive)
REMARK    1  A    between atoms: C1_1  and  C2_2 
ROOT
HETATM    1  C1  UNL     1     -34.090   6.744   5.438  1.00 20.00     0.432 C 
HETATM    2  F3  UNL     1     -32.827   6.708   5.921  1.00 20.00    -0.167 F 
HETATM    3  F4  UNL     1     -34.899   6.232   6.395  1.00 20.00    -0.167 F 
HETATM    4  F5  UNL     1     -34.426   8.045   5.284  1.00 20.00    -0.167 F 
ENDROOT
BRANCH   1   5
HETATM    5  C2  UNL     1     -34.216   5.972   4.138  1.00 20.00     0.267 C 
HETATM    6 CL6  UNL     1     -35.810   6.257   3.396  1.00 20.00    -0.079 Cl
HETATM    7 CL7  UNL     1     -32.931   6.451   3.002  1.00 20.00    -0.079 Cl
HETATM    8 BR8  UNL     1     -34.038   4.059   4.497  1.00 20.00    -0.040 Br
ENDBRANCH   1   5
TORSDOF 1
ENDMDL
