MODEL 1
REMARK VINA RESULT:      -4.9      0.000      0.000
REMARK  0 active torsions:
REMARK  status: ('A' for Active; 'I' for Inactive)
ROOT
HETATM    1  C1  UNL     1     -34.593   5.063   5.744  1.00 20.00     0.147 A 
HETATM    2  C2  UNL     1     -34.234   4.332   3.769  1.00 20.00     0.214 A 
HETATM    3  C3  UNL     1     -33.949   6.084   5.086  1.00 20.00     0.057 A 
HETATM    4  C4  UNL     1     -33.506   7.397   5.389  1.00 20.00     0.033 A 
HETATM    5  C5  UNL     1     -32.886   8.122   4.437  1.00 20.00     0.023 A 
HETATM    6  C6  UNL     1     -33.080   6.341   2.814  1.00 20.00     0.117 A 
HETATM    7  C7  UNL     1     -32.657   7.586   3.096  1.00 20.00     0.027 A 
HETATM    8  N8  UNL     1     -34.765   3.979   4.920  1.00 20.00    -0.253 NA
HETATM    9  N9  UNL     1     -33.719   5.603   3.806  1.00 20.00    -0.314 N 
HETATM   10 BR10 UNL     1     -31.792   8.662   1.847  1.00 20.00    -0.050 Br
ENDROOT
TORSDOF 0
ENDMDL
MODEL 2
REMARK VINA RESULT:      -4.9      1.021      2.024
REMARK  0 active torsions:
REMARK  status: ('A' for Active; 'I' for Inactive)
ROOT
HETATM    1  C1  UNL     1     -34.504   4.338   4.892  1.00 20.00     0.147 A 
HETATM    2  C2  UNL     1     -34.392   6.259   5.823  1.00 20.00     0.214 A 
HETATM    3  C3  UNL     1     -33.923   5.165   3.960  1.00 20.00     0.057 A 
HETATM    4  C4  UNL     1     -33.423   5.047   2.638  1.00 20.00     0.033 A 
HETATM    5  C5  UNL     1     -32.906   6.132   2.028  1.00 20.00     0.023 A 
HETATM    6  C6  UNL     1     -33.322   7.536   3.952  1.00 20.00     0.117 A 
HETATM    7  C7  UNL     1     -32.847   7.431   2.697  1.00 20.00     0.027 A 
HETATM    8  N8  UNL     1     -34.793   5.026   6.045  1.00 20.00    -0.253 NA
HETATM    9  N9  UNL     1     -33.854   6.408   4.570  1.00 20.00    -0.314 N 
HETATM   10 BR10 UNL     1     -32.115   8.872   1.775  1.00 20.00    -0.050 Br
ENDROOT
TORSDOF 0
ENDMDL
MODEL 3
REMARK VINA RESULT:      -4.4     12.058     12.835
REMARK  0 active torsions:
REMARK  status: ('A' for Active; 'I' for Inactive)
ROOT
HETATM    1  C1  UNL     1     -34.549  13.641  -6.959  1.00 20.00     0.147 A 
HETATM    2  C2  UNL     1     -35.714  13.254  -5.210  1.00 20.00     0.214 A 
HETATM    3  C3  UNL     1     -34.173  14.599  -6.047  1.00 20.00     0.057 A 
HETATM    4  C4  UNL     1     -33.268  15.691  -6.004  1.00 20.00     0.033 A 
HETATM    5  C5  UNL     1     -33.179  16.431  -4.880  1.00 20.00     0.023 A 
HETATM    6  C6  UNL     1     -34.850  15.098  -3.750  1.00 20.00     0.117 A 
HETATM    7  C7  UNL     1     -33.994  16.135  -3.703  1.00 20.00     0.027 A 
HETATM    8  N8  UNL     1     -35.507  12.811  -6.431  1.00 20.00    -0.253 NA
HETATM    9  N9  UNL     1     -34.933  14.342  -4.916  1.00 20.00    -0.314 N 
HETATM   10 BR10 UNL     1     -33.802  17.213  -2.198  1.00 20.00    -0.050 Br
ENDROOT
TORSDOF 0
ENDMDL
MODEL 4
REMARK VINA RESULT:      -4.3     12.230     12.492
REMARK  0 active torsions:
REMARK  status: ('A' for Active; 'I' for Inactive)
ROOT
HETATM    1  C1  UNL     1     -36.267  13.595  -5.586  1.00 20.00     0.147 A 
HETATM    2  C2  UNL     1     -37.505  14.950  -4.491  1.00 20.00     0.214 A 
HETATM    3  C3  UNL     1     -35.405  14.351  -4.829  1.00 20.00     0.057 A 
HETATM    4  C4  UNL     1     -34.003  14.432  -4.624  1.00 20.00     0.033 A 
HETATM    5  C5  UNL     1     -33.513  15.346  -3.763  1.00 20.00     0.023 A 
HETATM    6  C6  UNL     1     -35.720  16.175  -3.230  1.00 20.00     0.117 A 
HETATM    7  C7  UNL     1     -34.392  16.257  -3.032  1.00 20.00     0.027 A 
HETATM    8  N8  UNL     1     -37.569  13.973  -5.371  1.00 20.00    -0.253 NA
HETATM    9  N9  UNL     1     -36.213  15.227  -4.123  1.00 20.00    -0.314 N 
HETATM   10 BR10 UNL     1     -33.623  17.486  -1.864  1.00 20.00    -0.050 Br
ENDROOT
TORSDOF 0
ENDMDL
MODEL 5
REMARK VINA RESULT:      -3.8     12.438     12.518
REMARK  0 active torsions:
REMARK  status: ('A' for Active; 'I' for Inactive)
ROOT
HETATM    1  C1  UNL     1     -36.153  14.063  -5.347  1.00 20.00     0.147 A 
HETATM    2  C2  UNL     1     -34.020  14.132  -5.461  1.00 20.00     0.214 A 
HETATM    3  C3  UNL     1     -35.764  14.986  -4.406  1.00 20.00     0.057 A 
HETATM    4  C4  UNL     1     -36.398  15.831  -3.458  1.00 20.00     0.033 A 
HETATM    5  C5  UNL     1     -35.644  16.632  -2.678  1.00 20.00     0.023 A 
HETATM    6  C6  UNL     1     -33.590  15.848  -3.686  1.00 20.00     0.117 A 
HETATM    7  C7  UNL     1     -34.186  16.650  -2.785  1.00 20.00     0.027 A 
HETATM    8  N8  UNL     1     -35.063  13.537  -5.997  1.00 20.00    -0.253 NA
HETATM    9  N9  UNL     1     -34.381  15.026  -4.485  1.00 20.00    -0.314 N 
HETATM   10 BR10 UNL     1     -33.229  17.789  -1.665  1.00 20.00    -0.050 Br
ENDROOT
TORSDOF 0
ENDMDL
MODEL 6
REMARK VINA RESULT:      -3.8     12.154     12.597
REMARK  0 active torsions:
REMARK  status: ('A' for Active; 'I' for Inactive)
ROOT
HETATM    1  C1  UNL     1     -34.173  19.015   1.584  1.00 20.00     0.147 A 
HETATM    2  C2  UNL     1     -35.932  17.872   1.174  1.00 20.00     0.214 A 
HETATM    3  C3  UNL     1     -33.950  18.422   0.364  1.00 20.00     0.057 A 
HETATM    4  C4  UNL     1     -32.912  18.397  -0.603  1.00 20.00     0.033 A 
HETATM    5  C5  UNL     1     -33.071  17.665  -1.724  1.00 20.00     0.023 A 
HETATM    6  C6  UNL     1     -35.271  16.924  -1.049  1.00 20.00     0.117 A 
HETATM    7  C7  UNL     1     -34.289  16.895  -1.968  1.00 20.00     0.027 A 
HETATM    8  N8  UNL     1     -35.405  18.667   2.081  1.00 20.00    -0.253 NA
HETATM    9  N9  UNL     1     -35.094  17.683   0.105  1.00 20.00    -0.314 N 
HETATM   10 BR10 UNL     1     -34.417  15.915  -3.545  1.00 20.00    -0.050 Br
ENDROOT
TORSDOF 0
ENDMDL
MODEL 7
REMARK VINA RESULT:      -3.8     12.657     13.106
REMARK  0 active torsions:
REMARK  status: ('A' for Active; 'I' for Inactive)
ROOT
HETATM    1  C1  UNL     1     -30.711  19.099   1.836  1.00 20.00     0.147 A 
HETATM    2  C2  UNL     1     -32.494  19.013   3.011  1.00 20.00     0.214 A 
HETATM    3  C3  UNL     1     -31.711  18.744   0.962  1.00 20.00     0.057 A 
HETATM    4  C4  UNL     1     -31.822  18.448  -0.421  1.00 20.00     0.033 A 
HETATM    5  C5  UNL     1     -33.028  18.128  -0.933  1.00 20.00     0.023 A 
HETATM    6  C6  UNL     1     -34.114  18.363   1.214  1.00 20.00     0.117 A 
HETATM    7  C7  UNL     1     -34.226  18.080  -0.097  1.00 20.00     0.027 A 
HETATM    8  N8  UNL     1     -31.206  19.263   3.107  1.00 20.00    -0.253 NA
HETATM    9  N9  UNL     1     -32.863  18.691   1.730  1.00 20.00    -0.314 N 
HETATM   10 BR10 UNL     1     -35.846  17.628  -0.894  1.00 20.00    -0.050 Br
ENDROOT
TORSDOF 0
ENDMDL
MODEL 8
REMARK VINA RESULT:      -3.7     12.476     12.783
REMARK  0 active torsions:
REMARK  status: ('A' for Active; 'I' for Inactive)
ROOT
HETATM    1  C1  UNL     1     -35.580  16.037  -3.374  1.00 20.00     0.147 A 
HETATM    2  C2  UNL     1     -33.610  16.618  -3.966  1.00 20.00     0.214 A 
HETATM    3  C3  UNL     1     -35.054  16.707  -2.295  1.00 20.00     0.057 A 
HETATM    4  C4  UNL     1     -35.482  17.072  -0.992  1.00 20.00     0.033 A 
HETATM    5  C5  UNL     1     -34.644  17.758  -0.190  1.00 20.00     0.023 A 
HETATM    6  C6  UNL     1     -32.903  17.790  -1.867  1.00 20.00     0.117 A 
HETATM    7  C7  UNL     1     -33.303  18.138  -0.630  1.00 20.00     0.027 A 
HETATM    8  N8  UNL     1     -34.676  15.985  -4.407  1.00 20.00    -0.253 NA
HETATM    9  N9  UNL     1     -33.778  17.081  -2.686  1.00 20.00    -0.314 N 
HETATM   10 BR10 UNL     1     -32.217  19.085   0.548  1.00 20.00    -0.050 Br
ENDROOT
TORSDOF 0
ENDMDL
MODEL 9
REMARK VINA RESULT:      -3.7     12.269     12.641
REMARK  0 active torsions:
REMARK  status: ('A' for Active; 'I' for Inactive)
ROOT
HETATM    1  C1  UNL     1     -33.326  14.587  -4.393  1.00 20.00     0.147 A 
HETATM    2  C2  UNL     1     -35.407  14.359  -4.827  1.00 20.00     0.214 A 
HETATM    3  C3  UNL     1     -33.963  15.566  -3.668  1.00 20.00     0.057 A 
HETATM    4  C4  UNL     1     -33.589  16.604  -2.775  1.00 20.00     0.033 A 
HETATM    5  C5  UNL     1     -34.544  17.394  -2.244  1.00 20.00     0.023 A 
HETATM    6  C6  UNL     1     -36.306  16.221  -3.411  1.00 20.00     0.117 A 
HETATM    7  C7  UNL     1     -35.958  17.207  -2.565  1.00 20.00     0.027 A 
HETATM    8  N8  UNL     1     -34.230  13.842  -5.110  1.00 20.00    -0.253 NA
HETATM    9  N9  UNL     1     -35.311  15.413  -3.954  1.00 20.00    -0.314 N 
HETATM   10 BR10 UNL     1     -37.203  18.347  -1.782  1.00 20.00    -0.050 Br
ENDROOT
TORSDOF 0
ENDMDL
