MODEL 1
REMARK VINA RESULT:      -5.4      0.000      0.000
REMARK  0 active torsions:
REMARK  status: ('A' for Active; 'I' for Inactive)
ROOT
HETATM    1  C1  UNL     1     -32.988  14.579  -4.534  1.00 20.00    -0.019 A 
HETATM    2  C2  UNL     1     -34.086  14.001  -4.018  1.00 20.00    -0.019 A 
HETATM    3  C3  UNL     1     -33.801  17.288  -3.216  1.00 20.00    -0.023 C 
HETATM    4  C4  UNL     1     -34.893  16.713  -2.685  1.00 20.00    -0.086 C 
HETATM    5  C5  UNL     1     -33.398  17.120  -4.650  1.00 20.00     0.042 C 
HETATM    6  C6  UNL     1     -35.810  15.848  -3.510  1.00 20.00     0.048 C 
HETATM    7  C7  UNL     1     -34.098  14.386  -7.349  1.00 20.00     0.001 C 
HETATM    8  C8  UNL     1     -35.350  13.731  -6.761  1.00 20.00     0.001 C 
HETATM    9  C9  UNL     1     -33.735  15.737  -6.735  1.00 20.00     0.015 C 
HETATM   10  C10 UNL     1     -36.033  14.530  -5.653  1.00 20.00     0.015 C 
HETATM   11  C11 UNL     1     -33.764  15.727  -5.195  1.00 20.00    -0.009 A 
HETATM   12  C12 UNL     1     -35.048  15.051  -4.588  1.00 20.00    -0.008 A 
HETATM   13  C13 UNL     1     -35.284  16.927  -1.253  1.00 20.00     0.043 C 
ENDROOT
TORSDOF 0
ENDMDL
MODEL 2
REMARK VINA RESULT:      -5.1     10.914     12.691
REMARK  0 active torsions:
REMARK  status: ('A' for Active; 'I' for Inactive)
ROOT
HETATM    1  C1  UNL     1     -34.986   7.309   3.915  1.00 20.00    -0.019 A 
HETATM    2  C2  UNL     1     -34.804   6.572   2.805  1.00 20.00    -0.019 A 
HETATM    3  C3  UNL     1     -32.230   8.693   3.445  1.00 20.00    -0.023 C 
HETATM    4  C4  UNL     1     -32.047   7.972   2.326  1.00 20.00    -0.086 C 
HETATM    5  C5  UNL     1     -32.678   8.097   4.745  1.00 20.00     0.042 C 
HETATM    6  C6  UNL     1     -32.278   6.483   2.302  1.00 20.00     0.048 C 
HETATM    7  C7  UNL     1     -34.669   4.874   5.693  1.00 20.00     0.001 C 
HETATM    8  C8  UNL     1     -34.457   4.036   4.430  1.00 20.00     0.001 C 
HETATM    9  C9  UNL     1     -33.735   6.076   5.827  1.00 20.00     0.015 C 
HETATM   10  C10 UNL     1     -33.351   4.538   3.504  1.00 20.00     0.015 C 
HETATM   11  C11 UNL     1     -33.640   6.913   4.537  1.00 20.00    -0.009 A 
HETATM   12  C12 UNL     1     -33.426   6.054   3.237  1.00 20.00    -0.008 A 
HETATM   13  C13 UNL     1     -31.568   8.596   1.049  1.00 20.00     0.043 C 
ENDROOT
TORSDOF 0
ENDMDL
MODEL 3
REMARK VINA RESULT:      -4.9      1.208      2.482
REMARK  0 active torsions:
REMARK  status: ('A' for Active; 'I' for Inactive)
ROOT
HETATM    1  C1  UNL     1     -35.784  16.750  -6.063  1.00 20.00    -0.019 A 
HETATM    2  C2  UNL     1     -34.450  16.577  -6.035  1.00 20.00    -0.019 A 
HETATM    3  C3  UNL     1     -35.885  16.447  -2.959  1.00 20.00    -0.023 C 
HETATM    4  C4  UNL     1     -34.551  16.289  -2.921  1.00 20.00    -0.086 C 
HETATM    5  C5  UNL     1     -36.774  15.717  -3.920  1.00 20.00     0.042 C 
HETATM    6  C6  UNL     1     -33.843  15.343  -3.856  1.00 20.00     0.048 C 
HETATM    7  C7  UNL     1     -36.194  14.066  -7.411  1.00 20.00     0.001 C 
HETATM    8  C8  UNL     1     -34.677  13.867  -7.376  1.00 20.00     0.001 C 
HETATM    9  C9  UNL     1     -36.831  14.374  -6.057  1.00 20.00     0.015 C 
HETATM   10  C10 UNL     1     -34.043  14.013  -5.994  1.00 20.00     0.015 C 
HETATM   11  C11 UNL     1     -36.081  15.468  -5.274  1.00 20.00    -0.009 A 
HETATM   12  C12 UNL     1     -34.522  15.268  -5.238  1.00 20.00    -0.008 A 
HETATM   13  C13 UNL     1     -33.695  17.013  -1.926  1.00 20.00     0.043 C 
ENDROOT
TORSDOF 0
ENDMDL
MODEL 4
REMARK VINA RESULT:      -4.8      1.254      1.815
REMARK  0 active torsions:
REMARK  status: ('A' for Active; 'I' for Inactive)
ROOT
HETATM    1  C1  UNL     1     -35.572  13.503  -4.944  1.00 20.00    -0.019 A 
HETATM    2  C2  UNL     1     -36.596  14.348  -4.734  1.00 20.00    -0.019 A 
HETATM    3  C3  UNL     1     -33.661  15.446  -3.426  1.00 20.00    -0.023 C 
HETATM    4  C4  UNL     1     -34.682  16.289  -3.198  1.00 20.00    -0.086 C 
HETATM    5  C5  UNL     1     -33.377  14.840  -4.767  1.00 20.00     0.042 C 
HETATM    6  C6  UNL     1     -35.628  16.696  -4.298  1.00 20.00     0.048 C 
HETATM    7  C7  UNL     1     -35.567  14.106  -7.915  1.00 20.00     0.001 C 
HETATM    8  C8  UNL     1     -36.731  15.072  -7.675  1.00 20.00     0.001 C 
HETATM    9  C9  UNL     1     -34.332  14.366  -7.056  1.00 20.00     0.015 C 
HETATM   10  C10 UNL     1     -36.471  16.137  -6.612  1.00 20.00     0.015 C 
HETATM   11  C11 UNL     1     -34.666  14.574  -5.566  1.00 20.00    -0.009 A 
HETATM   12  C12 UNL     1     -35.864  15.564  -5.317  1.00 20.00    -0.008 A 
HETATM   13  C13 UNL     1     -34.918  16.901  -1.850  1.00 20.00     0.043 C 
ENDROOT
TORSDOF 0
ENDMDL
MODEL 5
REMARK VINA RESULT:      -4.7      1.591      4.423
REMARK  0 active torsions:
REMARK  status: ('A' for Active; 'I' for Inactive)
ROOT
HETATM    1  C1  UNL     1     -34.787  15.149  -3.622  1.00 20.00    -0.019 A 
HETATM    2  C2  UNL     1     -33.541  15.592  -3.865  1.00 20.00    -0.019 A 
HETATM    3  C3  UNL     1     -35.802  16.610  -6.185  1.00 20.00    -0.023 C 
HETATM    4  C4  UNL     1     -34.557  17.044  -6.443  1.00 20.00    -0.086 C 
HETATM    5  C5  UNL     1     -36.444  16.706  -4.834  1.00 20.00     0.042 C 
HETATM    6  C6  UNL     1     -33.704  17.675  -5.373  1.00 20.00     0.048 C 
HETATM    7  C7  UNL     1     -35.049  16.946  -1.194  1.00 20.00     0.001 C 
HETATM    8  C8  UNL     1     -33.632  17.453  -1.474  1.00 20.00     0.001 C 
HETATM    9  C9  UNL     1     -36.015  17.065  -2.372  1.00 20.00     0.015 C 
HETATM   10  C10 UNL     1     -33.409  17.992  -2.885  1.00 20.00     0.015 C 
HETATM   11  C11 UNL     1     -35.420  16.545  -3.695  1.00 20.00    -0.009 A 
HETATM   12  C12 UNL     1     -33.962  17.062  -3.982  1.00 20.00    -0.008 A 
HETATM   13  C13 UNL     1     -33.957  16.960  -7.815  1.00 20.00     0.043 C 
ENDROOT
TORSDOF 0
ENDMDL
MODEL 6
REMARK VINA RESULT:      -4.7      1.412      2.732
REMARK  0 active torsions:
REMARK  status: ('A' for Active; 'I' for Inactive)
ROOT
HETATM    1  C1  UNL     1     -35.825  16.963  -5.394  1.00 20.00    -0.019 A 
HETATM    2  C2  UNL     1     -34.594  16.422  -5.399  1.00 20.00    -0.019 A 
HETATM    3  C3  UNL     1     -35.401  17.890  -2.445  1.00 20.00    -0.023 C 
HETATM    4  C4  UNL     1     -34.165  17.365  -2.446  1.00 20.00    -0.086 C 
HETATM    5  C5  UNL     1     -36.608  17.156  -2.947  1.00 20.00     0.042 C 
HETATM    6  C6  UNL     1     -33.900  15.973  -2.958  1.00 20.00     0.048 C 
HETATM    7  C7  UNL     1     -37.127  14.227  -5.476  1.00 20.00     0.001 C 
HETATM    8  C8  UNL     1     -35.725  13.611  -5.478  1.00 20.00     0.001 C 
HETATM    9  C9  UNL     1     -37.399  15.195  -4.326  1.00 20.00     0.015 C 
HETATM   10  C10 UNL     1     -34.823  14.066  -4.333  1.00 20.00     0.015 C 
HETATM   11  C11 UNL     1     -36.269  16.223  -4.125  1.00 20.00    -0.009 A 
HETATM   12  C12 UNL     1     -34.828  15.593  -4.129  1.00 20.00    -0.008 A 
HETATM   13  C13 UNL     1     -32.984  18.116  -1.908  1.00 20.00     0.043 C 
ENDROOT
TORSDOF 0
ENDMDL
MODEL 7
REMARK VINA RESULT:      -4.6      1.243      4.126
REMARK  0 active torsions:
REMARK  status: ('A' for Active; 'I' for Inactive)
ROOT
HETATM    1  C1  UNL     1     -32.992  15.344  -4.912  1.00 20.00    -0.019 A 
HETATM    2  C2  UNL     1     -33.293  16.193  -5.911  1.00 20.00    -0.019 A 
HETATM    3  C3  UNL     1     -35.551  13.680  -5.560  1.00 20.00    -0.023 C 
HETATM    4  C4  UNL     1     -35.851  14.515  -6.569  1.00 20.00    -0.086 C 
HETATM    5  C5  UNL     1     -35.159  14.150  -4.192  1.00 20.00     0.042 C 
HETATM    6  C6  UNL     1     -35.819  16.011  -6.391  1.00 20.00     0.048 C 
HETATM    7  C7  UNL     1     -33.592  17.453  -2.818  1.00 20.00     0.001 C 
HETATM    8  C8  UNL     1     -33.938  18.418  -3.955  1.00 20.00     0.001 C 
HETATM    9  C9  UNL     1     -34.355  16.130  -2.846  1.00 20.00     0.015 C 
HETATM   10  C10 UNL     1     -34.988  17.902  -4.937  1.00 20.00     0.015 C 
HETATM   11  C11 UNL     1     -34.366  15.470  -4.239  1.00 20.00    -0.009 A 
HETATM   12  C12 UNL     1     -34.718  16.460  -5.409  1.00 20.00    -0.008 A 
HETATM   13  C13 UNL     1     -36.270  14.010  -7.918  1.00 20.00     0.043 C 
ENDROOT
TORSDOF 0
ENDMDL
MODEL 8
REMARK VINA RESULT:      -4.5      2.065      3.503
REMARK  0 active torsions:
REMARK  status: ('A' for Active; 'I' for Inactive)
ROOT
HETATM    1  C1  UNL     1     -33.278  18.840  -2.618  1.00 20.00    -0.019 A 
HETATM    2  C2  UNL     1     -33.046  17.686  -1.968  1.00 20.00    -0.019 A 
HETATM    3  C3  UNL     1     -36.012  19.116  -1.140  1.00 20.00    -0.023 C 
HETATM    4  C4  UNL     1     -35.781  17.972  -0.476  1.00 20.00    -0.086 C 
HETATM    5  C5  UNL     1     -35.820  19.263  -2.620  1.00 20.00     0.042 C 
HETATM    6  C6  UNL     1     -35.307  16.730  -1.186  1.00 20.00     0.048 C 
HETATM    7  C7  UNL     1     -33.632  17.388  -5.256  1.00 20.00     0.001 C 
HETATM    8  C8  UNL     1     -33.372  16.074  -4.515  1.00 20.00     0.001 C 
HETATM    9  C9  UNL     1     -34.755  18.241  -4.668  1.00 20.00     0.015 C 
HETATM   10  C10 UNL     1     -34.272  15.829  -3.306  1.00 20.00     0.015 C 
HETATM   11  C11 UNL     1     -34.654  18.401  -3.139  1.00 20.00    -0.009 A 
HETATM   12  C12 UNL     1     -34.382  17.053  -2.376  1.00 20.00    -0.008 A 
HETATM   13  C13 UNL     1     -36.013  17.852   1.001  1.00 20.00     0.043 C 
ENDROOT
TORSDOF 0
ENDMDL
MODEL 9
REMARK VINA RESULT:      -4.4      1.436      4.214
REMARK  0 active torsions:
REMARK  status: ('A' for Active; 'I' for Inactive)
ROOT
HETATM    1  C1  UNL     1     -33.967  17.474  -4.567  1.00 20.00    -0.019 A 
HETATM    2  C2  UNL     1     -35.305  17.598  -4.641  1.00 20.00    -0.019 A 
HETATM    3  C3  UNL     1     -34.255  14.368  -4.616  1.00 20.00    -0.023 C 
HETATM    4  C4  UNL     1     -35.591  14.483  -4.705  1.00 20.00    -0.086 C 
HETATM    5  C5  UNL     1     -33.427  15.136  -3.631  1.00 20.00     0.042 C 
HETATM    6  C6  UNL     1     -36.365  15.405  -3.800  1.00 20.00     0.048 C 
HETATM    7  C7  UNL     1     -33.940  18.499  -1.714  1.00 20.00     0.001 C 
HETATM    8  C8  UNL     1     -35.463  18.635  -1.797  1.00 20.00     0.001 C 
HETATM    9  C9  UNL     1     -33.403  17.111  -2.059  1.00 20.00     0.015 C 
HETATM   10  C10 UNL     1     -36.199  17.365  -2.215  1.00 20.00     0.015 C 
HETATM   11  C11 UNL     1     -34.007  16.535  -3.354  1.00 20.00    -0.009 A 
HETATM   12  C12 UNL     1     -35.571  16.677  -3.443  1.00 20.00    -0.008 A 
HETATM   13  C13 UNL     1     -36.392  13.676  -5.683  1.00 20.00     0.043 C 
ENDROOT
TORSDOF 0
ENDMDL
