MODEL 1
REMARK VINA RESULT:      -6.4      0.000      0.000
REMARK  2 active torsions:
REMARK  status: ('A' for Active; 'I' for Inactive)
REMARK    1  A    between atoms: C2_2  and  C3_3 
REMARK    2  A    between atoms: C2_2  and  C4_4 
ROOT
HETATM    1  C2  UNL     1     -33.939   7.179   4.243  1.00 20.00     0.244 C 
HETATM    2 CL9  UNL     1     -33.469   7.401   5.968  1.00 20.00    -0.111 Cl
ENDROOT
BRANCH   1   3
HETATM    3  C3  UNL     1     -34.536   5.774   4.022  1.00 20.00     0.200 C 
HETATM    4  C1  UNL     1     -34.604   4.925   5.290  1.00 20.00     0.072 C 
HETATM    5  F5  UNL     1     -35.806   5.905   3.543  1.00 20.00    -0.224 F 
HETATM    6 CL10 UNL     1     -33.589   4.851   2.809  1.00 20.00    -0.081 Cl
ENDBRANCH   1   3
BRANCH   1   7
HETATM    7  C4  UNL     1     -32.702   7.484   3.403  1.00 20.00     0.408 C 
HETATM    8  F6  UNL     1     -33.013   8.176   2.286  1.00 20.00    -0.169 F 
HETATM    9  F7  UNL     1     -31.808   8.219   4.106  1.00 20.00    -0.169 F 
HETATM   10  F8  UNL     1     -32.060   6.358   3.023  1.00 20.00    -0.169 F 
ENDBRANCH   1   7
TORSDOF 2
ENDMDL
MODEL 2
REMARK VINA RESULT:      -6.3      1.850      3.312
REMARK  2 active torsions:
REMARK  status: ('A' for Active; 'I' for Inactive)
REMARK    1  A    between atoms: C2_2  and  C3_3 
REMARK    2  A    between atoms: C2_2  and  C4_4 
ROOT
HETATM    1  C2  UNL     1     -33.513   6.271   4.801  1.00 20.00     0.244 C 
HETATM    2 CL9  UNL     1     -33.831   7.421   6.151  1.00 20.00    -0.111 Cl
ENDROOT
BRANCH   1   3
HETATM    3  C3  UNL     1     -33.317   7.035   3.475  1.00 20.00     0.200 C 
HETATM    4  C1  UNL     1     -33.327   6.140   2.238  1.00 20.00     0.072 C 
HETATM    5  F5  UNL     1     -34.324   7.944   3.337  1.00 20.00    -0.224 F 
HETATM    6 CL10 UNL     1     -31.765   7.937   3.472  1.00 20.00    -0.081 Cl
ENDBRANCH   1   3
BRANCH   1   7
HETATM    7  C4  UNL     1     -34.662   5.267   4.792  1.00 20.00     0.408 C 
HETATM    8  F6  UNL     1     -34.288   4.082   4.263  1.00 20.00    -0.169 F 
HETATM    9  F7  UNL     1     -35.109   5.031   6.049  1.00 20.00    -0.169 F 
HETATM   10  F8  UNL     1     -35.720   5.717   4.085  1.00 20.00    -0.169 F 
ENDBRANCH   1   7
TORSDOF 2
ENDMDL
MODEL 3
REMARK VINA RESULT:      -6.3      1.850      3.280
REMARK  2 active torsions:
REMARK  status: ('A' for Active; 'I' for Inactive)
REMARK    1  A    between atoms: C2_2  and  C3_3 
REMARK    2  A    between atoms: C2_2  and  C4_4 
ROOT
HETATM    1  C2  UNL     1     -33.515   6.274   4.804  1.00 20.00     0.244 C 
HETATM    2 CL9  UNL     1     -33.825   7.428   6.152  1.00 20.00    -0.111 Cl
ENDROOT
BRANCH   1   3
HETATM    3  C3  UNL     1     -33.319   7.034   3.476  1.00 20.00     0.200 C 
HETATM    4  C1  UNL     1     -33.330   6.134   2.242  1.00 20.00     0.072 C 
HETATM    5  F5  UNL     1     -34.327   7.942   3.335  1.00 20.00    -0.224 F 
HETATM    6 CL10 UNL     1     -31.768   7.936   3.469  1.00 20.00    -0.081 Cl
ENDBRANCH   1   3
BRANCH   1   7
HETATM    7  C4  UNL     1     -34.668   5.274   4.801  1.00 20.00     0.408 C 
HETATM    8  F6  UNL     1     -35.718   5.722   4.081  1.00 20.00    -0.169 F 
HETATM    9  F7  UNL     1     -34.281   4.091   4.268  1.00 20.00    -0.169 F 
HETATM   10  F8  UNL     1     -35.109   5.008   6.049  1.00 20.00    -0.169 F 
ENDBRANCH   1   7
TORSDOF 2
ENDMDL
MODEL 4
REMARK VINA RESULT:      -5.9      1.388      2.254
REMARK  2 active torsions:
REMARK  status: ('A' for Active; 'I' for Inactive)
REMARK    1  A    between atoms: C2_2  and  C3_3 
REMARK    2  A    between atoms: C2_2  and  C4_4 
ROOT
HETATM    1  C2  UNL     1     -32.931   6.140   3.688  1.00 20.00     0.244 C 
HETATM    2 CL9  UNL     1     -33.146   5.036   2.281  1.00 20.00    -0.111 Cl
ENDROOT
BRANCH   1   3
HETATM    3  C3  UNL     1     -34.177   6.105   4.597  1.00 20.00     0.200 C 
HETATM    4  C1  UNL     1     -34.064   6.991   5.836  1.00 20.00     0.072 C 
HETATM    5  F5  UNL     1     -35.258   6.530   3.882  1.00 20.00    -0.224 F 
HETATM    6 CL10 UNL     1     -34.520   4.436   5.161  1.00 20.00    -0.081 Cl
ENDBRANCH   1   3
BRANCH   1   7
HETATM    7  C4  UNL     1     -32.594   7.518   3.124  1.00 20.00     0.408 C 
HETATM    8  F6  UNL     1     -31.738   8.190   3.924  1.00 20.00    -0.169 F 
HETATM    9  F7  UNL     1     -32.018   7.414   1.903  1.00 20.00    -0.169 F 
HETATM   10  F8  UNL     1     -33.695   8.282   2.967  1.00 20.00    -0.169 F 
ENDBRANCH   1   7
TORSDOF 2
ENDMDL
MODEL 5
REMARK VINA RESULT:      -5.9      1.763      3.435
REMARK  2 active torsions:
REMARK  status: ('A' for Active; 'I' for Inactive)
REMARK    1  A    between atoms: C2_2  and  C3_3 
REMARK    2  A    between atoms: C2_2  and  C4_4 
ROOT
HETATM    1  C2  UNL     1     -33.480   5.935   4.542  1.00 20.00     0.244 C 
HETATM    2 CL9  UNL     1     -33.846   7.454   5.437  1.00 20.00    -0.111 Cl
ENDROOT
BRANCH   1   3
HETATM    3  C3  UNL     1     -33.144   6.243   3.068  1.00 20.00     0.200 C 
HETATM    4  C1  UNL     1     -32.367   7.543   2.870  1.00 20.00     0.072 C 
HETATM    5  F5  UNL     1     -32.385   5.227   2.567  1.00 20.00    -0.224 F 
HETATM    6 CL10 UNL     1     -34.634   6.352   2.074  1.00 20.00    -0.081 Cl
ENDBRANCH   1   3
BRANCH   1   7
HETATM    7  C4  UNL     1     -34.673   5.004   4.741  1.00 20.00     0.408 C 
HETATM    8  F6  UNL     1     -34.488   3.815   4.129  1.00 20.00    -0.169 F 
HETATM    9  F7  UNL     1     -34.882   4.759   6.057  1.00 20.00    -0.169 F 
HETATM   10  F8  UNL     1     -35.816   5.539   4.262  1.00 20.00    -0.169 F 
ENDBRANCH   1   7
TORSDOF 2
ENDMDL
MODEL 6
REMARK VINA RESULT:      -5.9      1.765      3.415
REMARK  2 active torsions:
REMARK  status: ('A' for Active; 'I' for Inactive)
REMARK    1  A    between atoms: C2_2  and  C3_3 
REMARK    2  A    between atoms: C2_2  and  C4_4 
ROOT
HETATM    1  C2  UNL     1     -33.483   5.943   4.540  1.00 20.00     0.244 C 
HETATM    2 CL9  UNL     1     -33.844   7.470   5.426  1.00 20.00    -0.111 Cl
ENDROOT
BRANCH   1   3
HETATM    3  C3  UNL     1     -33.148   6.241   3.064  1.00 20.00     0.200 C 
HETATM    4  C1  UNL     1     -32.367   7.537   2.857  1.00 20.00     0.072 C 
HETATM    5  F5  UNL     1     -32.394   5.219   2.568  1.00 20.00    -0.224 F 
HETATM    6 CL10 UNL     1     -34.639   6.350   2.071  1.00 20.00    -0.081 Cl
ENDBRANCH   1   3
BRANCH   1   7
HETATM    7  C4  UNL     1     -34.678   5.017   4.747  1.00 20.00     0.408 C 
HETATM    8  F6  UNL     1     -35.817   5.551   4.255  1.00 20.00    -0.169 F 
HETATM    9  F7  UNL     1     -34.482   3.829   4.128  1.00 20.00    -0.169 F 
HETATM   10  F8  UNL     1     -34.884   4.742   6.052  1.00 20.00    -0.169 F 
ENDBRANCH   1   7
TORSDOF 2
ENDMDL
MODEL 7
REMARK VINA RESULT:      -5.9      1.596      1.953
REMARK  2 active torsions:
REMARK  status: ('A' for Active; 'I' for Inactive)
REMARK    1  A    between atoms: C2_2  and  C3_3 
REMARK    2  A    between atoms: C2_2  and  C4_4 
ROOT
HETATM    1  C2  UNL     1     -33.022   6.107   3.884  1.00 20.00     0.244 C 
HETATM    2 CL9  UNL     1     -33.118   4.947   2.510  1.00 20.00    -0.111 Cl
ENDROOT
BRANCH   1   3
HETATM    3  C3  UNL     1     -34.334   6.093   4.696  1.00 20.00     0.200 C 
HETATM    4  C1  UNL     1     -34.466   4.899   5.638  1.00 20.00     0.072 C 
HETATM    5  F5  UNL     1     -34.398   7.226   5.452  1.00 20.00    -0.224 F 
HETATM    6 CL10 UNL     1     -35.765   6.081   3.612  1.00 20.00    -0.081 Cl
ENDBRANCH   1   3
BRANCH   1   7
HETATM    7  C4  UNL     1     -32.654   7.466   3.294  1.00 20.00     0.408 C 
HETATM    8  F6  UNL     1     -33.748   8.220   3.053  1.00 20.00    -0.169 F 
HETATM    9  F7  UNL     1     -31.855   8.160   4.139  1.00 20.00    -0.169 F 
HETATM   10  F8  UNL     1     -31.975   7.344   2.134  1.00 20.00    -0.169 F 
ENDBRANCH   1   7
TORSDOF 2
ENDMDL
MODEL 8
REMARK VINA RESULT:      -5.7      1.295      1.844
REMARK  2 active torsions:
REMARK  status: ('A' for Active; 'I' for Inactive)
REMARK    1  A    between atoms: C2_2  and  C3_3 
REMARK    2  A    between atoms: C2_2  and  C4_4 
ROOT
HETATM    1  C2  UNL     1     -33.781   7.274   4.243  1.00 20.00     0.244 C 
HETATM    2 CL9  UNL     1     -33.229   7.503   5.942  1.00 20.00    -0.111 Cl
ENDROOT
BRANCH   1   3
HETATM    3  C3  UNL     1     -34.431   5.885   4.069  1.00 20.00     0.200 C 
HETATM    4  C1  UNL     1     -35.847   5.933   3.500  1.00 20.00     0.072 C 
HETATM    5  F5  UNL     1     -33.666   5.144   3.217  1.00 20.00    -0.224 F 
HETATM    6 CL10 UNL     1     -34.510   5.007   5.632  1.00 20.00    -0.081 Cl
ENDBRANCH   1   3
BRANCH   1   7
HETATM    7  C4  UNL     1     -32.573   7.528   3.346  1.00 20.00     0.408 C 
HETATM    8  F6  UNL     1     -32.016   6.374   2.917  1.00 20.00    -0.169 F 
HETATM    9  F7  UNL     1     -32.925   8.244   2.252  1.00 20.00    -0.169 F 
HETATM   10  F8  UNL     1     -31.614   8.237   3.978  1.00 20.00    -0.169 F 
ENDBRANCH   1   7
TORSDOF 2
ENDMDL
MODEL 9
REMARK VINA RESULT:      -5.7      2.206      2.734
REMARK  2 active torsions:
REMARK  status: ('A' for Active; 'I' for Inactive)
REMARK    1  A    between atoms: C2_2  and  C3_3 
REMARK    2  A    between atoms: C2_2  and  C4_4 
ROOT
HETATM    1  C2  UNL     1     -34.576   5.937   4.225  1.00 20.00     0.244 C 
HETATM    2 CL9  UNL     1     -34.500   4.291   4.950  1.00 20.00    -0.111 Cl
ENDROOT
BRANCH   1   3
HETATM    3  C3  UNL     1     -33.787   5.981   2.899  1.00 20.00     0.200 C 
HETATM    4  C1  UNL     1     -32.890   4.766   2.674  1.00 20.00     0.072 C 
HETATM    5  F5  UNL     1     -34.670   6.041   1.862  1.00 20.00    -0.224 F 
HETATM    6 CL10 UNL     1     -32.746   7.440   2.813  1.00 20.00    -0.081 Cl
ENDBRANCH   1   3
BRANCH   1   7
HETATM    7  C4  UNL     1     -34.085   6.915   5.289  1.00 20.00     0.408 C 
HETATM    8  F6  UNL     1     -34.410   8.190   4.986  1.00 20.00    -0.169 F 
HETATM    9  F7  UNL     1     -34.629   6.629   6.496  1.00 20.00    -0.169 F 
HETATM   10  F8  UNL     1     -32.746   6.859   5.446  1.00 20.00    -0.169 F 
ENDBRANCH   1   7
TORSDOF 2
ENDMDL
