MODEL 1
REMARK VINA RESULT:      -6.5      0.000      0.000
REMARK  0 active torsions:
REMARK  status: ('A' for Active; 'I' for Inactive)
ROOT
HETATM    1  C1  UNL     1     -34.171   4.669   3.843  1.00 20.00     0.131 C 
HETATM    2  C2  UNL     1     -33.533   5.054   2.475  1.00 20.00     0.083 C 
HETATM    3  C3  UNL     1     -34.179   6.325   6.070  1.00 20.00     0.013 C 
HETATM    4  C4  UNL     1     -33.672   7.818   5.932  1.00 20.00     0.006 C 
HETATM    5  C5  UNL     1     -32.163   7.511   2.367  1.00 20.00     0.006 C 
HETATM    6  C6  UNL     1     -32.222   8.534   3.611  1.00 20.00     0.005 C 
HETATM    7  C7  UNL     1     -34.560   5.910   4.647  1.00 20.00     0.060 C 
HETATM    8  C8  UNL     1     -32.728   6.221   2.972  1.00 20.00    -0.002 C 
HETATM    9  C9  UNL     1     -32.794   7.655   4.722  1.00 20.00    -0.009 C 
HETATM   10  C10 UNL     1     -33.747   6.884   3.854  1.00 20.00     0.005 C 
HETATM   11  O11 UNL     1     -34.400   3.521   4.197  1.00 20.00    -0.298 OA
ENDROOT
TORSDOF 0
ENDMDL
MODEL 2
REMARK VINA RESULT:      -5.8      1.829      3.724
REMARK  0 active torsions:
REMARK  status: ('A' for Active; 'I' for Inactive)
ROOT
HETATM    1  C1  UNL     1     -32.671   7.466   2.850  1.00 20.00     0.131 C 
HETATM    2  C2  UNL     1     -33.135   8.283   4.092  1.00 20.00     0.083 C 
HETATM    3  C3  UNL     1     -33.098   4.741   2.540  1.00 20.00     0.013 C 
HETATM    4  C4  UNL     1     -34.012   3.973   3.578  1.00 20.00     0.006 C 
HETATM    5  C5  UNL     1     -34.310   6.826   6.195  1.00 20.00     0.006 C 
HETATM    6  C6  UNL     1     -34.651   5.262   6.014  1.00 20.00     0.005 C 
HETATM    7  C7  UNL     1     -33.519   6.207   2.660  1.00 20.00     0.060 C 
HETATM    8  C8  UNL     1     -33.406   7.110   4.991  1.00 20.00    -0.002 C 
HETATM    9  C9  UNL     1     -33.873   4.908   4.748  1.00 20.00    -0.009 C 
HETATM   10  C10 UNL     1     -34.121   6.205   4.030  1.00 20.00     0.005 C 
HETATM   11  O11 UNL     1     -31.790   7.823   2.081  1.00 20.00    -0.298 OA
ENDROOT
TORSDOF 0
ENDMDL
MODEL 3
REMARK VINA RESULT:      -5.6      1.184      2.269
REMARK  0 active torsions:
REMARK  status: ('A' for Active; 'I' for Inactive)
ROOT
HETATM    1  C1  UNL     1     -33.221   5.420   2.575  1.00 20.00     0.131 C 
HETATM    2  C2  UNL     1     -32.702   6.889   2.548  1.00 20.00     0.083 C 
HETATM    3  C3  UNL     1     -34.474   4.259   4.762  1.00 20.00     0.013 C 
HETATM    4  C4  UNL     1     -34.858   5.157   6.006  1.00 20.00     0.006 C 
HETATM    5  C5  UNL     1     -32.912   8.346   4.947  1.00 20.00     0.006 C 
HETATM    6  C6  UNL     1     -33.711   7.735   6.207  1.00 20.00     0.005 C 
HETATM    7  C7  UNL     1     -34.344   5.243   3.597  1.00 20.00     0.060 C 
HETATM    8  C8  UNL     1     -32.758   7.128   4.030  1.00 20.00    -0.002 C 
HETATM    9  C9  UNL     1     -33.865   6.269   5.808  1.00 20.00    -0.009 C 
HETATM   10  C10 UNL     1     -34.092   6.515   4.343  1.00 20.00     0.005 C 
HETATM   11  O11 UNL     1     -32.831   4.538   1.822  1.00 20.00    -0.298 OA
ENDROOT
TORSDOF 0
ENDMDL
MODEL 4
REMARK VINA RESULT:      -5.6      1.874      3.097
REMARK  0 active torsions:
REMARK  status: ('A' for Active; 'I' for Inactive)
ROOT
HETATM    1  C1  UNL     1     -32.876   7.267   2.606  1.00 20.00     0.131 C 
HETATM    2  C2  UNL     1     -33.134   5.781   2.216  1.00 20.00     0.083 C 
HETATM    3  C3  UNL     1     -33.421   8.330   5.111  1.00 20.00     0.013 C 
HETATM    4  C4  UNL     1     -33.855   7.365   6.288  1.00 20.00     0.006 C 
HETATM    5  C5  UNL     1     -34.395   4.170   4.149  1.00 20.00     0.006 C 
HETATM    6  C6  UNL     1     -34.646   4.728   5.640  1.00 20.00     0.005 C 
HETATM    7  C7  UNL     1     -32.691   7.426   4.116  1.00 20.00     0.060 C 
HETATM    8  C8  UNL     1     -34.024   5.441   3.378  1.00 20.00    -0.002 C 
HETATM    9  C9  UNL     1     -34.393   6.225   5.469  1.00 20.00    -0.009 C 
HETATM   10  C10 UNL     1     -33.258   6.094   4.493  1.00 20.00     0.005 C 
HETATM   11  O11 UNL     1     -32.762   8.181   1.800  1.00 20.00    -0.298 OA
ENDROOT
TORSDOF 0
ENDMDL
MODEL 5
REMARK VINA RESULT:      -5.2     12.212     12.981
REMARK  0 active torsions:
REMARK  status: ('A' for Active; 'I' for Inactive)
ROOT
HETATM    1  C1  UNL     1     -32.132  18.503  -0.179  1.00 20.00     0.131 C 
HETATM    2  C2  UNL     1     -32.651  19.187   1.121  1.00 20.00     0.083 C 
HETATM    3  C3  UNL     1     -33.729  17.017  -1.893  1.00 20.00     0.013 C 
HETATM    4  C4  UNL     1     -35.295  16.985  -1.666  1.00 20.00     0.006 C 
HETATM    5  C5  UNL     1     -35.336  18.703   1.816  1.00 20.00     0.006 C 
HETATM    6  C6  UNL     1     -36.314  17.920   0.802  1.00 20.00     0.005 C 
HETATM    7  C7  UNL     1     -33.260  18.291  -1.189  1.00 20.00     0.060 C 
HETATM    8  C8  UNL     1     -33.953  18.442   1.210  1.00 20.00    -0.002 C 
HETATM    9  C9  UNL     1     -35.326  17.328  -0.202  1.00 20.00    -0.009 C 
HETATM   10  C10 UNL     1     -34.386  18.500  -0.226  1.00 20.00     0.005 C 
HETATM   11  O11 UNL     1     -30.957  18.237  -0.394  1.00 20.00    -0.298 OA
ENDROOT
TORSDOF 0
ENDMDL
MODEL 6
REMARK VINA RESULT:      -5.2      1.685      3.423
REMARK  0 active torsions:
REMARK  status: ('A' for Active; 'I' for Inactive)
ROOT
HETATM    1  C1  UNL     1     -34.059   6.956   5.730  1.00 20.00     0.131 C 
HETATM    2  C2  UNL     1     -34.639   5.514   5.826  1.00 20.00     0.083 C 
HETATM    3  C3  UNL     1     -32.643   7.915   3.544  1.00 20.00     0.013 C 
HETATM    4  C4  UNL     1     -32.551   7.037   2.231  1.00 20.00     0.006 C 
HETATM    5  C5  UNL     1     -34.032   3.764   3.706  1.00 20.00     0.006 C 
HETATM    6  C6  UNL     1     -33.289   4.310   2.384  1.00 20.00     0.005 C 
HETATM    7  C7  UNL     1     -33.882   7.392   4.275  1.00 20.00     0.060 C 
HETATM    8  C8  UNL     1     -33.852   4.925   4.690  1.00 20.00    -0.002 C 
HETATM    9  C9  UNL     1     -32.795   5.683   2.838  1.00 20.00    -0.009 C 
HETATM   10  C10 UNL     1     -33.993   6.025   3.678  1.00 20.00     0.005 C 
HETATM   11  O11 UNL     1     -33.841   7.677   6.695  1.00 20.00    -0.298 OA
ENDROOT
TORSDOF 0
ENDMDL
MODEL 7
REMARK VINA RESULT:      -4.7     12.196     12.934
REMARK  0 active torsions:
REMARK  status: ('A' for Active; 'I' for Inactive)
ROOT
HETATM    1  C1  UNL     1     -32.842  18.822   2.121  1.00 20.00     0.131 C 
HETATM    2  C2  UNL     1     -34.335  18.706   2.549  1.00 20.00     0.083 C 
HETATM    3  C3  UNL     1     -31.919  18.295  -0.443  1.00 20.00     0.013 C 
HETATM    4  C4  UNL     1     -32.960  18.029  -1.606  1.00 20.00     0.006 C 
HETATM    5  C5  UNL     1     -36.131  17.728   0.615  1.00 20.00     0.006 C 
HETATM    6  C6  UNL     1     -35.648  17.496  -0.906  1.00 20.00     0.005 C 
HETATM    7  C7  UNL     1     -32.708  19.066   0.617  1.00 20.00     0.060 C 
HETATM    8  C8  UNL     1     -34.805  17.920   1.358  1.00 20.00    -0.002 C 
HETATM    9  C9  UNL     1     -34.128  17.576  -0.774  1.00 20.00    -0.009 C 
HETATM   10  C10 UNL     1     -34.105  18.667   0.259  1.00 20.00     0.005 C 
HETATM   11  O11 UNL     1     -31.898  18.795   2.899  1.00 20.00    -0.298 OA
ENDROOT
TORSDOF 0
ENDMDL
MODEL 8
REMARK VINA RESULT:      -4.6     11.819     12.582
REMARK  0 active torsions:
REMARK  status: ('A' for Active; 'I' for Inactive)
ROOT
HETATM    1  C1  UNL     1     -37.229  14.315  -5.057  1.00 20.00     0.131 C 
HETATM    2  C2  UNL     1     -35.959  13.462  -5.352  1.00 20.00     0.083 C 
HETATM    3  C3  UNL     1     -37.184  16.758  -3.742  1.00 20.00     0.013 C 
HETATM    4  C4  UNL     1     -35.794  17.440  -3.414  1.00 20.00     0.006 C 
HETATM    5  C5  UNL     1     -33.526  14.419  -4.309  1.00 20.00     0.006 C 
HETATM    6  C6  UNL     1     -33.448  15.873  -3.618  1.00 20.00     0.005 C 
HETATM    7  C7  UNL     1     -36.883  15.796  -4.892  1.00 20.00     0.060 C 
HETATM    8  C8  UNL     1     -35.036  14.179  -4.408  1.00 20.00    -0.002 C 
HETATM    9  C9  UNL     1     -34.925  16.214  -3.422  1.00 20.00    -0.009 C 
HETATM   10  C10 UNL     1     -35.411  15.602  -4.706  1.00 20.00     0.005 C 
HETATM   11  O11 UNL     1     -38.368  13.869  -5.033  1.00 20.00    -0.298 OA
ENDROOT
TORSDOF 0
ENDMDL
MODEL 9
REMARK VINA RESULT:      -4.6     11.619     12.651
REMARK  0 active torsions:
REMARK  status: ('A' for Active; 'I' for Inactive)
ROOT
HETATM    1  C1  UNL     1     -35.748  13.553  -5.266  1.00 20.00     0.131 C 
HETATM    2  C2  UNL     1     -37.172  14.179  -5.197  1.00 20.00     0.083 C 
HETATM    3  C3  UNL     1     -33.456  14.806  -4.328  1.00 20.00     0.013 C 
HETATM    4  C4  UNL     1     -33.585  16.156  -3.513  1.00 20.00     0.006 C 
HETATM    5  C5  UNL     1     -37.347  16.813  -4.217  1.00 20.00     0.006 C 
HETATM    6  C6  UNL     1     -36.053  17.537  -3.584  1.00 20.00     0.005 C 
HETATM    7  C7  UNL     1     -34.826  14.139  -4.195  1.00 20.00     0.060 C 
HETATM    8  C8  UNL     1     -36.737  15.588  -4.907  1.00 20.00    -0.002 C 
HETATM    9  C9  UNL     1     -34.920  16.616  -4.032  1.00 20.00    -0.009 C 
HETATM   10  C10 UNL     1     -35.677  15.327  -3.876  1.00 20.00     0.005 C 
HETATM   11  O11 UNL     1     -35.427  12.654  -6.031  1.00 20.00    -0.298 OA
ENDROOT
TORSDOF 0
ENDMDL
