MODEL 1
REMARK VINA RESULT:      -5.9      0.000      0.000
REMARK  3 active torsions:
REMARK  status: ('A' for Active; 'I' for Inactive)
REMARK    1  A    between atoms: C1_1  and  C3_3 
REMARK    2  A    between atoms: C1_1  and  C4_4 
REMARK    3  A    between atoms: C2_2  and  C3_3 
ROOT
HETATM    1  C1  UNL     1     -33.780   6.490   4.240  1.00 20.00     0.197 C 
ENDROOT
BRANCH   1   2
HETATM    2  C3  UNL     1     -33.293   6.405   2.798  1.00 20.00     0.264 C 
HETATM    3  F5  UNL     1     -34.342   6.121   1.986  1.00 20.00    -0.205 F 
HETATM    4  F6  UNL     1     -32.411   5.380   2.681  1.00 20.00    -0.205 F 
BRANCH   2   5
HETATM    5  C2  UNL     1     -32.634   7.696   2.342  1.00 20.00     0.193 C 
HETATM    6 CL10 UNL     1     -31.437   8.248   3.541  1.00 20.00    -0.124 Cl
ENDBRANCH   2   5
ENDBRANCH   1   2
BRANCH   1   7
HETATM    7  C4  UNL     1     -34.805   5.423   4.569  1.00 20.00     0.393 C 
HETATM    8  F7  UNL     1     -34.407   4.206   4.142  1.00 20.00    -0.171 F 
HETATM    9  F8  UNL     1     -34.992   5.346   5.905  1.00 20.00    -0.171 F 
HETATM   10  F9  UNL     1     -36.001   5.695   4.004  1.00 20.00    -0.171 F 
ENDBRANCH   1   7
TORSDOF 3
ENDMDL
MODEL 2
REMARK VINA RESULT:      -5.9      0.014      1.195
REMARK  3 active torsions:
REMARK  status: ('A' for Active; 'I' for Inactive)
REMARK    1  A    between atoms: C1_1  and  C3_3 
REMARK    2  A    between atoms: C1_1  and  C4_4 
REMARK    3  A    between atoms: C2_2  and  C3_3 
ROOT
HETATM    1  C1  UNL     1     -33.777   6.488   4.241  1.00 20.00     0.197 C 
ENDROOT
BRANCH   1   2
HETATM    2  C3  UNL     1     -33.294   6.402   2.797  1.00 20.00     0.264 C 
HETATM    3  F5  UNL     1     -34.348   6.126   1.988  1.00 20.00    -0.205 F 
HETATM    4  F6  UNL     1     -32.420   5.370   2.677  1.00 20.00    -0.205 F 
BRANCH   2   5
HETATM    5  C2  UNL     1     -32.627   7.688   2.340  1.00 20.00     0.193 C 
HETATM    6 CL10 UNL     1     -31.444   8.246   3.549  1.00 20.00    -0.124 Cl
ENDBRANCH   2   5
ENDBRANCH   1   2
BRANCH   1   7
HETATM    7  C4  UNL     1     -34.791   5.414   4.578  1.00 20.00     0.393 C 
HETATM    8  F7  UNL     1     -34.995   5.327   5.909  1.00 20.00    -0.171 F 
HETATM    9  F8  UNL     1     -35.981   5.690   4.000  1.00 20.00    -0.171 F 
HETATM   10  F9  UNL     1     -34.393   4.202   4.136  1.00 20.00    -0.171 F 
ENDBRANCH   1   7
TORSDOF 3
ENDMDL
MODEL 3
REMARK VINA RESULT:      -5.6      1.571      2.176
REMARK  3 active torsions:
REMARK  status: ('A' for Active; 'I' for Inactive)
REMARK    1  A    between atoms: C1_1  and  C3_3 
REMARK    2  A    between atoms: C1_1  and  C4_4 
REMARK    3  A    between atoms: C2_2  and  C3_3 
ROOT
HETATM    1  C1  UNL     1     -33.527   5.846   3.587  1.00 20.00     0.197 C 
ENDROOT
BRANCH   1   2
HETATM    2  C3  UNL     1     -33.167   7.304   3.846  1.00 20.00     0.264 C 
HETATM    3  F5  UNL     1     -32.866   7.465   5.160  1.00 20.00    -0.205 F 
HETATM    4  F6  UNL     1     -34.245   8.087   3.587  1.00 20.00    -0.205 F 
BRANCH   2   5
HETATM    5  C2  UNL     1     -31.993   7.761   2.998  1.00 20.00     0.193 C 
HETATM    6 CL10 UNL     1     -32.532   8.904   1.742  1.00 20.00    -0.124 Cl
ENDBRANCH   2   5
ENDBRANCH   1   2
BRANCH   1   7
HETATM    7  C4  UNL     1     -34.745   5.401   4.372  1.00 20.00     0.393 C 
HETATM    8  F7  UNL     1     -35.888   5.831   3.798  1.00 20.00    -0.171 F 
HETATM    9  F8  UNL     1     -34.800   4.052   4.431  1.00 20.00    -0.171 F 
HETATM   10  F9  UNL     1     -34.713   5.864   5.639  1.00 20.00    -0.171 F 
ENDBRANCH   1   7
TORSDOF 3
ENDMDL
MODEL 4
REMARK VINA RESULT:      -5.4      2.225      3.623
REMARK  3 active torsions:
REMARK  status: ('A' for Active; 'I' for Inactive)
REMARK    1  A    between atoms: C1_1  and  C3_3 
REMARK    2  A    between atoms: C1_1  and  C4_4 
REMARK    3  A    between atoms: C2_2  and  C3_3 
ROOT
HETATM    1  C1  UNL     1     -33.936   7.087   4.128  1.00 20.00     0.197 C 
ENDROOT
BRANCH   1   2
HETATM    2  C3  UNL     1     -34.674   5.911   3.497  1.00 20.00     0.264 C 
HETATM    3  F5  UNL     1     -34.315   5.805   2.193  1.00 20.00    -0.205 F 
HETATM    4  F6  UNL     1     -36.009   6.153   3.524  1.00 20.00    -0.205 F 
BRANCH   2   5
HETATM    5  C2  UNL     1     -34.380   4.604   4.212  1.00 20.00     0.193 C 
HETATM    6 CL10 UNL     1     -34.502   4.811   5.978  1.00 20.00    -0.124 Cl
ENDBRANCH   2   5
ENDBRANCH   1   2
BRANCH   1   7
HETATM    7  C4  UNL     1     -32.703   7.486   3.342  1.00 20.00     0.393 C 
HETATM    8  F7  UNL     1     -33.014   8.302   2.314  1.00 20.00    -0.171 F 
HETATM    9  F8  UNL     1     -31.831   8.147   4.138  1.00 20.00    -0.171 F 
HETATM   10  F9  UNL     1     -32.063   6.408   2.844  1.00 20.00    -0.171 F 
ENDBRANCH   1   7
TORSDOF 3
ENDMDL
MODEL 5
REMARK VINA RESULT:      -5.4      2.223      3.626
REMARK  3 active torsions:
REMARK  status: ('A' for Active; 'I' for Inactive)
REMARK    1  A    between atoms: C1_1  and  C3_3 
REMARK    2  A    between atoms: C1_1  and  C4_4 
REMARK    3  A    between atoms: C2_2  and  C3_3 
ROOT
HETATM    1  C1  UNL     1     -33.885   7.115   4.070  1.00 20.00     0.197 C 
ENDROOT
BRANCH   1   2
HETATM    2  C3  UNL     1     -34.625   5.925   3.469  1.00 20.00     0.264 C 
HETATM    3  F5  UNL     1     -34.312   5.821   2.152  1.00 20.00    -0.205 F 
HETATM    4  F6  UNL     1     -35.963   6.144   3.543  1.00 20.00    -0.205 F 
BRANCH   2   5
HETATM    5  C2  UNL     1     -34.284   4.624   4.175  1.00 20.00     0.193 C 
HETATM    6 CL10 UNL     1     -34.521   4.783   5.934  1.00 20.00    -0.124 Cl
ENDBRANCH   2   5
ENDBRANCH   1   2
BRANCH   1   7
HETATM    7  C4  UNL     1     -32.653   7.494   3.273  1.00 20.00     0.393 C 
HETATM    8  F7  UNL     1     -31.769   8.181   4.026  1.00 20.00    -0.171 F 
HETATM    9  F8  UNL     1     -32.027   6.385   2.818  1.00 20.00    -0.171 F 
HETATM   10  F9  UNL     1     -32.970   8.253   2.203  1.00 20.00    -0.171 F 
ENDBRANCH   1   7
TORSDOF 3
ENDMDL
MODEL 6
REMARK VINA RESULT:      -5.3      1.624      3.248
REMARK  3 active torsions:
REMARK  status: ('A' for Active; 'I' for Inactive)
REMARK    1  A    between atoms: C1_1  and  C3_3 
REMARK    2  A    between atoms: C1_1  and  C4_4 
REMARK    3  A    between atoms: C2_2  and  C3_3 
ROOT
HETATM    1  C1  UNL     1     -33.926   4.655   3.885  1.00 20.00     0.197 C 
ENDROOT
BRANCH   1   2
HETATM    2  C3  UNL     1     -34.794   5.712   4.558  1.00 20.00     0.264 C 
HETATM    3  F5  UNL     1     -35.054   5.332   5.834  1.00 20.00    -0.205 F 
HETATM    4  F6  UNL     1     -35.987   5.790   3.915  1.00 20.00    -0.205 F 
BRANCH   2   5
HETATM    5  C2  UNL     1     -34.130   7.079   4.560  1.00 20.00     0.193 C 
HETATM    6 CL10 UNL     1     -33.529   7.483   6.188  1.00 20.00    -0.124 Cl
ENDBRANCH   2   5
ENDBRANCH   1   2
BRANCH   1   7
HETATM    7  C4  UNL     1     -33.291   5.156   2.603  1.00 20.00     0.393 C 
HETATM    8  F7  UNL     1     -32.280   6.013   2.854  1.00 20.00    -0.171 F 
HETATM    9  F8  UNL     1     -32.784   4.123   1.894  1.00 20.00    -0.171 F 
HETATM   10  F9  UNL     1     -34.190   5.787   1.819  1.00 20.00    -0.171 F 
ENDBRANCH   1   7
TORSDOF 3
ENDMDL
MODEL 7
REMARK VINA RESULT:      -5.2      2.772      4.176
REMARK  3 active torsions:
REMARK  status: ('A' for Active; 'I' for Inactive)
REMARK    1  A    between atoms: C1_1  and  C3_3 
REMARK    2  A    between atoms: C1_1  and  C4_4 
REMARK    3  A    between atoms: C2_2  and  C3_3 
ROOT
HETATM    1  C1  UNL     1     -32.653   6.928   2.694  1.00 20.00     0.197 C 
ENDROOT
BRANCH   1   2
HETATM    2  C3  UNL     1     -33.605   6.971   3.883  1.00 20.00     0.264 C 
HETATM    3  F5  UNL     1     -34.449   8.025   3.745  1.00 20.00    -0.205 F 
HETATM    4  F6  UNL     1     -32.894   7.178   5.021  1.00 20.00    -0.205 F 
BRANCH   2   5
HETATM    5  C2  UNL     1     -34.412   5.691   4.016  1.00 20.00     0.193 C 
HETATM    6 CL10 UNL     1     -34.627   5.257   5.730  1.00 20.00    -0.124 Cl
ENDBRANCH   2   5
ENDBRANCH   1   2
BRANCH   1   7
HETATM    7  C4  UNL     1     -32.101   8.295   2.344  1.00 20.00     0.393 C 
HETATM    8  F7  UNL     1     -31.452   8.849   3.389  1.00 20.00    -0.171 F 
HETATM    9  F8  UNL     1     -31.221   8.200   1.322  1.00 20.00    -0.171 F 
HETATM   10  F9  UNL     1     -33.079   9.142   1.962  1.00 20.00    -0.171 F 
ENDBRANCH   1   7
TORSDOF 3
ENDMDL
MODEL 8
REMARK VINA RESULT:      -5.1      1.509      2.037
REMARK  3 active torsions:
REMARK  status: ('A' for Active; 'I' for Inactive)
REMARK    1  A    between atoms: C1_1  and  C3_3 
REMARK    2  A    between atoms: C1_1  and  C4_4 
REMARK    3  A    between atoms: C2_2  and  C3_3 
ROOT
HETATM    1  C1  UNL     1     -33.785   7.222   3.908  1.00 20.00     0.197 C 
ENDROOT
BRANCH   1   2
HETATM    2  C3  UNL     1     -32.510   7.562   3.145  1.00 20.00     0.264 C 
HETATM    3  F5  UNL     1     -31.988   6.426   2.617  1.00 20.00    -0.205 F 
HETATM    4  F6  UNL     1     -31.588   8.058   4.009  1.00 20.00    -0.205 F 
BRANCH   2   5
HETATM    5  C2  UNL     1     -32.759   8.569   2.036  1.00 20.00     0.193 C 
HETATM    6 CL10 UNL     1     -31.392   8.599   0.894  1.00 20.00    -0.124 Cl
ENDBRANCH   2   5
ENDBRANCH   1   2
BRANCH   1   7
HETATM    7  C4  UNL     1     -34.442   5.953   3.404  1.00 20.00     0.393 C 
HETATM    8  F7  UNL     1     -34.457   5.906   2.056  1.00 20.00    -0.171 F 
HETATM    9  F8  UNL     1     -33.767   4.867   3.844  1.00 20.00    -0.171 F 
HETATM   10  F9  UNL     1     -35.714   5.847   3.841  1.00 20.00    -0.171 F 
ENDBRANCH   1   7
TORSDOF 3
ENDMDL
MODEL 9
REMARK VINA RESULT:      -5.0      2.182      2.986
REMARK  3 active torsions:
REMARK  status: ('A' for Active; 'I' for Inactive)
REMARK    1  A    between atoms: C1_1  and  C3_3 
REMARK    2  A    between atoms: C1_1  and  C4_4 
REMARK    3  A    between atoms: C2_2  and  C3_3 
ROOT
HETATM    1  C1  UNL     1     -34.139   5.743   5.519  1.00 20.00     0.197 C 
ENDROOT
BRANCH   1   2
HETATM    2  C3  UNL     1     -34.626   5.257   4.159  1.00 20.00     0.264 C 
HETATM    3  F5  UNL     1     -35.897   5.688   3.957  1.00 20.00    -0.205 F 
HETATM    4  F6  UNL     1     -34.661   3.899   4.153  1.00 20.00    -0.205 F 
BRANCH   2   5
HETATM    5  C2  UNL     1     -33.739   5.746   3.026  1.00 20.00     0.193 C 
HETATM    6 CL10 UNL     1     -32.748   4.412   2.383  1.00 20.00    -0.124 Cl
ENDBRANCH   2   5
ENDBRANCH   1   2
BRANCH   1   7
HETATM    7  C4  UNL     1     -33.879   7.236   5.542  1.00 20.00     0.393 C 
HETATM    8  F7  UNL     1     -34.595   7.877   4.594  1.00 20.00    -0.171 F 
HETATM    9  F8  UNL     1     -34.230   7.756   6.739  1.00 20.00    -0.171 F 
HETATM   10  F9  UNL     1     -32.574   7.515   5.342  1.00 20.00    -0.171 F 
ENDBRANCH   1   7
TORSDOF 3
ENDMDL
