MODEL 1
REMARK VINA RESULT:      -5.5      0.000      0.000
REMARK  0 active torsions:
REMARK  status: ('A' for Active; 'I' for Inactive)
ROOT
HETATM    1  C1  UNL     1     -35.633   6.080   3.789  1.00 20.00    -0.020 A 
HETATM    2  C2  UNL     1     -34.938   6.307   2.660  1.00 20.00    -0.020 A 
HETATM    3  C3  UNL     1     -33.331   7.875   4.768  1.00 20.00     0.002 C 
HETATM    4  C4  UNL     1     -33.906   6.745   5.614  1.00 20.00     0.014 C 
HETATM    5  C5  UNL     1     -32.668   7.151   3.603  1.00 20.00     0.014 C 
HETATM    6  C6  UNL     1     -34.400   5.694   4.603  1.00 20.00    -0.016 A 
HETATM    7  C7  UNL     1     -33.590   5.960   3.288  1.00 20.00    -0.016 A 
HETATM    8  C8  UNL     1     -34.452   4.293   5.196  1.00 20.00     0.020 C 
HETATM    9  C9  UNL     1     -32.854   4.816   2.602  1.00 20.00     0.020 C 
ENDROOT
TORSDOF 0
ENDMDL
MODEL 2
REMARK VINA RESULT:      -5.3      0.613      3.035
REMARK  0 active torsions:
REMARK  status: ('A' for Active; 'I' for Inactive)
ROOT
HETATM    1  C1  UNL     1     -34.923   6.354   2.671  1.00 20.00    -0.020 A 
HETATM    2  C2  UNL     1     -35.578   6.276   3.843  1.00 20.00    -0.020 A 
HETATM    3  C3  UNL     1     -33.874   3.711   3.852  1.00 20.00     0.002 C 
HETATM    4  C4  UNL     1     -32.996   4.647   3.030  1.00 20.00     0.014 C 
HETATM    5  C5  UNL     1     -34.163   4.508   5.119  1.00 20.00     0.014 C 
HETATM    6  C6  UNL     1     -33.557   6.057   3.286  1.00 20.00    -0.016 A 
HETATM    7  C7  UNL     1     -34.320   5.967   4.653  1.00 20.00    -0.016 A 
HETATM    8  C8  UNL     1     -32.519   7.149   3.065  1.00 20.00     0.020 C 
HETATM    9  C9  UNL     1     -34.023   6.969   5.759  1.00 20.00     0.020 C 
ENDROOT
TORSDOF 0
ENDMDL
MODEL 3
REMARK VINA RESULT:      -5.1      0.794      2.115
REMARK  0 active torsions:
REMARK  status: ('A' for Active; 'I' for Inactive)
ROOT
HETATM    1  C1  UNL     1     -35.113   6.210   2.937  1.00 20.00    -0.020 A 
HETATM    2  C2  UNL     1     -34.765   7.445   3.339  1.00 20.00    -0.020 A 
HETATM    3  C3  UNL     1     -34.615   5.819   5.950  1.00 20.00     0.002 C 
HETATM    4  C4  UNL     1     -34.269   4.753   4.917  1.00 20.00     0.014 C 
HETATM    5  C5  UNL     1     -33.648   6.954   5.634  1.00 20.00     0.014 C 
HETATM    6  C6  UNL     1     -33.935   5.530   3.630  1.00 20.00    -0.016 A 
HETATM    7  C7  UNL     1     -33.528   6.970   4.099  1.00 20.00    -0.016 A 
HETATM    8  C8  UNL     1     -33.023   4.748   2.695  1.00 20.00     0.020 C 
HETATM    9  C9  UNL     1     -32.221   7.586   3.621  1.00 20.00     0.020 C 
ENDROOT
TORSDOF 0
ENDMDL
MODEL 4
REMARK VINA RESULT:      -4.9      0.818      2.228
REMARK  0 active torsions:
REMARK  status: ('A' for Active; 'I' for Inactive)
ROOT
HETATM    1  C1  UNL     1     -35.176   7.270   3.896  1.00 20.00    -0.020 A 
HETATM    2  C2  UNL     1     -35.493   6.007   3.559  1.00 20.00    -0.020 A 
HETATM    3  C3  UNL     1     -32.672   6.335   2.367  1.00 20.00     0.002 C 
HETATM    4  C4  UNL     1     -32.598   7.273   3.567  1.00 20.00     0.014 C 
HETATM    5  C5  UNL     1     -33.162   5.022   2.966  1.00 20.00     0.014 C 
HETATM    6  C6  UNL     1     -33.803   6.898   4.449  1.00 20.00    -0.016 A 
HETATM    7  C7  UNL     1     -34.171   5.425   4.056  1.00 20.00    -0.016 A 
HETATM    8  C8  UNL     1     -33.594   7.265   5.911  1.00 20.00     0.020 C 
HETATM    9  C9  UNL     1     -34.320   4.363   5.137  1.00 20.00     0.020 C 
ENDROOT
TORSDOF 0
ENDMDL
MODEL 5
REMARK VINA RESULT:      -3.9     11.889     13.046
REMARK  0 active torsions:
REMARK  status: ('A' for Active; 'I' for Inactive)
ROOT
HETATM    1  C1  UNL     1     -34.554  16.346  -2.490  1.00 20.00    -0.020 A 
HETATM    2  C2  UNL     1     -33.732  17.189  -3.140  1.00 20.00    -0.020 A 
HETATM    3  C3  UNL     1     -33.062  14.470  -4.421  1.00 20.00     0.002 C 
HETATM    4  C4  UNL     1     -34.528  14.271  -4.055  1.00 20.00     0.014 C 
HETATM    5  C5  UNL     1     -33.061  15.772  -5.213  1.00 20.00     0.014 C 
HETATM    6  C6  UNL     1     -35.068  15.684  -3.766  1.00 20.00    -0.016 A 
HETATM    7  C7  UNL     1     -34.108  16.666  -4.525  1.00 20.00    -0.016 A 
HETATM    8  C8  UNL     1     -36.573  15.786  -3.965  1.00 20.00     0.020 C 
HETATM    9  C9  UNL     1     -34.682  17.721  -5.460  1.00 20.00     0.020 C 
ENDROOT
TORSDOF 0
ENDMDL
MODEL 6
REMARK VINA RESULT:      -3.9     11.774     12.971
REMARK  0 active torsions:
REMARK  status: ('A' for Active; 'I' for Inactive)
ROOT
HETATM    1  C1  UNL     1     -33.242  14.758  -4.389  1.00 20.00    -0.020 A 
HETATM    2  C2  UNL     1     -34.409  14.190  -4.035  1.00 20.00    -0.020 A 
HETATM    3  C3  UNL     1     -34.316  16.703  -2.258  1.00 20.00     0.002 C 
HETATM    4  C4  UNL     1     -33.535  17.175  -3.479  1.00 20.00     0.014 C 
HETATM    5  C5  UNL     1     -35.614  16.163  -2.848  1.00 20.00     0.014 C 
HETATM    6  C6  UNL     1     -33.848  16.146  -4.582  1.00 20.00    -0.016 A 
HETATM    7  C7  UNL     1     -35.208  15.484  -4.168  1.00 20.00    -0.016 A 
HETATM    8  C8  UNL     1     -33.674  16.718  -5.981  1.00 20.00     0.020 C 
HETATM    9  C9  UNL     1     -36.355  15.414  -5.167  1.00 20.00     0.020 C 
ENDROOT
TORSDOF 0
ENDMDL
MODEL 7
REMARK VINA RESULT:      -3.7     12.266     13.580
REMARK  0 active torsions:
REMARK  status: ('A' for Active; 'I' for Inactive)
ROOT
HETATM    1  C1  UNL     1     -34.072  14.165  -7.563  1.00 20.00    -0.020 A 
HETATM    2  C2  UNL     1     -34.917  13.301  -6.972  1.00 20.00    -0.020 A 
HETATM    3  C3  UNL     1     -33.365  14.469  -4.582  1.00 20.00     0.002 C 
HETATM    4  C4  UNL     1     -33.337  15.642  -5.555  1.00 20.00     0.014 C 
HETATM    5  C5  UNL     1     -34.842  14.103  -4.501  1.00 20.00     0.014 C 
HETATM    6  C6  UNL     1     -34.405  15.314  -6.614  1.00 20.00    -0.016 A 
HETATM    7  C7  UNL     1     -35.390  14.307  -5.924  1.00 20.00    -0.016 A 
HETATM    8  C8  UNL     1     -34.948  16.559  -7.302  1.00 20.00     0.020 C 
HETATM    9  C9  UNL     1     -36.888  14.574  -5.942  1.00 20.00     0.020 C 
ENDROOT
TORSDOF 0
ENDMDL
MODEL 8
REMARK VINA RESULT:      -3.7     12.116     13.404
REMARK  0 active torsions:
REMARK  status: ('A' for Active; 'I' for Inactive)
ROOT
HETATM    1  C1  UNL     1     -33.852  14.363  -4.233  1.00 20.00    -0.020 A 
HETATM    2  C2  UNL     1     -33.013  15.151  -4.929  1.00 20.00    -0.020 A 
HETATM    3  C3  UNL     1     -34.461  13.581  -7.148  1.00 20.00     0.002 C 
HETATM    4  C4  UNL     1     -35.538  13.635  -6.071  1.00 20.00     0.014 C 
HETATM    5  C5  UNL     1     -34.044  15.038  -7.312  1.00 20.00     0.014 C 
HETATM    6  C6  UNL     1     -35.069  14.718  -5.083  1.00 20.00    -0.016 A 
HETATM    7  C7  UNL     1     -34.092  15.636  -5.895  1.00 20.00    -0.016 A 
HETATM    8  C8  UNL     1     -36.221  15.336  -4.303  1.00 20.00     0.020 C 
HETATM    9  C9  UNL     1     -34.294  17.145  -5.904  1.00 20.00     0.020 C 
ENDROOT
TORSDOF 0
ENDMDL
MODEL 9
REMARK VINA RESULT:      -3.7     11.667     12.883
REMARK  0 active torsions:
REMARK  status: ('A' for Active; 'I' for Inactive)
ROOT
HETATM    1  C1  UNL     1     -33.753  15.869  -5.773  1.00 20.00    -0.020 A 
HETATM    2  C2  UNL     1     -34.148  16.971  -5.111  1.00 20.00    -0.020 A 
HETATM    3  C3  UNL     1     -36.397  14.964  -4.482  1.00 20.00     0.002 C 
HETATM    4  C4  UNL     1     -35.205  14.029  -4.648  1.00 20.00     0.014 C 
HETATM    5  C5  UNL     1     -35.910  15.993  -3.469  1.00 20.00     0.014 C 
HETATM    6  C6  UNL     1     -33.965  14.940  -4.579  1.00 20.00    -0.016 A 
HETATM    7  C7  UNL     1     -34.427  16.225  -3.808  1.00 20.00    -0.016 A 
HETATM    8  C8  UNL     1     -32.715  14.193  -4.135  1.00 20.00     0.020 C 
HETATM    9  C9  UNL     1     -33.625  16.726  -2.614  1.00 20.00     0.020 C 
ENDROOT
TORSDOF 0
ENDMDL
