MODEL 1
REMARK VINA RESULT:      -5.9      0.000      0.000
REMARK  0 active torsions:
REMARK  status: ('A' for Active; 'I' for Inactive)
ROOT
HETATM    1  C1  UNL     1     -34.034   6.489   5.957  1.00 20.00     0.006 C 
HETATM    2  C2  UNL     1     -33.305   7.264   4.840  1.00 20.00     0.009 C 
HETATM    3  C3  UNL     1     -33.093   5.148   3.500  1.00 20.00     0.014 C 
HETATM    4  C4  UNL     1     -35.051   6.534   3.185  1.00 20.00     0.014 C 
HETATM    5  C5  UNL     1     -34.792   5.298   5.441  1.00 20.00    -0.006 A 
HETATM    6  C6  UNL     1     -34.225   4.532   4.276  1.00 20.00    -0.005 A 
HETATM    7  C7  UNL     1     -35.434   5.388   4.082  1.00 20.00    -0.005 A 
HETATM    8  C8  UNL     1     -33.522   6.639   3.439  1.00 20.00    -0.043 C 
HETATM    9  C9  UNL     1     -32.795   7.420   2.354  1.00 20.00     0.015 C 
ENDROOT
TORSDOF 0
ENDMDL
MODEL 2
REMARK VINA RESULT:      -5.6      0.554      2.031
REMARK  0 active torsions:
REMARK  status: ('A' for Active; 'I' for Inactive)
ROOT
HETATM    1  C1  UNL     1     -33.570   4.016   3.807  1.00 20.00     0.006 C 
HETATM    2  C2  UNL     1     -32.855   5.093   2.967  1.00 20.00     0.009 C 
HETATM    3  C3  UNL     1     -34.953   6.477   2.941  1.00 20.00     0.014 C 
HETATM    4  C4  UNL     1     -33.359   6.812   4.731  1.00 20.00     0.014 C 
HETATM    5  C5  UNL     1     -34.662   4.580   4.672  1.00 20.00    -0.006 A 
HETATM    6  C6  UNL     1     -35.460   5.747   4.154  1.00 20.00    -0.005 A 
HETATM    7  C7  UNL     1     -34.476   5.954   5.259  1.00 20.00    -0.005 A 
HETATM    8  C8  UNL     1     -33.423   6.514   3.207  1.00 20.00    -0.043 C 
HETATM    9  C9  UNL     1     -32.702   7.559   2.369  1.00 20.00     0.015 C 
ENDROOT
TORSDOF 0
ENDMDL
MODEL 3
REMARK VINA RESULT:      -5.2      0.823      2.847
REMARK  0 active torsions:
REMARK  status: ('A' for Active; 'I' for Inactive)
ROOT
HETATM    1  C1  UNL     1     -32.796   7.590   3.887  1.00 20.00     0.006 C 
HETATM    2  C2  UNL     1     -33.444   6.942   5.128  1.00 20.00     0.009 C 
HETATM    3  C3  UNL     1     -35.299   6.035   3.695  1.00 20.00     0.014 C 
HETATM    4  C4  UNL     1     -33.317   4.686   4.024  1.00 20.00     0.014 C 
HETATM    5  C5  UNL     1     -33.094   6.844   2.616  1.00 20.00    -0.006 A 
HETATM    6  C6  UNL     1     -34.436   6.176   2.471  1.00 20.00    -0.005 A 
HETATM    7  C7  UNL     1     -33.212   5.344   2.674  1.00 20.00    -0.005 A 
HETATM    8  C8  UNL     1     -34.254   5.667   4.782  1.00 20.00    -0.043 C 
HETATM    9  C9  UNL     1     -34.882   5.045   6.020  1.00 20.00     0.015 C 
ENDROOT
TORSDOF 0
ENDMDL
MODEL 4
REMARK VINA RESULT:      -4.6      0.841      3.025
REMARK  0 active torsions:
REMARK  status: ('A' for Active; 'I' for Inactive)
ROOT
HETATM    1  C1  UNL     1     -32.988   4.806   2.736  1.00 20.00     0.006 C 
HETATM    2  C2  UNL     1     -33.559   4.356   4.097  1.00 20.00     0.009 C 
HETATM    3  C3  UNL     1     -33.452   6.725   4.933  1.00 20.00     0.014 C 
HETATM    4  C4  UNL     1     -35.471   5.968   3.833  1.00 20.00     0.014 C 
HETATM    5  C5  UNL     1     -33.336   6.228   2.399  1.00 20.00    -0.006 A 
HETATM    6  C6  UNL     1     -33.426   7.233   3.517  1.00 20.00    -0.005 A 
HETATM    7  C7  UNL     1     -34.672   6.765   2.838  1.00 20.00    -0.005 A 
HETATM    8  C8  UNL     1     -34.364   5.474   4.806  1.00 20.00    -0.043 C 
HETATM    9  C9  UNL     1     -34.918   5.009   6.144  1.00 20.00     0.015 C 
ENDROOT
TORSDOF 0
ENDMDL
MODEL 5
REMARK VINA RESULT:      -4.2      0.924      2.348
REMARK  0 active torsions:
REMARK  status: ('A' for Active; 'I' for Inactive)
ROOT
HETATM    1  C1  UNL     1     -34.408   4.971   5.735  1.00 20.00     0.006 C 
HETATM    2  C2  UNL     1     -33.993   4.254   4.434  1.00 20.00     0.009 C 
HETATM    3  C3  UNL     1     -34.946   6.143   3.079  1.00 20.00     0.014 C 
HETATM    4  C4  UNL     1     -32.627   6.254   3.760  1.00 20.00     0.014 C 
HETATM    5  C5  UNL     1     -34.439   6.467   5.592  1.00 20.00    -0.006 A 
HETATM    6  C6  UNL     1     -34.859   7.056   4.271  1.00 20.00    -0.005 A 
HETATM    7  C7  UNL     1     -33.426   7.124   4.692  1.00 20.00    -0.005 A 
HETATM    8  C8  UNL     1     -33.699   5.239   3.275  1.00 20.00    -0.043 C 
HETATM    9  C9  UNL     1     -33.291   4.511   2.004  1.00 20.00     0.015 C 
ENDROOT
TORSDOF 0
ENDMDL
MODEL 6
REMARK VINA RESULT:      -4.1      0.634      1.968
REMARK  0 active torsions:
REMARK  status: ('A' for Active; 'I' for Inactive)
ROOT
HETATM    1  C1  UNL     1     -35.759   6.141   3.442  1.00 20.00     0.006 C 
HETATM    2  C2  UNL     1     -34.626   7.039   2.903  1.00 20.00     0.009 C 
HETATM    3  C3  UNL     1     -33.457   6.910   5.124  1.00 20.00     0.014 C 
HETATM    4  C4  UNL     1     -32.944   5.249   3.441  1.00 20.00     0.014 C 
HETATM    5  C5  UNL     1     -35.295   5.198   4.517  1.00 20.00    -0.006 A 
HETATM    6  C6  UNL     1     -34.219   5.659   5.464  1.00 20.00    -0.005 A 
HETATM    7  C7  UNL     1     -33.902   4.633   4.424  1.00 20.00    -0.005 A 
HETATM    8  C8  UNL     1     -33.266   6.762   3.590  1.00 20.00    -0.043 C 
HETATM    9  C9  UNL     1     -32.164   7.656   3.042  1.00 20.00     0.015 C 
ENDROOT
TORSDOF 0
ENDMDL
MODEL 7
REMARK VINA RESULT:      -3.9     11.912     13.126
REMARK  0 active torsions:
REMARK  status: ('A' for Active; 'I' for Inactive)
ROOT
HETATM    1  C1  UNL     1     -33.984  16.339  -6.050  1.00 20.00     0.006 C 
HETATM    2  C2  UNL     1     -35.497  16.147  -5.817  1.00 20.00     0.009 C 
HETATM    3  C3  UNL     1     -35.042  14.017  -4.563  1.00 20.00     0.014 C 
HETATM    4  C4  UNL     1     -35.115  16.099  -3.332  1.00 20.00     0.014 C 
HETATM    5  C5  UNL     1     -33.145  15.725  -4.964  1.00 20.00    -0.006 A 
HETATM    6  C6  UNL     1     -33.625  14.455  -4.313  1.00 20.00    -0.005 A 
HETATM    7  C7  UNL     1     -33.670  15.741  -3.553  1.00 20.00    -0.005 A 
HETATM    8  C8  UNL     1     -35.808  15.367  -4.515  1.00 20.00    -0.043 C 
HETATM    9  C9  UNL     1     -37.304  15.191  -4.306  1.00 20.00     0.015 C 
ENDROOT
TORSDOF 0
ENDMDL
MODEL 8
REMARK VINA RESULT:      -3.8      0.862      3.015
REMARK  0 active torsions:
REMARK  status: ('A' for Active; 'I' for Inactive)
ROOT
HETATM    1  C1  UNL     1     -35.184   6.534   2.421  1.00 20.00     0.006 C 
HETATM    2  C2  UNL     1     -35.562   5.936   3.792  1.00 20.00     0.009 C 
HETATM    3  C3  UNL     1     -33.401   4.653   3.837  1.00 20.00     0.014 C 
HETATM    4  C4  UNL     1     -33.454   6.877   4.790  1.00 20.00     0.014 C 
HETATM    5  C5  UNL     1     -33.698   6.652   2.226  1.00 20.00    -0.006 A 
HETATM    6  C6  UNL     1     -32.806   5.601   2.831  1.00 20.00    -0.005 A 
HETATM    7  C7  UNL     1     -32.839   6.974   3.420  1.00 20.00    -0.005 A 
HETATM    8  C8  UNL     1     -34.323   5.595   4.658  1.00 20.00    -0.043 C 
HETATM    9  C9  UNL     1     -34.719   5.009   6.004  1.00 20.00     0.015 C 
ENDROOT
TORSDOF 0
ENDMDL
MODEL 9
REMARK VINA RESULT:      -3.8      8.331      9.792
REMARK  0 active torsions:
REMARK  status: ('A' for Active; 'I' for Inactive)
ROOT
HETATM    1  C1  UNL     1     -40.694   6.543  -0.029  1.00 20.00     0.006 C 
HETATM    2  C2  UNL     1     -41.219   5.372  -0.885  1.00 20.00     0.009 C 
HETATM    3  C3  UNL     1     -43.138   5.057   0.708  1.00 20.00     0.014 C 
HETATM    4  C4  UNL     1     -43.417   6.558  -1.170  1.00 20.00     0.014 C 
HETATM    5  C5  UNL     1     -41.788   7.261   0.710  1.00 20.00    -0.006 A 
HETATM    6  C6  UNL     1     -42.964   6.464   1.211  1.00 20.00    -0.005 A 
HETATM    7  C7  UNL     1     -43.136   7.391   0.051  1.00 20.00    -0.005 A 
HETATM    8  C8  UNL     1     -42.756   5.204  -0.791  1.00 20.00    -0.043 C 
HETATM    9  C9  UNL     1     -43.251   4.045  -1.643  1.00 20.00     0.015 C 
ENDROOT
TORSDOF 0
ENDMDL
