MODEL 1
REMARK VINA RESULT:      -4.1      0.000      0.000
REMARK  1 active torsions:
REMARK  status: ('A' for Active; 'I' for Inactive)
REMARK    1  A    between atoms: C2_2  and  C3_3 
ROOT
HETATM    1  C1  UNL     1     -32.741   7.696   3.799  1.00 20.00     0.105 C 
HETATM    2  C2  UNL     1     -33.694   6.918   4.327  1.00 20.00     0.036 C 
HETATM    3 CL4  UNL     1     -32.295   7.726   2.146  1.00 20.00    -0.096 Cl
HETATM    4 CL5  UNL     1     -33.996   7.028   6.037  1.00 20.00    -0.087 Cl
ENDROOT
BRANCH   2   5
HETATM    5  C3  UNL     1     -34.524   5.902   3.607  1.00 20.00     0.166 C 
HETATM    6 CL6  UNL     1     -34.573   4.378   4.523  1.00 20.00    -0.125 Cl
ENDBRANCH   2   5
TORSDOF 1
ENDMDL
MODEL 2
REMARK VINA RESULT:      -3.8      1.399      1.970
REMARK  1 active torsions:
REMARK  status: ('A' for Active; 'I' for Inactive)
REMARK    1  A    between atoms: C2_2  and  C3_3 
ROOT
HETATM    1  C1  UNL     1     -32.798   7.426   2.937  1.00 20.00     0.105 C 
HETATM    2  C2  UNL     1     -33.689   6.937   3.806  1.00 20.00     0.036 C 
HETATM    3 CL4  UNL     1     -31.413   8.344   3.355  1.00 20.00    -0.096 Cl
HETATM    4 CL5  UNL     1     -35.039   6.032   3.185  1.00 20.00    -0.087 Cl
ENDROOT
BRANCH   2   5
HETATM    5  C3  UNL     1     -33.688   7.119   5.292  1.00 20.00     0.166 C 
HETATM    6 CL6  UNL     1     -34.501   5.751   6.087  1.00 20.00    -0.125 Cl
ENDBRANCH   2   5
TORSDOF 1
ENDMDL
MODEL 3
REMARK VINA RESULT:      -3.8      1.299      2.781
REMARK  1 active torsions:
REMARK  status: ('A' for Active; 'I' for Inactive)
REMARK    1  A    between atoms: C2_2  and  C3_3 
ROOT
HETATM    1  C1  UNL     1     -33.354   7.270   4.975  1.00 20.00     0.105 C 
HETATM    2  C2  UNL     1     -33.188   7.103   3.658  1.00 20.00     0.036 C 
HETATM    3 CL4  UNL     1     -34.404   6.344   5.961  1.00 20.00    -0.096 Cl
HETATM    4 CL5  UNL     1     -32.076   8.152   2.826  1.00 20.00    -0.087 Cl
ENDROOT
BRANCH   2   5
HETATM    5  C3  UNL     1     -33.899   6.122   2.780  1.00 20.00     0.166 C 
HETATM    6 CL6  UNL     1     -32.936   4.637   2.600  1.00 20.00    -0.125 Cl
ENDBRANCH   2   5
TORSDOF 1
ENDMDL
MODEL 4
REMARK VINA RESULT:      -3.8      0.656      2.543
REMARK  1 active torsions:
REMARK  status: ('A' for Active; 'I' for Inactive)
REMARK    1  A    between atoms: C2_2  and  C3_3 
ROOT
HETATM    1  C1  UNL     1     -33.258   7.435   4.829  1.00 20.00     0.105 C 
HETATM    2  C2  UNL     1     -33.617   6.807   3.703  1.00 20.00     0.036 C 
HETATM    3 CL4  UNL     1     -34.008   7.231   6.355  1.00 20.00    -0.096 Cl
HETATM    4 CL5  UNL     1     -32.733   7.154   2.245  1.00 20.00    -0.087 Cl
ENDROOT
BRANCH   2   5
HETATM    5  C3  UNL     1     -34.753   5.847   3.534  1.00 20.00     0.166 C 
HETATM    6 CL6  UNL     1     -34.412   4.325   4.392  1.00 20.00    -0.125 Cl
ENDBRANCH   2   5
TORSDOF 1
ENDMDL
MODEL 5
REMARK VINA RESULT:      -3.7      1.147      1.209
REMARK  1 active torsions:
REMARK  status: ('A' for Active; 'I' for Inactive)
REMARK    1  A    between atoms: C2_2  and  C3_3 
ROOT
HETATM    1  C1  UNL     1     -32.105   8.226   3.169  1.00 20.00     0.105 C 
HETATM    2  C2  UNL     1     -32.959   7.329   3.676  1.00 20.00     0.036 C 
HETATM    3 CL4  UNL     1     -31.681   8.360   1.515  1.00 20.00    -0.096 Cl
HETATM    4 CL5  UNL     1     -33.256   7.347   5.390  1.00 20.00    -0.087 Cl
ENDROOT
BRANCH   2   5
HETATM    5  C3  UNL     1     -33.676   6.249   2.927  1.00 20.00     0.166 C 
HETATM    6 CL6  UNL     1     -35.186   5.813   3.761  1.00 20.00    -0.125 Cl
ENDBRANCH   2   5
TORSDOF 1
ENDMDL
MODEL 6
REMARK VINA RESULT:      -3.7      0.910      3.154
REMARK  1 active torsions:
REMARK  status: ('A' for Active; 'I' for Inactive)
REMARK    1  A    between atoms: C2_2  and  C3_3 
ROOT
HETATM    1  C1  UNL     1     -33.350   5.202   3.209  1.00 20.00     0.105 C 
HETATM    2  C2  UNL     1     -33.454   6.529   3.344  1.00 20.00     0.036 C 
HETATM    3 CL4  UNL     1     -34.214   4.046   4.132  1.00 20.00    -0.096 Cl
HETATM    4 CL5  UNL     1     -32.484   7.542   2.315  1.00 20.00    -0.087 Cl
ENDROOT
BRANCH   2   5
HETATM    5  C3  UNL     1     -34.297   7.267   4.337  1.00 20.00     0.166 C 
HETATM    6 CL6  UNL     1     -33.510   7.282   5.932  1.00 20.00    -0.125 Cl
ENDBRANCH   2   5
TORSDOF 1
ENDMDL
MODEL 7
REMARK VINA RESULT:      -3.6      1.420      3.593
REMARK  1 active torsions:
REMARK  status: ('A' for Active; 'I' for Inactive)
REMARK    1  A    between atoms: C2_2  and  C3_3 
ROOT
HETATM    1  C1  UNL     1     -34.056   6.633   4.685  1.00 20.00     0.105 C 
HETATM    2  C2  UNL     1     -33.381   6.796   3.541  1.00 20.00     0.036 C 
HETATM    3 CL4  UNL     1     -33.737   7.468   6.146  1.00 20.00    -0.096 Cl
HETATM    4 CL5  UNL     1     -33.853   5.846   2.161  1.00 20.00    -0.087 Cl
ENDROOT
BRANCH   2   5
HETATM    5  C3  UNL     1     -32.204   7.692   3.312  1.00 20.00     0.166 C 
HETATM    6 CL6  UNL     1     -32.348   8.519   1.744  1.00 20.00    -0.125 Cl
ENDBRANCH   2   5
TORSDOF 1
ENDMDL
MODEL 8
REMARK VINA RESULT:      -3.6      1.181      3.077
REMARK  1 active torsions:
REMARK  status: ('A' for Active; 'I' for Inactive)
REMARK    1  A    between atoms: C2_2  and  C3_3 
ROOT
HETATM    1  C1  UNL     1     -34.107   6.045   5.709  1.00 20.00     0.105 C 
HETATM    2  C2  UNL     1     -34.188   5.574   4.459  1.00 20.00     0.036 C 
HETATM    3 CL4  UNL     1     -33.920   7.694   6.132  1.00 20.00    -0.096 Cl
HETATM    4 CL5  UNL     1     -34.370   3.858   4.233  1.00 20.00    -0.087 Cl
ENDROOT
BRANCH   2   5
HETATM    5  C3  UNL     1     -34.092   6.366   3.193  1.00 20.00     0.166 C 
HETATM    6 CL6  UNL     1     -32.467   7.071   3.023  1.00 20.00    -0.125 Cl
ENDBRANCH   2   5
TORSDOF 1
ENDMDL
MODEL 9
REMARK VINA RESULT:      -3.6      1.092      3.033
REMARK  1 active torsions:
REMARK  status: ('A' for Active; 'I' for Inactive)
REMARK    1  A    between atoms: C2_2  and  C3_3 
ROOT
HETATM    1  C1  UNL     1     -34.257   5.263   5.355  1.00 20.00     0.105 C 
HETATM    2  C2  UNL     1     -33.966   6.516   4.987  1.00 20.00     0.036 C 
HETATM    3 CL4  UNL     1     -34.427   3.935   4.286  1.00 20.00    -0.096 Cl
HETATM    4 CL5  UNL     1     -33.843   7.733   6.225  1.00 20.00    -0.087 Cl
ENDROOT
BRANCH   2   5
HETATM    5  C3  UNL     1     -33.773   7.020   3.591  1.00 20.00     0.166 C 
HETATM    6 CL6  UNL     1     -32.121   7.646   3.380  1.00 20.00    -0.125 Cl
ENDBRANCH   2   5
TORSDOF 1
ENDMDL
