MODEL 1
REMARK VINA RESULT:      -4.9      0.000      0.000
REMARK  1 active torsions:
REMARK  status: ('A' for Active; 'I' for Inactive)
REMARK    1  A    between atoms: C1_1  and  C4_4 
ROOT
HETATM    1  C1  UNL     1     -33.639   7.074   4.525  1.00 20.00     0.102 C 
HETATM    2  C2  UNL     1     -33.134   6.809   3.307  1.00 20.00    -0.015 C 
HETATM    3  C3  UNL     1     -33.247   5.494   2.589  1.00 20.00     0.055 C 
HETATM    4  I8  UNL     1     -32.096   8.310   2.284  1.00 20.00    -0.050 I 
ENDROOT
BRANCH   1   5
HETATM    5  C4  UNL     1     -34.399   6.117   5.377  1.00 20.00     0.408 C 
HETATM    6  F5  UNL     1     -33.669   5.017   5.690  1.00 20.00    -0.167 F 
HETATM    7  F6  UNL     1     -35.537   5.687   4.777  1.00 20.00    -0.167 F 
HETATM    8  F7  UNL     1     -34.770   6.686   6.553  1.00 20.00    -0.167 F 
ENDBRANCH   1   5
TORSDOF 1
ENDMDL
MODEL 2
REMARK VINA RESULT:      -4.9      1.192      2.010
REMARK  1 active torsions:
REMARK  status: ('A' for Active; 'I' for Inactive)
REMARK    1  A    between atoms: C1_1  and  C4_4 
ROOT
HETATM    1  C1  UNL     1     -33.676   5.852   3.564  1.00 20.00     0.102 C 
HETATM    2  C2  UNL     1     -33.218   7.055   3.955  1.00 20.00    -0.015 C 
HETATM    3  C3  UNL     1     -33.471   7.684   5.296  1.00 20.00     0.055 C 
HETATM    4  I8  UNL     1     -32.057   8.185   2.631  1.00 20.00    -0.050 I 
ENDROOT
BRANCH   1   5
HETATM    5  C4  UNL     1     -34.510   4.932   4.385  1.00 20.00     0.408 C 
HETATM    6  F5  UNL     1     -34.186   4.981   5.701  1.00 20.00    -0.167 F 
HETATM    7  F6  UNL     1     -34.390   3.639   3.990  1.00 20.00    -0.167 F 
HETATM    8  F7  UNL     1     -35.829   5.244   4.297  1.00 20.00    -0.167 F 
ENDBRANCH   1   5
TORSDOF 1
ENDMDL
MODEL 3
REMARK VINA RESULT:      -4.8      3.613      4.181
REMARK  1 active torsions:
REMARK  status: ('A' for Active; 'I' for Inactive)
REMARK    1  A    between atoms: C1_1  and  C4_4 
ROOT
HETATM    1  C1  UNL     1     -32.987   6.867   3.014  1.00 20.00     0.102 C 
HETATM    2  C2  UNL     1     -33.544   6.679   4.223  1.00 20.00    -0.015 C 
HETATM    3  C3  UNL     1     -33.484   7.654   5.366  1.00 20.00     0.055 C 
HETATM    4  I8  UNL     1     -34.588   4.906   4.602  1.00 20.00    -0.050 I 
ENDROOT
BRANCH   1   5
HETATM    5  C4  UNL     1     -32.216   8.069   2.590  1.00 20.00     0.408 C 
HETATM    6  F5  UNL     1     -31.265   8.414   3.494  1.00 20.00    -0.167 F 
HETATM    7  F6  UNL     1     -33.011   9.153   2.409  1.00 20.00    -0.167 F 
HETATM    8  F7  UNL     1     -31.573   7.857   1.412  1.00 20.00    -0.167 F 
ENDBRANCH   1   5
TORSDOF 1
ENDMDL
MODEL 4
REMARK VINA RESULT:      -4.7      4.785      5.358
REMARK  1 active torsions:
REMARK  status: ('A' for Active; 'I' for Inactive)
REMARK    1  A    between atoms: C1_1  and  C4_4 
ROOT
HETATM    1  C1  UNL     1     -33.116   8.458   1.444  1.00 20.00     0.102 C 
HETATM    2  C2  UNL     1     -32.696   7.866   2.576  1.00 20.00    -0.015 C 
HETATM    3  C3  UNL     1     -31.480   8.265   3.363  1.00 20.00     0.055 C 
HETATM    4  I8  UNL     1     -33.783   6.253   3.348  1.00 20.00    -0.050 I 
ENDROOT
BRANCH   1   5
HETATM    5  C4  UNL     1     -32.457   9.612   0.771  1.00 20.00     0.408 C 
HETATM    6  F5  UNL     1     -31.161   9.354   0.464  1.00 20.00    -0.167 F 
HETATM    7  F6  UNL     1     -32.473  10.732   1.537  1.00 20.00    -0.167 F 
HETATM    8  F7  UNL     1     -33.078   9.928  -0.395  1.00 20.00    -0.167 F 
ENDBRANCH   1   5
TORSDOF 1
ENDMDL
MODEL 5
REMARK VINA RESULT:      -4.6      1.745      2.441
REMARK  1 active torsions:
REMARK  status: ('A' for Active; 'I' for Inactive)
REMARK    1  A    between atoms: C1_1  and  C4_4 
ROOT
HETATM    1  C1  UNL     1     -33.640   7.261   2.443  1.00 20.00     0.102 C 
HETATM    2  C2  UNL     1     -32.587   8.097   2.433  1.00 20.00    -0.015 C 
HETATM    3  C3  UNL     1     -31.499   8.133   3.469  1.00 20.00     0.055 C 
HETATM    4  I8  UNL     1     -32.397   9.482   0.877  1.00 20.00    -0.050 I 
ENDROOT
BRANCH   1   5
HETATM    5  C4  UNL     1     -33.916   6.223   3.475  1.00 20.00     0.408 C 
HETATM    6  F5  UNL     1     -33.685   6.676   4.733  1.00 20.00    -0.167 F 
HETATM    7  F6  UNL     1     -33.157   5.112   3.303  1.00 20.00    -0.167 F 
HETATM    8  F7  UNL     1     -35.212   5.818   3.439  1.00 20.00    -0.167 F 
ENDBRANCH   1   5
TORSDOF 1
ENDMDL
MODEL 6
REMARK VINA RESULT:      -4.1      4.105      4.573
REMARK  1 active torsions:
REMARK  status: ('A' for Active; 'I' for Inactive)
REMARK    1  A    between atoms: C1_1  and  C4_4 
ROOT
HETATM    1  C1  UNL     1     -32.779   8.495   2.931  1.00 20.00     0.102 C 
HETATM    2  C2  UNL     1     -33.099   7.270   3.385  1.00 20.00    -0.015 C 
HETATM    3  C3  UNL     1     -33.054   6.007   2.573  1.00 20.00     0.055 C 
HETATM    4  I8  UNL     1     -33.718   7.046   5.371  1.00 20.00    -0.050 I 
ENDROOT
BRANCH   1   5
HETATM    5  C4  UNL     1     -32.323   8.819   1.551  1.00 20.00     0.408 C 
HETATM    6  F5  UNL     1     -33.222   8.436   0.610  1.00 20.00    -0.167 F 
HETATM    7  F6  UNL     1     -31.143   8.221   1.246  1.00 20.00    -0.167 F 
HETATM    8  F7  UNL     1     -32.135  10.154   1.390  1.00 20.00    -0.167 F 
ENDBRANCH   1   5
TORSDOF 1
ENDMDL
MODEL 7
REMARK VINA RESULT:      -3.3     12.022     12.702
REMARK  1 active torsions:
REMARK  status: ('A' for Active; 'I' for Inactive)
REMARK    1  A    between atoms: C1_1  and  C4_4 
ROOT
HETATM    1  C1  UNL     1     -33.568  16.017  -3.578  1.00 20.00     0.102 C 
HETATM    2  C2  UNL     1     -34.196  16.711  -2.612  1.00 20.00    -0.015 C 
HETATM    3  C3  UNL     1     -35.638  16.544  -2.224  1.00 20.00     0.055 C 
HETATM    4  I8  UNL     1     -33.131  18.152  -1.533  1.00 20.00    -0.050 I 
ENDROOT
BRANCH   1   5
HETATM    5  C4  UNL     1     -34.184  14.963  -4.431  1.00 20.00     0.408 C 
HETATM    6  F5  UNL     1     -35.314  15.395  -5.045  1.00 20.00    -0.167 F 
HETATM    7  F6  UNL     1     -34.511  13.854  -3.722  1.00 20.00    -0.167 F 
HETATM    8  F7  UNL     1     -33.337  14.560  -5.413  1.00 20.00    -0.167 F 
ENDBRANCH   1   5
TORSDOF 1
ENDMDL
MODEL 8
REMARK VINA RESULT:      -3.3     12.291     12.744
REMARK  1 active torsions:
REMARK  status: ('A' for Active; 'I' for Inactive)
REMARK    1  A    between atoms: C1_1  and  C4_4 
ROOT
HETATM    1  C1  UNL     1     -35.079  16.456  -2.202  1.00 20.00     0.102 C 
HETATM    2  C2  UNL     1     -34.461  17.305  -1.362  1.00 20.00    -0.015 C 
HETATM    3  C3  UNL     1     -33.078  17.861  -1.553  1.00 20.00     0.055 C 
HETATM    4  I8  UNL     1     -35.456  17.936   0.367  1.00 20.00    -0.050 I 
ENDROOT
BRANCH   1   5
HETATM    5  C4  UNL     1     -34.508  15.917  -3.467  1.00 20.00     0.408 C 
HETATM    6  F5  UNL     1     -33.227  15.495  -3.314  1.00 20.00    -0.167 F 
HETATM    7  F6  UNL     1     -34.512  16.836  -4.465  1.00 20.00    -0.167 F 
HETATM    8  F7  UNL     1     -35.217  14.850  -3.918  1.00 20.00    -0.167 F 
ENDBRANCH   1   5
TORSDOF 1
ENDMDL
MODEL 9
REMARK VINA RESULT:      -3.3     12.270     12.866
REMARK  1 active torsions:
REMARK  status: ('A' for Active; 'I' for Inactive)
REMARK    1  A    between atoms: C1_1  and  C4_4 
ROOT
HETATM    1  C1  UNL     1     -33.703  15.511  -3.387  1.00 20.00     0.102 C 
HETATM    2  C2  UNL     1     -34.739  16.368  -3.425  1.00 20.00    -0.015 C 
HETATM    3  C3  UNL     1     -35.501  16.751  -4.662  1.00 20.00     0.055 C 
HETATM    4  I8  UNL     1     -35.383  17.270  -1.651  1.00 20.00    -0.050 I 
ENDROOT
BRANCH   1   5
HETATM    5  C4  UNL     1     -33.128  14.791  -4.557  1.00 20.00     0.408 C 
HETATM    6  F5  UNL     1     -32.567  15.637  -5.457  1.00 20.00    -0.167 F 
HETATM    7  F6  UNL     1     -34.060  14.061  -5.219  1.00 20.00    -0.167 F 
HETATM    8  F7  UNL     1     -32.153  13.924  -4.177  1.00 20.00    -0.167 F 
ENDBRANCH   1   5
TORSDOF 1
ENDMDL
