MODEL 1
REMARK VINA RESULT:      -5.4      0.000      0.000
REMARK  0 active torsions:
REMARK  status: ('A' for Active; 'I' for Inactive)
ROOT
HETATM    1  C1  UNL     1     -34.104   4.660   3.973  1.00 20.00     0.006 C 
HETATM    2  C2  UNL     1     -33.117   4.939   2.835  1.00 20.00     0.011 C 
HETATM    3  C3  UNL     1     -34.127   7.114   4.947  1.00 20.00     0.010 C 
HETATM    4  C4  UNL     1     -32.746   7.547   4.470  1.00 20.00     0.069 C 
HETATM    5  C5  UNL     1     -32.615   9.482   1.780  1.00 20.00     0.197 C 
HETATM    6  C6  UNL     1     -31.704   8.418   1.232  1.00 20.00     0.197 C 
HETATM    7  C7  UNL     1     -34.611   6.113   3.897  1.00 20.00    -0.005 C 
HETATM    8  C8  UNL     1     -33.745   6.340   2.636  1.00 20.00     0.052 C 
HETATM    9  C9  UNL     1     -32.888   7.564   2.951  1.00 20.00     0.168 C 
HETATM   10  O10 UNL     1     -33.583   8.746   2.525  1.00 20.00    -0.353 OA
HETATM   11  O11 UNL     1     -31.616   7.481   2.305  1.00 20.00    -0.353 OA
ENDROOT
TORSDOF 0
ENDMDL
MODEL 2
REMARK VINA RESULT:      -4.4     10.478     11.760
REMARK  0 active torsions:
REMARK  status: ('A' for Active; 'I' for Inactive)
ROOT
HETATM    1  C1  UNL     1     -34.043  16.638  -2.350  1.00 20.00     0.006 C 
HETATM    2  C2  UNL     1     -35.549  16.474  -2.583  1.00 20.00     0.011 C 
HETATM    3  C3  UNL     1     -33.275  14.883  -4.168  1.00 20.00     0.010 C 
HETATM    4  C4  UNL     1     -34.527  14.013  -4.168  1.00 20.00     0.069 C 
HETATM    5  C5  UNL     1     -36.667  14.449  -6.664  1.00 20.00     0.197 C 
HETATM    6  C6  UNL     1     -37.675  14.682  -5.572  1.00 20.00     0.197 C 
HETATM    7  C7  UNL     1     -33.772  16.289  -3.827  1.00 20.00    -0.005 C 
HETATM    8  C8  UNL     1     -35.294  16.299  -4.100  1.00 20.00     0.052 C 
HETATM    9  C9  UNL     1     -35.600  14.942  -4.729  1.00 20.00     0.168 C 
HETATM   10  O10 UNL     1     -35.477  15.047  -6.156  1.00 20.00    -0.353 OA
HETATM   11  O11 UNL     1     -36.912  14.497  -4.380  1.00 20.00    -0.353 OA
ENDROOT
TORSDOF 0
ENDMDL
MODEL 3
REMARK VINA RESULT:      -4.3     11.019     11.790
REMARK  0 active torsions:
REMARK  status: ('A' for Active; 'I' for Inactive)
ROOT
HETATM    1  C1  UNL     1     -34.120  18.310  -0.962  1.00 20.00     0.006 C 
HETATM    2  C2  UNL     1     -33.046  18.041  -2.022  1.00 20.00     0.011 C 
HETATM    3  C3  UNL     1     -36.104  17.145  -2.259  1.00 20.00     0.010 C 
HETATM    4  C4  UNL     1     -35.568  17.322  -3.675  1.00 20.00     0.069 C 
HETATM    5  C5  UNL     1     -34.159  14.679  -5.097  1.00 20.00     0.197 C 
HETATM    6  C6  UNL     1     -32.974  15.587  -5.283  1.00 20.00     0.197 C 
HETATM    7  C7  UNL     1     -34.859  17.023  -1.378  1.00 20.00    -0.005 C 
HETATM    8  C8  UNL     1     -33.685  16.663  -2.318  1.00 20.00     0.052 C 
HETATM    9  C9  UNL     1     -34.320  16.445  -3.690  1.00 20.00     0.168 C 
HETATM   10  O10 UNL     1     -34.680  15.062  -3.826  1.00 20.00    -0.353 OA
HETATM   11  O11 UNL     1     -33.426  16.825  -4.737  1.00 20.00    -0.353 OA
ENDROOT
TORSDOF 0
ENDMDL
MODEL 4
REMARK VINA RESULT:      -4.2     10.681     11.816
REMARK  0 active torsions:
REMARK  status: ('A' for Active; 'I' for Inactive)
ROOT
HETATM    1  C1  UNL     1     -35.934  16.384  -3.068  1.00 20.00     0.006 C 
HETATM    2  C2  UNL     1     -36.663  15.381  -3.968  1.00 20.00     0.011 C 
HETATM    3  C3  UNL     1     -33.495  15.790  -3.888  1.00 20.00     0.010 C 
HETATM    4  C4  UNL     1     -33.760  14.354  -4.326  1.00 20.00     0.069 C 
HETATM    5  C5  UNL     1     -34.113  13.810  -7.578  1.00 20.00     0.197 C 
HETATM    6  C6  UNL     1     -35.431  13.197  -7.189  1.00 20.00     0.197 C 
HETATM    7  C7  UNL     1     -34.817  16.523  -4.120  1.00 20.00    -0.005 C 
HETATM    8  C8  UNL     1     -35.641  15.653  -5.098  1.00 20.00     0.052 C 
HETATM    9  C9  UNL     1     -34.707  14.518  -5.511  1.00 20.00     0.168 C 
HETATM   10  O10 UNL     1     -33.978  14.913  -6.684  1.00 20.00    -0.353 OA
HETATM   11  O11 UNL     1     -35.438  13.318  -5.767  1.00 20.00    -0.353 OA
ENDROOT
TORSDOF 0
ENDMDL
MODEL 5
REMARK VINA RESULT:      -4.2     11.008     12.110
REMARK  0 active torsions:
REMARK  status: ('A' for Active; 'I' for Inactive)
ROOT
HETATM    1  C1  UNL     1     -33.692  16.893  -3.588  1.00 20.00     0.006 C 
HETATM    2  C2  UNL     1     -33.190  16.677  -5.020  1.00 20.00     0.011 C 
HETATM    3  C3  UNL     1     -35.853  15.390  -3.809  1.00 20.00     0.010 C 
HETATM    4  C4  UNL     1     -36.052  15.521  -5.315  1.00 20.00     0.069 C 
HETATM    5  C5  UNL     1     -35.071  12.970  -7.193  1.00 20.00     0.197 C 
HETATM    6  C6  UNL     1     -34.248  14.001  -7.916  1.00 20.00     0.197 C 
HETATM    7  C7  UNL     1     -34.341  15.495  -3.600  1.00 20.00    -0.005 C 
HETATM    8  C8  UNL     1     -33.684  15.211  -4.971  1.00 20.00     0.052 C 
HETATM    9  C9  UNL     1     -34.833  14.808  -5.893  1.00 20.00     0.168 C 
HETATM   10  O10 UNL     1     -35.008  13.384  -5.830  1.00 20.00    -0.353 OA
HETATM   11  O11 UNL     1     -34.579  15.213  -7.239  1.00 20.00    -0.353 OA
ENDROOT
TORSDOF 0
ENDMDL
MODEL 6
REMARK VINA RESULT:      -4.2     10.747     11.631
REMARK  0 active torsions:
REMARK  status: ('A' for Active; 'I' for Inactive)
ROOT
HETATM    1  C1  UNL     1     -35.078  13.801  -6.111  1.00 20.00     0.006 C 
HETATM    2  C2  UNL     1     -35.941  14.116  -4.885  1.00 20.00     0.011 C 
HETATM    3  C3  UNL     1     -33.463  15.877  -5.870  1.00 20.00     0.010 C 
HETATM    4  C4  UNL     1     -34.417  16.805  -5.127  1.00 20.00     0.069 C 
HETATM    5  C5  UNL     1     -33.980  17.110  -1.854  1.00 20.00     0.197 C 
HETATM    6  C6  UNL     1     -35.424  16.696  -1.765  1.00 20.00     0.197 C 
HETATM    7  C7  UNL     1     -33.864  14.467  -5.433  1.00 20.00    -0.005 C 
HETATM    8  C8  UNL     1     -34.687  14.623  -4.133  1.00 20.00     0.052 C 
HETATM    9  C9  UNL     1     -34.609  16.107  -3.783  1.00 20.00     0.168 C 
HETATM   10  O10 UNL     1     -33.473  16.330  -2.935  1.00 20.00    -0.353 OA
HETATM   11  O11 UNL     1     -35.803  16.545  -3.132  1.00 20.00    -0.353 OA
ENDROOT
TORSDOF 0
ENDMDL
MODEL 7
REMARK VINA RESULT:      -4.1     10.384     11.758
REMARK  0 active torsions:
REMARK  status: ('A' for Active; 'I' for Inactive)
ROOT
HETATM    1  C1  UNL     1     -34.243  14.726  -7.277  1.00 20.00     0.006 C 
HETATM    2  C2  UNL     1     -33.410  15.684  -6.420  1.00 20.00     0.011 C 
HETATM    3  C3  UNL     1     -35.673  13.731  -5.293  1.00 20.00     0.010 C 
HETATM    4  C4  UNL     1     -34.673  13.970  -4.167  1.00 20.00     0.069 C 
HETATM    5  C5  UNL     1     -35.225  16.572  -2.187  1.00 20.00     0.197 C 
HETATM    6  C6  UNL     1     -33.830  16.982  -2.572  1.00 20.00     0.197 C 
HETATM    7  C7  UNL     1     -35.420  14.861  -6.292  1.00 20.00    -0.005 C 
HETATM    8  C8  UNL     1     -34.645  15.961  -5.530  1.00 20.00     0.052 C 
HETATM    9  C9  UNL     1     -34.604  15.491  -4.077  1.00 20.00     0.168 C 
HETATM   10  O10 UNL     1     -35.752  16.006  -3.385  1.00 20.00    -0.353 OA
HETATM   11  O11 UNL     1     -33.406  15.923  -3.430  1.00 20.00    -0.353 OA
ENDROOT
TORSDOF 0
ENDMDL
MODEL 8
REMARK VINA RESULT:      -4.1     10.426     11.690
REMARK  0 active torsions:
REMARK  status: ('A' for Active; 'I' for Inactive)
ROOT
HETATM    1  C1  UNL     1     -35.601  13.863  -4.983  1.00 20.00     0.006 C 
HETATM    2  C2  UNL     1     -36.203  15.247  -4.715  1.00 20.00     0.011 C 
HETATM    3  C3  UNL     1     -33.086  14.558  -4.580  1.00 20.00     0.010 C 
HETATM    4  C4  UNL     1     -33.213  16.036  -4.930  1.00 20.00     0.069 C 
HETATM    5  C5  UNL     1     -33.363  18.178  -2.403  1.00 20.00     0.197 C 
HETATM    6  C6  UNL     1     -34.644  18.632  -3.048  1.00 20.00     0.197 C 
HETATM    7  C7  UNL     1     -34.449  14.170  -4.006  1.00 20.00    -0.005 C 
HETATM    8  C8  UNL     1     -35.152  15.487  -3.604  1.00 20.00     0.052 C 
HETATM    9  C9  UNL     1     -34.111  16.583  -3.825  1.00 20.00     0.168 C 
HETATM   10  O10 UNL     1     -33.361  16.767  -2.614  1.00 20.00    -0.353 OA
HETATM   11  O11 UNL     1     -34.730  17.810  -4.212  1.00 20.00    -0.353 OA
ENDROOT
TORSDOF 0
ENDMDL
MODEL 9
REMARK VINA RESULT:      -4.1     10.524     12.305
REMARK  0 active torsions:
REMARK  status: ('A' for Active; 'I' for Inactive)
ROOT
HETATM    1  C1  UNL     1     -33.053  14.578  -4.666  1.00 20.00     0.006 C 
HETATM    2  C2  UNL     1     -34.375  14.252  -3.963  1.00 20.00     0.011 C 
HETATM    3  C3  UNL     1     -34.061  14.781  -7.098  1.00 20.00     0.010 C 
HETATM    4  C4  UNL     1     -35.269  13.870  -6.906  1.00 20.00     0.069 C 
HETATM    5  C5  UNL     1     -38.206  15.337  -6.441  1.00 20.00     0.197 C 
HETATM    6  C6  UNL     1     -38.261  14.512  -5.185  1.00 20.00     0.197 C 
HETATM    7  C7  UNL     1     -33.814  15.402  -5.723  1.00 20.00    -0.005 C 
HETATM    8  C8  UNL     1     -35.118  15.221  -4.913  1.00 20.00     0.052 C 
HETATM    9  C9  UNL     1     -36.125  14.630  -5.898  1.00 20.00     0.168 C 
HETATM   10  O10 UNL     1     -36.831  15.701  -6.545  1.00 20.00    -0.353 OA
HETATM   11  O11 UNL     1     -37.046  13.764  -5.235  1.00 20.00    -0.353 OA
ENDROOT
TORSDOF 0
ENDMDL
