MODEL 1
REMARK VINA RESULT:      -8.2      0.000      0.000
REMARK  0 active torsions:
REMARK  status: ('A' for Active; 'I' for Inactive)
ROOT
HETATM    1  C1  UNL     1     -33.741   7.226   5.906  1.00 20.00    -0.018 C 
HETATM    2  C2  UNL     1     -33.084   5.420   2.551  1.00 20.00    -0.018 C 
HETATM    3  C3  UNL     1     -34.588   6.257   5.468  1.00 20.00    -0.078 C 
HETATM    4  C4  UNL     1     -32.911   6.752   2.648  1.00 20.00    -0.078 C 
HETATM    5  C5  UNL     1     -34.614   4.832   5.915  1.00 20.00     0.035 C 
HETATM    6  C6  UNL     1     -31.719   7.682   2.629  1.00 20.00     0.035 C 
HETATM    7  C7  UNL     1     -33.941   4.126   4.700  1.00 20.00     0.013 C 
HETATM    8  C8  UNL     1     -31.912   8.456   4.013  1.00 20.00     0.013 C 
HETATM    9  C9  UNL     1     -32.872   7.501   4.719  1.00 20.00     0.017 C 
HETATM   10  C10 UNL     1     -34.263   4.947   3.421  1.00 20.00     0.017 C 
HETATM   11  C11 UNL     1     -34.826   6.252   3.987  1.00 20.00     0.030 C 
HETATM   12  C12 UNL     1     -33.881   7.325   3.587  1.00 20.00     0.030 C 
ENDROOT
TORSDOF 0
ENDMDL
MODEL 2
REMARK VINA RESULT:      -7.6      0.381      3.845
REMARK  0 active torsions:
REMARK  status: ('A' for Active; 'I' for Inactive)
ROOT
HETATM    1  C1  UNL     1     -33.122   5.544   2.344  1.00 20.00    -0.018 C 
HETATM    2  C2  UNL     1     -33.621   7.231   5.787  1.00 20.00    -0.018 C 
HETATM    3  C3  UNL     1     -33.074   6.898   2.461  1.00 20.00    -0.078 C 
HETATM    4  C4  UNL     1     -34.401   6.196   5.420  1.00 20.00    -0.078 C 
HETATM    5  C5  UNL     1     -31.843   7.740   2.534  1.00 20.00     0.035 C 
HETATM    6  C6  UNL     1     -34.551   4.758   5.861  1.00 20.00     0.035 C 
HETATM    7  C7  UNL     1     -31.807   8.085   4.053  1.00 20.00     0.013 C 
HETATM    8  C8  UNL     1     -34.333   3.989   4.479  1.00 20.00     0.013 C 
HETATM    9  C9  UNL     1     -33.657   5.092   3.666  1.00 20.00     0.017 C 
HETATM   10  C10 UNL     1     -33.268   8.118   4.579  1.00 20.00     0.017 C 
HETATM   11  C11 UNL     1     -34.056   7.480   3.434  1.00 20.00     0.030 C 
HETATM   12  C12 UNL     1     -34.636   6.223   3.972  1.00 20.00     0.030 C 
ENDROOT
TORSDOF 0
ENDMDL
MODEL 3
REMARK VINA RESULT:      -6.7      0.864      1.911
REMARK  0 active torsions:
REMARK  status: ('A' for Active; 'I' for Inactive)
ROOT
HETATM    1  C1  UNL     1     -34.560   5.189   5.761  1.00 20.00    -0.018 C 
HETATM    2  C2  UNL     1     -32.619   6.904   2.891  1.00 20.00    -0.018 C 
HETATM    3  C3  UNL     1     -34.728   4.779   4.475  1.00 20.00    -0.078 C 
HETATM    4  C4  UNL     1     -33.161   7.642   3.878  1.00 20.00    -0.078 C 
HETATM    5  C5  UNL     1     -34.089   3.593   3.830  1.00 20.00     0.035 C 
HETATM    6  C6  UNL     1     -32.616   8.462   5.025  1.00 20.00     0.035 C 
HETATM    7  C7  UNL     1     -32.990   4.280   2.966  1.00 20.00     0.013 C 
HETATM    8  C8  UNL     1     -33.365   7.789   6.265  1.00 20.00     0.013 C 
HETATM    9  C9  UNL     1     -33.796   6.468   5.630  1.00 20.00     0.017 C 
HETATM   10  C10 UNL     1     -33.503   5.688   2.556  1.00 20.00     0.017 C 
HETATM   11  C11 UNL     1     -34.722   5.882   3.458  1.00 20.00     0.030 C 
HETATM   12  C12 UNL     1     -34.408   7.029   4.348  1.00 20.00     0.030 C 
ENDROOT
TORSDOF 0
ENDMDL
MODEL 4
REMARK VINA RESULT:      -6.1      0.772      3.293
REMARK  0 active torsions:
REMARK  status: ('A' for Active; 'I' for Inactive)
ROOT
HETATM    1  C1  UNL     1     -32.667   7.011   2.865  1.00 20.00    -0.018 C 
HETATM    2  C2  UNL     1     -34.462   4.968   5.612  1.00 20.00    -0.018 C 
HETATM    3  C3  UNL     1     -33.429   7.637   3.801  1.00 20.00    -0.078 C 
HETATM    4  C4  UNL     1     -34.445   4.525   4.341  1.00 20.00    -0.078 C 
HETATM    5  C5  UNL     1     -32.936   8.334   5.026  1.00 20.00     0.035 C 
HETATM    6  C6  UNL     1     -33.783   3.375   3.615  1.00 20.00     0.035 C 
HETATM    7  C7  UNL     1     -33.290   7.289   6.127  1.00 20.00     0.013 C 
HETATM    8  C8  UNL     1     -32.994   4.152   2.465  1.00 20.00     0.013 C 
HETATM    9  C9  UNL     1     -32.994   5.563   3.050  1.00 20.00     0.017 C 
HETATM   10  C10 UNL     1     -34.548   6.505   5.665  1.00 20.00     0.017 C 
HETATM   11  C11 UNL     1     -34.674   6.899   4.193  1.00 20.00     0.030 C 
HETATM   12  C12 UNL     1     -34.476   5.655   3.406  1.00 20.00     0.030 C 
ENDROOT
TORSDOF 0
ENDMDL
MODEL 5
REMARK VINA RESULT:      -5.2     11.981     12.725
REMARK  0 active torsions:
REMARK  status: ('A' for Active; 'I' for Inactive)
ROOT
HETATM    1  C1  UNL     1     -35.688  17.678   0.884  1.00 20.00    -0.018 C 
HETATM    2  C2  UNL     1     -32.131  18.446  -0.422  1.00 20.00    -0.018 C 
HETATM    3  C3  UNL     1     -35.482  17.957  -0.431  1.00 20.00    -0.078 C 
HETATM    4  C4  UNL     1     -32.549  18.963   0.749  1.00 20.00    -0.078 C 
HETATM    5  C5  UNL     1     -35.380  16.967  -1.544  1.00 20.00     0.035 C 
HETATM    6  C6  UNL     1     -32.201  18.742   2.204  1.00 20.00     0.035 C 
HETATM    7  C7  UNL     1     -33.842  16.960  -1.796  1.00 20.00     0.013 C 
HETATM    8  C8  UNL     1     -33.636  18.394   2.812  1.00 20.00     0.013 C 
HETATM    9  C9  UNL     1     -34.388  18.038   1.531  1.00 20.00     0.017 C 
HETATM   10  C10 UNL     1     -33.285  18.365  -1.438  1.00 20.00     0.017 C 
HETATM   11  C11 UNL     1     -34.452  19.015  -0.695  1.00 20.00     0.030 C 
HETATM   12  C12 UNL     1     -33.986  19.251   0.695  1.00 20.00     0.030 C 
ENDROOT
TORSDOF 0
ENDMDL
