MODEL 1
REMARK VINA RESULT:      -6.3      0.000      0.000
REMARK  1 active torsions:
REMARK  status: ('A' for Active; 'I' for Inactive)
REMARK    1  A    between atoms: C5_5  and  O10_10 
ROOT
HETATM    1  C1  UNL     1     -32.888   7.962   5.036  1.00 20.00     0.001 C 
HETATM    2  C2  UNL     1     -33.907   7.184   5.429  1.00 20.00    -0.018 C 
HETATM    3  C3  UNL     1     -32.993   6.971   2.718  1.00 20.00     0.046 C 
HETATM    4  C4  UNL     1     -35.275   6.079   3.563  1.00 20.00     0.024 A 
HETATM    5  C5  UNL     1     -32.126   7.663   3.780  1.00 20.00     0.141 C 
HETATM    6  C6  UNL     1     -34.324   5.948   4.728  1.00 20.00    -0.018 A 
HETATM    7  C7  UNL     1     -33.808   5.815   3.282  1.00 20.00    -0.030 A 
HETATM    8  C8  UNL     1     -34.447   4.729   5.607  1.00 20.00     0.020 C 
HETATM    9  C9  UNL     1     -33.421   4.466   2.736  1.00 20.00     0.016 C 
ENDROOT
BRANCH   5  10
HETATM   10  O10 UNL     1     -31.646   8.894   3.241  1.00 20.00    -0.392 OA
HETATM   11  H24 UNL     1     -30.745   8.724   2.926  1.00 20.00     0.210 HD
ENDBRANCH   5  10
TORSDOF 1
ENDMDL
MODEL 2
REMARK VINA RESULT:      -5.2      2.206      3.784
REMARK  1 active torsions:
REMARK  status: ('A' for Active; 'I' for Inactive)
REMARK    1  A    between atoms: C5_5  and  O10_10 
ROOT
HETATM    1  C1  UNL     1     -33.182   4.869   2.871  1.00 20.00     0.001 C 
HETATM    2  C2  UNL     1     -32.856   6.124   2.529  1.00 20.00    -0.018 C 
HETATM    3  C3  UNL     1     -34.524   5.726   4.829  1.00 20.00     0.046 C 
HETATM    4  C4  UNL     1     -34.251   7.990   3.598  1.00 20.00     0.024 A 
HETATM    5  C5  UNL     1     -33.730   4.555   4.232  1.00 20.00     0.141 C 
HETATM    6  C6  UNL     1     -32.928   7.280   3.452  1.00 20.00    -0.018 A 
HETATM    7  C7  UNL     1     -33.798   7.058   4.705  1.00 20.00    -0.030 A 
HETATM    8  C8  UNL     1     -31.669   8.106   3.537  1.00 20.00     0.020 C 
HETATM    9  C9  UNL     1     -33.396   7.664   6.024  1.00 20.00     0.016 C 
ENDROOT
BRANCH   5  10
HETATM   10  O10 UNL     1     -34.598   3.429   4.118  1.00 20.00    -0.392 OA
HETATM   11  H24 UNL     1     -35.498   3.760   4.258  1.00 20.00     0.210 HD
ENDBRANCH   5  10
TORSDOF 1
ENDMDL
MODEL 3
REMARK VINA RESULT:      -5.2      1.789      2.880
REMARK  1 active torsions:
REMARK  status: ('A' for Active; 'I' for Inactive)
REMARK    1  A    between atoms: C5_5  and  O10_10 
ROOT
HETATM    1  C1  UNL     1     -34.470   5.272   5.572  1.00 20.00     0.001 C 
HETATM    2  C2  UNL     1     -34.471   4.713   4.353  1.00 20.00    -0.018 C 
HETATM    3  C3  UNL     1     -33.849   7.505   4.575  1.00 20.00     0.046 C 
HETATM    4  C4  UNL     1     -34.521   6.331   2.365  1.00 20.00     0.024 A 
HETATM    5  C5  UNL     1     -33.816   6.599   5.815  1.00 20.00     0.141 C 
HETATM    6  C6  UNL     1     -33.784   5.292   3.175  1.00 20.00    -0.018 A 
HETATM    7  C7  UNL     1     -33.421   6.784   3.304  1.00 20.00    -0.030 A 
HETATM    8  C8  UNL     1     -32.867   4.346   2.444  1.00 20.00     0.020 C 
HETATM    9  C9  UNL     1     -32.144   7.308   2.702  1.00 20.00     0.016 C 
ENDROOT
BRANCH   5  10
HETATM   10  O10 UNL     1     -34.509   7.255   6.874  1.00 20.00    -0.392 OA
HETATM   11  H24 UNL     1     -34.120   8.139   6.953  1.00 20.00     0.210 HD
ENDBRANCH   5  10
TORSDOF 1
ENDMDL
MODEL 4
REMARK VINA RESULT:      -4.5     11.533     12.754
REMARK  1 active torsions:
REMARK  status: ('A' for Active; 'I' for Inactive)
REMARK    1  A    between atoms: C5_5  and  O10_10 
ROOT
HETATM    1  C1  UNL     1     -37.090  14.591  -4.750  1.00 20.00     0.001 C 
HETATM    2  C2  UNL     1     -37.169  15.775  -4.126  1.00 20.00    -0.018 C 
HETATM    3  C3  UNL     1     -34.660  14.384  -4.103  1.00 20.00     0.046 C 
HETATM    4  C4  UNL     1     -35.265  16.330  -2.501  1.00 20.00     0.024 A 
HETATM    5  C5  UNL     1     -35.762  13.984  -5.094  1.00 20.00     0.141 C 
HETATM    6  C6  UNL     1     -35.996  16.615  -3.790  1.00 20.00    -0.018 A 
HETATM    7  C7  UNL     1     -34.643  15.878  -3.808  1.00 20.00    -0.030 A 
HETATM    8  C8  UNL     1     -36.088  18.048  -4.248  1.00 20.00     0.020 C 
HETATM    9  C9  UNL     1     -33.401  16.584  -4.285  1.00 20.00     0.016 C 
ENDROOT
BRANCH   5  10
HETATM   10  O10 UNL     1     -35.898  12.565  -5.073  1.00 20.00    -0.392 OA
HETATM   11  H24 UNL     1     -35.012  12.201  -5.225  1.00 20.00     0.210 HD
ENDBRANCH   5  10
TORSDOF 1
ENDMDL
MODEL 5
REMARK VINA RESULT:      -4.4     11.987     13.414
REMARK  1 active torsions:
REMARK  status: ('A' for Active; 'I' for Inactive)
REMARK    1  A    between atoms: C5_5  and  O10_10 
ROOT
HETATM    1  C1  UNL     1     -34.321  14.132  -4.128  1.00 20.00     0.001 C 
HETATM    2  C2  UNL     1     -33.476  15.148  -4.357  1.00 20.00    -0.018 C 
HETATM    3  C3  UNL     1     -35.559  14.650  -6.265  1.00 20.00     0.046 C 
HETATM    4  C4  UNL     1     -33.463  16.100  -6.736  1.00 20.00     0.024 A 
HETATM    5  C5  UNL     1     -35.625  14.030  -4.862  1.00 20.00     0.141 C 
HETATM    6  C6  UNL     1     -33.765  16.278  -5.269  1.00 20.00    -0.018 A 
HETATM    7  C7  UNL     1     -34.905  16.025  -6.274  1.00 20.00    -0.030 A 
HETATM    8  C8  UNL     1     -33.570  17.647  -4.668  1.00 20.00     0.020 C 
HETATM    9  C9  UNL     1     -35.835  17.144  -6.664  1.00 20.00     0.016 C 
ENDROOT
BRANCH   5  10
HETATM   10  O10 UNL     1     -35.963  12.651  -4.991  1.00 20.00    -0.392 OA
HETATM   11  H24 UNL     1     -36.913  12.582  -4.812  1.00 20.00     0.210 HD
ENDBRANCH   5  10
TORSDOF 1
ENDMDL
MODEL 6
REMARK VINA RESULT:      -4.2      2.150      3.253
REMARK  1 active torsions:
REMARK  status: ('A' for Active; 'I' for Inactive)
REMARK    1  A    between atoms: C5_5  and  O10_10 
ROOT
HETATM    1  C1  UNL     1     -33.851   6.893   5.643  1.00 20.00     0.001 C 
HETATM    2  C2  UNL     1     -33.026   7.522   4.793  1.00 20.00    -0.018 C 
HETATM    3  C3  UNL     1     -34.310   5.111   3.917  1.00 20.00     0.046 C 
HETATM    4  C4  UNL     1     -32.248   6.170   2.759  1.00 20.00     0.024 A 
HETATM    5  C5  UNL     1     -34.822   5.858   5.157  1.00 20.00     0.141 C 
HETATM    6  C6  UNL     1     -33.039   7.323   3.325  1.00 20.00    -0.018 A 
HETATM    7  C7  UNL     1     -33.756   6.045   2.850  1.00 20.00    -0.030 A 
HETATM    8  C8  UNL     1     -33.123   8.590   2.512  1.00 20.00     0.020 C 
HETATM    9  C9  UNL     1     -34.548   6.052   1.569  1.00 20.00     0.016 C 
ENDROOT
BRANCH   5  10
HETATM   10  O10 UNL     1     -35.032   4.912   6.203  1.00 20.00    -0.392 OA
HETATM   11  H24 UNL     1     -34.828   4.040   5.830  1.00 20.00     0.210 HD
ENDBRANCH   5  10
TORSDOF 1
ENDMDL
MODEL 7
REMARK VINA RESULT:      -4.2     11.579     12.789
REMARK  1 active torsions:
REMARK  status: ('A' for Active; 'I' for Inactive)
REMARK    1  A    between atoms: C5_5  and  O10_10 
ROOT
HETATM    1  C1  UNL     1     -37.127  15.481  -4.163  1.00 20.00     0.001 C 
HETATM    2  C2  UNL     1     -35.897  15.848  -3.775  1.00 20.00    -0.018 C 
HETATM    3  C3  UNL     1     -36.156  13.613  -5.554  1.00 20.00     0.046 C 
HETATM    4  C4  UNL     1     -34.024  14.146  -4.179  1.00 20.00     0.024 A 
HETATM    5  C5  UNL     1     -37.328  14.582  -5.347  1.00 20.00     0.141 C 
HETATM    6  C6  UNL     1     -34.655  15.480  -4.493  1.00 20.00    -0.018 A 
HETATM    7  C7  UNL     1     -34.799  14.299  -5.474  1.00 20.00    -0.030 A 
HETATM    8  C8  UNL     1     -33.743  16.634  -4.821  1.00 20.00     0.020 C 
HETATM    9  C9  UNL     1     -34.029  14.291  -6.768  1.00 20.00     0.016 C 
ENDROOT
BRANCH   5  10
HETATM   10  O10 UNL     1     -38.515  13.820  -5.136  1.00 20.00    -0.392 OA
HETATM   11  H24 UNL     1     -38.262  12.888  -5.215  1.00 20.00     0.210 HD
ENDBRANCH   5  10
TORSDOF 1
ENDMDL
MODEL 8
REMARK VINA RESULT:      -4.1     11.509     12.626
REMARK  1 active torsions:
REMARK  status: ('A' for Active; 'I' for Inactive)
REMARK    1  A    between atoms: C5_5  and  O10_10 
ROOT
HETATM    1  C1  UNL     1     -33.755  14.096  -4.456  1.00 20.00     0.001 C 
HETATM    2  C2  UNL     1     -33.225  15.276  -4.104  1.00 20.00    -0.018 C 
HETATM    3  C3  UNL     1     -36.016  15.175  -4.756  1.00 20.00     0.046 C 
HETATM    4  C4  UNL     1     -34.620  17.355  -4.652  1.00 20.00     0.024 A 
HETATM    5  C5  UNL     1     -35.240  13.884  -4.457  1.00 20.00     0.141 C 
HETATM    6  C6  UNL     1     -34.017  16.431  -3.623  1.00 20.00    -0.018 A 
HETATM    7  C7  UNL     1     -35.523  16.364  -3.944  1.00 20.00    -0.030 A 
HETATM    8  C8  UNL     1     -33.542  17.032  -2.325  1.00 20.00     0.020 C 
HETATM    9  C9  UNL     1     -36.532  16.898  -2.962  1.00 20.00     0.016 C 
ENDROOT
BRANCH   5  10
HETATM   10  O10 UNL     1     -35.557  12.921  -5.459  1.00 20.00    -0.392 OA
HETATM   11  H24 UNL     1     -35.863  12.128  -4.993  1.00 20.00     0.210 HD
ENDBRANCH   5  10
TORSDOF 1
ENDMDL
MODEL 9
REMARK VINA RESULT:      -4.1     11.969     13.380
REMARK  1 active torsions:
REMARK  status: ('A' for Active; 'I' for Inactive)
REMARK    1  A    between atoms: C5_5  and  O10_10 
ROOT
HETATM    1  C1  UNL     1     -35.607  13.422  -5.268  1.00 20.00     0.001 C 
HETATM    2  C2  UNL     1     -35.206  14.451  -4.507  1.00 20.00    -0.018 C 
HETATM    3  C3  UNL     1     -34.055  14.152  -7.118  1.00 20.00     0.046 C 
HETATM    4  C4  UNL     1     -33.052  15.631  -5.241  1.00 20.00     0.024 A 
HETATM    5  C5  UNL     1     -35.339  13.399  -6.743  1.00 20.00     0.141 C 
HETATM    6  C6  UNL     1     -34.547  15.667  -5.038  1.00 20.00    -0.018 A 
HETATM    7  C7  UNL     1     -33.955  15.518  -6.453  1.00 20.00    -0.030 A 
HETATM    8  C8  UNL     1     -35.171  16.969  -4.607  1.00 20.00     0.020 C 
HETATM    9  C9  UNL     1     -33.997  16.675  -7.417  1.00 20.00     0.016 C 
ENDROOT
BRANCH   5  10
HETATM   10  O10 UNL     1     -35.204  12.040  -7.155  1.00 20.00    -0.392 OA
HETATM   11  H24 UNL     1     -35.195  12.045  -8.124  1.00 20.00     0.210 HD
ENDBRANCH   5  10
TORSDOF 1
ENDMDL
