MODEL 1
REMARK VINA RESULT:      -6.7      0.000      0.000
REMARK  3 active torsions:
REMARK  status: ('A' for Active; 'I' for Inactive)
REMARK    1  A    between atoms: C2_2  and  C5_5 
REMARK    2  A    between atoms: C4_4  and  C5_5 
REMARK    3  A    between atoms: C4_4  and  C6_6 
ROOT
HETATM    1  C4  UNL     1     -33.660   6.316   4.327  1.00 20.00     0.353 C 
HETATM    2  F7  UNL     1     -34.117   7.559   4.665  1.00 20.00    -0.233 F 
ENDROOT
BRANCH   1   3
HETATM    3  C5  UNL     1     -33.204   6.382   2.872  1.00 20.00     0.300 C 
HETATM    4  F8  UNL     1     -34.282   6.155   2.070  1.00 20.00    -0.198 F 
HETATM    5  F9  UNL     1     -32.359   5.334   2.657  1.00 20.00    -0.198 F 
BRANCH   3   6
HETATM    6  C2  UNL     1     -32.503   7.658   2.515  1.00 20.00     0.050 C 
HETATM    7  C1  UNL     1     -32.900   8.499   1.549  1.00 20.00    -0.029 C 
HETATM    8  C3  UNL     1     -32.187   9.764   1.205  1.00 20.00     0.036 C 
ENDBRANCH   3   6
ENDBRANCH   1   3
BRANCH   1   9
HETATM    9  C6  UNL     1     -34.784   5.340   4.602  1.00 20.00     0.424 C 
HETATM   10  F10 UNL     1     -35.938   5.726   4.020  1.00 20.00    -0.168 F 
HETATM   11  F11 UNL     1     -34.484   4.103   4.154  1.00 20.00    -0.168 F 
HETATM   12  F12 UNL     1     -35.014   5.252   5.931  1.00 20.00    -0.168 F 
ENDBRANCH   1   9
TORSDOF 3
ENDMDL
MODEL 2
REMARK VINA RESULT:      -6.4      0.987      2.110
REMARK  3 active torsions:
REMARK  status: ('A' for Active; 'I' for Inactive)
REMARK    1  A    between atoms: C2_2  and  C5_5 
REMARK    2  A    between atoms: C4_4  and  C5_5 
REMARK    3  A    between atoms: C4_4  and  C6_6 
ROOT
HETATM    1  C4  UNL     1     -33.664   5.887   2.936  1.00 20.00     0.353 C 
HETATM    2  F7  UNL     1     -32.579   5.065   2.820  1.00 20.00    -0.233 F 
ENDROOT
BRANCH   1   3
HETATM    3  C5  UNL     1     -33.137   7.306   3.132  1.00 20.00     0.300 C 
HETATM    4  F8  UNL     1     -32.111   7.267   4.028  1.00 20.00    -0.198 F 
HETATM    5  F9  UNL     1     -34.122   8.033   3.733  1.00 20.00    -0.198 F 
BRANCH   3   6
HETATM    6  C2  UNL     1     -32.737   7.985   1.856  1.00 20.00     0.050 C 
HETATM    7  C1  UNL     1     -32.617   9.311   1.706  1.00 20.00    -0.029 C 
HETATM    8  C3  UNL     1     -32.221   9.970   0.427  1.00 20.00     0.036 C 
ENDBRANCH   3   6
ENDBRANCH   1   3
BRANCH   1   9
HETATM    9  C6  UNL     1     -34.504   5.354   4.076  1.00 20.00     0.424 C 
HETATM   10  F10 UNL     1     -34.061   5.790   5.274  1.00 20.00    -0.168 F 
HETATM   11  F11 UNL     1     -35.797   5.721   3.951  1.00 20.00    -0.168 F 
HETATM   12  F12 UNL     1     -34.460   4.003   4.100  1.00 20.00    -0.168 F 
ENDBRANCH   1   9
TORSDOF 3
ENDMDL
MODEL 3
REMARK VINA RESULT:      -6.1      1.045      1.638
REMARK  3 active torsions:
REMARK  status: ('A' for Active; 'I' for Inactive)
REMARK    1  A    between atoms: C2_2  and  C5_5 
REMARK    2  A    between atoms: C4_4  and  C5_5 
REMARK    3  A    between atoms: C4_4  and  C6_6 
ROOT
HETATM    1  C4  UNL     1     -33.514   6.859   4.327  1.00 20.00     0.353 C 
HETATM    2  F7  UNL     1     -34.286   7.974   4.492  1.00 20.00    -0.233 F 
ENDROOT
BRANCH   1   3
HETATM    3  C5  UNL     1     -32.582   7.125   3.148  1.00 20.00     0.300 C 
HETATM    4  F8  UNL     1     -32.369   5.951   2.491  1.00 20.00    -0.198 F 
HETATM    5  F9  UNL     1     -31.369   7.489   3.655  1.00 20.00    -0.198 F 
BRANCH   3   6
HETATM    6  C2  UNL     1     -33.068   8.201   2.223  1.00 20.00     0.050 C 
HETATM    7  C1  UNL     1     -32.272   8.968   1.464  1.00 20.00    -0.029 C 
HETATM    8  C3  UNL     1     -32.773  10.036   0.551  1.00 20.00     0.036 C 
ENDBRANCH   3   6
ENDBRANCH   1   3
BRANCH   1   9
HETATM    9  C6  UNL     1     -34.456   5.689   4.146  1.00 20.00     0.424 C 
HETATM   10  F10 UNL     1     -33.803   4.572   3.766  1.00 20.00    -0.168 F 
HETATM   11  F11 UNL     1     -35.127   5.414   5.284  1.00 20.00    -0.168 F 
HETATM   12  F12 UNL     1     -35.369   5.966   3.187  1.00 20.00    -0.168 F 
ENDBRANCH   1   9
TORSDOF 3
ENDMDL
MODEL 4
REMARK VINA RESULT:      -6.0      1.058      2.210
REMARK  3 active torsions:
REMARK  status: ('A' for Active; 'I' for Inactive)
REMARK    1  A    between atoms: C2_2  and  C5_5 
REMARK    2  A    between atoms: C4_4  and  C5_5 
REMARK    3  A    between atoms: C4_4  and  C6_6 
ROOT
HETATM    1  C4  UNL     1     -33.730   5.864   5.070  1.00 20.00     0.353 C 
HETATM    2  F7  UNL     1     -34.539   5.807   6.171  1.00 20.00    -0.233 F 
ENDROOT
BRANCH   1   3
HETATM    3  C5  UNL     1     -33.462   7.339   4.784  1.00 20.00     0.300 C 
HETATM    4  F8  UNL     1     -33.105   7.949   5.949  1.00 20.00    -0.198 F 
HETATM    5  F9  UNL     1     -34.645   7.910   4.417  1.00 20.00    -0.198 F 
BRANCH   3   6
HETATM    6  C2  UNL     1     -32.450   7.571   3.702  1.00 20.00     0.050 C 
HETATM    7  C1  UNL     1     -32.708   8.185   2.539  1.00 20.00    -0.029 C 
HETATM    8  C3  UNL     1     -31.689   8.404   1.471  1.00 20.00     0.036 C 
ENDBRANCH   3   6
ENDBRANCH   1   3
BRANCH   1   9
HETATM    9  C6  UNL     1     -34.437   5.115   3.961  1.00 20.00     0.424 C 
HETATM   10  F10 UNL     1     -35.574   5.734   3.582  1.00 20.00    -0.168 F 
HETATM   11  F11 UNL     1     -33.649   4.986   2.874  1.00 20.00    -0.168 F 
HETATM   12  F12 UNL     1     -34.774   3.873   4.376  1.00 20.00    -0.168 F 
ENDBRANCH   1   9
TORSDOF 3
ENDMDL
MODEL 5
REMARK VINA RESULT:      -5.9      1.096      1.763
REMARK  3 active torsions:
REMARK  status: ('A' for Active; 'I' for Inactive)
REMARK    1  A    between atoms: C2_2  and  C5_5 
REMARK    2  A    between atoms: C4_4  and  C5_5 
REMARK    3  A    between atoms: C4_4  and  C6_6 
ROOT
HETATM    1  C4  UNL     1     -34.757   6.308   4.218  1.00 20.00     0.353 C 
HETATM    2  F7  UNL     1     -35.898   5.574   4.054  1.00 20.00    -0.233 F 
ENDROOT
BRANCH   1   3
HETATM    3  C5  UNL     1     -33.810   5.930   3.083  1.00 20.00     0.300 C 
HETATM    4  F8  UNL     1     -34.541   5.772   1.944  1.00 20.00    -0.198 F 
HETATM    5  F9  UNL     1     -33.299   4.697   3.366  1.00 20.00    -0.198 F 
BRANCH   3   6
HETATM    6  C2  UNL     1     -32.679   6.895   2.889  1.00 20.00     0.050 C 
HETATM    7  C1  UNL     1     -32.770   8.045   2.207  1.00 20.00    -0.029 C 
HETATM    8  C3  UNL     1     -31.633   8.993   2.022  1.00 20.00     0.036 C 
ENDBRANCH   3   6
ENDBRANCH   1   3
BRANCH   1   9
HETATM    9  C6  UNL     1     -34.238   6.017   5.609  1.00 20.00     0.424 C 
HETATM   10  F10 UNL     1     -33.981   4.704   5.784  1.00 20.00    -0.168 F 
HETATM   11  F11 UNL     1     -33.104   6.702   5.866  1.00 20.00    -0.168 F 
HETATM   12  F12 UNL     1     -35.154   6.374   6.536  1.00 20.00    -0.168 F 
ENDBRANCH   1   9
TORSDOF 3
ENDMDL
MODEL 6
REMARK VINA RESULT:      -5.9      0.921      1.979
REMARK  3 active torsions:
REMARK  status: ('A' for Active; 'I' for Inactive)
REMARK    1  A    between atoms: C2_2  and  C5_5 
REMARK    2  A    between atoms: C4_4  and  C5_5 
REMARK    3  A    between atoms: C4_4  and  C6_6 
ROOT
HETATM    1  C4  UNL     1     -34.098   6.841   3.027  1.00 20.00     0.353 C 
HETATM    2  F7  UNL     1     -34.321   6.138   1.877  1.00 20.00    -0.233 F 
ENDROOT
BRANCH   1   3
HETATM    3  C5  UNL     1     -32.605   7.151   3.085  1.00 20.00     0.300 C 
HETATM    4  F8  UNL     1     -31.915   5.983   2.954  1.00 20.00    -0.198 F 
HETATM    5  F9  UNL     1     -32.325   7.603   4.341  1.00 20.00    -0.198 F 
BRANCH   3   6
HETATM    6  C2  UNL     1     -32.160   8.176   2.085  1.00 20.00     0.050 C 
HETATM    7  C1  UNL     1     -32.921   9.186   1.642  1.00 20.00    -0.029 C 
HETATM    8  C3  UNL     1     -32.462  10.196   0.643  1.00 20.00     0.036 C 
ENDBRANCH   3   6
ENDBRANCH   1   3
BRANCH   1   9
HETATM    9  C6  UNL     1     -34.621   5.999   4.171  1.00 20.00     0.424 C 
HETATM   10  F10 UNL     1     -33.991   4.809   4.247  1.00 20.00    -0.168 F 
HETATM   11  F11 UNL     1     -34.472   6.628   5.355  1.00 20.00    -0.168 F 
HETATM   12  F12 UNL     1     -35.939   5.746   4.002  1.00 20.00    -0.168 F 
ENDBRANCH   1   9
TORSDOF 3
ENDMDL
MODEL 7
REMARK VINA RESULT:      -5.7      0.947      1.555
REMARK  3 active torsions:
REMARK  status: ('A' for Active; 'I' for Inactive)
REMARK    1  A    between atoms: C2_2  and  C5_5 
REMARK    2  A    between atoms: C4_4  and  C5_5 
REMARK    3  A    between atoms: C4_4  and  C6_6 
ROOT
HETATM    1  C4  UNL     1     -33.497   6.102   4.600  1.00 20.00     0.353 C 
HETATM    2  F7  UNL     1     -33.561   6.975   5.650  1.00 20.00    -0.233 F 
ENDROOT
BRANCH   1   3
HETATM    3  C5  UNL     1     -33.752   6.906   3.328  1.00 20.00     0.300 C 
HETATM    4  F8  UNL     1     -34.640   7.900   3.615  1.00 20.00    -0.198 F 
HETATM    5  F9  UNL     1     -34.390   6.087   2.443  1.00 20.00    -0.198 F 
BRANCH   3   6
HETATM    6  C2  UNL     1     -32.505   7.441   2.689  1.00 20.00     0.050 C 
HETATM    7  C1  UNL     1     -32.486   8.302   1.663  1.00 20.00    -0.029 C 
HETATM    8  C3  UNL     1     -31.235   8.821   1.037  1.00 20.00     0.036 C 
ENDBRANCH   3   6
ENDBRANCH   1   3
BRANCH   1   9
HETATM    9  C6  UNL     1     -34.501   5.003   4.874  1.00 20.00     0.424 C 
HETATM   10  F10 UNL     1     -34.190   3.865   4.220  1.00 20.00    -0.168 F 
HETATM   11  F11 UNL     1     -34.577   4.721   6.191  1.00 20.00    -0.168 F 
HETATM   12  F12 UNL     1     -35.733   5.380   4.461  1.00 20.00    -0.168 F 
ENDBRANCH   1   9
TORSDOF 3
ENDMDL
MODEL 8
REMARK VINA RESULT:      -5.6      2.832      4.957
REMARK  3 active torsions:
REMARK  status: ('A' for Active; 'I' for Inactive)
REMARK    1  A    between atoms: C2_2  and  C5_5 
REMARK    2  A    between atoms: C4_4  and  C5_5 
REMARK    3  A    between atoms: C4_4  and  C6_6 
ROOT
HETATM    1  C4  UNL     1     -32.629   9.228   2.098  1.00 20.00     0.353 C 
HETATM    2  F7  UNL     1     -31.905  10.180   2.760  1.00 20.00    -0.233 F 
ENDROOT
BRANCH   1   3
HETATM    3  C5  UNL     1     -32.277   7.880   2.722  1.00 20.00     0.300 C 
HETATM    4  F8  UNL     1     -31.087   8.002   3.374  1.00 20.00    -0.198 F 
HETATM    5  F9  UNL     1     -32.049   7.001   1.703  1.00 20.00    -0.198 F 
BRANCH   3   6
HETATM    6  C2  UNL     1     -33.348   7.327   3.614  1.00 20.00     0.050 C 
HETATM    7  C1  UNL     1     -33.951   6.144   3.435  1.00 20.00    -0.029 C 
HETATM    8  C3  UNL     1     -35.018   5.611   4.332  1.00 20.00     0.036 C 
ENDBRANCH   3   6
ENDBRANCH   1   3
BRANCH   1   9
HETATM    9  C6  UNL     1     -32.295   9.359   0.628  1.00 20.00     0.424 C 
HETATM   10  F10 UNL     1     -31.097   8.813   0.334  1.00 20.00    -0.168 F 
HETATM   11  F11 UNL     1     -33.227   8.763  -0.145  1.00 20.00    -0.168 F 
HETATM   12  F12 UNL     1     -32.240  10.663   0.274  1.00 20.00    -0.168 F 
ENDBRANCH   1   9
TORSDOF 3
ENDMDL
MODEL 9
REMARK VINA RESULT:      -5.6      2.338      4.740
REMARK  3 active torsions:
REMARK  status: ('A' for Active; 'I' for Inactive)
REMARK    1  A    between atoms: C2_2  and  C5_5 
REMARK    2  A    between atoms: C4_4  and  C5_5 
REMARK    3  A    between atoms: C4_4  and  C6_6 
ROOT
HETATM    1  C4  UNL     1     -32.606   8.609   2.541  1.00 20.00     0.353 C 
HETATM    2  F7  UNL     1     -31.484   8.794   3.298  1.00 20.00    -0.233 F 
ENDROOT
BRANCH   1   3
HETATM    3  C5  UNL     1     -33.035   7.155   2.716  1.00 20.00     0.300 C 
HETATM    4  F8  UNL     1     -31.966   6.354   2.444  1.00 20.00    -0.198 F 
HETATM    5  F9  UNL     1     -33.957   6.878   1.750  1.00 20.00    -0.198 F 
BRANCH   3   6
HETATM    6  C2  UNL     1     -33.628   6.856   4.060  1.00 20.00     0.050 C 
HETATM    7  C1  UNL     1     -34.181   5.684   4.402  1.00 20.00    -0.029 C 
HETATM    8  C3  UNL     1     -34.771   5.405   5.745  1.00 20.00     0.036 C 
ENDBRANCH   3   6
ENDBRANCH   1   3
BRANCH   1   9
HETATM    9  C6  UNL     1     -32.256   9.007   1.124  1.00 20.00     0.424 C 
HETATM   10  F10 UNL     1     -31.092   8.456   0.720  1.00 20.00    -0.168 F 
HETATM   11  F11 UNL     1     -33.217   8.635   0.254  1.00 20.00    -0.168 F 
HETATM   12  F12 UNL     1     -32.117  10.349   1.034  1.00 20.00    -0.168 F 
ENDBRANCH   1   9
TORSDOF 3
ENDMDL
