MODEL 1
REMARK VINA RESULT:      -4.3      0.000      0.000
REMARK  1 active torsions:
REMARK  status: ('A' for Active; 'I' for Inactive)
REMARK    1  A    between atoms: C2_2  and  C6_6 
ROOT
HETATM    1  C1  UNL     1     -32.848   7.099   2.889  1.00 20.00     0.071 C 
HETATM    2  C2  UNL     1     -33.459   6.772   4.042  1.00 20.00     0.003 C 
HETATM    3 BR7  UNL     1     -31.718   8.539   2.557  1.00 20.00    -0.062 Br
HETATM    4 BR8  UNL     1     -33.221   7.829   5.599  1.00 20.00    -0.054 Br
ENDROOT
BRANCH   2   5
HETATM    5  C6  UNL     1     -34.386   5.547   4.218  1.00 20.00    -0.017 C 
HETATM    6  C3  UNL     1     -34.591   5.151   5.703  1.00 20.00     0.020 C 
HETATM    7  C4  UNL     1     -35.791   5.837   3.645  1.00 20.00     0.020 C 
HETATM    8  C5  UNL     1     -33.793   4.308   3.512  1.00 20.00     0.020 C 
ENDBRANCH   2   5
TORSDOF 1
ENDMDL
MODEL 2
REMARK VINA RESULT:      -4.3      0.082      1.511
REMARK  1 active torsions:
REMARK  status: ('A' for Active; 'I' for Inactive)
REMARK    1  A    between atoms: C2_2  and  C6_6 
ROOT
HETATM    1  C1  UNL     1     -32.867   7.067   2.930  1.00 20.00     0.071 C 
HETATM    2  C2  UNL     1     -33.473   6.756   4.091  1.00 20.00     0.003 C 
HETATM    3 BR7  UNL     1     -31.723   8.490   2.578  1.00 20.00    -0.062 Br
HETATM    4 BR8  UNL     1     -33.209   7.821   5.637  1.00 20.00    -0.054 Br
ENDROOT
BRANCH   2   5
HETATM    5  C6  UNL     1     -34.413   5.544   4.283  1.00 20.00    -0.017 C 
HETATM    6  C3  UNL     1     -33.870   4.246   3.631  1.00 20.00     0.020 C 
HETATM    7  C4  UNL     1     -34.604   5.232   5.784  1.00 20.00     0.020 C 
HETATM    8  C5  UNL     1     -35.791   5.814   3.639  1.00 20.00     0.020 C 
ENDBRANCH   2   5
TORSDOF 1
ENDMDL
MODEL 3
REMARK VINA RESULT:      -3.9      1.612      2.192
REMARK  1 active torsions:
REMARK  status: ('A' for Active; 'I' for Inactive)
REMARK    1  A    between atoms: C2_2  and  C6_6 
ROOT
HETATM    1  C1  UNL     1     -33.004   7.552   3.186  1.00 20.00     0.071 C 
HETATM    2  C2  UNL     1     -33.411   6.278   3.335  1.00 20.00     0.003 C 
HETATM    3 BR7  UNL     1     -31.795   8.232   1.948  1.00 20.00    -0.062 Br
HETATM    4 BR8  UNL     1     -32.744   4.908   2.207  1.00 20.00    -0.054 Br
ENDROOT
BRANCH   2   5
HETATM    5  C6  UNL     1     -34.427   5.809   4.403  1.00 20.00    -0.017 C 
HETATM    6  C3  UNL     1     -34.297   4.302   4.742  1.00 20.00     0.020 C 
HETATM    7  C4  UNL     1     -34.221   6.576   5.728  1.00 20.00     0.020 C 
HETATM    8  C5  UNL     1     -35.875   6.024   3.910  1.00 20.00     0.020 C 
ENDBRANCH   2   5
TORSDOF 1
ENDMDL
MODEL 4
REMARK VINA RESULT:      -3.5      1.474      2.364
REMARK  1 active torsions:
REMARK  status: ('A' for Active; 'I' for Inactive)
REMARK    1  A    between atoms: C2_2  and  C6_6 
ROOT
HETATM    1  C1  UNL     1     -33.221   8.214   1.588  1.00 20.00     0.071 C 
HETATM    2  C2  UNL     1     -32.903   7.635   2.760  1.00 20.00     0.003 C 
HETATM    3 BR7  UNL     1     -32.375   9.639   0.744  1.00 20.00    -0.062 Br
HETATM    4 BR8  UNL     1     -31.428   8.255   3.778  1.00 20.00    -0.054 Br
ENDROOT
BRANCH   2   5
HETATM    5  C6  UNL     1     -33.674   6.447   3.381  1.00 20.00    -0.017 C 
HETATM    6  C3  UNL     1     -35.151   6.375   2.917  1.00 20.00     0.020 C 
HETATM    7  C4  UNL     1     -33.024   5.104   2.982  1.00 20.00     0.020 C 
HETATM    8  C5  UNL     1     -33.704   6.561   4.922  1.00 20.00     0.020 C 
ENDBRANCH   2   5
TORSDOF 1
ENDMDL
MODEL 5
REMARK VINA RESULT:      -3.3      2.730      4.728
REMARK  1 active torsions:
REMARK  status: ('A' for Active; 'I' for Inactive)
REMARK    1  A    between atoms: C2_2  and  C6_6 
ROOT
HETATM    1  C1  UNL     1     -33.669   7.172   2.175  1.00 20.00     0.071 C 
HETATM    2  C2  UNL     1     -32.696   8.103   2.176  1.00 20.00     0.003 C 
HETATM    3 BR7  UNL     1     -34.103   5.965   3.521  1.00 20.00    -0.062 Br
HETATM    4 BR8  UNL     1     -31.556   8.312   3.677  1.00 20.00    -0.054 Br
ENDROOT
BRANCH   2   5
HETATM    5  C6  UNL     1     -32.413   9.066   1.000  1.00 20.00    -0.017 C 
HETATM    6  C3  UNL     1     -33.388   8.871  -0.190  1.00 20.00     0.020 C 
HETATM    7  C4  UNL     1     -32.560  10.537   1.449  1.00 20.00     0.020 C 
HETATM    8  C5  UNL     1     -30.990   8.843   0.442  1.00 20.00     0.020 C 
ENDBRANCH   2   5
TORSDOF 1
ENDMDL
MODEL 6
REMARK VINA RESULT:      -3.2     11.878     12.657
REMARK  1 active torsions:
REMARK  status: ('A' for Active; 'I' for Inactive)
REMARK    1  A    between atoms: C2_2  and  C6_6 
ROOT
HETATM    1  C1  UNL     1     -35.331  16.320  -3.058  1.00 20.00     0.071 C 
HETATM    2  C2  UNL     1     -35.088  15.459  -4.063  1.00 20.00     0.003 C 
HETATM    3 BR7  UNL     1     -34.115  17.060  -1.861  1.00 20.00    -0.062 Br
HETATM    4 BR8  UNL     1     -33.328  14.845  -4.409  1.00 20.00    -0.054 Br
ENDROOT
BRANCH   2   5
HETATM    5  C6  UNL     1     -36.175  14.898  -5.010  1.00 20.00    -0.017 C 
HETATM    6  C3  UNL     1     -36.174  15.577  -6.403  1.00 20.00     0.020 C 
HETATM    7  C4  UNL     1     -35.957  13.389  -5.258  1.00 20.00     0.020 C 
HETATM    8  C5  UNL     1     -37.583  15.119  -4.415  1.00 20.00     0.020 C 
ENDBRANCH   2   5
TORSDOF 1
ENDMDL
MODEL 7
REMARK VINA RESULT:      -3.1     12.000     12.958
REMARK  1 active torsions:
REMARK  status: ('A' for Active; 'I' for Inactive)
REMARK    1  A    between atoms: C2_2  and  C6_6 
ROOT
HETATM    1  C1  UNL     1     -36.835  15.830  -4.238  1.00 20.00     0.071 C 
HETATM    2  C2  UNL     1     -35.720  15.150  -4.563  1.00 20.00     0.003 C 
HETATM    3 BR7  UNL     1     -38.604  15.358  -4.563  1.00 20.00    -0.062 Br
HETATM    4 BR8  UNL     1     -35.829  13.487  -5.468  1.00 20.00    -0.054 Br
ENDROOT
BRANCH   2   5
HETATM    5  C6  UNL     1     -34.285  15.630  -4.247  1.00 20.00    -0.017 C 
HETATM    6  C3  UNL     1     -33.770  16.699  -5.246  1.00 20.00     0.020 C 
HETATM    7  C4  UNL     1     -34.221  16.275  -2.844  1.00 20.00     0.020 C 
HETATM    8  C5  UNL     1     -33.288  14.452  -4.313  1.00 20.00     0.020 C 
ENDBRANCH   2   5
TORSDOF 1
ENDMDL
MODEL 8
REMARK VINA RESULT:      -3.1     12.171     12.807
REMARK  1 active torsions:
REMARK  status: ('A' for Active; 'I' for Inactive)
REMARK    1  A    between atoms: C2_2  and  C6_6 
ROOT
HETATM    1  C1  UNL     1     -35.927  15.191  -4.195  1.00 20.00     0.071 C 
HETATM    2  C2  UNL     1     -34.763  15.736  -3.797  1.00 20.00     0.003 C 
HETATM    3 BR7  UNL     1     -36.187  13.732  -5.318  1.00 20.00    -0.062 Br
HETATM    4 BR8  UNL     1     -33.107  15.021  -4.383  1.00 20.00    -0.054 Br
ENDROOT
BRANCH   2   5
HETATM    5  C6  UNL     1     -34.651  16.958  -2.855  1.00 20.00    -0.017 C 
HETATM    6  C3  UNL     1     -33.221  17.161  -2.294  1.00 20.00     0.020 C 
HETATM    7  C4  UNL     1     -35.019  18.259  -3.602  1.00 20.00     0.020 C 
HETATM    8  C5  UNL     1     -35.582  16.791  -1.633  1.00 20.00     0.020 C 
ENDBRANCH   2   5
TORSDOF 1
ENDMDL
MODEL 9
REMARK VINA RESULT:      -3.1     11.846     12.513
REMARK  1 active torsions:
REMARK  status: ('A' for Active; 'I' for Inactive)
REMARK    1  A    between atoms: C2_2  and  C6_6 
ROOT
HETATM    1  C1  UNL     1     -33.713  16.601  -2.570  1.00 20.00     0.071 C 
HETATM    2  C2  UNL     1     -34.599  16.090  -3.445  1.00 20.00     0.003 C 
HETATM    3 BR7  UNL     1     -34.032  17.794  -1.180  1.00 20.00    -0.062 Br
HETATM    4 BR8  UNL     1     -36.433  16.564  -3.357  1.00 20.00    -0.054 Br
ENDROOT
BRANCH   2   5
HETATM    5  C6  UNL     1     -34.233  15.099  -4.574  1.00 20.00    -0.017 C 
HETATM    6  C3  UNL     1     -32.881  14.379  -4.333  1.00 20.00     0.020 C 
HETATM    7  C4  UNL     1     -35.302  13.991  -4.698  1.00 20.00     0.020 C 
HETATM    8  C5  UNL     1     -34.103  15.835  -5.926  1.00 20.00     0.020 C 
ENDBRANCH   2   5
TORSDOF 1
ENDMDL
