MODEL 1
REMARK VINA RESULT:      -4.6      0.000      0.000
REMARK  0 active torsions:
REMARK  status: ('A' for Active; 'I' for Inactive)
ROOT
HETATM    1  C1  UNL     1     -33.254   7.533   2.964  1.00 20.00    -0.020 C 
HETATM    2  C2  UNL     1     -32.307   7.351   3.944  1.00 20.00    -0.020 C 
HETATM    3  C3  UNL     1     -34.946   4.962   5.085  1.00 20.00     0.002 C 
HETATM    4  C4  UNL     1     -35.274   5.821   3.826  1.00 20.00     0.014 C 
HETATM    5  C5  UNL     1     -33.504   5.378   5.503  1.00 20.00     0.014 C 
HETATM    6  C6  UNL     1     -33.880   6.205   3.373  1.00 20.00    -0.016 C 
HETATM    7  C7  UNL     1     -33.387   6.723   4.819  1.00 20.00    -0.016 C 
HETATM    8  C8  UNL     1     -33.262   5.049   2.544  1.00 20.00     0.020 C 
HETATM    9  C9  UNL     1     -34.061   7.816   5.691  1.00 20.00     0.020 C 
ENDROOT
TORSDOF 0
ENDMDL
MODEL 2
REMARK VINA RESULT:      -4.6      0.029      2.531
REMARK  0 active torsions:
REMARK  status: ('A' for Active; 'I' for Inactive)
ROOT
HETATM    1  C1  UNL     1     -32.323   7.364   3.949  1.00 20.00    -0.020 C 
HETATM    2  C2  UNL     1     -33.283   7.557   2.984  1.00 20.00    -0.020 C 
HETATM    3  C3  UNL     1     -34.941   4.953   5.092  1.00 20.00     0.002 C 
HETATM    4  C4  UNL     1     -33.495   5.369   5.499  1.00 20.00     0.014 C 
HETATM    5  C5  UNL     1     -35.288   5.828   3.851  1.00 20.00     0.014 C 
HETATM    6  C6  UNL     1     -33.390   6.724   4.830  1.00 20.00    -0.016 C 
HETATM    7  C7  UNL     1     -33.902   6.222   3.385  1.00 20.00    -0.016 C 
HETATM    8  C8  UNL     1     -34.057   7.802   5.725  1.00 20.00     0.020 C 
HETATM    9  C9  UNL     1     -33.290   5.078   2.532  1.00 20.00     0.020 C 
ENDROOT
TORSDOF 0
ENDMDL
MODEL 3
REMARK VINA RESULT:      -4.1      1.021      3.222
REMARK  0 active torsions:
REMARK  status: ('A' for Active; 'I' for Inactive)
ROOT
HETATM    1  C1  UNL     1     -35.176   5.684   4.417  1.00 20.00    -0.020 C 
HETATM    2  C2  UNL     1     -34.195   4.770   4.115  1.00 20.00    -0.020 C 
HETATM    3  C3  UNL     1     -32.610   7.917   2.868  1.00 20.00     0.002 C 
HETATM    4  C4  UNL     1     -34.059   8.036   3.429  1.00 20.00     0.014 C 
HETATM    5  C5  UNL     1     -32.228   6.415   3.028  1.00 20.00     0.014 C 
HETATM    6  C6  UNL     1     -34.135   6.790   4.287  1.00 20.00    -0.016 C 
HETATM    7  C7  UNL     1     -33.599   5.785   3.144  1.00 20.00    -0.016 C 
HETATM    8  C8  UNL     1     -33.475   7.062   5.664  1.00 20.00     0.020 C 
HETATM    9  C9  UNL     1     -34.206   5.582   1.730  1.00 20.00     0.020 C 
ENDROOT
TORSDOF 0
ENDMDL
MODEL 4
REMARK VINA RESULT:      -4.1      1.020      2.712
REMARK  0 active torsions:
REMARK  status: ('A' for Active; 'I' for Inactive)
ROOT
HETATM    1  C1  UNL     1     -34.226   4.768   4.076  1.00 20.00    -0.020 C 
HETATM    2  C2  UNL     1     -35.195   5.697   4.375  1.00 20.00    -0.020 C 
HETATM    3  C3  UNL     1     -32.571   7.899   2.880  1.00 20.00     0.002 C 
HETATM    4  C4  UNL     1     -32.219   6.388   3.027  1.00 20.00     0.014 C 
HETATM    5  C5  UNL     1     -34.025   8.038   3.423  1.00 20.00     0.014 C 
HETATM    6  C6  UNL     1     -33.603   5.781   3.122  1.00 20.00    -0.016 C 
HETATM    7  C7  UNL     1     -34.133   6.786   4.268  1.00 20.00    -0.016 C 
HETATM    8  C8  UNL     1     -34.196   5.605   1.699  1.00 20.00     0.020 C 
HETATM    9  C9  UNL     1     -33.484   7.031   5.656  1.00 20.00     0.020 C 
ENDROOT
TORSDOF 0
ENDMDL
MODEL 5
REMARK VINA RESULT:      -3.9      0.873      2.615
REMARK  0 active torsions:
REMARK  status: ('A' for Active; 'I' for Inactive)
ROOT
HETATM    1  C1  UNL     1     -33.601   6.697   5.648  1.00 20.00    -0.020 C 
HETATM    2  C2  UNL     1     -34.218   7.632   4.850  1.00 20.00    -0.020 C 
HETATM    3  C3  UNL     1     -33.399   5.003   2.322  1.00 20.00     0.002 C 
HETATM    4  C4  UNL     1     -32.906   4.753   3.779  1.00 20.00     0.014 C 
HETATM    5  C5  UNL     1     -34.155   6.365   2.371  1.00 20.00     0.014 C 
HETATM    6  C6  UNL     1     -33.837   5.662   4.554  1.00 20.00    -0.016 C 
HETATM    7  C7  UNL     1     -33.580   6.964   3.637  1.00 20.00    -0.016 C 
HETATM    8  C8  UNL     1     -35.195   4.946   4.785  1.00 20.00     0.020 C 
HETATM    9  C9  UNL     1     -32.209   7.623   3.330  1.00 20.00     0.020 C 
ENDROOT
TORSDOF 0
ENDMDL
MODEL 6
REMARK VINA RESULT:      -3.9      0.881      2.293
REMARK  0 active torsions:
REMARK  status: ('A' for Active; 'I' for Inactive)
ROOT
HETATM    1  C1  UNL     1     -34.234   7.638   4.807  1.00 20.00    -0.020 C 
HETATM    2  C2  UNL     1     -33.613   6.723   5.624  1.00 20.00    -0.020 C 
HETATM    3  C3  UNL     1     -33.389   4.968   2.331  1.00 20.00     0.002 C 
HETATM    4  C4  UNL     1     -34.154   6.327   2.352  1.00 20.00     0.014 C 
HETATM    5  C5  UNL     1     -32.898   4.749   3.794  1.00 20.00     0.014 C 
HETATM    6  C6  UNL     1     -33.587   6.953   3.609  1.00 20.00    -0.016 C 
HETATM    7  C7  UNL     1     -33.838   5.666   4.549  1.00 20.00    -0.016 C 
HETATM    8  C8  UNL     1     -32.220   7.615   3.293  1.00 20.00     0.020 C 
HETATM    9  C9  UNL     1     -35.191   4.945   4.790  1.00 20.00     0.020 C 
ENDROOT
TORSDOF 0
ENDMDL
MODEL 7
REMARK VINA RESULT:      -3.8     11.905     12.927
REMARK  0 active torsions:
REMARK  status: ('A' for Active; 'I' for Inactive)
ROOT
HETATM    1  C1  UNL     1     -33.093  15.691  -5.512  1.00 20.00    -0.020 C 
HETATM    2  C2  UNL     1     -33.057  14.619  -4.653  1.00 20.00    -0.020 C 
HETATM    3  C3  UNL     1     -36.649  14.554  -5.684  1.00 20.00     0.002 C 
HETATM    4  C4  UNL     1     -35.779  15.720  -6.243  1.00 20.00     0.014 C 
HETATM    5  C5  UNL     1     -35.680  13.695  -4.817  1.00 20.00     0.014 C 
HETATM    6  C6  UNL     1     -34.390  15.138  -6.091  1.00 20.00    -0.016 C 
HETATM    7  C7  UNL     1     -34.577  14.698  -4.550  1.00 20.00    -0.016 C 
HETATM    8  C8  UNL     1     -34.080  14.202  -7.289  1.00 20.00     0.020 C 
HETATM    9  C9  UNL     1     -34.979  15.618  -3.366  1.00 20.00     0.020 C 
ENDROOT
TORSDOF 0
ENDMDL
MODEL 8
REMARK VINA RESULT:      -3.8     11.928     13.154
REMARK  0 active torsions:
REMARK  status: ('A' for Active; 'I' for Inactive)
ROOT
HETATM    1  C1  UNL     1     -33.093  14.687  -4.636  1.00 20.00    -0.020 C 
HETATM    2  C2  UNL     1     -33.139  15.747  -5.511  1.00 20.00    -0.020 C 
HETATM    3  C3  UNL     1     -36.652  14.493  -5.760  1.00 20.00     0.002 C 
HETATM    4  C4  UNL     1     -35.679  13.679  -4.854  1.00 20.00     0.014 C 
HETATM    5  C5  UNL     1     -35.807  15.681  -6.311  1.00 20.00     0.014 C 
HETATM    6  C6  UNL     1     -34.615  14.720  -4.572  1.00 20.00    -0.016 C 
HETATM    7  C7  UNL     1     -34.404  15.145  -6.114  1.00 20.00    -0.016 C 
HETATM    8  C8  UNL     1     -35.078  15.642  -3.414  1.00 20.00     0.020 C 
HETATM    9  C9  UNL     1     -34.033  14.204  -7.291  1.00 20.00     0.020 C 
ENDROOT
TORSDOF 0
ENDMDL
MODEL 9
REMARK VINA RESULT:      -3.7     12.004     13.496
REMARK  0 active torsions:
REMARK  status: ('A' for Active; 'I' for Inactive)
ROOT
HETATM    1  C1  UNL     1     -35.956  13.445  -5.086  1.00 20.00    -0.020 C 
HETATM    2  C2  UNL     1     -35.844  14.700  -4.535  1.00 20.00    -0.020 C 
HETATM    3  C3  UNL     1     -33.786  15.119  -7.628  1.00 20.00     0.002 C 
HETATM    4  C4  UNL     1     -34.368  13.698  -7.359  1.00 20.00     0.014 C 
HETATM    5  C5  UNL     1     -34.294  16.002  -6.448  1.00 20.00     0.014 C 
HETATM    6  C6  UNL     1     -35.509  14.031  -6.420  1.00 20.00    -0.016 C 
HETATM    7  C7  UNL     1     -34.626  14.940  -5.422  1.00 20.00    -0.016 C 
HETATM    8  C8  UNL     1     -36.745  14.489  -7.239  1.00 20.00     0.020 C 
HETATM    9  C9  UNL     1     -33.336  14.509  -4.675  1.00 20.00     0.020 C 
ENDROOT
TORSDOF 0
ENDMDL
