MODEL 1
REMARK VINA RESULT:      -7.5      0.000      0.000
REMARK  0 active torsions:
REMARK  status: ('A' for Active; 'I' for Inactive)
ROOT
HETATM    1  C1  UNL     1     -34.605   5.673   5.937  1.00 20.00    -0.021 C 
HETATM    2  C2  UNL     1     -33.728   4.228   3.891  1.00 20.00    -0.021 C 
HETATM    3  C3  UNL     1     -34.015   6.892   5.846  1.00 20.00    -0.023 C 
HETATM    4  C4  UNL     1     -33.176   4.843   2.813  1.00 20.00    -0.023 C 
HETATM    5  C5  UNL     1     -34.832   5.025   4.570  1.00 20.00     0.035 C 
HETATM    6  C6  UNL     1     -33.414   6.927   4.520  1.00 20.00     0.033 C 
HETATM    7  C7  UNL     1     -33.799   6.195   2.552  1.00 20.00     0.033 C 
HETATM    8  C8  UNL     1     -34.720   6.288   3.757  1.00 20.00     0.015 C 
HETATM    9  C9  UNL     1     -33.263   7.590   3.169  1.00 20.00     0.098 C 
HETATM   10 CL10 UNL     1     -31.635   8.155   2.668  1.00 20.00    -0.124 Cl
ENDROOT
TORSDOF 0
ENDMDL
MODEL 2
REMARK VINA RESULT:      -5.5      1.658      2.586
REMARK  0 active torsions:
REMARK  status: ('A' for Active; 'I' for Inactive)
ROOT
HETATM    1  C1  UNL     1     -32.818   8.067   5.081  1.00 20.00    -0.021 C 
HETATM    2  C2  UNL     1     -34.157   5.966   5.996  1.00 20.00    -0.021 C 
HETATM    3  C3  UNL     1     -32.271   7.704   3.893  1.00 20.00    -0.023 C 
HETATM    4  C4  UNL     1     -34.515   4.967   5.146  1.00 20.00    -0.023 C 
HETATM    5  C5  UNL     1     -34.139   7.350   5.363  1.00 20.00     0.035 C 
HETATM    6  C6  UNL     1     -32.912   6.444   3.546  1.00 20.00     0.033 C 
HETATM    7  C7  UNL     1     -34.807   5.484   3.756  1.00 20.00     0.033 C 
HETATM    8  C8  UNL     1     -34.425   6.943   3.941  1.00 20.00     0.015 C 
HETATM    9  C9  UNL     1     -33.712   5.608   2.572  1.00 20.00     0.098 C 
HETATM   10 CL10 UNL     1     -32.986   4.092   1.944  1.00 20.00    -0.124 Cl
ENDROOT
TORSDOF 0
ENDMDL
MODEL 3
REMARK VINA RESULT:      -5.2      1.991      3.419
REMARK  0 active torsions:
REMARK  status: ('A' for Active; 'I' for Inactive)
ROOT
HETATM    1  C1  UNL     1     -32.558   7.925   3.168  1.00 20.00    -0.021 C 
HETATM    2  C2  UNL     1     -33.515   7.499   5.606  1.00 20.00    -0.021 C 
HETATM    3  C3  UNL     1     -32.422   6.711   2.575  1.00 20.00    -0.023 C 
HETATM    4  C4  UNL     1     -34.123   6.319   5.900  1.00 20.00    -0.023 C 
HETATM    5  C5  UNL     1     -33.712   7.964   4.171  1.00 20.00     0.035 C 
HETATM    6  C6  UNL     1     -33.133   5.781   3.441  1.00 20.00     0.033 C 
HETATM    7  C7  UNL     1     -34.852   5.746   4.707  1.00 20.00     0.033 C 
HETATM    8  C8  UNL     1     -34.440   6.753   3.647  1.00 20.00     0.015 C 
HETATM    9  C9  UNL     1     -34.200   4.727   3.633  1.00 20.00     0.098 C 
HETATM   10 CL10 UNL     1     -33.707   3.102   4.215  1.00 20.00    -0.124 Cl
ENDROOT
TORSDOF 0
ENDMDL
MODEL 4
REMARK VINA RESULT:      -4.8      1.305      2.482
REMARK  0 active torsions:
REMARK  status: ('A' for Active; 'I' for Inactive)
ROOT
HETATM    1  C1  UNL     1     -35.189   5.706   4.138  1.00 20.00    -0.021 C 
HETATM    2  C2  UNL     1     -33.762   7.321   5.686  1.00 20.00    -0.021 C 
HETATM    3  C3  UNL     1     -35.095   6.183   2.870  1.00 20.00    -0.023 C 
HETATM    4  C4  UNL     1     -32.824   8.135   5.135  1.00 20.00    -0.023 C 
HETATM    5  C5  UNL     1     -33.937   5.991   4.968  1.00 20.00     0.035 C 
HETATM    6  C6  UNL     1     -34.029   7.174   2.913  1.00 20.00     0.033 C 
HETATM    7  C7  UNL     1     -32.177   7.512   3.920  1.00 20.00     0.033 C 
HETATM    8  C8  UNL     1     -33.011   6.247   3.807  1.00 20.00     0.015 C 
HETATM    9  C9  UNL     1     -32.705   7.694   2.402  1.00 20.00     0.098 C 
HETATM   10 CL10 UNL     1     -32.646   9.340   1.688  1.00 20.00    -0.124 Cl
ENDROOT
TORSDOF 0
ENDMDL
