MODEL 1
REMARK VINA RESULT:      -5.3      0.000      0.000
REMARK  1 active torsions:
REMARK  status: ('A' for Active; 'I' for Inactive)
REMARK    1  A    between atoms: C8_8  and  O12_12 
ROOT
HETATM    1  C1  UNL     1     -33.271   5.530   2.647  1.00 20.00    -0.049 C 
HETATM    2  C2  UNL     1     -34.508   4.882   4.773  1.00 20.00     0.135 C 
HETATM    3  C3  UNL     1     -32.885   4.551   1.824  1.00 20.00     0.017 C 
HETATM    4  C4  UNL     1     -34.634   5.636   6.082  1.00 20.00     0.079 C 
HETATM    5  C5  UNL     1     -33.774   6.894   6.076  1.00 20.00     0.008 C 
HETATM    6  C6  UNL     1     -34.174   7.853   4.957  1.00 20.00     0.009 C 
HETATM    7  C7  UNL     1     -34.522   5.737   3.480  1.00 20.00     0.092 C 
HETATM    8  C8  UNL     1     -32.617   6.828   3.079  1.00 20.00     0.155 C 
HETATM    9  C9  UNL     1     -34.042   7.209   3.578  1.00 20.00     0.034 C 
HETATM   10  O11 UNL     1     -34.463   3.646   4.780  1.00 20.00    -0.297 OA
ENDROOT
BRANCH   8  11
HETATM   11  O12 UNL     1     -32.103   7.639   2.009  1.00 20.00    -0.386 OA
HETATM   12  C10 UNL     1     -31.439   8.782   2.516  1.00 20.00     0.202 C 
ENDBRANCH   8  11
TORSDOF 1
ENDMDL
MODEL 2
REMARK VINA RESULT:      -4.8     11.405     12.496
REMARK  1 active torsions:
REMARK  status: ('A' for Active; 'I' for Inactive)
REMARK    1  A    between atoms: C8_8  and  O12_12 
ROOT
HETATM    1  C1  UNL     1     -33.921  14.865  -4.319  1.00 20.00    -0.049 C 
HETATM    2  C2  UNL     1     -36.062  13.853  -5.247  1.00 20.00     0.135 C 
HETATM    3  C3  UNL     1     -32.875  14.056  -4.136  1.00 20.00     0.017 C 
HETATM    4  C4  UNL     1     -37.493  14.336  -5.112  1.00 20.00     0.079 C 
HETATM    5  C5  UNL     1     -37.582  15.536  -4.179  1.00 20.00     0.008 C 
HETATM    6  C6  UNL     1     -36.750  16.713  -4.683  1.00 20.00     0.009 C 
HETATM    7  C7  UNL     1     -34.976  14.948  -5.405  1.00 20.00     0.092 C 
HETATM    8  C8  UNL     1     -34.476  16.025  -3.516  1.00 20.00     0.155 C 
HETATM    9  C9  UNL     1     -35.271  16.353  -4.814  1.00 20.00     0.034 C 
HETATM   10  O11 UNL     1     -35.827  12.639  -5.287  1.00 20.00    -0.297 OA
ENDROOT
BRANCH   8  11
HETATM   11  O12 UNL     1     -33.509  17.014  -3.121  1.00 20.00    -0.386 OA
HETATM   12  C10 UNL     1     -33.622  17.308  -1.741  1.00 20.00     0.202 C 
ENDBRANCH   8  11
TORSDOF 1
ENDMDL
MODEL 3
REMARK VINA RESULT:      -4.6     11.621     13.479
REMARK  1 active torsions:
REMARK  status: ('A' for Active; 'I' for Inactive)
REMARK    1  A    between atoms: C8_8  and  O12_12 
ROOT
HETATM    1  C1  UNL     1     -36.321  14.494  -6.782  1.00 20.00    -0.049 C 
HETATM    2  C2  UNL     1     -33.877  15.197  -6.704  1.00 20.00     0.135 C 
HETATM    3  C3  UNL     1     -36.993  14.696  -7.918  1.00 20.00     0.017 C 
HETATM    4  C4  UNL     1     -33.017  15.558  -5.510  1.00 20.00     0.079 C 
HETATM    5  C5  UNL     1     -33.841  15.590  -4.229  1.00 20.00     0.008 C 
HETATM    6  C6  UNL     1     -34.487  14.239  -3.932  1.00 20.00     0.009 C 
HETATM    7  C7  UNL     1     -34.899  14.049  -6.497  1.00 20.00     0.092 C 
HETATM    8  C8  UNL     1     -36.705  14.629  -5.322  1.00 20.00     0.155 C 
HETATM    9  C9  UNL     1     -35.419  13.792  -5.057  1.00 20.00     0.034 C 
HETATM   10  O11 UNL     1     -33.696  15.770  -7.785  1.00 20.00    -0.297 OA
ENDROOT
BRANCH   8  11
HETATM   11  O12 UNL     1     -37.940  13.992  -4.953  1.00 20.00    -0.386 OA
HETATM   12  C10 UNL     1     -38.945  14.953  -4.688  1.00 20.00     0.202 C 
ENDBRANCH   8  11
TORSDOF 1
ENDMDL
MODEL 4
REMARK VINA RESULT:      -4.4     11.862     13.549
REMARK  1 active torsions:
REMARK  status: ('A' for Active; 'I' for Inactive)
REMARK    1  A    between atoms: C8_8  and  O12_12 
ROOT
HETATM    1  C1  UNL     1     -34.611  15.631  -4.362  1.00 20.00    -0.049 C 
HETATM    2  C2  UNL     1     -35.136  13.510  -5.663  1.00 20.00     0.135 C 
HETATM    3  C3  UNL     1     -35.084  15.734  -3.117  1.00 20.00     0.017 C 
HETATM    4  C4  UNL     1     -35.190  13.288  -7.162  1.00 20.00     0.079 C 
HETATM    5  C5  UNL     1     -35.003  14.598  -7.918  1.00 20.00     0.008 C 
HETATM    6  C6  UNL     1     -33.660  15.252  -7.602  1.00 20.00     0.009 C 
HETATM    7  C7  UNL     1     -34.033  14.469  -5.146  1.00 20.00     0.092 C 
HETATM    8  C8  UNL     1     -34.462  16.631  -5.490  1.00 20.00     0.155 C 
HETATM    9  C9  UNL     1     -33.513  15.566  -6.114  1.00 20.00     0.034 C 
HETATM   10  O11 UNL     1     -35.910  12.889  -4.925  1.00 20.00    -0.297 OA
ENDROOT
BRANCH   8  11
HETATM   11  O12 UNL     1     -33.836  17.874  -5.127  1.00 20.00    -0.386 OA
HETATM   12  C10 UNL     1     -34.576  18.976  -5.620  1.00 20.00     0.202 C 
ENDBRANCH   8  11
TORSDOF 1
ENDMDL
MODEL 5
REMARK VINA RESULT:      -4.4     12.052     13.094
REMARK  1 active torsions:
REMARK  status: ('A' for Active; 'I' for Inactive)
REMARK    1  A    between atoms: C8_8  and  O12_12 
ROOT
HETATM    1  C1  UNL     1     -35.412  14.077  -5.659  1.00 20.00    -0.049 C 
HETATM    2  C2  UNL     1     -33.545  15.740  -5.192  1.00 20.00     0.135 C 
HETATM    3  C3  UNL     1     -35.285  13.276  -6.720  1.00 20.00     0.017 C 
HETATM    4  C4  UNL     1     -33.591  17.049  -4.430  1.00 20.00     0.079 C 
HETATM    5  C5  UNL     1     -35.016  17.398  -4.021  1.00 20.00     0.008 C 
HETATM    6  C6  UNL     1     -35.629  16.326  -3.121  1.00 20.00     0.009 C 
HETATM    7  C7  UNL     1     -34.418  14.586  -4.633  1.00 20.00     0.092 C 
HETATM    8  C8  UNL     1     -36.599  14.799  -5.052  1.00 20.00     0.155 C 
HETATM    9  C9  UNL     1     -35.677  14.962  -3.808  1.00 20.00     0.034 C 
HETATM   10  O11 UNL     1     -32.789  15.623  -6.164  1.00 20.00    -0.297 OA
ENDROOT
BRANCH   8  11
HETATM   11  O12 UNL     1     -37.769  13.988  -4.848  1.00 20.00    -0.386 OA
HETATM   12  C10 UNL     1     -38.944  14.707  -5.172  1.00 20.00     0.202 C 
ENDBRANCH   8  11
TORSDOF 1
ENDMDL
MODEL 6
REMARK VINA RESULT:      -4.3     11.996     13.087
REMARK  1 active torsions:
REMARK  status: ('A' for Active; 'I' for Inactive)
REMARK    1  A    between atoms: C8_8  and  O12_12 
ROOT
HETATM    1  C1  UNL     1     -36.694  14.966  -4.495  1.00 20.00    -0.049 C 
HETATM    2  C2  UNL     1     -35.465  14.127  -6.557  1.00 20.00     0.135 C 
HETATM    3  C3  UNL     1     -38.029  14.965  -4.519  1.00 20.00     0.017 C 
HETATM    4  C4  UNL     1     -34.061  14.440  -7.035  1.00 20.00     0.079 C 
HETATM    5  C5  UNL     1     -33.407  15.503  -6.161  1.00 20.00     0.008 C 
HETATM    6  C6  UNL     1     -33.304  15.058  -4.703  1.00 20.00     0.009 C 
HETATM    7  C7  UNL     1     -35.658  13.993  -5.025  1.00 20.00     0.092 C 
HETATM    8  C8  UNL     1     -35.677  15.936  -3.928  1.00 20.00     0.155 C 
HETATM    9  C9  UNL     1     -34.674  14.757  -4.099  1.00 20.00     0.034 C 
HETATM   10  O11 UNL     1     -36.364  13.934  -7.384  1.00 20.00    -0.297 OA
ENDROOT
BRANCH   8  11
HETATM   11  O12 UNL     1     -35.915  16.349  -2.571  1.00 20.00    -0.386 OA
HETATM   12  C10 UNL     1     -35.901  17.760  -2.463  1.00 20.00     0.202 C 
ENDBRANCH   8  11
TORSDOF 1
ENDMDL
MODEL 7
REMARK VINA RESULT:      -4.3     12.046     13.292
REMARK  1 active torsions:
REMARK  status: ('A' for Active; 'I' for Inactive)
REMARK    1  A    between atoms: C8_8  and  O12_12 
ROOT
HETATM    1  C1  UNL     1     -35.148  15.805  -3.806  1.00 20.00    -0.049 C 
HETATM    2  C2  UNL     1     -36.432  14.154  -5.253  1.00 20.00     0.135 C 
HETATM    3  C3  UNL     1     -35.698  16.182  -2.649  1.00 20.00     0.017 C 
HETATM    4  C4  UNL     1     -36.350  13.918  -6.748  1.00 20.00     0.079 C 
HETATM    5  C5  UNL     1     -35.431  14.933  -7.415  1.00 20.00     0.008 C 
HETATM    6  C6  UNL     1     -34.008  14.861  -6.865  1.00 20.00     0.009 C 
HETATM    7  C7  UNL     1     -35.097  14.474  -4.532  1.00 20.00     0.092 C 
HETATM    8  C8  UNL     1     -34.353  16.551  -4.858  1.00 20.00     0.155 C 
HETATM    9  C9  UNL     1     -33.963  15.131  -5.362  1.00 20.00     0.034 C 
HETATM   10  O11 UNL     1     -37.515  14.024  -4.671  1.00 20.00    -0.297 OA
ENDROOT
BRANCH   8  11
HETATM   11  O12 UNL     1     -33.264  17.345  -4.353  1.00 20.00    -0.386 OA
HETATM   12  C10 UNL     1     -33.377  18.689  -4.783  1.00 20.00     0.202 C 
ENDBRANCH   8  11
TORSDOF 1
ENDMDL
MODEL 8
REMARK VINA RESULT:      -4.3     12.108     13.329
REMARK  1 active torsions:
REMARK  status: ('A' for Active; 'I' for Inactive)
REMARK    1  A    between atoms: C8_8  and  O12_12 
ROOT
HETATM    1  C1  UNL     1     -34.081  16.819  -3.739  1.00 20.00    -0.049 C 
HETATM    2  C2  UNL     1     -33.302  18.604  -2.103  1.00 20.00     0.135 C 
HETATM    3  C3  UNL     1     -33.462  16.739  -4.919  1.00 20.00     0.017 C 
HETATM    4  C4  UNL     1     -34.056  19.263  -0.965  1.00 20.00     0.079 C 
HETATM    5  C5  UNL     1     -35.513  18.819  -0.943  1.00 20.00     0.008 C 
HETATM    6  C6  UNL     1     -35.647  17.309  -0.763  1.00 20.00     0.009 C 
HETATM    7  C7  UNL     1     -33.581  17.096  -2.334  1.00 20.00     0.092 C 
HETATM    8  C8  UNL     1     -35.532  16.666  -3.327  1.00 20.00     0.155 C 
HETATM    9  C9  UNL     1     -34.957  16.536  -1.886  1.00 20.00     0.034 C 
HETATM   10  O11 UNL     1     -32.470  19.256  -2.745  1.00 20.00    -0.297 OA
ENDROOT
BRANCH   8  11
HETATM   11  O12 UNL     1     -36.191  15.493  -3.834  1.00 20.00    -0.386 OA
HETATM   12  C10 UNL     1     -37.478  15.811  -4.332  1.00 20.00     0.202 C 
ENDBRANCH   8  11
TORSDOF 1
ENDMDL
MODEL 9
REMARK VINA RESULT:      -4.3     11.975     13.812
REMARK  1 active torsions:
REMARK  status: ('A' for Active; 'I' for Inactive)
REMARK    1  A    between atoms: C8_8  and  O12_12 
ROOT
HETATM    1  C1  UNL     1     -33.858  16.166  -6.881  1.00 20.00    -0.049 C 
HETATM    2  C2  UNL     1     -33.404  17.067  -4.547  1.00 20.00     0.135 C 
HETATM    3  C3  UNL     1     -33.721  17.003  -7.913  1.00 20.00     0.017 C 
HETATM    4  C4  UNL     1     -33.917  16.576  -3.208  1.00 20.00     0.079 C 
HETATM    5  C5  UNL     1     -34.932  15.453  -3.387  1.00 20.00     0.008 C 
HETATM    6  C6  UNL     1     -34.330  14.252  -4.113  1.00 20.00     0.009 C 
HETATM    7  C7  UNL     1     -33.069  15.979  -5.599  1.00 20.00     0.092 C 
HETATM    8  C8  UNL     1     -34.856  15.067  -6.576  1.00 20.00     0.155 C 
HETATM    9  C9  UNL     1     -33.817  14.623  -5.504  1.00 20.00     0.034 C 
HETATM   10  O11 UNL     1     -33.216  18.277  -4.724  1.00 20.00    -0.297 OA
ENDROOT
BRANCH   8  11
HETATM   11  O12 UNL     1     -35.078  14.128  -7.643  1.00 20.00    -0.386 OA
HETATM   12  C10 UNL     1     -36.460  13.985  -7.910  1.00 20.00     0.202 C 
ENDBRANCH   8  11
TORSDOF 1
ENDMDL
