MODEL 1
REMARK VINA RESULT:      -6.8      0.000      0.000
REMARK  0 active torsions:
REMARK  status: ('A' for Active; 'I' for Inactive)
ROOT
HETATM    1  C1  UNL     1     -33.061   8.066   5.209  1.00 20.00     0.004 C 
HETATM    2  C2  UNL     1     -33.731   7.353   6.164  1.00 20.00    -0.017 C 
HETATM    3  C3  UNL     1     -34.591   4.727   5.648  1.00 20.00    -0.021 C 
HETATM    4  C4  UNL     1     -34.422   4.176   4.404  1.00 20.00    -0.024 C 
HETATM    5  C5  UNL     1     -32.770   7.144   2.693  1.00 20.00    -0.019 C 
HETATM    6  C6  UNL     1     -33.054   7.320   3.983  1.00 20.00    -0.056 C 
HETATM    7  C7  UNL     1     -33.135   5.676   2.291  1.00 20.00     0.036 C 
HETATM    8  C8  UNL     1     -34.522   6.229   5.542  1.00 20.00     0.039 C 
HETATM    9  C9  UNL     1     -34.170   5.267   3.372  1.00 20.00     0.020 C 
HETATM   10  C10 UNL     1     -33.519   6.045   4.459  1.00 20.00     0.037 C 
ENDROOT
TORSDOF 0
ENDMDL
MODEL 2
REMARK VINA RESULT:      -6.8      0.371      2.626
REMARK  0 active torsions:
REMARK  status: ('A' for Active; 'I' for Inactive)
ROOT
HETATM    1  C1  UNL     1     -33.861   7.394   6.169  1.00 20.00     0.004 C 
HETATM    2  C2  UNL     1     -33.264   8.155   5.202  1.00 20.00    -0.017 C 
HETATM    3  C3  UNL     1     -33.069   7.216   2.560  1.00 20.00    -0.021 C 
HETATM    4  C4  UNL     1     -33.493   5.950   2.244  1.00 20.00    -0.024 C 
HETATM    5  C5  UNL     1     -34.624   4.851   5.705  1.00 20.00    -0.019 C 
HETATM    6  C6  UNL     1     -34.169   6.102   5.628  1.00 20.00    -0.056 C 
HETATM    7  C7  UNL     1     -34.640   4.231   4.267  1.00 20.00     0.036 C 
HETATM    8  C8  UNL     1     -32.815   7.300   4.044  1.00 20.00     0.039 C 
HETATM    9  C9  UNL     1     -33.609   5.101   3.502  1.00 20.00     0.020 C 
HETATM   10  C10 UNL     1     -33.947   6.353   4.229  1.00 20.00     0.037 C 
ENDROOT
TORSDOF 0
ENDMDL
MODEL 3
REMARK VINA RESULT:      -6.7      0.281      3.081
REMARK  0 active torsions:
REMARK  status: ('A' for Active; 'I' for Inactive)
ROOT
HETATM    1  C1  UNL     1     -34.705   4.928   5.791  1.00 20.00     0.004 C 
HETATM    2  C2  UNL     1     -34.619   4.310   4.574  1.00 20.00    -0.017 C 
HETATM    3  C3  UNL     1     -33.204   5.506   2.460  1.00 20.00    -0.021 C 
HETATM    4  C4  UNL     1     -32.667   6.760   2.610  1.00 20.00    -0.024 C 
HETATM    5  C5  UNL     1     -33.799   7.437   6.177  1.00 20.00    -0.019 C 
HETATM    6  C6  UNL     1     -34.129   6.238   5.696  1.00 20.00    -0.056 C 
HETATM    7  C7  UNL     1     -32.930   8.187   5.112  1.00 20.00     0.036 C 
HETATM    8  C8  UNL     1     -34.288   5.303   3.488  1.00 20.00     0.039 C 
HETATM    9  C9  UNL     1     -33.313   7.475   3.788  1.00 20.00     0.020 C 
HETATM   10  C10 UNL     1     -33.480   6.138   4.416  1.00 20.00     0.037 C 
ENDROOT
TORSDOF 0
ENDMDL
MODEL 4
REMARK VINA RESULT:      -6.7      0.266      3.232
REMARK  0 active torsions:
REMARK  status: ('A' for Active; 'I' for Inactive)
ROOT
HETATM    1  C1  UNL     1     -33.222   5.503   2.409  1.00 20.00     0.004 C 
HETATM    2  C2  UNL     1     -32.817   6.799   2.570  1.00 20.00    -0.017 C 
HETATM    3  C3  UNL     1     -33.041   8.069   5.068  1.00 20.00    -0.021 C 
HETATM    4  C4  UNL     1     -33.640   7.424   6.120  1.00 20.00    -0.024 C 
HETATM    5  C5  UNL     1     -34.520   4.170   4.359  1.00 20.00    -0.019 C 
HETATM    6  C6  UNL     1     -33.864   5.058   3.612  1.00 20.00    -0.056 C 
HETATM    7  C7  UNL     1     -34.646   4.729   5.816  1.00 20.00     0.036 C 
HETATM    8  C8  UNL     1     -33.474   7.424   3.776  1.00 20.00     0.039 C 
HETATM    9  C9  UNL     1     -34.481   6.258   5.616  1.00 20.00     0.020 C 
HETATM   10  C10 UNL     1     -33.502   6.127   4.504  1.00 20.00     0.037 C 
ENDROOT
TORSDOF 0
ENDMDL
MODEL 5
REMARK VINA RESULT:      -6.6      0.774      2.275
REMARK  0 active torsions:
REMARK  status: ('A' for Active; 'I' for Inactive)
ROOT
HETATM    1  C1  UNL     1     -32.284   7.142   2.601  1.00 20.00     0.004 C 
HETATM    2  C2  UNL     1     -32.471   8.045   3.610  1.00 20.00    -0.017 C 
HETATM    3  C3  UNL     1     -33.859   7.316   5.943  1.00 20.00    -0.021 C 
HETATM    4  C4  UNL     1     -34.435   6.075   6.045  1.00 20.00    -0.024 C 
HETATM    5  C5  UNL     1     -33.463   4.718   2.628  1.00 20.00    -0.019 C 
HETATM    6  C6  UNL     1     -33.017   5.945   2.898  1.00 20.00    -0.056 C 
HETATM    7  C7  UNL     1     -34.199   4.159   3.891  1.00 20.00     0.036 C 
HETATM    8  C8  UNL     1     -33.628   7.640   4.489  1.00 20.00     0.039 C 
HETATM    9  C9  UNL     1     -34.584   5.445   4.667  1.00 20.00     0.020 C 
HETATM   10  C10 UNL     1     -33.360   6.192   4.273  1.00 20.00     0.037 C 
ENDROOT
TORSDOF 0
ENDMDL
MODEL 6
REMARK VINA RESULT:      -6.5      0.757      3.643
REMARK  0 active torsions:
REMARK  status: ('A' for Active; 'I' for Inactive)
ROOT
HETATM    1  C1  UNL     1     -34.185   4.187   3.820  1.00 20.00     0.004 C 
HETATM    2  C2  UNL     1     -33.512   4.615   2.709  1.00 20.00    -0.017 C 
HETATM    3  C3  UNL     1     -32.276   7.140   2.671  1.00 20.00    -0.021 C 
HETATM    4  C4  UNL     1     -32.415   7.994   3.736  1.00 20.00    -0.024 C 
HETATM    5  C5  UNL     1     -34.631   5.811   5.925  1.00 20.00    -0.019 C 
HETATM    6  C6  UNL     1     -34.251   5.257   4.773  1.00 20.00    -0.056 C 
HETATM    7  C7  UNL     1     -33.940   7.209   6.065  1.00 20.00     0.036 C 
HETATM    8  C8  UNL     1     -33.385   6.119   2.703  1.00 20.00     0.039 C 
HETATM    9  C9  UNL     1     -33.599   7.577   4.597  1.00 20.00     0.020 C 
HETATM   10  C10 UNL     1     -33.312   6.176   4.188  1.00 20.00     0.037 C 
ENDROOT
TORSDOF 0
ENDMDL
MODEL 7
REMARK VINA RESULT:      -6.5      0.375      2.626
REMARK  0 active torsions:
REMARK  status: ('A' for Active; 'I' for Inactive)
ROOT
HETATM    1  C1  UNL     1     -34.586   4.288   4.301  1.00 20.00     0.004 C 
HETATM    2  C2  UNL     1     -34.738   4.777   5.569  1.00 20.00    -0.017 C 
HETATM    3  C3  UNL     1     -33.972   7.411   6.187  1.00 20.00    -0.021 C 
HETATM    4  C4  UNL     1     -33.359   8.192   5.241  1.00 20.00    -0.024 C 
HETATM    5  C5  UNL     1     -33.290   5.677   2.389  1.00 20.00    -0.019 C 
HETATM    6  C6  UNL     1     -33.877   5.250   3.507  1.00 20.00    -0.056 C 
HETATM    7  C7  UNL     1     -32.880   7.176   2.576  1.00 20.00     0.036 C 
HETATM    8  C8  UNL     1     -33.830   5.960   5.803  1.00 20.00     0.039 C 
HETATM    9  C9  UNL     1     -32.805   7.327   4.118  1.00 20.00     0.020 C 
HETATM   10  C10 UNL     1     -33.929   6.390   4.383  1.00 20.00     0.037 C 
ENDROOT
TORSDOF 0
ENDMDL
MODEL 8
REMARK VINA RESULT:      -6.3      0.418      2.603
REMARK  0 active torsions:
REMARK  status: ('A' for Active; 'I' for Inactive)
ROOT
HETATM    1  C1  UNL     1     -32.883   6.951   2.522  1.00 20.00     0.004 C 
HETATM    2  C2  UNL     1     -33.352   5.686   2.304  1.00 20.00    -0.017 C 
HETATM    3  C3  UNL     1     -34.730   4.305   4.328  1.00 20.00    -0.021 C 
HETATM    4  C4  UNL     1     -34.862   4.858   5.576  1.00 20.00    -0.024 C 
HETATM    5  C5  UNL     1     -32.973   8.101   4.958  1.00 20.00    -0.019 C 
HETATM    6  C6  UNL     1     -33.080   7.297   3.900  1.00 20.00    -0.056 C 
HETATM    7  C7  UNL     1     -33.773   7.476   6.150  1.00 20.00     0.036 C 
HETATM    8  C8  UNL     1     -33.581   4.964   3.610  1.00 20.00     0.039 C 
HETATM    9  C9  UNL     1     -33.844   5.974   5.771  1.00 20.00     0.020 C 
HETATM   10  C10 UNL     1     -33.947   6.225   4.309  1.00 20.00     0.037 C 
ENDROOT
TORSDOF 0
ENDMDL
MODEL 9
REMARK VINA RESULT:      -6.1      1.018      2.779
REMARK  0 active torsions:
REMARK  status: ('A' for Active; 'I' for Inactive)
ROOT
HETATM    1  C1  UNL     1     -31.897   8.327   3.771  1.00 20.00     0.004 C 
HETATM    2  C2  UNL     1     -32.201   7.691   2.599  1.00 20.00    -0.017 C 
HETATM    3  C3  UNL     1     -34.359   5.895   2.464  1.00 20.00    -0.021 C 
HETATM    4  C4  UNL     1     -35.066   5.577   3.596  1.00 20.00    -0.024 C 
HETATM    5  C5  UNL     1     -33.129   7.703   6.085  1.00 20.00    -0.019 C 
HETATM    6  C6  UNL     1     -32.721   7.800   4.820  1.00 20.00    -0.056 C 
HETATM    7  C7  UNL     1     -34.391   6.778   6.140  1.00 20.00     0.036 C 
HETATM    8  C8  UNL     1     -33.011   6.445   2.856  1.00 20.00     0.039 C 
HETATM    9  C9  UNL     1     -34.266   5.942   4.839  1.00 20.00     0.020 C 
HETATM   10  C10 UNL     1     -33.672   7.050   4.044  1.00 20.00     0.037 C 
ENDROOT
TORSDOF 0
ENDMDL
