MODEL 1
REMARK VINA RESULT:      -5.5      0.000      0.000
REMARK  0 active torsions:
REMARK  status: ('A' for Active; 'I' for Inactive)
ROOT
HETATM    1  C1  UNL     1     -34.394  14.035  -4.126  1.00 20.00    -0.019 A 
HETATM    2  C2  UNL     1     -33.200  14.597  -4.382  1.00 20.00    -0.019 A 
HETATM    3  C3  UNL     1     -35.176  16.503  -2.383  1.00 20.00    -0.023 C 
HETATM    4  C4  UNL     1     -33.980  17.066  -2.624  1.00 20.00    -0.086 C 
HETATM    5  C5  UNL     1     -36.035  15.904  -3.455  1.00 20.00     0.042 C 
HETATM    6  C6  UNL     1     -33.410  17.140  -4.018  1.00 20.00     0.048 C 
HETATM    7  C7  UNL     1     -35.299  14.423  -6.992  1.00 20.00     0.001 C 
HETATM    8  C8  UNL     1     -33.941  15.065  -7.285  1.00 20.00     0.001 C 
HETATM    9  C9  UNL     1     -36.067  15.052  -5.831  1.00 20.00     0.015 C 
HETATM   10  C10 UNL     1     -33.571  16.229  -6.368  1.00 20.00     0.015 C 
HETATM   11  C11 UNL     1     -35.197  15.261  -4.576  1.00 20.00    -0.009 A 
HETATM   12  C12 UNL     1     -33.802  15.919  -4.876  1.00 20.00    -0.008 A 
HETATM   13  C13 UNL     1     -33.160  17.686  -1.532  1.00 20.00     0.043 C 
ENDROOT
TORSDOF 0
ENDMDL
MODEL 2
REMARK VINA RESULT:      -5.3      0.407      4.323
REMARK  0 active torsions:
REMARK  status: ('A' for Active; 'I' for Inactive)
ROOT
HETATM    1  C1  UNL     1     -33.174  14.610  -4.304  1.00 20.00    -0.019 A 
HETATM    2  C2  UNL     1     -34.384  14.091  -4.034  1.00 20.00    -0.019 A 
HETATM    3  C3  UNL     1     -34.067  15.146  -7.246  1.00 20.00    -0.023 C 
HETATM    4  C4  UNL     1     -35.275  14.617  -6.987  1.00 20.00    -0.086 C 
HETATM    5  C5  UNL     1     -33.401  16.151  -6.356  1.00 20.00     0.042 C 
HETATM    6  C6  UNL     1     -36.061  15.009  -5.762  1.00 20.00     0.048 C 
HETATM    7  C7  UNL     1     -33.718  17.032  -2.565  1.00 20.00     0.001 C 
HETATM    8  C8  UNL     1     -35.098  16.443  -2.258  1.00 20.00     0.001 C 
HETATM    9  C9  UNL     1     -33.404  17.184  -4.052  1.00 20.00     0.015 C 
HETATM   10  C10 UNL     1     -35.937  16.100  -3.488  1.00 20.00     0.015 C 
HETATM   11  C11 UNL     1     -33.735  15.920  -4.870  1.00 20.00    -0.009 A 
HETATM   12  C12 UNL     1     -35.150  15.314  -4.555  1.00 20.00    -0.008 A 
HETATM   13  C13 UNL     1     -35.928  13.638  -7.917  1.00 20.00     0.043 C 
ENDROOT
TORSDOF 0
ENDMDL
MODEL 3
REMARK VINA RESULT:      -4.9      1.190      2.642
REMARK  0 active torsions:
REMARK  status: ('A' for Active; 'I' for Inactive)
ROOT
HETATM    1  C1  UNL     1     -34.623  16.885  -6.252  1.00 20.00    -0.019 A 
HETATM    2  C2  UNL     1     -35.884  16.923  -5.789  1.00 20.00    -0.019 A 
HETATM    3  C3  UNL     1     -33.610  16.080  -3.412  1.00 20.00    -0.023 C 
HETATM    4  C4  UNL     1     -34.866  16.128  -2.939  1.00 20.00    -0.086 C 
HETATM    5  C5  UNL     1     -33.235  15.384  -4.685  1.00 20.00     0.042 C 
HETATM    6  C6  UNL     1     -36.008  15.466  -3.666  1.00 20.00     0.048 C 
HETATM    7  C7  UNL     1     -35.205  14.419  -7.916  1.00 20.00     0.001 C 
HETATM    8  C8  UNL     1     -36.642  14.459  -7.387  1.00 20.00     0.001 C 
HETATM    9  C9  UNL     1     -34.126  14.404  -6.834  1.00 20.00     0.015 C 
HETATM   10  C10 UNL     1     -36.764  14.480  -5.865  1.00 20.00     0.015 C 
HETATM   11  C11 UNL     1     -34.354  15.465  -5.740  1.00 20.00    -0.009 A 
HETATM   12  C12 UNL     1     -35.829  15.508  -5.198  1.00 20.00    -0.008 A 
HETATM   13  C13 UNL     1     -35.201  16.806  -1.643  1.00 20.00     0.043 C 
ENDROOT
TORSDOF 0
ENDMDL
MODEL 4
REMARK VINA RESULT:      -4.8      1.142      2.398
REMARK  0 active torsions:
REMARK  status: ('A' for Active; 'I' for Inactive)
ROOT
HETATM    1  C1  UNL     1     -36.424  16.804  -4.790  1.00 20.00    -0.019 A 
HETATM    2  C2  UNL     1     -36.291  16.067  -3.674  1.00 20.00    -0.019 A 
HETATM    3  C3  UNL     1     -33.657  18.137  -4.235  1.00 20.00    -0.023 C 
HETATM    4  C4  UNL     1     -33.522  17.413  -3.111  1.00 20.00    -0.086 C 
HETATM    5  C5  UNL     1     -34.077  17.549  -5.548  1.00 20.00     0.042 C 
HETATM    6  C6  UNL     1     -33.783  15.928  -3.094  1.00 20.00     0.048 C 
HETATM    7  C7  UNL     1     -36.098  14.363  -6.557  1.00 20.00     0.001 C 
HETATM    8  C8  UNL     1     -35.944  13.523  -5.286  1.00 20.00     0.001 C 
HETATM    9  C9  UNL     1     -35.137  15.546  -6.662  1.00 20.00     0.015 C 
HETATM   10  C10 UNL     1     -34.856  14.004  -4.328  1.00 20.00     0.015 C 
HETATM   11  C11 UNL     1     -35.068  16.383  -5.369  1.00 20.00    -0.009 A 
HETATM   12  C12 UNL     1     -34.911  15.521  -4.064  1.00 20.00    -0.008 A 
HETATM   13  C13 UNL     1     -33.067  18.028  -1.821  1.00 20.00     0.043 C 
ENDROOT
TORSDOF 0
ENDMDL
MODEL 5
REMARK VINA RESULT:      -4.7      1.386      4.273
REMARK  0 active torsions:
REMARK  status: ('A' for Active; 'I' for Inactive)
ROOT
HETATM    1  C1  UNL     1     -33.347  15.914  -4.459  1.00 20.00    -0.019 A 
HETATM    2  C2  UNL     1     -34.046  15.119  -3.630  1.00 20.00    -0.019 A 
HETATM    3  C3  UNL     1     -35.888  16.292  -6.231  1.00 20.00    -0.023 C 
HETATM    4  C4  UNL     1     -36.590  15.489  -5.415  1.00 20.00    -0.086 C 
HETATM    5  C5  UNL     1     -35.013  17.405  -5.739  1.00 20.00     0.042 C 
HETATM    6  C6  UNL     1     -36.550  15.658  -3.917  1.00 20.00     0.048 C 
HETATM    7  C7  UNL     1     -33.169  18.101  -2.368  1.00 20.00     0.001 C 
HETATM    8  C8  UNL     1     -33.967  17.198  -1.424  1.00 20.00     0.001 C 
HETATM    9  C9  UNL     1     -33.831  18.355  -3.721  1.00 20.00     0.015 C 
HETATM   10  C10 UNL     1     -35.295  16.696  -1.987  1.00 20.00     0.015 C 
HETATM   11  C11 UNL     1     -34.353  17.069  -4.388  1.00 20.00    -0.009 A 
HETATM   12  C12 UNL     1     -35.172  16.140  -3.419  1.00 20.00    -0.008 A 
HETATM   13  C13 UNL     1     -37.483  14.406  -5.942  1.00 20.00     0.043 C 
ENDROOT
TORSDOF 0
ENDMDL
MODEL 6
REMARK VINA RESULT:      -4.7     11.166     12.934
REMARK  0 active torsions:
REMARK  status: ('A' for Active; 'I' for Inactive)
ROOT
HETATM    1  C1  UNL     1     -35.232   6.153   3.067  1.00 20.00    -0.019 A 
HETATM    2  C2  UNL     1     -35.109   7.295   3.766  1.00 20.00    -0.019 A 
HETATM    3  C3  UNL     1     -32.484   6.704   1.694  1.00 20.00    -0.023 C 
HETATM    4  C4  UNL     1     -32.359   7.853   2.379  1.00 20.00    -0.086 C 
HETATM    5  C5  UNL     1     -32.880   5.406   2.328  1.00 20.00     0.042 C 
HETATM    6  C6  UNL     1     -32.609   7.915   3.865  1.00 20.00     0.048 C 
HETATM    7  C7  UNL     1     -34.860   4.472   5.561  1.00 20.00     0.001 C 
HETATM    8  C8  UNL     1     -34.718   5.772   6.359  1.00 20.00     0.001 C 
HETATM    9  C9  UNL     1     -33.908   4.343   4.374  1.00 20.00     0.015 C 
HETATM   10  C10 UNL     1     -33.648   6.729   5.838  1.00 20.00     0.015 C 
HETATM   11  C11 UNL     1     -33.864   5.608   3.495  1.00 20.00    -0.009 A 
HETATM   12  C12 UNL     1     -33.719   6.942   4.313  1.00 20.00    -0.008 A 
HETATM   13  C13 UNL     1     -31.928   9.128   1.719  1.00 20.00     0.043 C 
ENDROOT
TORSDOF 0
ENDMDL
MODEL 7
REMARK VINA RESULT:      -4.6      1.234      4.079
REMARK  0 active torsions:
REMARK  status: ('A' for Active; 'I' for Inactive)
ROOT
HETATM    1  C1  UNL     1     -35.825  17.183  -5.145  1.00 20.00    -0.019 A 
HETATM    2  C2  UNL     1     -34.567  16.862  -5.494  1.00 20.00    -0.019 A 
HETATM    3  C3  UNL     1     -36.717  14.240  -5.673  1.00 20.00    -0.023 C 
HETATM    4  C4  UNL     1     -35.465  13.914  -6.035  1.00 20.00    -0.086 C 
HETATM    5  C5  UNL     1     -37.038  15.024  -4.437  1.00 20.00     0.042 C 
HETATM    6  C6  UNL     1     -34.273  14.318  -5.205  1.00 20.00     0.048 C 
HETATM    7  C7  UNL     1     -35.028  17.553  -2.244  1.00 20.00     0.001 C 
HETATM    8  C8  UNL     1     -33.595  17.185  -2.640  1.00 20.00     0.001 C 
HETATM    9  C9  UNL     1     -36.085  16.527  -2.647  1.00 20.00     0.015 C 
HETATM   10  C10 UNL     1     -33.455  15.854  -3.375  1.00 20.00     0.015 C 
HETATM   11  C11 UNL     1     -35.947  16.060  -4.108  1.00 20.00    -0.009 A 
HETATM   12  C12 UNL     1     -34.476  15.683  -4.516  1.00 20.00    -0.008 A 
HETATM   13  C13 UNL     1     -35.181  13.099  -7.262  1.00 20.00     0.043 C 
ENDROOT
TORSDOF 0
ENDMDL
MODEL 8
REMARK VINA RESULT:      -4.5      1.111      2.272
REMARK  0 active torsions:
REMARK  status: ('A' for Active; 'I' for Inactive)
ROOT
HETATM    1  C1  UNL     1     -35.800  16.941  -5.401  1.00 20.00    -0.019 A 
HETATM    2  C2  UNL     1     -35.860  15.906  -4.545  1.00 20.00    -0.019 A 
HETATM    3  C3  UNL     1     -33.764  18.374  -3.519  1.00 20.00    -0.023 C 
HETATM    4  C4  UNL     1     -33.828  17.350  -2.652  1.00 20.00    -0.086 C 
HETATM    5  C5  UNL     1     -33.586  18.193  -4.996  1.00 20.00     0.042 C 
HETATM    6  C6  UNL     1     -33.716  15.919  -3.113  1.00 20.00     0.048 C 
HETATM    7  C7  UNL     1     -34.347  15.270  -7.470  1.00 20.00     0.001 C 
HETATM    8  C8  UNL     1     -34.412  14.091  -6.495  1.00 20.00     0.001 C 
HETATM    9  C9  UNL     1     -33.717  16.539  -6.898  1.00 20.00     0.015 C 
HETATM   10  C10 UNL     1     -33.839  14.374  -5.108  1.00 20.00     0.015 C 
HETATM   11  C11 UNL     1     -34.271  16.913  -5.510  1.00 20.00    -0.009 A 
HETATM   12  C12 UNL     1     -34.339  15.703  -4.508  1.00 20.00    -0.008 A 
HETATM   13  C13 UNL     1     -33.974  17.568  -1.176  1.00 20.00     0.043 C 
ENDROOT
TORSDOF 0
ENDMDL
MODEL 9
REMARK VINA RESULT:      -4.5      1.211      4.081
REMARK  0 active torsions:
REMARK  status: ('A' for Active; 'I' for Inactive)
ROOT
HETATM    1  C1  UNL     1     -35.944  16.351  -4.029  1.00 20.00    -0.019 A 
HETATM    2  C2  UNL     1     -35.722  17.190  -5.056  1.00 20.00    -0.019 A 
HETATM    3  C3  UNL     1     -34.174  14.189  -5.418  1.00 20.00    -0.023 C 
HETATM    4  C4  UNL     1     -33.958  15.016  -6.455  1.00 20.00    -0.086 C 
HETATM    5  C5  UNL     1     -34.044  14.612  -3.987  1.00 20.00     0.042 C 
HETATM    6  C6  UNL     1     -33.557  16.455  -6.245  1.00 20.00     0.048 C 
HETATM    7  C7  UNL     1     -34.276  18.053  -2.155  1.00 20.00     0.001 C 
HETATM    8  C8  UNL     1     -34.021  19.007  -3.325  1.00 20.00     0.001 C 
HETATM    9  C9  UNL     1     -33.914  16.594  -2.429  1.00 20.00     0.015 C 
HETATM   10  C10 UNL     1     -33.447  18.348  -4.577  1.00 20.00     0.015 C 
HETATM   11  C11 UNL     1     -34.456  16.081  -3.777  1.00 20.00    -0.009 A 
HETATM   12  C12 UNL     1     -34.195  17.061  -4.979  1.00 20.00    -0.008 A 
HETATM   13  C13 UNL     1     -34.064  14.552  -7.877  1.00 20.00     0.043 C 
ENDROOT
TORSDOF 0
ENDMDL
