MODEL 1
REMARK VINA RESULT:      -7.0      0.000      0.000
REMARK  0 active torsions:
REMARK  status: ('A' for Active; 'I' for Inactive)
ROOT
HETATM    1  C1  UNL     1     -34.396   4.647   5.609  1.00 20.00    -0.025 A 
HETATM    2  C2  UNL     1     -34.044   4.079   4.452  1.00 20.00    -0.025 A 
HETATM    3  C3  UNL     1     -33.993   7.115   6.082  1.00 20.00     0.009 C 
HETATM    4  C4  UNL     1     -32.887   5.404   2.628  1.00 20.00     0.009 C 
HETATM    5  C5  UNL     1     -32.940   7.429   5.024  1.00 20.00     0.005 C 
HETATM    6  C6  UNL     1     -32.941   6.923   2.500  1.00 20.00     0.005 C 
HETATM    7  C7  UNL     1     -34.886   6.051   5.443  1.00 20.00     0.013 A 
HETATM    8  C8  UNL     1     -34.208   5.006   3.292  1.00 20.00     0.013 A 
HETATM    9  C9  UNL     1     -33.730   7.383   3.715  1.00 20.00    -0.009 C 
HETATM   10  C10 UNL     1     -34.780   6.288   3.929  1.00 20.00     0.005 A 
ENDROOT
TORSDOF 0
ENDMDL
MODEL 2
REMARK VINA RESULT:      -7.0      0.836      3.434
REMARK  0 active torsions:
REMARK  status: ('A' for Active; 'I' for Inactive)
ROOT
HETATM    1  C1  UNL     1     -32.486   6.943   2.793  1.00 20.00    -0.025 A 
HETATM    2  C2  UNL     1     -32.661   7.673   3.898  1.00 20.00    -0.025 A 
HETATM    3  C3  UNL     1     -33.353   4.558   2.596  1.00 20.00     0.009 C 
HETATM    4  C4  UNL     1     -33.834   6.726   5.935  1.00 20.00     0.009 C 
HETATM    5  C5  UNL     1     -33.560   4.219   4.068  1.00 20.00     0.005 C 
HETATM    6  C6  UNL     1     -34.791   5.539   5.904  1.00 20.00     0.005 C 
HETATM    7  C7  UNL     1     -33.652   6.054   2.492  1.00 20.00     0.013 A 
HETATM    8  C8  UNL     1     -33.969   7.391   4.563  1.00 20.00     0.013 A 
HETATM    9  C9  UNL     1     -34.772   5.067   4.459  1.00 20.00    -0.009 C 
HETATM   10  C10 UNL     1     -34.632   6.353   3.637  1.00 20.00     0.005 A 
ENDROOT
TORSDOF 0
ENDMDL
MODEL 3
REMARK VINA RESULT:      -6.9      0.323      2.987
REMARK  0 active torsions:
REMARK  status: ('A' for Active; 'I' for Inactive)
ROOT
HETATM    1  C1  UNL     1     -33.116   7.885   5.028  1.00 20.00    -0.025 A 
HETATM    2  C2  UNL     1     -33.622   7.136   6.013  1.00 20.00    -0.025 A 
HETATM    3  C3  UNL     1     -32.707   6.953   2.696  1.00 20.00     0.009 C 
HETATM    4  C4  UNL     1     -34.177   4.689   5.662  1.00 20.00     0.009 C 
HETATM    5  C5  UNL     1     -32.718   5.457   2.992  1.00 20.00     0.005 C 
HETATM    6  C6  UNL     1     -34.432   4.050   4.300  1.00 20.00     0.005 C 
HETATM    7  C7  UNL     1     -33.699   7.557   3.690  1.00 20.00     0.013 A 
HETATM    8  C8  UNL     1     -34.624   6.146   5.516  1.00 20.00     0.013 A 
HETATM    9  C9  UNL     1     -34.188   5.169   3.299  1.00 20.00    -0.009 C 
HETATM   10  C10 UNL     1     -34.697   6.432   4.003  1.00 20.00     0.005 A 
ENDROOT
TORSDOF 0
ENDMDL
MODEL 4
REMARK VINA RESULT:      -6.7      0.305      2.970
REMARK  0 active torsions:
REMARK  status: ('A' for Active; 'I' for Inactive)
ROOT
HETATM    1  C1  UNL     1     -33.042   5.404   2.620  1.00 20.00    -0.025 A 
HETATM    2  C2  UNL     1     -32.620   6.645   2.880  1.00 20.00    -0.025 A 
HETATM    3  C3  UNL     1     -34.276   4.005   4.351  1.00 20.00     0.009 C 
HETATM    4  C4  UNL     1     -32.966   7.709   5.154  1.00 20.00     0.009 C 
HETATM    5  C5  UNL     1     -33.899   4.751   5.626  1.00 20.00     0.005 C 
HETATM    6  C6  UNL     1     -34.023   7.266   6.160  1.00 20.00     0.005 C 
HETATM    7  C7  UNL     1     -34.351   5.086   3.272  1.00 20.00     0.013 A 
HETATM    8  C8  UNL     1     -33.556   7.386   3.778  1.00 20.00     0.013 A 
HETATM    9  C9  UNL     1     -34.685   6.059   5.516  1.00 20.00    -0.009 C 
HETATM   10  C10 UNL     1     -34.700   6.382   4.018  1.00 20.00     0.005 A 
ENDROOT
TORSDOF 0
ENDMDL
MODEL 5
REMARK VINA RESULT:      -4.4     11.928     13.423
REMARK  0 active torsions:
REMARK  status: ('A' for Active; 'I' for Inactive)
ROOT
HETATM    1  C1  UNL     1     -35.605  13.748  -6.253  1.00 20.00    -0.025 A 
HETATM    2  C2  UNL     1     -35.899  13.834  -4.952  1.00 20.00    -0.025 A 
HETATM    3  C3  UNL     1     -33.979  15.348  -7.380  1.00 20.00     0.009 C 
HETATM    4  C4  UNL     1     -34.899  15.644  -3.487  1.00 20.00     0.009 C 
HETATM    5  C5  UNL     1     -33.961  16.484  -6.361  1.00 20.00     0.005 C 
HETATM    6  C6  UNL     1     -33.616  16.403  -3.811  1.00 20.00     0.005 C 
HETATM    7  C7  UNL     1     -34.176  14.080  -6.549  1.00 20.00     0.013 A 
HETATM    8  C8  UNL     1     -34.728  14.265  -4.133  1.00 20.00     0.013 A 
HETATM    9  C9  UNL     1     -33.198  15.885  -5.178  1.00 20.00    -0.009 C 
HETATM   10  C10 UNL     1     -33.593  14.404  -5.166  1.00 20.00     0.005 A 
ENDROOT
TORSDOF 0
ENDMDL
MODEL 6
REMARK VINA RESULT:      -4.4      1.109      2.569
REMARK  0 active torsions:
REMARK  status: ('A' for Active; 'I' for Inactive)
ROOT
HETATM    1  C1  UNL     1     -34.016   6.990   5.888  1.00 20.00    -0.025 A 
HETATM    2  C2  UNL     1     -33.165   7.907   5.419  1.00 20.00    -0.025 A 
HETATM    3  C3  UNL     1     -35.314   5.437   4.345  1.00 20.00     0.009 C 
HETATM    4  C4  UNL     1     -32.802   8.225   2.932  1.00 20.00     0.009 C 
HETATM    5  C5  UNL     1     -35.193   6.195   3.027  1.00 20.00     0.005 C 
HETATM    6  C6  UNL     1     -33.106   7.168   1.875  1.00 20.00     0.005 C 
HETATM    7  C7  UNL     1     -34.009   5.726   5.086  1.00 20.00     0.013 A 
HETATM    8  C8  UNL     1     -32.444   7.441   4.197  1.00 20.00     0.013 A 
HETATM    9  C9  UNL     1     -33.721   6.015   2.651  1.00 20.00    -0.009 C 
HETATM   10  C10 UNL     1     -32.972   6.009   3.988  1.00 20.00     0.005 A 
ENDROOT
TORSDOF 0
ENDMDL
MODEL 7
REMARK VINA RESULT:      -4.3     11.929     13.511
REMARK  0 active torsions:
REMARK  status: ('A' for Active; 'I' for Inactive)
ROOT
HETATM    1  C1  UNL     1     -34.783  15.527  -3.637  1.00 20.00    -0.025 A 
HETATM    2  C2  UNL     1     -34.014  16.437  -4.244  1.00 20.00    -0.025 A 
HETATM    3  C3  UNL     1     -35.923  13.649  -4.921  1.00 20.00     0.009 C 
HETATM    4  C4  UNL     1     -33.661  16.407  -6.753  1.00 20.00     0.009 C 
HETATM    5  C5  UNL     1     -35.859  14.207  -6.339  1.00 20.00     0.005 C 
HETATM    6  C6  UNL     1     -33.860  15.180  -7.636  1.00 20.00     0.005 C 
HETATM    7  C7  UNL     1     -34.655  14.163  -4.239  1.00 20.00     0.013 A 
HETATM    8  C8  UNL     1     -33.244  15.858  -5.385  1.00 20.00     0.013 A 
HETATM    9  C9  UNL     1     -34.374  14.106  -6.691  1.00 20.00    -0.009 C 
HETATM   10  C10 UNL     1     -33.639  14.369  -5.373  1.00 20.00     0.005 A 
ENDROOT
TORSDOF 0
ENDMDL
MODEL 8
REMARK VINA RESULT:      -4.3     11.931     13.337
REMARK  0 active torsions:
REMARK  status: ('A' for Active; 'I' for Inactive)
ROOT
HETATM    1  C1  UNL     1     -33.352  16.606  -5.652  1.00 20.00    -0.025 A 
HETATM    2  C2  UNL     1     -33.776  15.995  -6.763  1.00 20.00    -0.025 A 
HETATM    3  C3  UNL     1     -34.281  16.028  -3.354  1.00 20.00     0.009 C 
HETATM    4  C4  UNL     1     -35.593  14.231  -6.691  1.00 20.00     0.009 C 
HETATM    5  C5  UNL     1     -35.576  15.325  -3.750  1.00 20.00     0.005 C 
HETATM    6  C6  UNL     1     -35.967  13.430  -5.447  1.00 20.00     0.005 C 
HETATM    7  C7  UNL     1     -33.293  15.689  -4.471  1.00 20.00     0.013 A 
HETATM    8  C8  UNL     1     -34.106  14.557  -6.529  1.00 20.00     0.013 A 
HETATM    9  C9  UNL     1     -35.091  14.002  -4.344  1.00 20.00    -0.009 C 
HETATM   10  C10 UNL     1     -33.770  14.344  -5.041  1.00 20.00     0.005 A 
ENDROOT
TORSDOF 0
ENDMDL
MODEL 9
REMARK VINA RESULT:      -4.3     11.990     13.120
REMARK  0 active torsions:
REMARK  status: ('A' for Active; 'I' for Inactive)
ROOT
HETATM    1  C1  UNL     1     -37.102  14.390  -5.049  1.00 20.00    -0.025 A 
HETATM    2  C2  UNL     1     -36.809  15.433  -4.267  1.00 20.00    -0.025 A 
HETATM    3  C3  UNL     1     -35.395  13.367  -6.635  1.00 20.00     0.009 C 
HETATM    4  C4  UNL     1     -34.526  16.531  -4.331  1.00 20.00     0.009 C 
HETATM    5  C5  UNL     1     -34.385  14.505  -6.722  1.00 20.00     0.005 C 
HETATM    6  C6  UNL     1     -33.258  15.854  -4.841  1.00 20.00     0.005 C 
HETATM    7  C7  UNL     1     -35.954  13.445  -5.214  1.00 20.00     0.013 A 
HETATM    8  C8  UNL     1     -35.397  15.398  -3.780  1.00 20.00     0.013 A 
HETATM    9  C9  UNL     1     -33.723  14.496  -5.343  1.00 20.00    -0.009 C 
HETATM   10  C10 UNL     1     -34.840  14.090  -4.375  1.00 20.00     0.005 A 
ENDROOT
TORSDOF 0
ENDMDL
