MODEL 1
REMARK VINA RESULT:      -5.6      0.000      0.000
REMARK  0 active torsions:
REMARK  status: ('A' for Active; 'I' for Inactive)
ROOT
HETATM    1  C1  UNL     1     -33.230   7.400   5.417  1.00 20.00    -0.023 C 
HETATM    2  C2  UNL     1     -32.823   7.824   4.211  1.00 20.00    -0.080 C 
HETATM    3  C3  UNL     1     -34.114   4.373   4.382  1.00 20.00     0.127 C 
HETATM    4  C4  UNL     1     -34.400   6.515   5.717  1.00 20.00     0.035 C 
HETATM    5  C5  UNL     1     -31.590   8.687   4.064  1.00 20.00     0.034 C 
HETATM    6  C6  UNL     1     -34.005   5.042   5.740  1.00 20.00     0.082 C 
HETATM    7  C7  UNL     1     -33.300   4.928   3.230  1.00 20.00     0.079 C 
HETATM    8  C8  UNL     1     -31.496   8.953   2.569  1.00 20.00     0.005 C 
HETATM    9  C9  UNL     1     -34.007   6.114   2.577  1.00 20.00     0.016 C 
HETATM   10  C10 UNL     1     -32.161   7.739   1.940  1.00 20.00     0.009 C 
HETATM   11  C11 UNL     1     -33.379   7.489   2.843  1.00 20.00     0.014 C 
HETATM   12  O12 UNL     1     -34.840   3.388   4.223  1.00 20.00    -0.298 OA
ENDROOT
TORSDOF 0
ENDMDL
MODEL 2
REMARK VINA RESULT:      -5.2     11.790     12.391
REMARK  0 active torsions:
REMARK  status: ('A' for Active; 'I' for Inactive)
ROOT
HETATM    1  C1  UNL     1     -36.468  15.966  -3.356  1.00 20.00    -0.023 C 
HETATM    2  C2  UNL     1     -35.445  16.609  -2.773  1.00 20.00    -0.080 C 
HETATM    3  C3  UNL     1     -34.558  14.081  -5.309  1.00 20.00     0.127 C 
HETATM    4  C4  UNL     1     -36.571  15.539  -4.788  1.00 20.00     0.035 C 
HETATM    5  C5  UNL     1     -35.471  16.937  -1.297  1.00 20.00     0.034 C 
HETATM    6  C6  UNL     1     -36.043  14.124  -4.997  1.00 20.00     0.082 C 
HETATM    7  C7  UNL     1     -33.585  14.664  -4.302  1.00 20.00     0.079 C 
HETATM    8  C8  UNL     1     -34.157  17.666  -1.054  1.00 20.00     0.005 C 
HETATM    9  C9  UNL     1     -33.462  16.177  -4.469  1.00 20.00     0.016 C 
HETATM   10  C10 UNL     1     -33.226  17.104  -2.116  1.00 20.00     0.009 C 
HETATM   11  C11 UNL     1     -34.114  17.022  -3.366  1.00 20.00     0.014 C 
HETATM   12  O12 UNL     1     -34.150  13.568  -6.353  1.00 20.00    -0.298 OA
ENDROOT
TORSDOF 0
ENDMDL
MODEL 3
REMARK VINA RESULT:      -5.2     11.434     13.052
REMARK  0 active torsions:
REMARK  status: ('A' for Active; 'I' for Inactive)
ROOT
HETATM    1  C1  UNL     1     -33.744  16.612  -6.332  1.00 20.00    -0.023 C 
HETATM    2  C2  UNL     1     -33.596  16.806  -5.013  1.00 20.00    -0.080 C 
HETATM    3  C3  UNL     1     -35.314  13.704  -6.027  1.00 20.00     0.127 C 
HETATM    4  C4  UNL     1     -33.650  15.314  -7.072  1.00 20.00     0.035 C 
HETATM    5  C5  UNL     1     -33.763  18.181  -4.404  1.00 20.00     0.034 C 
HETATM    6  C6  UNL     1     -35.007  14.630  -7.191  1.00 20.00     0.082 C 
HETATM    7  C7  UNL     1     -35.344  14.282  -4.626  1.00 20.00     0.079 C 
HETATM    8  C8  UNL     1     -33.499  17.967  -2.921  1.00 20.00     0.005 C 
HETATM    9  C9  UNL     1     -33.937  14.371  -4.038  1.00 20.00     0.016 C 
HETATM   10  C10 UNL     1     -33.903  16.521  -2.683  1.00 20.00     0.009 C 
HETATM   11  C11 UNL     1     -33.357  15.788  -3.918  1.00 20.00     0.014 C 
HETATM   12  O12 UNL     1     -35.549  12.509  -6.220  1.00 20.00    -0.298 OA
ENDROOT
TORSDOF 0
ENDMDL
MODEL 4
REMARK VINA RESULT:      -5.0     11.911     12.725
REMARK  0 active torsions:
REMARK  status: ('A' for Active; 'I' for Inactive)
ROOT
HETATM    1  C1  UNL     1     -32.237  18.315  -0.358  1.00 20.00    -0.023 C 
HETATM    2  C2  UNL     1     -33.549  18.087  -0.522  1.00 20.00    -0.080 C 
HETATM    3  C3  UNL     1     -32.408  18.656   2.939  1.00 20.00     0.127 C 
HETATM    4  C4  UNL     1     -31.598  19.263   0.609  1.00 20.00     0.035 C 
HETATM    5  C5  UNL     1     -34.042  17.061  -1.519  1.00 20.00     0.034 C 
HETATM    6  C6  UNL     1     -31.271  18.585   1.935  1.00 20.00     0.082 C 
HETATM    7  C7  UNL     1     -33.747  18.051   2.566  1.00 20.00     0.079 C 
HETATM    8  C8  UNL     1     -35.558  17.128  -1.404  1.00 20.00     0.005 C 
HETATM    9  C9  UNL     1     -34.575  19.023   1.728  1.00 20.00     0.016 C 
HETATM   10  C10 UNL     1     -35.796  17.585   0.026  1.00 20.00     0.009 C 
HETATM   11  C11 UNL     1     -34.722  18.661   0.243  1.00 20.00     0.014 C 
HETATM   12  O12 UNL     1     -32.240  19.183   4.041  1.00 20.00    -0.298 OA
ENDROOT
TORSDOF 0
ENDMDL
MODEL 5
REMARK VINA RESULT:      -4.8      1.352      2.718
REMARK  0 active torsions:
REMARK  status: ('A' for Active; 'I' for Inactive)
ROOT
HETATM    1  C1  UNL     1     -33.427   6.186   1.915  1.00 20.00    -0.023 C 
HETATM    2  C2  UNL     1     -32.791   7.366   1.932  1.00 20.00    -0.080 C 
HETATM    3  C3  UNL     1     -34.323   6.288   5.109  1.00 20.00     0.127 C 
HETATM    4  C4  UNL     1     -33.458   5.159   3.005  1.00 20.00     0.035 C 
HETATM    5  C5  UNL     1     -32.888   8.320   0.762  1.00 20.00     0.034 C 
HETATM    6  C6  UNL     1     -34.640   5.366   3.945  1.00 20.00     0.082 C 
HETATM    7  C7  UNL     1     -33.868   7.704   4.813  1.00 20.00     0.079 C 
HETATM    8  C8  UNL     1     -32.025   9.504   1.173  1.00 20.00     0.005 C 
HETATM    9  C9  UNL     1     -32.371   7.750   4.515  1.00 20.00     0.016 C 
HETATM   10  C10 UNL     1     -32.095   9.497   2.691  1.00 20.00     0.009 C 
HETATM   11  C11 UNL     1     -31.994   8.007   3.049  1.00 20.00     0.014 C 
HETATM   12  O12 UNL     1     -34.447   5.897   6.272  1.00 20.00    -0.298 OA
ENDROOT
TORSDOF 0
ENDMDL
MODEL 6
REMARK VINA RESULT:      -4.8      2.288      4.180
REMARK  0 active torsions:
REMARK  status: ('A' for Active; 'I' for Inactive)
ROOT
HETATM    1  C1  UNL     1     -32.269   8.127   4.661  1.00 20.00    -0.023 C 
HETATM    2  C2  UNL     1     -33.129   7.098   4.698  1.00 20.00    -0.080 C 
HETATM    3  C3  UNL     1     -32.592   8.662   1.401  1.00 20.00     0.127 C 
HETATM    4  C4  UNL     1     -31.292   8.451   3.573  1.00 20.00     0.035 C 
HETATM    5  C5  UNL     1     -34.089   6.927   5.855  1.00 20.00     0.034 C 
HETATM    6  C6  UNL     1     -31.892   9.391   2.534  1.00 20.00     0.082 C 
HETATM    7  C7  UNL     1     -33.747   7.738   1.734  1.00 20.00     0.079 C 
HETATM    8  C8  UNL     1     -34.854   5.655   5.519  1.00 20.00     0.005 C 
HETATM    9  C9  UNL     1     -33.244   6.360   2.161  1.00 20.00     0.016 C 
HETATM   10  C10 UNL     1     -34.824   5.601   4.000  1.00 20.00     0.009 C 
HETATM   11  C11 UNL     1     -33.391   6.034   3.654  1.00 20.00     0.014 C 
HETATM   12  O12 UNL     1     -32.237   8.829   0.232  1.00 20.00    -0.298 OA
ENDROOT
TORSDOF 0
ENDMDL
MODEL 7
REMARK VINA RESULT:      -4.8     11.992     12.626
REMARK  0 active torsions:
REMARK  status: ('A' for Active; 'I' for Inactive)
ROOT
HETATM    1  C1  UNL     1     -34.988  18.067   1.045  1.00 20.00    -0.023 C 
HETATM    2  C2  UNL     1     -33.753  18.538   1.276  1.00 20.00    -0.080 C 
HETATM    3  C3  UNL     1     -34.399  17.231  -2.113  1.00 20.00     0.127 C 
HETATM    4  C4  UNL     1     -35.785  18.198  -0.216  1.00 20.00     0.035 C 
HETATM    5  C5  UNL     1     -33.059  18.288   2.596  1.00 20.00     0.034 C 
HETATM    6  C6  UNL     1     -35.557  17.018  -1.155  1.00 20.00     0.082 C 
HETATM    7  C7  UNL     1     -33.018  17.483  -1.540  1.00 20.00     0.079 C 
HETATM    8  C8  UNL     1     -31.717  18.991   2.451  1.00 20.00     0.005 C 
HETATM    9  C9  UNL     1     -32.836  18.954  -1.170  1.00 20.00     0.016 C 
HETATM   10  C10 UNL     1     -31.445  18.954   0.956  1.00 20.00     0.009 C 
HETATM   11  C11 UNL     1     -32.815  19.263   0.334  1.00 20.00     0.014 C 
HETATM   12  O12 UNL     1     -34.575  17.185  -3.332  1.00 20.00    -0.298 OA
ENDROOT
TORSDOF 0
ENDMDL
MODEL 8
REMARK VINA RESULT:      -4.7     12.202     13.006
REMARK  0 active torsions:
REMARK  status: ('A' for Active; 'I' for Inactive)
ROOT
HETATM    1  C1  UNL     1     -33.380  15.543  -4.109  1.00 20.00    -0.023 C 
HETATM    2  C2  UNL     1     -34.077  16.090  -3.103  1.00 20.00    -0.080 C 
HETATM    3  C3  UNL     1     -35.860  15.704  -6.309  1.00 20.00     0.127 C 
HETATM    4  C4  UNL     1     -33.887  14.597  -5.154  1.00 20.00     0.035 C 
HETATM    5  C5  UNL     1     -33.430  17.067  -2.147  1.00 20.00     0.034 C 
HETATM    6  C6  UNL     1     -34.390  15.334  -6.390  1.00 20.00     0.082 C 
HETATM    7  C7  UNL     1     -36.326  16.589  -5.170  1.00 20.00     0.079 C 
HETATM    8  C8  UNL     1     -34.540  17.424  -1.169  1.00 20.00     0.005 C 
HETATM    9  C9  UNL     1     -36.578  15.771  -3.905  1.00 20.00     0.016 C 
HETATM   10  C10 UNL     1     -35.813  17.243  -1.980  1.00 20.00     0.009 C 
HETATM   11  C11 UNL     1     -35.550  15.957  -2.779  1.00 20.00     0.014 C 
HETATM   12  O12 UNL     1     -36.656  15.304  -7.161  1.00 20.00    -0.298 OA
ENDROOT
TORSDOF 0
ENDMDL
MODEL 9
REMARK VINA RESULT:      -4.6     12.018     12.740
REMARK  0 active torsions:
REMARK  status: ('A' for Active; 'I' for Inactive)
ROOT
HETATM    1  C1  UNL     1     -32.774  18.068  -1.312  1.00 20.00    -0.023 C 
HETATM    2  C2  UNL     1     -33.771  17.519  -2.023  1.00 20.00    -0.080 C 
HETATM    3  C3  UNL     1     -34.577  18.499   1.441  1.00 20.00     0.127 C 
HETATM    4  C4  UNL     1     -32.879  19.184  -0.319  1.00 20.00     0.035 C 
HETATM    5  C5  UNL     1     -33.513  16.363  -2.963  1.00 20.00     0.034 C 
HETATM    6  C6  UNL     1     -33.108  18.663   1.096  1.00 20.00     0.082 C 
HETATM    7  C7  UNL     1     -35.424  17.570   0.594  1.00 20.00     0.079 C 
HETATM    8  C8  UNL     1     -34.876  16.063  -3.568  1.00 20.00     0.005 C 
HETATM    9  C9  UNL     1     -35.916  18.273  -0.670  1.00 20.00     0.016 C 
HETATM   10  C10 UNL     1     -35.858  16.508  -2.497  1.00 20.00     0.009 C 
HETATM   11  C11 UNL     1     -35.254  17.823  -1.981  1.00 20.00     0.014 C 
HETATM   12  O12 UNL     1     -35.068  19.097   2.401  1.00 20.00    -0.298 OA
ENDROOT
TORSDOF 0
ENDMDL
