MODEL 1
REMARK VINA RESULT:      -6.1      0.000      0.000
REMARK  0 active torsions:
REMARK  status: ('A' for Active; 'I' for Inactive)
ROOT
HETATM    1  C1  UNL     1     -34.030   6.506   5.008  1.00 20.00     0.129 C 
HETATM    2  C2  UNL     1     -33.487   7.195   3.742  1.00 20.00     0.254 C 
HETATM    3  C3  UNL     1     -34.811   5.546   4.088  1.00 20.00     0.313 C 
HETATM    4  C4  UNL     1     -33.772   5.876   2.984  1.00 20.00     0.338 C 
HETATM    5  F5  UNL     1     -32.192   7.580   3.787  1.00 20.00    -0.243 F 
HETATM    6  F6  UNL     1     -34.854   4.255   4.484  1.00 20.00    -0.199 F 
HETATM    7  F7  UNL     1     -36.083   5.915   3.810  1.00 20.00    -0.199 F 
HETATM    8  F8  UNL     1     -32.728   5.019   2.902  1.00 20.00    -0.196 F 
HETATM    9  F9  UNL     1     -34.267   6.011   1.735  1.00 20.00    -0.196 F 
ENDROOT
TORSDOF 0
ENDMDL
MODEL 2
REMARK VINA RESULT:      -6.1      1.017      2.733
REMARK  0 active torsions:
REMARK  status: ('A' for Active; 'I' for Inactive)
ROOT
HETATM    1  C1  UNL     1     -33.371   7.141   3.755  1.00 20.00     0.129 C 
HETATM    2  C2  UNL     1     -33.742   6.383   5.044  1.00 20.00     0.254 C 
HETATM    3  C3  UNL     1     -33.706   5.859   2.966  1.00 20.00     0.313 C 
HETATM    4  C4  UNL     1     -34.602   5.445   4.163  1.00 20.00     0.338 C 
HETATM    5  F5  UNL     1     -34.414   7.095   5.976  1.00 20.00    -0.243 F 
HETATM    6  F6  UNL     1     -34.347   6.041   1.791  1.00 20.00    -0.199 F 
HETATM    7  F7  UNL     1     -32.659   5.039   2.720  1.00 20.00    -0.199 F 
HETATM    8  F8  UNL     1     -35.905   5.789   4.053  1.00 20.00    -0.196 F 
HETATM    9  F9  UNL     1     -34.569   4.136   4.494  1.00 20.00    -0.196 F 
ENDROOT
TORSDOF 0
ENDMDL
MODEL 3
REMARK VINA RESULT:      -5.8      1.373      1.730
REMARK  0 active torsions:
REMARK  status: ('A' for Active; 'I' for Inactive)
ROOT
HETATM    1  C1  UNL     1     -34.363   5.544   5.607  1.00 20.00     0.129 C 
HETATM    2  C2  UNL     1     -34.079   7.058   5.601  1.00 20.00     0.254 C 
HETATM    3  C3  UNL     1     -34.641   5.643   4.092  1.00 20.00     0.313 C 
HETATM    4  C4  UNL     1     -33.768   6.925   4.090  1.00 20.00     0.338 C 
HETATM    5  F5  UNL     1     -33.054   7.471   6.379  1.00 20.00    -0.243 F 
HETATM    6  F6  UNL     1     -34.181   4.619   3.341  1.00 20.00    -0.199 F 
HETATM    7  F7  UNL     1     -35.938   5.829   3.752  1.00 20.00    -0.199 F 
HETATM    8  F8  UNL     1     -32.464   6.732   3.784  1.00 20.00    -0.196 F 
HETATM    9  F9  UNL     1     -34.210   7.933   3.308  1.00 20.00    -0.196 F 
ENDROOT
TORSDOF 0
ENDMDL
MODEL 4
REMARK VINA RESULT:      -5.7      1.123      2.944
REMARK  0 active torsions:
REMARK  status: ('A' for Active; 'I' for Inactive)
ROOT
HETATM    1  C1  UNL     1     -33.874   7.154   5.469  1.00 20.00     0.129 C 
HETATM    2  C2  UNL     1     -34.075   5.629   5.376  1.00 20.00     0.254 C 
HETATM    3  C3  UNL     1     -33.557   7.151   3.959  1.00 20.00     0.313 C 
HETATM    4  C4  UNL     1     -34.359   5.827   3.867  1.00 20.00     0.338 C 
HETATM    5  F5  UNL     1     -35.093   5.121   6.105  1.00 20.00    -0.243 F 
HETATM    6  F6  UNL     1     -34.056   8.188   3.252  1.00 20.00    -0.199 F 
HETATM    7  F7  UNL     1     -32.245   7.053   3.643  1.00 20.00    -0.199 F 
HETATM    8  F8  UNL     1     -35.664   5.966   3.539  1.00 20.00    -0.196 F 
HETATM    9  F9  UNL     1     -33.846   4.887   3.045  1.00 20.00    -0.196 F 
ENDROOT
TORSDOF 0
ENDMDL
MODEL 5
REMARK VINA RESULT:      -5.4      1.373      2.422
REMARK  0 active torsions:
REMARK  status: ('A' for Active; 'I' for Inactive)
ROOT
HETATM    1  C1  UNL     1     -33.809   5.691   2.558  1.00 20.00     0.129 C 
HETATM    2  C2  UNL     1     -32.700   6.558   3.183  1.00 20.00     0.254 C 
HETATM    3  C3  UNL     1     -34.511   5.690   3.932  1.00 20.00     0.313 C 
HETATM    4  C4  UNL     1     -33.737   6.997   4.246  1.00 20.00     0.338 C 
HETATM    5  F5  UNL     1     -32.208   7.544   2.400  1.00 20.00    -0.243 F 
HETATM    6  F6  UNL     1     -35.857   5.799   3.905  1.00 20.00    -0.199 F 
HETATM    7  F7  UNL     1     -34.217   4.640   4.732  1.00 20.00    -0.199 F 
HETATM    8  F8  UNL     1     -34.401   8.141   3.967  1.00 20.00    -0.196 F 
HETATM    9  F9  UNL     1     -33.270   7.112   5.508  1.00 20.00    -0.196 F 
ENDROOT
TORSDOF 0
ENDMDL
MODEL 6
REMARK VINA RESULT:      -5.4      1.257      2.563
REMARK  0 active torsions:
REMARK  status: ('A' for Active; 'I' for Inactive)
ROOT
HETATM    1  C1  UNL     1     -32.641   6.658   3.349  1.00 20.00     0.129 C 
HETATM    2  C2  UNL     1     -33.634   5.674   2.703  1.00 20.00     0.254 C 
HETATM    3  C3  UNL     1     -33.768   7.078   4.316  1.00 20.00     0.313 C 
HETATM    4  C4  UNL     1     -34.423   5.701   4.034  1.00 20.00     0.338 C 
HETATM    5  F5  UNL     1     -33.128   4.473   2.343  1.00 20.00    -0.243 F 
HETATM    6  F6  UNL     1     -33.394   7.298   5.595  1.00 20.00    -0.199 F 
HETATM    7  F7  UNL     1     -34.494   8.152   3.928  1.00 20.00    -0.199 F 
HETATM    8  F8  UNL     1     -34.108   4.723   4.914  1.00 20.00    -0.196 F 
HETATM    9  F9  UNL     1     -35.769   5.706   3.919  1.00 20.00    -0.196 F 
ENDROOT
TORSDOF 0
ENDMDL
MODEL 7
REMARK VINA RESULT:      -5.4      1.234      2.988
REMARK  0 active torsions:
REMARK  status: ('A' for Active; 'I' for Inactive)
ROOT
HETATM    1  C1  UNL     1     -32.988   4.868   3.058  1.00 20.00     0.129 C 
HETATM    2  C2  UNL     1     -34.192   4.322   3.849  1.00 20.00     0.254 C 
HETATM    3  C3  UNL     1     -33.838   6.111   2.724  1.00 20.00     0.313 C 
HETATM    4  C4  UNL     1     -34.679   5.785   3.985  1.00 20.00     0.338 C 
HETATM    5  F5  UNL     1     -33.901   3.688   5.007  1.00 20.00    -0.243 F 
HETATM    6  F6  UNL     1     -33.185   7.294   2.746  1.00 20.00    -0.199 F 
HETATM    7  F7  UNL     1     -34.511   6.055   1.552  1.00 20.00    -0.199 F 
HETATM    8  F8  UNL     1     -34.293   6.419   5.116  1.00 20.00    -0.196 F 
HETATM    9  F9  UNL     1     -36.012   5.973   3.865  1.00 20.00    -0.196 F 
ENDROOT
TORSDOF 0
ENDMDL
MODEL 8
REMARK VINA RESULT:      -5.3      0.935      3.012
REMARK  0 active torsions:
REMARK  status: ('A' for Active; 'I' for Inactive)
ROOT
HETATM    1  C1  UNL     1     -33.989   7.439   4.310  1.00 20.00     0.129 C 
HETATM    2  C2  UNL     1     -34.051   5.900   4.325  1.00 20.00     0.254 C 
HETATM    3  C3  UNL     1     -32.947   7.333   3.177  1.00 20.00     0.313 C 
HETATM    4  C4  UNL     1     -33.535   5.932   2.866  1.00 20.00     0.338 C 
HETATM    5  F5  UNL     1     -35.276   5.358   4.504  1.00 20.00    -0.243 F 
HETATM    6  F6  UNL     1     -33.058   8.247   2.188  1.00 20.00    -0.199 F 
HETATM    7  F7  UNL     1     -31.654   7.340   3.575  1.00 20.00    -0.199 F 
HETATM    8  F8  UNL     1     -34.495   5.908   1.913  1.00 20.00    -0.196 F 
HETATM    9  F9  UNL     1     -32.635   4.979   2.540  1.00 20.00    -0.196 F 
ENDROOT
TORSDOF 0
ENDMDL
MODEL 9
REMARK VINA RESULT:      -5.3      1.197      2.274
REMARK  0 active torsions:
REMARK  status: ('A' for Active; 'I' for Inactive)
ROOT
HETATM    1  C1  UNL     1     -34.171   4.353   3.942  1.00 20.00     0.129 C 
HETATM    2  C2  UNL     1     -32.997   4.905   3.111  1.00 20.00     0.254 C 
HETATM    3  C3  UNL     1     -34.696   5.798   4.065  1.00 20.00     0.313 C 
HETATM    4  C4  UNL     1     -33.895   6.120   2.776  1.00 20.00     0.338 C 
HETATM    5  F5  UNL     1     -32.612   4.150   2.058  1.00 20.00    -0.243 F 
HETATM    6  F6  UNL     1     -36.035   5.948   3.975  1.00 20.00    -0.199 F 
HETATM    7  F7  UNL     1     -34.298   6.467   5.172  1.00 20.00    -0.199 F 
HETATM    8  F8  UNL     1     -34.596   6.021   1.623  1.00 20.00    -0.196 F 
HETATM    9  F9  UNL     1     -33.275   7.320   2.756  1.00 20.00    -0.196 F 
ENDROOT
TORSDOF 0
ENDMDL
