MODEL 1
REMARK VINA RESULT:      -5.2      0.000      0.000
REMARK  1 active torsions:
REMARK  status: ('A' for Active; 'I' for Inactive)
REMARK    1  A    between atoms: C1_1  and  C2_2 
ROOT
HETATM    1  C2  UNL     1     -34.649   5.500   4.124  1.00 20.00     0.363 C 
HETATM    2  F4  UNL     1     -34.566   4.152   3.987  1.00 20.00    -0.183 F 
HETATM    3  F5  UNL     1     -35.858   5.865   3.622  1.00 20.00    -0.183 F 
HETATM    4 CL7  UNL     1     -33.376   6.279   3.169  1.00 20.00    -0.044 Cl
ENDROOT
BRANCH   1   5
HETATM    5  C1  UNL     1     -34.597   5.876   5.592  1.00 20.00     0.353 C 
HETATM    6  F3  UNL     1     -34.060   4.827   6.277  1.00 20.00    -0.225 F 
HETATM    7 CL6  UNL     1     -33.590   7.308   5.893  1.00 20.00    -0.082 Cl
ENDBRANCH   1   5
TORSDOF 1
ENDMDL
MODEL 2
REMARK VINA RESULT:      -5.1      1.742      2.351
REMARK  1 active torsions:
REMARK  status: ('A' for Active; 'I' for Inactive)
REMARK    1  A    between atoms: C1_1  and  C2_2 
ROOT
HETATM    1  C2  UNL     1     -34.506   5.785   4.099  1.00 20.00     0.363 C 
HETATM    2  F4  UNL     1     -35.757   5.961   3.604  1.00 20.00    -0.183 F 
HETATM    3  F5  UNL     1     -33.826   5.053   3.177  1.00 20.00    -0.183 F 
HETATM    4 CL7  UNL     1     -34.584   4.865   5.612  1.00 20.00    -0.044 Cl
ENDROOT
BRANCH   1   5
HETATM    5  C1  UNL     1     -33.819   7.126   4.260  1.00 20.00     0.353 C 
HETATM    6  F3  UNL     1     -33.395   7.230   5.552  1.00 20.00    -0.225 F 
HETATM    7 CL6  UNL     1     -32.406   7.299   3.198  1.00 20.00    -0.082 Cl
ENDBRANCH   1   5
TORSDOF 1
ENDMDL
MODEL 3
REMARK VINA RESULT:      -5.0      1.240      2.681
REMARK  1 active torsions:
REMARK  status: ('A' for Active; 'I' for Inactive)
REMARK    1  A    between atoms: C1_1  and  C2_2 
ROOT
HETATM    1  C2  UNL     1     -34.637   5.486   4.242  1.00 20.00     0.363 C 
HETATM    2  F4  UNL     1     -35.875   5.854   3.823  1.00 20.00    -0.183 F 
HETATM    3  F5  UNL     1     -34.673   4.138   4.413  1.00 20.00    -0.183 F 
HETATM    4 CL7  UNL     1     -34.281   6.249   5.802  1.00 20.00    -0.044 Cl
ENDROOT
BRANCH   1   5
HETATM    5  C1  UNL     1     -33.610   5.815   3.177  1.00 20.00     0.353 C 
HETATM    6  F3  UNL     1     -34.264   5.956   1.990  1.00 20.00    -0.225 F 
HETATM    7 CL6  UNL     1     -32.740   7.328   3.515  1.00 20.00    -0.082 Cl
ENDBRANCH   1   5
TORSDOF 1
ENDMDL
MODEL 4
REMARK VINA RESULT:      -5.0      1.474      1.758
REMARK  1 active torsions:
REMARK  status: ('A' for Active; 'I' for Inactive)
REMARK    1  A    between atoms: C1_1  and  C2_2 
ROOT
HETATM    1  C2  UNL     1     -33.720   5.701   3.105  1.00 20.00     0.363 C 
HETATM    2  F4  UNL     1     -32.833   4.734   2.757  1.00 20.00    -0.183 F 
HETATM    3  F5  UNL     1     -34.476   5.945   2.001  1.00 20.00    -0.183 F 
HETATM    4 CL7  UNL     1     -32.852   7.183   3.541  1.00 20.00    -0.044 Cl
ENDROOT
BRANCH   1   5
HETATM    5  C1  UNL     1     -34.624   5.200   4.214  1.00 20.00     0.353 C 
HETATM    6  F3  UNL     1     -34.366   3.876   4.403  1.00 20.00    -0.225 F 
HETATM    7 CL6  UNL     1     -34.346   6.045   5.752  1.00 20.00    -0.082 Cl
ENDBRANCH   1   5
TORSDOF 1
ENDMDL
MODEL 5
REMARK VINA RESULT:      -5.0      1.912      2.406
REMARK  1 active torsions:
REMARK  status: ('A' for Active; 'I' for Inactive)
REMARK    1  A    between atoms: C1_1  and  C2_2 
ROOT
HETATM    1  C2  UNL     1     -34.398   5.654   3.972  1.00 20.00     0.363 C 
HETATM    2  F4  UNL     1     -35.623   5.998   3.500  1.00 20.00    -0.183 F 
HETATM    3  F5  UNL     1     -33.771   4.988   2.966  1.00 20.00    -0.183 F 
HETATM    4 CL7  UNL     1     -34.573   4.562   5.357  1.00 20.00    -0.044 Cl
ENDROOT
BRANCH   1   5
HETATM    5  C1  UNL     1     -33.601   6.900   4.303  1.00 20.00     0.353 C 
HETATM    6  F3  UNL     1     -34.057   7.914   3.515  1.00 20.00    -0.225 F 
HETATM    7 CL6  UNL     1     -33.781   7.393   6.000  1.00 20.00    -0.082 Cl
ENDBRANCH   1   5
TORSDOF 1
ENDMDL
MODEL 6
REMARK VINA RESULT:      -4.9      1.406      1.661
REMARK  1 active torsions:
REMARK  status: ('A' for Active; 'I' for Inactive)
REMARK    1  A    between atoms: C1_1  and  C2_2 
ROOT
HETATM    1  C2  UNL     1     -34.586   5.670   4.456  1.00 20.00     0.363 C 
HETATM    2  F4  UNL     1     -34.773   4.970   5.604  1.00 20.00    -0.183 F 
HETATM    3  F5  UNL     1     -35.818   5.852   3.911  1.00 20.00    -0.183 F 
HETATM    4 CL7  UNL     1     -33.599   4.722   3.330  1.00 20.00    -0.044 Cl
ENDROOT
BRANCH   1   5
HETATM    5  C1  UNL     1     -33.985   7.026   4.767  1.00 20.00     0.353 C 
HETATM    6  F3  UNL     1     -33.497   6.990   6.039  1.00 20.00    -0.225 F 
HETATM    7 CL6  UNL     1     -32.649   7.446   3.673  1.00 20.00    -0.082 Cl
ENDBRANCH   1   5
TORSDOF 1
ENDMDL
MODEL 7
REMARK VINA RESULT:      -4.9      1.252      1.494
REMARK  1 active torsions:
REMARK  status: ('A' for Active; 'I' for Inactive)
REMARK    1  A    between atoms: C1_1  and  C2_2 
ROOT
HETATM    1  C2  UNL     1     -34.615   5.673   4.160  1.00 20.00     0.363 C 
HETATM    2  F4  UNL     1     -35.866   5.851   3.667  1.00 20.00    -0.183 F 
HETATM    3  F5  UNL     1     -33.804   6.516   3.467  1.00 20.00    -0.183 F 
HETATM    4 CL7  UNL     1     -34.087   4.006   3.869  1.00 20.00    -0.044 Cl
ENDROOT
BRANCH   1   5
HETATM    5  C1  UNL     1     -34.576   6.054   5.627  1.00 20.00     0.353 C 
HETATM    6  F3  UNL     1     -34.125   4.978   6.331  1.00 20.00    -0.225 F 
HETATM    7 CL6  UNL     1     -33.486   7.421   5.946  1.00 20.00    -0.082 Cl
ENDBRANCH   1   5
TORSDOF 1
ENDMDL
MODEL 8
REMARK VINA RESULT:      -4.8      2.083      2.847
REMARK  1 active torsions:
REMARK  status: ('A' for Active; 'I' for Inactive)
REMARK    1  A    between atoms: C1_1  and  C2_2 
ROOT
HETATM    1  C2  UNL     1     -34.653   5.879   4.235  1.00 20.00     0.363 C 
HETATM    2  F4  UNL     1     -34.514   6.801   5.222  1.00 20.00    -0.183 F 
HETATM    3  F5  UNL     1     -35.924   6.002   3.769  1.00 20.00    -0.183 F 
HETATM    4 CL7  UNL     1     -34.445   4.251   4.904  1.00 20.00    -0.044 Cl
ENDROOT
BRANCH   1   5
HETATM    5  C1  UNL     1     -33.688   6.179   3.105  1.00 20.00     0.353 C 
HETATM    6  F3  UNL     1     -32.734   7.030   3.579  1.00 20.00    -0.225 F 
HETATM    7 CL6  UNL     1     -32.876   4.720   2.498  1.00 20.00    -0.082 Cl
ENDBRANCH   1   5
TORSDOF 1
ENDMDL
MODEL 9
REMARK VINA RESULT:      -4.8      1.861      2.770
REMARK  1 active torsions:
REMARK  status: ('A' for Active; 'I' for Inactive)
REMARK    1  A    between atoms: C1_1  and  C2_2 
ROOT
HETATM    1  C2  UNL     1     -34.563   5.877   4.268  1.00 20.00     0.363 C 
HETATM    2  F4  UNL     1     -34.376   6.935   5.099  1.00 20.00    -0.183 F 
HETATM    3  F5  UNL     1     -35.818   6.004   3.760  1.00 20.00    -0.183 F 
HETATM    4 CL7  UNL     1     -34.472   4.367   5.191  1.00 20.00    -0.044 Cl
ENDROOT
BRANCH   1   5
HETATM    5  C1  UNL     1     -33.567   5.931   3.127  1.00 20.00     0.353 C 
HETATM    6  F3  UNL     1     -34.267   5.973   1.958  1.00 20.00    -0.225 F 
HETATM    7 CL6  UNL     1     -32.524   7.367   3.201  1.00 20.00    -0.082 Cl
ENDBRANCH   1   5
TORSDOF 1
ENDMDL
