MODEL 1
REMARK VINA RESULT:      -3.8      0.000      0.000
REMARK  1 active torsions:
REMARK  status: ('A' for Active; 'I' for Inactive)
REMARK    1  A    between atoms: C2_2  and  C6_6 
ROOT
HETATM    1  C1  UNL     1     -34.280   4.315   4.007  1.00 20.00     0.167 A 
HETATM    2  C2  UNL     1     -33.510   6.558   3.585  1.00 20.00     0.024 A 
HETATM    3  C3  UNL     1     -33.899   6.290   4.881  1.00 20.00     0.116 A 
HETATM    4  N7  UNL     1     -34.340   5.005   5.125  1.00 20.00    -0.245 NA
HETATM    5  S8  UNL     1     -33.701   5.150   2.624  1.00 20.00    -0.084 SA
HETATM    6 BR9  UNL     1     -33.854   7.557   6.295  1.00 20.00    -0.028 Br
ENDROOT
BRANCH   2   7
HETATM    7  C6  UNL     1     -32.981   7.898   3.046  1.00 20.00     0.028 A 
HETATM    8  C4  UNL     1     -31.934   7.877   1.957  1.00 20.00     0.010 A 
HETATM    9  C5  UNL     1     -31.551   8.284   3.346  1.00 20.00     0.010 A 
ENDBRANCH   2   7
TORSDOF 1
ENDMDL
MODEL 2
REMARK VINA RESULT:      -3.7     11.892     12.230
REMARK  1 active torsions:
REMARK  status: ('A' for Active; 'I' for Inactive)
REMARK    1  A    between atoms: C2_2  and  C6_6 
ROOT
HETATM    1  C1  UNL     1     -36.663  13.690  -5.283  1.00 20.00     0.167 A 
HETATM    2  C2  UNL     1     -35.597  15.486  -4.081  1.00 20.00     0.024 A 
HETATM    3  C3  UNL     1     -34.759  14.500  -4.557  1.00 20.00     0.116 A 
HETATM    4  N7  UNL     1     -35.367  13.470  -5.246  1.00 20.00    -0.245 NA
HETATM    5  S8  UNL     1     -37.217  15.118  -4.510  1.00 20.00    -0.084 SA
HETATM    6 BR9  UNL     1     -32.874  14.494  -4.320  1.00 20.00    -0.028 Br
ENDROOT
BRANCH   2   7
HETATM    7  C6  UNL     1     -35.184  16.736  -3.288  1.00 20.00     0.028 A 
HETATM    8  C4  UNL     1     -35.082  16.638  -1.783  1.00 20.00     0.010 A 
HETATM    9  C5  UNL     1     -36.210  17.403  -2.401  1.00 20.00     0.010 A 
ENDBRANCH   2   7
TORSDOF 1
ENDMDL
MODEL 3
REMARK VINA RESULT:      -3.6      1.703      3.461
REMARK  1 active torsions:
REMARK  status: ('A' for Active; 'I' for Inactive)
REMARK    1  A    between atoms: C2_2  and  C6_6 
ROOT
HETATM    1  C1  UNL     1     -32.041   7.793   2.550  1.00 20.00     0.167 A 
HETATM    2  C2  UNL     1     -33.688   6.447   3.682  1.00 20.00     0.024 A 
HETATM    3  C3  UNL     1     -33.102   7.442   4.437  1.00 20.00     0.116 A 
HETATM    4  N7  UNL     1     -32.158   8.215   3.790  1.00 20.00    -0.245 NA
HETATM    5  S8  UNL     1     -33.037   6.472   2.094  1.00 20.00    -0.084 SA
HETATM    6 BR9  UNL     1     -33.520   7.788   6.257  1.00 20.00    -0.028 Br
ENDROOT
BRANCH   2   7
HETATM    7  C6  UNL     1     -34.761   5.452   4.152  1.00 20.00     0.028 A 
HETATM    8  C4  UNL     1     -34.637   4.853   5.534  1.00 20.00     0.010 A 
HETATM    9  C5  UNL     1     -34.374   4.002   4.332  1.00 20.00     0.010 A 
ENDBRANCH   2   7
TORSDOF 1
ENDMDL
MODEL 4
REMARK VINA RESULT:      -3.6     12.110     12.793
REMARK  1 active torsions:
REMARK  status: ('A' for Active; 'I' for Inactive)
REMARK    1  A    between atoms: C2_2  and  C6_6 
ROOT
HETATM    1  C1  UNL     1     -36.025  13.993  -7.918  1.00 20.00     0.167 A 
HETATM    2  C2  UNL     1     -35.273  14.198  -5.638  1.00 20.00     0.024 A 
HETATM    3  C3  UNL     1     -36.588  14.542  -5.871  1.00 20.00     0.116 A 
HETATM    4  N7  UNL     1     -37.021  14.426  -7.177  1.00 20.00    -0.245 NA
HETATM    5  S8  UNL     1     -34.539  13.705  -7.109  1.00 20.00    -0.084 SA
HETATM    6 BR9  UNL     1     -37.789  15.144  -4.528  1.00 20.00    -0.028 Br
ENDROOT
BRANCH   2   7
HETATM    7  C6  UNL     1     -34.542  14.234  -4.286  1.00 20.00     0.028 A 
HETATM    8  C4  UNL     1     -33.928  15.537  -3.830  1.00 20.00     0.010 A 
HETATM    9  C5  UNL     1     -33.042  14.417  -4.279  1.00 20.00     0.010 A 
ENDBRANCH   2   7
TORSDOF 1
ENDMDL
MODEL 5
REMARK VINA RESULT:      -3.6     12.078     12.344
REMARK  1 active torsions:
REMARK  status: ('A' for Active; 'I' for Inactive)
REMARK    1  A    between atoms: C2_2  and  C6_6 
ROOT
HETATM    1  C1  UNL     1     -35.952  13.343  -5.266  1.00 20.00     0.167 A 
HETATM    2  C2  UNL     1     -35.769  15.450  -4.113  1.00 20.00     0.024 A 
HETATM    3  C3  UNL     1     -37.026  15.127  -4.580  1.00 20.00     0.116 A 
HETATM    4  N7  UNL     1     -37.133  13.920  -5.241  1.00 20.00    -0.245 NA
HETATM    5  S8  UNL     1     -34.668  14.196  -4.512  1.00 20.00    -0.084 SA
HETATM    6 BR9  UNL     1     -38.561  16.224  -4.361  1.00 20.00    -0.028 Br
ENDROOT
BRANCH   2   7
HETATM    7  C6  UNL     1     -35.375  16.725  -3.348  1.00 20.00     0.028 A 
HETATM    8  C4  UNL     1     -34.193  16.668  -2.408  1.00 20.00     0.010 A 
HETATM    9  C5  UNL     1     -35.579  16.762  -1.851  1.00 20.00     0.010 A 
ENDBRANCH   2   7
TORSDOF 1
ENDMDL
MODEL 6
REMARK VINA RESULT:      -3.6     12.573     13.306
REMARK  1 active torsions:
REMARK  status: ('A' for Active; 'I' for Inactive)
REMARK    1  A    between atoms: C2_2  and  C6_6 
ROOT
HETATM    1  C1  UNL     1     -34.149  16.939  -6.772  1.00 20.00     0.167 A 
HETATM    2  C2  UNL     1     -34.437  16.167  -4.508  1.00 20.00     0.024 A 
HETATM    3  C3  UNL     1     -34.955  15.351  -5.493  1.00 20.00     0.116 A 
HETATM    4  N7  UNL     1     -34.791  15.792  -6.791  1.00 20.00    -0.245 NA
HETATM    5  S8  UNL     1     -33.711  17.545  -5.228  1.00 20.00    -0.084 SA
HETATM    6 BR9  UNL     1     -35.848  13.709  -5.158  1.00 20.00    -0.028 Br
ENDROOT
BRANCH   2   7
HETATM    7  C6  UNL     1     -34.480  15.914  -2.992  1.00 20.00     0.028 A 
HETATM    8  C4  UNL     1     -35.440  16.724  -2.151  1.00 20.00     0.010 A 
HETATM    9  C5  UNL     1     -33.970  16.993  -2.065  1.00 20.00     0.010 A 
ENDBRANCH   2   7
TORSDOF 1
ENDMDL
MODEL 7
REMARK VINA RESULT:      -3.5     12.225     12.697
REMARK  1 active torsions:
REMARK  status: ('A' for Active; 'I' for Inactive)
REMARK    1  A    between atoms: C2_2  and  C6_6 
ROOT
HETATM    1  C1  UNL     1     -37.998  14.782  -4.701  1.00 20.00     0.167 A 
HETATM    2  C2  UNL     1     -35.641  15.169  -5.016  1.00 20.00     0.024 A 
HETATM    3  C3  UNL     1     -36.206  14.207  -5.827  1.00 20.00     0.116 A 
HETATM    4  N7  UNL     1     -37.557  13.983  -5.649  1.00 20.00    -0.245 NA
HETATM    5  S8  UNL     1     -36.843  15.828  -3.984  1.00 20.00    -0.084 SA
HETATM    6 BR9  UNL     1     -35.249  13.213  -7.132  1.00 20.00    -0.028 Br
ENDROOT
BRANCH   2   7
HETATM    7  C6  UNL     1     -34.169  15.612  -5.009  1.00 20.00     0.028 A 
HETATM    8  C4  UNL     1     -33.154  14.740  -4.306  1.00 20.00     0.010 A 
HETATM    9  C5  UNL     1     -33.551  16.050  -3.701  1.00 20.00     0.010 A 
ENDBRANCH   2   7
TORSDOF 1
ENDMDL
MODEL 8
REMARK VINA RESULT:      -3.5     12.461     12.831
REMARK  1 active torsions:
REMARK  status: ('A' for Active; 'I' for Inactive)
REMARK    1  A    between atoms: C2_2  and  C6_6 
ROOT
HETATM    1  C1  UNL     1     -37.644  15.206  -4.414  1.00 20.00     0.167 A 
HETATM    2  C2  UNL     1     -35.480  14.722  -5.355  1.00 20.00     0.024 A 
HETATM    3  C3  UNL     1     -35.481  15.520  -4.230  1.00 20.00     0.116 A 
HETATM    4  N7  UNL     1     -36.720  15.799  -3.689  1.00 20.00    -0.245 NA
HETATM    5  S8  UNL     1     -37.092  14.296  -5.760  1.00 20.00    -0.084 SA
HETATM    6 BR9  UNL     1     -33.916  16.226  -3.419  1.00 20.00    -0.028 Br
ENDROOT
BRANCH   2   7
HETATM    7  C6  UNL     1     -34.247  14.261  -6.150  1.00 20.00     0.028 A 
HETATM    8  C4  UNL     1     -33.843  15.045  -7.377  1.00 20.00     0.010 A 
HETATM    9  C5  UNL     1     -34.451  13.687  -7.533  1.00 20.00     0.010 A 
ENDBRANCH   2   7
TORSDOF 1
ENDMDL
MODEL 9
REMARK VINA RESULT:      -3.5      2.243      2.431
REMARK  1 active torsions:
REMARK  status: ('A' for Active; 'I' for Inactive)
REMARK    1  A    between atoms: C2_2  and  C6_6 
ROOT
HETATM    1  C1  UNL     1     -34.663   5.743   5.545  1.00 20.00     0.167 A 
HETATM    2  C2  UNL     1     -33.260   6.520   3.747  1.00 20.00     0.024 A 
HETATM    3  C3  UNL     1     -33.699   5.216   3.647  1.00 20.00     0.116 A 
HETATM    4  N7  UNL     1     -34.503   4.768   4.676  1.00 20.00    -0.245 NA
HETATM    5  S8  UNL     1     -33.875   7.224   5.185  1.00 20.00    -0.084 SA
HETATM    6 BR9  UNL     1     -33.266   4.050   2.212  1.00 20.00    -0.028 Br
ENDROOT
BRANCH   2   7
HETATM    7  C6  UNL     1     -32.360   7.263   2.746  1.00 20.00     0.028 A 
HETATM    8  C4  UNL     1     -31.479   8.380   3.256  1.00 20.00     0.010 A 
HETATM    9  C5  UNL     1     -32.677   8.704   2.419  1.00 20.00     0.010 A 
ENDBRANCH   2   7
TORSDOF 1
ENDMDL
