MODEL 1
REMARK VINA RESULT:      -4.3      0.000      0.000
REMARK  1 active torsions:
REMARK  status: ('A' for Active; 'I' for Inactive)
REMARK    1  A    between atoms: C3_3  and  C5_5 
ROOT
HETATM    1  C1  UNL     1     -31.643   8.580   3.306  1.00 20.00     0.144 A 
HETATM    2  C2  UNL     1     -32.241   8.291   2.097  1.00 20.00     0.071 A 
HETATM    3  C3  UNL     1     -33.215   7.233   4.030  1.00 20.00     0.103 A 
HETATM    4  N7  UNL     1     -32.200   7.975   4.416  1.00 20.00    -0.251 NA
HETATM    5  S8  UNL     1     -33.554   7.217   2.348  1.00 20.00    -0.061 SA
HETATM    6 BR9  UNL     1     -31.708   8.966   0.413  1.00 20.00    -0.041 Br
ENDROOT
BRANCH   3   7
HETATM    7  C5  UNL     1     -34.053   6.442   4.896  1.00 20.00    -0.035 C 
HETATM    8  C4  UNL     1     -34.135   6.805   6.190  1.00 20.00     0.021 C 
HETATM    9  C6  UNL     1     -34.824   5.233   4.422  1.00 20.00     0.050 C 
ENDBRANCH   3   7
TORSDOF 1
ENDMDL
MODEL 2
REMARK VINA RESULT:      -4.1      1.502      1.667
REMARK  1 active torsions:
REMARK  status: ('A' for Active; 'I' for Inactive)
REMARK    1  A    between atoms: C3_3  and  C5_5 
ROOT
HETATM    1  C1  UNL     1     -33.320   6.650   1.863  1.00 20.00     0.144 A 
HETATM    2  C2  UNL     1     -32.538   7.741   2.176  1.00 20.00     0.071 A 
HETATM    3  C3  UNL     1     -33.627   6.662   4.035  1.00 20.00     0.103 A 
HETATM    4  N7  UNL     1     -33.946   6.029   2.927  1.00 20.00    -0.251 NA
HETATM    5  S8  UNL     1     -32.579   8.012   3.869  1.00 20.00    -0.061 SA
HETATM    6 BR9  UNL     1     -31.561   8.789   0.941  1.00 20.00    -0.041 Br
ENDROOT
BRANCH   3   7
HETATM    7  C5  UNL     1     -34.081   6.318   5.359  1.00 20.00    -0.035 C 
HETATM    8  C4  UNL     1     -33.946   7.245   6.327  1.00 20.00     0.021 C 
HETATM    9  C6  UNL     1     -34.682   4.977   5.705  1.00 20.00     0.050 C 
ENDBRANCH   3   7
TORSDOF 1
ENDMDL
MODEL 3
REMARK VINA RESULT:      -3.9      2.470      4.256
REMARK  1 active torsions:
REMARK  status: ('A' for Active; 'I' for Inactive)
REMARK    1  A    between atoms: C3_3  and  C5_5 
ROOT
HETATM    1  C1  UNL     1     -32.897   7.331   4.655  1.00 20.00     0.144 A 
HETATM    2  C2  UNL     1     -33.713   6.435   3.997  1.00 20.00     0.071 A 
HETATM    3  C3  UNL     1     -32.662   8.107   2.617  1.00 20.00     0.103 A 
HETATM    4  N7  UNL     1     -32.294   8.291   3.866  1.00 20.00    -0.251 NA
HETATM    5  S8  UNL     1     -33.734   6.799   2.321  1.00 20.00    -0.061 SA
HETATM    6 BR9  UNL     1     -34.670   5.016   4.803  1.00 20.00    -0.041 Br
ENDROOT
BRANCH   3   7
HETATM    7  C5  UNL     1     -32.245   8.905   1.492  1.00 20.00    -0.035 C 
HETATM    8  C4  UNL     1     -31.265   8.416   0.707  1.00 20.00     0.021 C 
HETATM    9  C6  UNL     1     -32.842  10.253   1.167  1.00 20.00     0.050 C 
ENDBRANCH   3   7
TORSDOF 1
ENDMDL
MODEL 4
REMARK VINA RESULT:      -3.9     11.370     11.878
REMARK  1 active torsions:
REMARK  status: ('A' for Active; 'I' for Inactive)
REMARK    1  A    between atoms: C3_3  and  C5_5 
ROOT
HETATM    1  C1  UNL     1     -33.401  16.057  -5.880  1.00 20.00     0.144 A 
HETATM    2  C2  UNL     1     -34.191  14.934  -5.749  1.00 20.00     0.071 A 
HETATM    3  C3  UNL     1     -33.999  16.318  -3.786  1.00 20.00     0.103 A 
HETATM    4  N7  UNL     1     -33.290  16.852  -4.756  1.00 20.00    -0.251 NA
HETATM    5  S8  UNL     1     -34.824  14.860  -4.157  1.00 20.00    -0.061 SA
HETATM    6 BR9  UNL     1     -34.533  13.662  -7.105  1.00 20.00    -0.041 Br
ENDROOT
BRANCH   3   7
HETATM    7  C5  UNL     1     -34.137  16.852  -2.454  1.00 20.00    -0.035 C 
HETATM    8  C4  UNL     1     -35.309  16.658  -1.820  1.00 20.00     0.021 C 
HETATM    9  C6  UNL     1     -33.041  17.618  -1.753  1.00 20.00     0.050 C 
ENDBRANCH   3   7
TORSDOF 1
ENDMDL
MODEL 5
REMARK VINA RESULT:      -3.7     11.276     11.610
REMARK  1 active torsions:
REMARK  status: ('A' for Active; 'I' for Inactive)
REMARK    1  A    between atoms: C3_3  and  C5_5 
ROOT
HETATM    1  C1  UNL     1     -36.094  14.797  -4.941  1.00 20.00     0.144 A 
HETATM    2  C2  UNL     1     -34.849  14.654  -5.516  1.00 20.00     0.071 A 
HETATM    3  C3  UNL     1     -34.918  15.908  -3.460  1.00 20.00     0.103 A 
HETATM    4  N7  UNL     1     -36.136  15.516  -3.762  1.00 20.00    -0.251 NA
HETATM    5  S8  UNL     1     -33.675  15.448  -4.551  1.00 20.00    -0.061 SA
HETATM    6 BR9  UNL     1     -34.475  13.727  -7.121  1.00 20.00    -0.041 Br
ENDROOT
BRANCH   3   7
HETATM    7  C5  UNL     1     -34.548  16.684  -2.303  1.00 20.00    -0.035 C 
HETATM    8  C4  UNL     1     -33.297  17.182  -2.257  1.00 20.00     0.021 C 
HETATM    9  C6  UNL     1     -35.487  16.949  -1.151  1.00 20.00     0.050 C 
ENDBRANCH   3   7
TORSDOF 1
ENDMDL
MODEL 6
REMARK VINA RESULT:      -3.7     11.202     11.554
REMARK  1 active torsions:
REMARK  status: ('A' for Active; 'I' for Inactive)
REMARK    1  A    between atoms: C3_3  and  C5_5 
ROOT
HETATM    1  C1  UNL     1     -36.584  15.267  -4.514  1.00 20.00     0.144 A 
HETATM    2  C2  UNL     1     -35.423  14.700  -4.996  1.00 20.00     0.071 A 
HETATM    3  C3  UNL     1     -35.175  16.122  -3.067  1.00 20.00     0.103 A 
HETATM    4  N7  UNL     1     -36.444  16.083  -3.408  1.00 20.00    -0.251 NA
HETATM    5  S8  UNL     1     -34.095  15.202  -4.034  1.00 20.00    -0.061 SA
HETATM    6 BR9  UNL     1     -35.297  13.544  -6.487  1.00 20.00    -0.041 Br
ENDROOT
BRANCH   3   7
HETATM    7  C5  UNL     1     -34.625  16.866  -1.962  1.00 20.00    -0.035 C 
HETATM    8  C4  UNL     1     -35.411  17.061  -0.886  1.00 20.00     0.021 C 
HETATM    9  C6  UNL     1     -33.227  17.439  -1.965  1.00 20.00     0.050 C 
ENDBRANCH   3   7
TORSDOF 1
ENDMDL
MODEL 7
REMARK VINA RESULT:      -3.5     11.818     12.339
REMARK  1 active torsions:
REMARK  status: ('A' for Active; 'I' for Inactive)
REMARK    1  A    between atoms: C3_3  and  C5_5 
ROOT
HETATM    1  C1  UNL     1     -33.278  16.941  -4.792  1.00 20.00     0.144 A 
HETATM    2  C2  UNL     1     -33.843  16.460  -3.629  1.00 20.00     0.071 A 
HETATM    3  C3  UNL     1     -34.266  15.166  -5.617  1.00 20.00     0.103 A 
HETATM    4  N7  UNL     1     -33.519  16.201  -5.933  1.00 20.00    -0.251 NA
HETATM    5  S8  UNL     1     -34.714  15.022  -3.966  1.00 20.00    -0.061 SA
HETATM    6 BR9  UNL     1     -33.689  17.250  -1.918  1.00 20.00    -0.041 Br
ENDROOT
BRANCH   3   7
HETATM    7  C5  UNL     1     -34.732  14.156  -6.534  1.00 20.00    -0.035 C 
HETATM    8  C4  UNL     1     -35.721  13.342  -6.118  1.00 20.00     0.021 C 
HETATM    9  C6  UNL     1     -34.158  13.967  -7.918  1.00 20.00     0.050 C 
ENDBRANCH   3   7
TORSDOF 1
ENDMDL
MODEL 8
REMARK VINA RESULT:      -3.4     11.422     11.896
REMARK  1 active torsions:
REMARK  status: ('A' for Active; 'I' for Inactive)
REMARK    1  A    between atoms: C3_3  and  C5_5 
ROOT
HETATM    1  C1  UNL     1     -36.767  13.685  -5.344  1.00 20.00     0.144 A 
HETATM    2  C2  UNL     1     -37.502  14.793  -4.980  1.00 20.00     0.071 A 
HETATM    3  C3  UNL     1     -35.165  14.845  -4.396  1.00 20.00     0.103 A 
HETATM    4  N7  UNL     1     -35.427  13.712  -5.010  1.00 20.00    -0.251 NA
HETATM    5  S8  UNL     1     -36.485  15.922  -4.186  1.00 20.00    -0.061 SA
HETATM    6 BR9  UNL     1     -39.349  15.046  -5.300  1.00 20.00    -0.041 Br
ENDROOT
BRANCH   3   7
HETATM    7  C5  UNL     1     -33.877  15.248  -3.891  1.00 20.00    -0.035 C 
HETATM    8  C4  UNL     1     -32.800  14.542  -4.288  1.00 20.00     0.021 C 
HETATM    9  C6  UNL     1     -33.687  16.405  -2.939  1.00 20.00     0.050 C 
ENDBRANCH   3   7
TORSDOF 1
ENDMDL
MODEL 9
REMARK VINA RESULT:      -3.3     11.176     11.549
REMARK  1 active torsions:
REMARK  status: ('A' for Active; 'I' for Inactive)
REMARK    1  A    between atoms: C3_3  and  C5_5 
ROOT
HETATM    1  C1  UNL     1     -33.002  17.812  -1.508  1.00 20.00     0.144 A 
HETATM    2  C2  UNL     1     -34.021  17.958  -0.590  1.00 20.00     0.071 A 
HETATM    3  C3  UNL     1     -34.519  16.575  -2.499  1.00 20.00     0.103 A 
HETATM    4  N7  UNL     1     -33.285  17.020  -2.603  1.00 20.00    -0.251 NA
HETATM    5  S8  UNL     1     -35.395  17.072  -1.109  1.00 20.00    -0.061 SA
HETATM    6 BR9  UNL     1     -33.934  18.974   1.003  1.00 20.00    -0.041 Br
ENDROOT
BRANCH   3   7
HETATM    7  C5  UNL     1     -35.185  15.717  -3.446  1.00 20.00    -0.035 C 
HETATM    8  C4  UNL     1     -36.471  15.990  -3.741  1.00 20.00     0.021 C 
HETATM    9  C6  UNL     1     -34.516  14.533  -4.103  1.00 20.00     0.050 C 
ENDBRANCH   3   7
TORSDOF 1
ENDMDL
