MODEL 1
REMARK VINA RESULT:      -4.1      0.000      0.000
REMARK  0 active torsions:
REMARK  status: ('A' for Active; 'I' for Inactive)
ROOT
HETATM    1  C1  UNL     1     -32.778   7.261   2.957  1.00 20.00     0.136 C 
HETATM    2  C2  UNL     1     -33.109   5.786   3.049  1.00 20.00     0.088 C 
HETATM    3  C3  UNL     1     -32.234   7.920   4.195  1.00 20.00     0.152 C 
HETATM    4  C4  UNL     1     -33.780   6.050   5.492  1.00 20.00     0.083 C 
HETATM    5  C5  UNL     1     -34.184   5.485   4.111  1.00 20.00    -0.033 C 
HETATM    6  C6  UNL     1     -34.316   3.952   4.242  1.00 20.00     0.016 C 
HETATM    7  C7  UNL     1     -35.551   6.038   3.659  1.00 20.00     0.016 C 
HETATM    8  O8  UNL     1     -32.895   7.879   1.899  1.00 20.00    -0.297 OA
HETATM    9  S9  UNL     1     -33.470   7.844   5.508  1.00 20.00    -0.161 SA
ENDROOT
TORSDOF 0
ENDMDL
MODEL 2
REMARK VINA RESULT:      -4.1     11.851     12.776
REMARK  0 active torsions:
REMARK  status: ('A' for Active; 'I' for Inactive)
ROOT
HETATM    1  C1  UNL     1     -35.191  13.737  -5.307  1.00 20.00     0.136 C 
HETATM    2  C2  UNL     1     -34.524  14.351  -4.094  1.00 20.00     0.088 C 
HETATM    3  C3  UNL     1     -34.829  14.307  -6.651  1.00 20.00     0.152 C 
HETATM    4  C4  UNL     1     -34.486  16.634  -5.223  1.00 20.00     0.083 C 
HETATM    5  C5  UNL     1     -34.841  15.851  -3.938  1.00 20.00    -0.033 C 
HETATM    6  C6  UNL     1     -33.980  16.408  -2.785  1.00 20.00     0.016 C 
HETATM    7  C7  UNL     1     -36.323  16.047  -3.556  1.00 20.00     0.016 C 
HETATM    8  O8  UNL     1     -35.953  12.776  -5.200  1.00 20.00    -0.297 OA
HETATM    9  S9  UNL     1     -35.330  16.039  -6.723  1.00 20.00    -0.161 SA
ENDROOT
TORSDOF 0
ENDMDL
MODEL 3
REMARK VINA RESULT:      -3.9     12.110     13.019
REMARK  0 active torsions:
REMARK  status: ('A' for Active; 'I' for Inactive)
ROOT
HETATM    1  C1  UNL     1     -36.980  14.122  -5.508  1.00 20.00     0.136 C 
HETATM    2  C2  UNL     1     -35.626  13.714  -4.966  1.00 20.00     0.088 C 
HETATM    3  C3  UNL     1     -37.001  14.828  -6.836  1.00 20.00     0.152 C 
HETATM    4  C4  UNL     1     -34.540  15.758  -6.030  1.00 20.00     0.083 C 
HETATM    5  C5  UNL     1     -34.690  14.918  -4.741  1.00 20.00    -0.033 C 
HETATM    6  C6  UNL     1     -33.295  14.379  -4.358  1.00 20.00     0.016 C 
HETATM    7  C7  UNL     1     -35.199  15.780  -3.568  1.00 20.00     0.016 C 
HETATM    8  O8  UNL     1     -38.020  13.838  -4.915  1.00 20.00    -0.297 OA
HETATM    9  S9  UNL     1     -36.111  16.391  -6.700  1.00 20.00    -0.161 SA
ENDROOT
TORSDOF 0
ENDMDL
MODEL 4
REMARK VINA RESULT:      -3.9     12.143     13.447
REMARK  0 active torsions:
REMARK  status: ('A' for Active; 'I' for Inactive)
ROOT
HETATM    1  C1  UNL     1     -35.521  13.990  -5.241  1.00 20.00     0.136 C 
HETATM    2  C2  UNL     1     -35.787  15.042  -6.298  1.00 20.00     0.088 C 
HETATM    3  C3  UNL     1     -34.632  14.382  -4.093  1.00 20.00     0.152 C 
HETATM    4  C4  UNL     1     -33.458  16.020  -5.966  1.00 20.00     0.083 C 
HETATM    5  C5  UNL     1     -34.498  15.522  -6.995  1.00 20.00    -0.033 C 
HETATM    6  C6  UNL     1     -34.862  16.704  -7.918  1.00 20.00     0.016 C 
HETATM    7  C7  UNL     1     -33.918  14.397  -7.877  1.00 20.00     0.016 C 
HETATM    8  O8  UNL     1     -36.054  12.882  -5.292  1.00 20.00    -0.297 OA
HETATM    9  S9  UNL     1     -32.987  14.782  -4.715  1.00 20.00    -0.161 SA
ENDROOT
TORSDOF 0
ENDMDL
MODEL 5
REMARK VINA RESULT:      -3.8     11.906     12.758
REMARK  0 active torsions:
REMARK  status: ('A' for Active; 'I' for Inactive)
ROOT
HETATM    1  C1  UNL     1     -33.551  14.452  -4.551  1.00 20.00     0.136 C 
HETATM    2  C2  UNL     1     -35.034  14.154  -4.479  1.00 20.00     0.088 C 
HETATM    3  C3  UNL     1     -33.151  15.845  -4.954  1.00 20.00     0.152 C 
HETATM    4  C4  UNL     1     -35.490  15.761  -6.401  1.00 20.00     0.083 C 
HETATM    5  C5  UNL     1     -35.744  14.347  -5.833  1.00 20.00    -0.033 C 
HETATM    6  C6  UNL     1     -37.263  14.187  -5.608  1.00 20.00     0.016 C 
HETATM    7  C7  UNL     1     -35.300  13.256  -6.829  1.00 20.00     0.016 C 
HETATM    8  O8  UNL     1     -32.712  13.608  -4.237  1.00 20.00    -0.297 OA
HETATM    9  S9  UNL     1     -33.731  16.174  -6.631  1.00 20.00    -0.161 SA
ENDROOT
TORSDOF 0
ENDMDL
MODEL 6
REMARK VINA RESULT:      -3.8     12.201     13.214
REMARK  0 active torsions:
REMARK  status: ('A' for Active; 'I' for Inactive)
ROOT
HETATM    1  C1  UNL     1     -36.043  13.786  -5.481  1.00 20.00     0.136 C 
HETATM    2  C2  UNL     1     -35.143  14.519  -6.454  1.00 20.00     0.088 C 
HETATM    3  C3  UNL     1     -37.194  14.558  -4.896  1.00 20.00     0.152 C 
HETATM    4  C4  UNL     1     -35.499  16.705  -5.195  1.00 20.00     0.083 C 
HETATM    5  C5  UNL     1     -34.459  15.746  -5.819  1.00 20.00    -0.033 C 
HETATM    6  C6  UNL     1     -33.713  16.511  -6.933  1.00 20.00     0.016 C 
HETATM    7  C7  UNL     1     -33.415  15.297  -4.776  1.00 20.00     0.016 C 
HETATM    8  O8  UNL     1     -35.872  12.594  -5.225  1.00 20.00    -0.297 OA
HETATM    9  S9  UNL     1     -36.559  15.940  -3.926  1.00 20.00    -0.161 SA
ENDROOT
TORSDOF 0
ENDMDL
MODEL 7
REMARK VINA RESULT:      -3.5     12.128     13.319
REMARK  0 active torsions:
REMARK  status: ('A' for Active; 'I' for Inactive)
ROOT
HETATM    1  C1  UNL     1     -35.631  13.828  -4.897  1.00 20.00     0.136 C 
HETATM    2  C2  UNL     1     -36.655  14.924  -5.111  1.00 20.00     0.088 C 
HETATM    3  C3  UNL     1     -34.358  14.208  -4.192  1.00 20.00     0.152 C 
HETATM    4  C4  UNL     1     -34.804  16.656  -5.367  1.00 20.00     0.083 C 
HETATM    5  C5  UNL     1     -36.110  16.086  -5.965  1.00 20.00    -0.033 C 
HETATM    6  C6  UNL     1     -37.164  17.213  -5.973  1.00 20.00     0.016 C 
HETATM    7  C7  UNL     1     -35.903  15.625  -7.423  1.00 20.00     0.016 C 
HETATM    8  O8  UNL     1     -35.857  12.667  -5.235  1.00 20.00    -0.297 OA
HETATM    9  S9  UNL     1     -33.469  15.431  -5.176  1.00 20.00    -0.161 SA
ENDROOT
TORSDOF 0
ENDMDL
MODEL 8
REMARK VINA RESULT:      -3.5      2.114      3.028
REMARK  0 active torsions:
REMARK  status: ('A' for Active; 'I' for Inactive)
ROOT
HETATM    1  C1  UNL     1     -34.455   5.860   5.320  1.00 20.00     0.136 C 
HETATM    2  C2  UNL     1     -35.027   5.728   3.924  1.00 20.00     0.088 C 
HETATM    3  C3  UNL     1     -33.944   7.214   5.727  1.00 20.00     0.152 C 
HETATM    4  C4  UNL     1     -33.380   7.462   3.045  1.00 20.00     0.083 C 
HETATM    5  C5  UNL     1     -33.997   6.061   2.828  1.00 20.00    -0.033 C 
HETATM    6  C6  UNL     1     -34.725   6.065   1.467  1.00 20.00     0.016 C 
HETATM    7  C7  UNL     1     -32.905   4.973   2.772  1.00 20.00     0.016 C 
HETATM    8  O8  UNL     1     -34.462   4.912   6.106  1.00 20.00    -0.297 OA
HETATM    9  S9  UNL     1     -32.567   7.682   4.660  1.00 20.00    -0.161 SA
ENDROOT
TORSDOF 0
ENDMDL
MODEL 9
REMARK VINA RESULT:      -3.5     11.919     13.018
REMARK  0 active torsions:
REMARK  status: ('A' for Active; 'I' for Inactive)
ROOT
HETATM    1  C1  UNL     1     -34.365  15.139  -6.910  1.00 20.00     0.136 C 
HETATM    2  C2  UNL     1     -33.923  16.068  -5.799  1.00 20.00     0.088 C 
HETATM    3  C3  UNL     1     -35.774  14.616  -6.848  1.00 20.00     0.152 C 
HETATM    4  C4  UNL     1     -35.403  14.838  -4.130  1.00 20.00     0.083 C 
HETATM    5  C5  UNL     1     -33.993  15.406  -4.409  1.00 20.00    -0.033 C 
HETATM    6  C6  UNL     1     -33.692  16.484  -3.346  1.00 20.00     0.016 C 
HETATM    7  C7  UNL     1     -32.915  14.309  -4.285  1.00 20.00     0.016 C 
HETATM    8  O8  UNL     1     -33.620  14.869  -7.853  1.00 20.00    -0.297 OA
HETATM    9  S9  UNL     1     -35.980  13.621  -5.357  1.00 20.00    -0.161 SA
ENDROOT
TORSDOF 0
ENDMDL
