MODEL 1
REMARK VINA RESULT:      -4.4      0.000      0.000
REMARK  1 active torsions:
REMARK  status: ('A' for Active; 'I' for Inactive)
REMARK    1  A    between atoms: C4_4  and  C5_5 
ROOT
HETATM    1  C1  UNL     1     -32.497   7.301   2.858  1.00 20.00     0.059 C 
HETATM    2  C5  UNL     1     -33.307   6.087   2.868  1.00 20.00     0.132 C 
HETATM    3  N6  UNL     1     -31.840   8.257   2.833  1.00 20.00    -0.197 NA
ENDROOT
BRANCH   2   4
HETATM    4  C4  UNL     1     -34.354   6.331   3.933  1.00 20.00     0.046 C 
HETATM    5  C2  UNL     1     -33.871   6.968   5.241  1.00 20.00     0.175 C 
HETATM    6  O7  UNL     1     -34.472   5.908   6.022  1.00 20.00    -0.390 OA
HETATM    7  C3  UNL     1     -34.725   5.139   4.822  1.00 20.00     0.175 C 
ENDBRANCH   2   4
TORSDOF 1
ENDMDL
MODEL 2
REMARK VINA RESULT:      -4.1      1.095      1.275
REMARK  1 active torsions:
REMARK  status: ('A' for Active; 'I' for Inactive)
REMARK    1  A    between atoms: C4_4  and  C5_5 
ROOT
HETATM    1  C1  UNL     1     -32.457   8.382   2.166  1.00 20.00     0.059 C 
HETATM    2  C5  UNL     1     -32.348   7.329   3.171  1.00 20.00     0.132 C 
HETATM    3  N6  UNL     1     -32.522   9.215   1.361  1.00 20.00    -0.197 NA
ENDROOT
BRANCH   2   4
HETATM    4  C4  UNL     1     -33.733   7.229   3.776  1.00 20.00     0.046 C 
HETATM    5  C2  UNL     1     -33.811   7.114   5.302  1.00 20.00     0.175 C 
HETATM    6  O7  UNL     1     -34.636   5.929   5.208  1.00 20.00    -0.390 OA
HETATM    7  C3  UNL     1     -34.383   5.842   3.784  1.00 20.00     0.175 C 
ENDBRANCH   2   4
TORSDOF 1
ENDMDL
MODEL 3
REMARK VINA RESULT:      -4.1      2.279      2.971
REMARK  1 active torsions:
REMARK  status: ('A' for Active; 'I' for Inactive)
REMARK    1  A    between atoms: C4_4  and  C5_5 
ROOT
HETATM    1  C1  UNL     1     -34.036   6.471   5.853  1.00 20.00     0.059 C 
HETATM    2  C5  UNL     1     -34.567   5.114   5.752  1.00 20.00     0.132 C 
HETATM    3  N6  UNL     1     -33.613   7.546   5.958  1.00 20.00    -0.197 NA
ENDROOT
BRANCH   2   4
HETATM    4  C4  UNL     1     -34.728   4.875   4.266  1.00 20.00     0.046 C 
HETATM    5  C2  UNL     1     -33.454   4.938   3.416  1.00 20.00     0.175 C 
HETATM    6  O7  UNL     1     -34.056   5.899   2.517  1.00 20.00    -0.390 OA
HETATM    7  C3  UNL     1     -35.176   6.071   3.419  1.00 20.00     0.175 C 
ENDBRANCH   2   4
TORSDOF 1
ENDMDL
MODEL 4
REMARK VINA RESULT:      -3.9      2.683      3.561
REMARK  1 active torsions:
REMARK  status: ('A' for Active; 'I' for Inactive)
REMARK    1  A    between atoms: C4_4  and  C5_5 
ROOT
HETATM    1  C1  UNL     1     -34.508   5.290   5.062  1.00 20.00     0.059 C 
HETATM    2  C5  UNL     1     -34.077   6.645   5.391  1.00 20.00     0.132 C 
HETATM    3  N6  UNL     1     -34.854   4.208   4.824  1.00 20.00    -0.197 NA
ENDROOT
BRANCH   2   4
HETATM    4  C4  UNL     1     -33.796   7.294   4.052  1.00 20.00     0.046 C 
HETATM    5  C2  UNL     1     -33.469   6.355   2.886  1.00 20.00     0.175 C 
HETATM    6  O7  UNL     1     -32.251   7.080   2.595  1.00 20.00    -0.390 OA
HETATM    7  C3  UNL     1     -32.377   7.827   3.829  1.00 20.00     0.175 C 
ENDBRANCH   2   4
TORSDOF 1
ENDMDL
MODEL 5
REMARK VINA RESULT:      -3.9      1.972      2.405
REMARK  1 active torsions:
REMARK  status: ('A' for Active; 'I' for Inactive)
REMARK    1  A    between atoms: C4_4  and  C5_5 
ROOT
HETATM    1  C1  UNL     1     -33.659   7.292   5.061  1.00 20.00     0.059 C 
HETATM    2  C5  UNL     1     -33.654   7.148   3.609  1.00 20.00     0.132 C 
HETATM    3  N6  UNL     1     -33.653   7.428   6.213  1.00 20.00    -0.197 NA
ENDROOT
BRANCH   2   4
HETATM    4  C4  UNL     1     -34.392   5.853   3.348  1.00 20.00     0.046 C 
HETATM    5  C2  UNL     1     -35.004   5.151   4.566  1.00 20.00     0.175 C 
HETATM    6  O7  UNL     1     -34.337   3.910   4.232  1.00 20.00    -0.390 OA
HETATM    7  C3  UNL     1     -33.540   4.585   3.229  1.00 20.00     0.175 C 
ENDBRANCH   2   4
TORSDOF 1
ENDMDL
MODEL 6
REMARK VINA RESULT:      -3.9      2.575      3.158
REMARK  1 active torsions:
REMARK  status: ('A' for Active; 'I' for Inactive)
REMARK    1  A    between atoms: C4_4  and  C5_5 
ROOT
HETATM    1  C1  UNL     1     -34.151   4.790   3.904  1.00 20.00     0.059 C 
HETATM    2  C5  UNL     1     -33.427   5.456   2.825  1.00 20.00     0.132 C 
HETATM    3  N6  UNL     1     -34.722   4.241   4.751  1.00 20.00    -0.197 NA
ENDROOT
BRANCH   2   4
HETATM    4  C4  UNL     1     -33.440   6.923   3.200  1.00 20.00     0.046 C 
HETATM    5  C2  UNL     1     -32.155   7.714   2.934  1.00 20.00     0.175 C 
HETATM    6  O7  UNL     1     -32.117   8.184   4.303  1.00 20.00    -0.390 OA
HETATM    7  C3  UNL     1     -33.170   7.260   4.670  1.00 20.00     0.175 C 
ENDBRANCH   2   4
TORSDOF 1
ENDMDL
MODEL 7
REMARK VINA RESULT:      -3.9      2.868      3.784
REMARK  1 active torsions:
REMARK  status: ('A' for Active; 'I' for Inactive)
REMARK    1  A    between atoms: C4_4  and  C5_5 
ROOT
HETATM    1  C1  UNL     1     -32.871   9.459   0.172  1.00 20.00     0.059 C 
HETATM    2  C5  UNL     1     -32.249   9.731   1.464  1.00 20.00     0.132 C 
HETATM    3  N6  UNL     1     -33.367   9.266  -0.859  1.00 20.00    -0.197 NA
ENDROOT
BRANCH   2   4
HETATM    4  C4  UNL     1     -31.930   8.365   2.033  1.00 20.00     0.046 C 
HETATM    5  C2  UNL     1     -33.120   7.513   2.489  1.00 20.00     0.175 C 
HETATM    6  O7  UNL     1     -32.525   7.314   3.794  1.00 20.00    -0.390 OA
HETATM    7  C3  UNL     1     -31.514   8.311   3.507  1.00 20.00     0.175 C 
ENDBRANCH   2   4
TORSDOF 1
ENDMDL
MODEL 8
REMARK VINA RESULT:      -3.9      1.552      1.695
REMARK  1 active torsions:
REMARK  status: ('A' for Active; 'I' for Inactive)
REMARK    1  A    between atoms: C4_4  and  C5_5 
ROOT
HETATM    1  C1  UNL     1     -33.002   5.735   2.827  1.00 20.00     0.059 C 
HETATM    2  C5  UNL     1     -33.093   7.134   3.235  1.00 20.00     0.132 C 
HETATM    3  N6  UNL     1     -32.911   4.629   2.488  1.00 20.00    -0.197 NA
ENDROOT
BRANCH   2   4
HETATM    4  C4  UNL     1     -34.166   7.153   4.303  1.00 20.00     0.046 C 
HETATM    5  C2  UNL     1     -33.689   7.206   5.758  1.00 20.00     0.175 C 
HETATM    6  O7  UNL     1     -34.489   6.050   6.102  1.00 20.00    -0.390 OA
HETATM    7  C3  UNL     1     -34.766   5.801   4.702  1.00 20.00     0.175 C 
ENDBRANCH   2   4
TORSDOF 1
ENDMDL
MODEL 9
REMARK VINA RESULT:      -3.8      2.861      3.659
REMARK  1 active torsions:
REMARK  status: ('A' for Active; 'I' for Inactive)
REMARK    1  A    between atoms: C4_4  and  C5_5 
ROOT
HETATM    1  C1  UNL     1     -34.373   5.483   4.330  1.00 20.00     0.059 C 
HETATM    2  C5  UNL     1     -34.080   6.908   4.205  1.00 20.00     0.132 C 
HETATM    3  N6  UNL     1     -34.625   4.357   4.442  1.00 20.00    -0.197 NA
ENDROOT
BRANCH   2   4
HETATM    4  C4  UNL     1     -32.834   6.970   3.346  1.00 20.00     0.046 C 
HETATM    5  C2  UNL     1     -31.770   7.997   3.750  1.00 20.00     0.175 C 
HETATM    6  O7  UNL     1     -31.751   8.558   2.416  1.00 20.00    -0.390 OA
HETATM    7  C3  UNL     1     -32.926   7.792   2.056  1.00 20.00     0.175 C 
ENDBRANCH   2   4
TORSDOF 1
ENDMDL
