MODEL 1
REMARK VINA RESULT:      -5.4      0.000      0.000
REMARK  1 active torsions:
REMARK  status: ('A' for Active; 'I' for Inactive)
REMARK    1  A    between atoms: C3_3  and  C9_9 
ROOT
HETATM    1  C1  UNL     1     -32.998   6.192   2.180  1.00 20.00     0.017 A 
HETATM    2  C2  UNL     1     -33.655   5.303   3.080  1.00 20.00     0.028 A 
HETATM    3  C3  UNL     1     -32.726   7.410   2.762  1.00 20.00    -0.012 A 
HETATM    4  C4  UNL     1     -33.859   5.875   4.316  1.00 20.00     0.051 A 
HETATM    5  S10 UNL     1     -33.261   7.479   4.388  1.00 20.00    -0.087 SA
HETATM    6 BR11 UNL     1     -34.701   5.005   5.778  1.00 20.00    -0.043 Br
ENDROOT
BRANCH   3   7
HETATM    7  C9  UNL     1     -32.050   8.611   2.152  1.00 20.00     0.026 C 
HETATM    8  C7  UNL     1     -32.953   9.857   2.096  1.00 20.00     0.010 C 
HETATM    9  C5  UNL     1     -32.562  10.559   0.805  1.00 20.00     0.001 C 
HETATM   10  C6  UNL     1     -32.298   9.406  -0.147  1.00 20.00     0.001 C 
HETATM   11  C8  UNL     1     -31.549   8.392   0.711  1.00 20.00     0.010 C 
ENDBRANCH   3   7
TORSDOF 1
ENDMDL
MODEL 2
REMARK VINA RESULT:      -4.7      2.821      5.212
REMARK  1 active torsions:
REMARK  status: ('A' for Active; 'I' for Inactive)
REMARK    1  A    between atoms: C3_3  and  C9_9 
ROOT
HETATM    1  C1  UNL     1     -32.211   7.903   4.088  1.00 20.00     0.017 A 
HETATM    2  C2  UNL     1     -31.492   8.557   3.045  1.00 20.00     0.028 A 
HETATM    3  C3  UNL     1     -33.414   7.397   3.648  1.00 20.00    -0.012 A 
HETATM    4  C4  UNL     1     -32.172   8.525   1.849  1.00 20.00     0.051 A 
HETATM    5  S10 UNL     1     -33.673   7.710   1.984  1.00 20.00    -0.087 SA
HETATM    6 BR11 UNL     1     -31.537   9.289   0.230  1.00 20.00    -0.043 Br
ENDROOT
BRANCH   3   7
HETATM    7  C9  UNL     1     -34.460   6.646   4.431  1.00 20.00     0.026 C 
HETATM    8  C7  UNL     1     -34.040   6.350   5.883  1.00 20.00     0.010 C 
HETATM    9  C5  UNL     1     -34.643   4.988   6.190  1.00 20.00     0.001 C 
HETATM   10  C6  UNL     1     -34.490   4.241   4.877  1.00 20.00     0.001 C 
HETATM   11  C8  UNL     1     -34.849   5.284   3.823  1.00 20.00     0.010 C 
ENDBRANCH   3   7
TORSDOF 1
ENDMDL
MODEL 3
REMARK VINA RESULT:      -4.7     10.608     11.154
REMARK  1 active torsions:
REMARK  status: ('A' for Active; 'I' for Inactive)
REMARK    1  A    between atoms: C3_3  and  C9_9 
ROOT
HETATM    1  C1  UNL     1     -32.092  18.779   0.734  1.00 20.00     0.017 A 
HETATM    2  C2  UNL     1     -31.781  18.907   2.120  1.00 20.00     0.028 A 
HETATM    3  C3  UNL     1     -33.435  18.563   0.523  1.00 20.00    -0.012 A 
HETATM    4  C4  UNL     1     -32.900  18.785   2.914  1.00 20.00     0.051 A 
HETATM    5  S10 UNL     1     -34.318  18.516   1.990  1.00 20.00    -0.087 SA
HETATM    6 BR11 UNL     1     -32.890  18.898   4.809  1.00 20.00    -0.043 Br
ENDROOT
BRANCH   3   7
HETATM    7  C9  UNL     1     -34.162  18.376  -0.785  1.00 20.00     0.026 C 
HETATM    8  C7  UNL     1     -35.198  17.238  -0.750  1.00 20.00     0.010 C 
HETATM    9  C5  UNL     1     -35.145  16.624  -2.141  1.00 20.00     0.001 C 
HETATM   10  C6  UNL     1     -33.670  16.694  -2.491  1.00 20.00     0.001 C 
HETATM   11  C8  UNL     1     -33.241  18.067  -1.982  1.00 20.00     0.010 C 
ENDBRANCH   3   7
TORSDOF 1
ENDMDL
MODEL 4
REMARK VINA RESULT:      -4.6     10.763     11.349
REMARK  1 active torsions:
REMARK  status: ('A' for Active; 'I' for Inactive)
REMARK    1  A    between atoms: C3_3  and  C9_9 
ROOT
HETATM    1  C1  UNL     1     -35.325  17.417  -0.323  1.00 20.00     0.017 A 
HETATM    2  C2  UNL     1     -35.304  16.746  -1.581  1.00 20.00     0.028 A 
HETATM    3  C3  UNL     1     -34.152  18.094  -0.079  1.00 20.00    -0.012 A 
HETATM    4  C4  UNL     1     -34.116  16.938  -2.250  1.00 20.00     0.051 A 
HETATM    5  S10 UNL     1     -33.030  17.922  -1.362  1.00 20.00    -0.087 SA
HETATM    6 BR11 UNL     1     -33.711  16.206  -3.954  1.00 20.00    -0.043 Br
ENDROOT
BRANCH   3   7
HETATM    7  C9  UNL     1     -33.778  18.919   1.127  1.00 20.00     0.026 C 
HETATM    8  C7  UNL     1     -32.283  18.831   1.487  1.00 20.00     0.010 C 
HETATM    9  C5  UNL     1     -32.248  18.892   3.006  1.00 20.00     0.001 C 
HETATM   10  C6  UNL     1     -33.477  18.098   3.411  1.00 20.00     0.001 C 
HETATM   11  C8  UNL     1     -34.541  18.543   2.412  1.00 20.00     0.010 C 
ENDBRANCH   3   7
TORSDOF 1
ENDMDL
MODEL 5
REMARK VINA RESULT:      -4.5     10.073     10.916
REMARK  1 active torsions:
REMARK  status: ('A' for Active; 'I' for Inactive)
REMARK    1  A    between atoms: C3_3  and  C9_9 
ROOT
HETATM    1  C1  UNL     1     -35.531  17.017  -1.169  1.00 20.00     0.017 A 
HETATM    2  C2  UNL     1     -35.051  17.690  -0.008  1.00 20.00     0.028 A 
HETATM    3  C3  UNL     1     -34.602  17.010  -2.185  1.00 20.00    -0.012 A 
HETATM    4  C4  UNL     1     -33.772  18.171  -0.181  1.00 20.00     0.051 A 
HETATM    5  S10 UNL     1     -33.155  17.812  -1.739  1.00 20.00    -0.087 SA
HETATM    6 BR11 UNL     1     -32.794  19.121   1.140  1.00 20.00    -0.043 Br
ENDROOT
BRANCH   3   7
HETATM    7  C9  UNL     1     -34.720  16.408  -3.562  1.00 20.00     0.026 C 
HETATM    8  C7  UNL     1     -36.052  15.672  -3.794  1.00 20.00     0.010 C 
HETATM    9  C5  UNL     1     -35.692  14.494  -4.686  1.00 20.00     0.001 C 
HETATM   10  C6  UNL     1     -34.332  14.069  -4.162  1.00 20.00     0.001 C 
HETATM   11  C8  UNL     1     -33.614  15.390  -3.905  1.00 20.00     0.010 C 
ENDBRANCH   3   7
TORSDOF 1
ENDMDL
MODEL 6
REMARK VINA RESULT:      -4.4     10.777     11.538
REMARK  1 active torsions:
REMARK  status: ('A' for Active; 'I' for Inactive)
REMARK    1  A    between atoms: C3_3  and  C9_9 
ROOT
HETATM    1  C1  UNL     1     -34.253  14.963  -3.794  1.00 20.00     0.017 A 
HETATM    2  C2  UNL     1     -34.130  14.254  -5.025  1.00 20.00     0.028 A 
HETATM    3  C3  UNL     1     -34.344  16.323  -3.987  1.00 20.00    -0.012 A 
HETATM    4  C4  UNL     1     -34.133  15.100  -6.112  1.00 20.00     0.051 A 
HETATM    5  S10 UNL     1     -34.282  16.743  -5.647  1.00 20.00    -0.087 SA
HETATM    6 BR11 UNL     1     -33.989  14.532  -7.918  1.00 20.00    -0.043 Br
ENDROOT
BRANCH   3   7
HETATM    7  C9  UNL     1     -34.484  17.411  -2.953  1.00 20.00     0.026 C 
HETATM    8  C7  UNL     1     -33.361  17.399  -1.900  1.00 20.00     0.010 C 
HETATM    9  C5  UNL     1     -34.040  17.825  -0.607  1.00 20.00     0.001 C 
HETATM   10  C6  UNL     1     -35.403  17.163  -0.701  1.00 20.00     0.001 C 
HETATM   11  C8  UNL     1     -35.804  17.363  -2.159  1.00 20.00     0.010 C 
ENDBRANCH   3   7
TORSDOF 1
ENDMDL
MODEL 7
REMARK VINA RESULT:      -4.3     10.409     11.055
REMARK  1 active torsions:
REMARK  status: ('A' for Active; 'I' for Inactive)
REMARK    1  A    between atoms: C3_3  and  C9_9 
ROOT
HETATM    1  C1  UNL     1     -35.236  16.450  -2.365  1.00 20.00     0.017 A 
HETATM    2  C2  UNL     1     -35.441  17.013  -1.071  1.00 20.00     0.028 A 
HETATM    3  C3  UNL     1     -33.994  16.760  -2.872  1.00 20.00    -0.012 A 
HETATM    4  C4  UNL     1     -34.348  17.730  -0.640  1.00 20.00     0.051 A 
HETATM    5  S10 UNL     1     -33.080  17.725  -1.792  1.00 20.00    -0.087 SA
HETATM    6 BR11 UNL     1     -34.241  18.626   1.031  1.00 20.00    -0.043 Br
ENDROOT
BRANCH   3   7
HETATM    7  C9  UNL     1     -33.395  16.362  -4.197  1.00 20.00     0.026 C 
HETATM    8  C7  UNL     1     -34.226  16.828  -5.407  1.00 20.00     0.010 C 
HETATM    9  C5  UNL     1     -34.071  15.715  -6.433  1.00 20.00     0.001 C 
HETATM   10  C6  UNL     1     -34.066  14.460  -5.580  1.00 20.00     0.001 C 
HETATM   11  C8  UNL     1     -33.210  14.842  -4.377  1.00 20.00     0.010 C 
ENDBRANCH   3   7
TORSDOF 1
ENDMDL
MODEL 8
REMARK VINA RESULT:      -4.3     10.174     11.029
REMARK  1 active torsions:
REMARK  status: ('A' for Active; 'I' for Inactive)
REMARK    1  A    between atoms: C3_3  and  C9_9 
ROOT
HETATM    1  C1  UNL     1     -33.094  17.705  -2.052  1.00 20.00     0.017 A 
HETATM    2  C2  UNL     1     -33.190  18.172  -0.709  1.00 20.00     0.028 A 
HETATM    3  C3  UNL     1     -34.253  17.090  -2.470  1.00 20.00    -0.012 A 
HETATM    4  C4  UNL     1     -34.418  17.896  -0.152  1.00 20.00     0.051 A 
HETATM    5  S10 UNL     1     -35.451  17.076  -1.246  1.00 20.00    -0.087 SA
HETATM    6 BR11 UNL     1     -34.925  18.360   1.618  1.00 20.00    -0.043 Br
ENDROOT
BRANCH   3   7
HETATM    7  C9  UNL     1     -34.555  16.467  -3.809  1.00 20.00     0.026 C 
HETATM    8  C7  UNL     1     -34.512  14.928  -3.791  1.00 20.00     0.010 C 
HETATM    9  C5  UNL     1     -33.953  14.541  -5.152  1.00 20.00     0.001 C 
HETATM   10  C6  UNL     1     -32.920  15.620  -5.418  1.00 20.00     0.001 C 
HETATM   11  C8  UNL     1     -33.598  16.900  -4.939  1.00 20.00     0.010 C 
ENDBRANCH   3   7
TORSDOF 1
ENDMDL
MODEL 9
REMARK VINA RESULT:      -4.3     10.372     10.991
REMARK  1 active torsions:
REMARK  status: ('A' for Active; 'I' for Inactive)
REMARK    1  A    between atoms: C3_3  and  C9_9 
ROOT
HETATM    1  C1  UNL     1     -33.661  15.867  -3.236  1.00 20.00     0.017 A 
HETATM    2  C2  UNL     1     -33.992  14.848  -4.176  1.00 20.00     0.028 A 
HETATM    3  C3  UNL     1     -34.767  16.582  -2.836  1.00 20.00    -0.012 A 
HETATM    4  C4  UNL     1     -35.340  14.822  -4.457  1.00 20.00     0.051 A 
HETATM    5  S10 UNL     1     -36.200  16.025  -3.591  1.00 20.00    -0.087 SA
HETATM    6 BR11 UNL     1     -36.164  13.606  -5.660  1.00 20.00    -0.043 Br
ENDROOT
BRANCH   3   7
HETATM    7  C9  UNL     1     -34.842  17.732  -1.864  1.00 20.00     0.026 C 
HETATM    8  C7  UNL     1     -33.600  17.850  -0.962  1.00 20.00     0.010 C 
HETATM    9  C5  UNL     1     -34.139  18.333   0.376  1.00 20.00     0.001 C 
HETATM   10  C6  UNL     1     -35.463  17.600   0.497  1.00 20.00     0.001 C 
HETATM   11  C8  UNL     1     -36.050  17.676  -0.909  1.00 20.00     0.010 C 
ENDBRANCH   3   7
TORSDOF 1
ENDMDL
