MODEL 1
REMARK VINA RESULT:      -4.8      0.000      0.000
REMARK  1 active torsions:
REMARK  status: ('A' for Active; 'I' for Inactive)
REMARK    1  A    between atoms: C1_1  and  C3_3 
ROOT
HETATM    1  C3  UNL     1     -34.663   5.438   4.840  1.00 20.00     0.408 C 
HETATM    2  F4  UNL     1     -35.719   5.761   4.051  1.00 20.00    -0.167 F 
HETATM    3  F5  UNL     1     -35.148   4.667   5.847  1.00 20.00    -0.167 F 
HETATM    4  F6  UNL     1     -33.848   4.646   4.099  1.00 20.00    -0.167 F 
ENDROOT
BRANCH   1   5
HETATM    5  C1  UNL     1     -33.987   6.655   5.365  1.00 20.00     0.096 C 
HETATM    6  C2  UNL     1     -33.223   7.466   4.626  1.00 20.00     0.060 C 
HETATM    7 BR7  UNL     1     -32.875   7.216   2.821  1.00 20.00    -0.064 Br
ENDBRANCH   1   5
TORSDOF 1
ENDMDL
MODEL 2
REMARK VINA RESULT:      -4.8      0.040      1.424
REMARK  1 active torsions:
REMARK  status: ('A' for Active; 'I' for Inactive)
REMARK    1  A    between atoms: C1_1  and  C3_3 
ROOT
HETATM    1  C3  UNL     1     -34.661   5.456   4.816  1.00 20.00     0.408 C 
HETATM    2  F4  UNL     1     -35.143   4.690   5.829  1.00 20.00    -0.167 F 
HETATM    3  F5  UNL     1     -33.831   4.665   4.089  1.00 20.00    -0.167 F 
HETATM    4  F6  UNL     1     -35.715   5.757   4.017  1.00 20.00    -0.167 F 
ENDROOT
BRANCH   1   5
HETATM    5  C1  UNL     1     -33.951   6.656   5.336  1.00 20.00     0.096 C 
HETATM    6  C2  UNL     1     -33.181   7.454   4.589  1.00 20.00     0.060 C 
HETATM    7 BR7  UNL     1     -32.866   7.204   2.778  1.00 20.00    -0.064 Br
ENDBRANCH   1   5
TORSDOF 1
ENDMDL
MODEL 3
REMARK VINA RESULT:      -4.6      2.455      2.740
REMARK  1 active torsions:
REMARK  status: ('A' for Active; 'I' for Inactive)
REMARK    1  A    between atoms: C1_1  and  C3_3 
ROOT
HETATM    1  C3  UNL     1     -33.586   5.372   3.009  1.00 20.00     0.408 C 
HETATM    2  F4  UNL     1     -34.416   6.087   2.207  1.00 20.00    -0.167 F 
HETATM    3  F5  UNL     1     -33.033   4.403   2.235  1.00 20.00    -0.167 F 
HETATM    4  F6  UNL     1     -32.579   6.205   3.373  1.00 20.00    -0.167 F 
ENDROOT
BRANCH   1   5
HETATM    5  C1  UNL     1     -34.319   4.790   4.166  1.00 20.00     0.096 C 
HETATM    6  C2  UNL     1     -34.503   5.420   5.330  1.00 20.00     0.060 C 
HETATM    7 BR7  UNL     1     -33.879   7.127   5.705  1.00 20.00    -0.064 Br
ENDBRANCH   1   5
TORSDOF 1
ENDMDL
MODEL 4
REMARK VINA RESULT:      -4.6      2.385      2.865
REMARK  1 active torsions:
REMARK  status: ('A' for Active; 'I' for Inactive)
REMARK    1  A    between atoms: C1_1  and  C3_3 
ROOT
HETATM    1  C3  UNL     1     -33.375   6.601   2.946  1.00 20.00     0.408 C 
HETATM    2  F4  UNL     1     -32.948   7.468   1.993  1.00 20.00    -0.167 F 
HETATM    3  F5  UNL     1     -34.565   6.106   2.520  1.00 20.00    -0.167 F 
HETATM    4  F6  UNL     1     -32.500   5.564   2.953  1.00 20.00    -0.167 F 
ENDROOT
BRANCH   1   5
HETATM    5  C1  UNL     1     -33.507   7.271   4.268  1.00 20.00     0.096 C 
HETATM    6  C2  UNL     1     -34.011   6.686   5.359  1.00 20.00     0.060 C 
HETATM    7 BR7  UNL     1     -34.631   4.938   5.414  1.00 20.00    -0.064 Br
ENDBRANCH   1   5
TORSDOF 1
ENDMDL
MODEL 5
REMARK VINA RESULT:      -4.5      1.450      2.003
REMARK  1 active torsions:
REMARK  status: ('A' for Active; 'I' for Inactive)
REMARK    1  A    between atoms: C1_1  and  C3_3 
ROOT
HETATM    1  C3  UNL     1     -34.639   5.458   4.652  1.00 20.00     0.408 C 
HETATM    2  F4  UNL     1     -35.014   4.567   5.605  1.00 20.00    -0.167 F 
HETATM    3  F5  UNL     1     -35.780   5.922   4.080  1.00 20.00    -0.167 F 
HETATM    4  F6  UNL     1     -34.072   6.508   5.299  1.00 20.00    -0.167 F 
ENDROOT
BRANCH   1   5
HETATM    5  C1  UNL     1     -33.742   4.830   3.645  1.00 20.00     0.096 C 
HETATM    6  C2  UNL     1     -32.987   5.517   2.782  1.00 20.00     0.060 C 
HETATM    7 BR7  UNL     1     -32.924   7.369   2.692  1.00 20.00    -0.064 Br
ENDBRANCH   1   5
TORSDOF 1
ENDMDL
MODEL 6
REMARK VINA RESULT:      -4.5      1.457      1.861
REMARK  1 active torsions:
REMARK  status: ('A' for Active; 'I' for Inactive)
REMARK    1  A    between atoms: C1_1  and  C3_3 
ROOT
HETATM    1  C3  UNL     1     -34.644   5.417   4.576  1.00 20.00     0.408 C 
HETATM    2  F4  UNL     1     -34.037   6.406   5.280  1.00 20.00    -0.167 F 
HETATM    3  F5  UNL     1     -34.999   4.460   5.471  1.00 20.00    -0.167 F 
HETATM    4  F6  UNL     1     -35.796   5.938   4.082  1.00 20.00    -0.167 F 
ENDROOT
BRANCH   1   5
HETATM    5  C1  UNL     1     -33.745   4.870   3.524  1.00 20.00     0.096 C 
HETATM    6  C2  UNL     1     -32.971   5.621   2.734  1.00 20.00     0.060 C 
HETATM    7 BR7  UNL     1     -32.883   7.473   2.813  1.00 20.00    -0.064 Br
ENDBRANCH   1   5
TORSDOF 1
ENDMDL
MODEL 7
REMARK VINA RESULT:      -4.4      2.668      3.407
REMARK  1 active torsions:
REMARK  status: ('A' for Active; 'I' for Inactive)
REMARK    1  A    between atoms: C1_1  and  C3_3 
ROOT
HETATM    1  C3  UNL     1     -32.516   7.521   3.459  1.00 20.00     0.408 C 
HETATM    2  F4  UNL     1     -31.297   8.108   3.350  1.00 20.00    -0.167 F 
HETATM    3  F5  UNL     1     -33.346   8.181   2.613  1.00 20.00    -0.167 F 
HETATM    4  F6  UNL     1     -32.387   6.259   2.976  1.00 20.00    -0.167 F 
ENDROOT
BRANCH   1   5
HETATM    5  C1  UNL     1     -33.016   7.569   4.860  1.00 20.00     0.096 C 
HETATM    6  C2  UNL     1     -34.007   6.804   5.329  1.00 20.00     0.060 C 
HETATM    7 BR7  UNL     1     -34.928   5.551   4.317  1.00 20.00    -0.064 Br
ENDBRANCH   1   5
TORSDOF 1
ENDMDL
MODEL 8
REMARK VINA RESULT:      -4.4      2.799      3.443
REMARK  1 active torsions:
REMARK  status: ('A' for Active; 'I' for Inactive)
REMARK    1  A    between atoms: C1_1  and  C3_3 
ROOT
HETATM    1  C3  UNL     1     -33.199   7.145   3.124  1.00 20.00     0.408 C 
HETATM    2  F4  UNL     1     -34.281   7.784   3.638  1.00 20.00    -0.167 F 
HETATM    3  F5  UNL     1     -32.869   7.794   1.978  1.00 20.00    -0.167 F 
HETATM    4  F6  UNL     1     -32.177   7.344   3.994  1.00 20.00    -0.167 F 
ENDROOT
BRANCH   1   5
HETATM    5  C1  UNL     1     -33.488   5.708   2.870  1.00 20.00     0.096 C 
HETATM    6  C2  UNL     1     -34.043   4.885   3.766  1.00 20.00     0.060 C 
HETATM    7 BR7  UNL     1     -34.550   5.392   5.477  1.00 20.00    -0.064 Br
ENDBRANCH   1   5
TORSDOF 1
ENDMDL
MODEL 9
REMARK VINA RESULT:      -4.3      2.040      2.655
REMARK  1 active torsions:
REMARK  status: ('A' for Active; 'I' for Inactive)
REMARK    1  A    between atoms: C1_1  and  C3_3 
ROOT
HETATM    1  C3  UNL     1     -34.048   6.883   5.399  1.00 20.00     0.408 C 
HETATM    2  F4  UNL     1     -34.339   7.505   6.570  1.00 20.00    -0.167 F 
HETATM    3  F5  UNL     1     -34.622   7.617   4.412  1.00 20.00    -0.167 F 
HETATM    4  F6  UNL     1     -32.705   6.979   5.228  1.00 20.00    -0.167 F 
ENDROOT
BRANCH   1   5
HETATM    5  C1  UNL     1     -34.545   5.481   5.392  1.00 20.00     0.096 C 
HETATM    6  C2  UNL     1     -34.347   4.619   4.389  1.00 20.00     0.060 C 
HETATM    7 BR7  UNL     1     -33.418   5.022   2.835  1.00 20.00    -0.064 Br
ENDBRANCH   1   5
TORSDOF 1
ENDMDL
