MODEL 1
REMARK VINA RESULT:      -6.0      0.000      0.000
REMARK  3 active torsions:
REMARK  status: ('A' for Active; 'I' for Inactive)
REMARK    1  A    between atoms: C5_5  and  C8_8 
REMARK    2  A    between atoms: C7_7  and  N9_9 
REMARK    3  A    between atoms: C8_8  and  N9_9 
ROOT
HETATM    1  C1  UNL     1     -32.547  10.281   0.704  1.00 20.00     0.013 C 
HETATM    2  C2  UNL     1     -32.293   9.333   1.396  1.00 20.00    -0.087 C 
HETATM    3  C7  UNL     1     -31.979   8.177   2.241  1.00 20.00     0.362 C 
ENDROOT
BRANCH   3   4
HETATM    4  N9  UNL     1     -33.205   7.580   2.776  1.00 20.00     0.094 N 
HETATM    5  H22 UNL     1     -33.436   8.053   3.656  1.00 20.00     0.317 HD
BRANCH   4   6
HETATM    6  C8  UNL     1     -33.054   6.168   2.995  1.00 20.00     0.275 C 
BRANCH   6   7
HETATM    7  C5  UNL     1     -34.334   5.552   3.440  1.00 20.00     0.018 A 
HETATM    8  C3  UNL     1     -34.327   4.384   4.391  1.00 20.00     0.011 A 
HETATM    9  C4  UNL     1     -34.866   5.714   4.846  1.00 20.00    -0.013 A 
HETATM   10  C6  UNL     1     -34.147   6.501   5.887  1.00 20.00     0.010 C 
ENDBRANCH   6   7
ENDBRANCH   4   6
ENDBRANCH   3   4
TORSDOF 3
ENDMDL
MODEL 2
REMARK VINA RESULT:      -5.3      1.131      5.170
REMARK  3 active torsions:
REMARK  status: ('A' for Active; 'I' for Inactive)
REMARK    1  A    between atoms: C5_5  and  C8_8 
REMARK    2  A    between atoms: C7_7  and  N9_9 
REMARK    3  A    between atoms: C8_8  and  N9_9 
ROOT
HETATM    1  C1  UNL     1     -34.823   4.832   4.879  1.00 20.00     0.013 C 
HETATM    2  C2  UNL     1     -34.326   5.912   4.706  1.00 20.00    -0.087 C 
HETATM    3  C7  UNL     1     -33.721   7.230   4.499  1.00 20.00     0.362 C 
ENDROOT
BRANCH   3   4
HETATM    4  N9  UNL     1     -32.638   7.154   3.517  1.00 20.00     0.094 N 
HETATM    5  H22 UNL     1     -31.820   7.639   3.901  1.00 20.00     0.317 HD
BRANCH   4   6
HETATM    6  C8  UNL     1     -33.020   7.739   2.261  1.00 20.00     0.275 C 
BRANCH   6   7
HETATM    7  C5  UNL     1     -32.139   8.889   1.913  1.00 20.00     0.018 A 
HETATM    8  C3  UNL     1     -31.138   8.769   0.795  1.00 20.00     0.011 A 
HETATM    9  C4  UNL     1     -32.318   9.693   0.645  1.00 20.00    -0.013 A 
HETATM   10  C6  UNL     1     -33.387   9.393  -0.347  1.00 20.00     0.010 C 
ENDBRANCH   6   7
ENDBRANCH   4   6
ENDBRANCH   3   4
TORSDOF 3
ENDMDL
MODEL 3
REMARK VINA RESULT:      -5.3      1.218      4.813
REMARK  3 active torsions:
REMARK  status: ('A' for Active; 'I' for Inactive)
REMARK    1  A    between atoms: C5_5  and  C8_8 
REMARK    2  A    between atoms: C7_7  and  N9_9 
REMARK    3  A    between atoms: C8_8  and  N9_9 
ROOT
HETATM    1  C1  UNL     1     -33.746   7.331   5.919  1.00 20.00     0.013 C 
HETATM    2  C2  UNL     1     -33.839   6.943   4.787  1.00 20.00    -0.087 C 
HETATM    3  C7  UNL     1     -33.958   6.469   3.405  1.00 20.00     0.362 C 
ENDROOT
BRANCH   3   4
HETATM    4  N9  UNL     1     -32.707   6.687   2.675  1.00 20.00     0.094 N 
HETATM    5  H22 UNL     1     -31.983   6.093   3.093  1.00 20.00     0.317 HD
BRANCH   4   6
HETATM    6  C8  UNL     1     -32.304   8.066   2.714  1.00 20.00     0.275 C 
BRANCH   6   7
HETATM    7  C5  UNL     1     -31.833   8.527   1.379  1.00 20.00     0.018 A 
HETATM    8  C3  UNL     1     -32.815   8.734   0.255  1.00 20.00     0.011 A 
HETATM    9  C4  UNL     1     -32.109   9.919   0.858  1.00 20.00    -0.013 A 
HETATM   10  C6  UNL     1     -32.871  10.930   1.643  1.00 20.00     0.010 C 
ENDBRANCH   6   7
ENDBRANCH   4   6
ENDBRANCH   3   4
TORSDOF 3
ENDMDL
MODEL 4
REMARK VINA RESULT:      -5.1      1.141      4.588
REMARK  3 active torsions:
REMARK  status: ('A' for Active; 'I' for Inactive)
REMARK    1  A    between atoms: C5_5  and  C8_8 
REMARK    2  A    between atoms: C7_7  and  N9_9 
REMARK    3  A    between atoms: C8_8  and  N9_9 
ROOT
HETATM    1  C1  UNL     1     -34.074   6.917   6.148  1.00 20.00     0.013 C 
HETATM    2  C2  UNL     1     -34.247   6.173   5.221  1.00 20.00    -0.087 C 
HETATM    3  C7  UNL     1     -34.461   5.261   4.094  1.00 20.00     0.362 C 
ENDROOT
BRANCH   3   4
HETATM    4  N9  UNL     1     -34.327   5.974   2.821  1.00 20.00     0.094 N 
HETATM    5  H22 UNL     1     -34.625   5.345   2.068  1.00 20.00     0.317 HD
BRANCH   4   6
HETATM    6  C8  UNL     1     -32.977   6.413   2.599  1.00 20.00     0.275 C 
BRANCH   6   7
HETATM    7  C5  UNL     1     -32.813   7.850   2.955  1.00 20.00     0.018 A 
HETATM    8  C3  UNL     1     -31.457   8.392   3.325  1.00 20.00     0.011 A 
HETATM    9  C4  UNL     1     -32.116   8.836   2.046  1.00 20.00    -0.013 A 
HETATM   10  C6  UNL     1     -31.544   8.442   0.728  1.00 20.00     0.010 C 
ENDBRANCH   6   7
ENDBRANCH   4   6
ENDBRANCH   3   4
TORSDOF 3
ENDMDL
MODEL 5
REMARK VINA RESULT:      -4.9      1.406      4.680
REMARK  3 active torsions:
REMARK  status: ('A' for Active; 'I' for Inactive)
REMARK    1  A    between atoms: C5_5  and  C8_8 
REMARK    2  A    between atoms: C7_7  and  N9_9 
REMARK    3  A    between atoms: C8_8  and  N9_9 
ROOT
HETATM    1  C1  UNL     1     -34.503   4.361   4.545  1.00 20.00     0.013 C 
HETATM    2  C2  UNL     1     -34.442   5.359   5.210  1.00 20.00    -0.087 C 
HETATM    3  C7  UNL     1     -34.371   6.575   6.025  1.00 20.00     0.362 C 
ENDROOT
BRANCH   3   4
HETATM    4  N9  UNL     1     -33.194   7.369   5.667  1.00 20.00     0.094 N 
HETATM    5  H22 UNL     1     -33.065   8.094   6.382  1.00 20.00     0.317 HD
BRANCH   4   6
HETATM    6  C8  UNL     1     -33.333   7.969   4.369  1.00 20.00     0.275 C 
BRANCH   6   7
HETATM    7  C5  UNL     1     -32.287   7.474   3.432  1.00 20.00     0.018 A 
HETATM    8  C3  UNL     1     -32.674   6.875   2.106  1.00 20.00     0.011 A 
HETATM    9  C4  UNL     1     -31.945   8.191   2.146  1.00 20.00    -0.013 A 
HETATM   10  C6  UNL     1     -32.630   9.445   1.723  1.00 20.00     0.010 C 
ENDBRANCH   6   7
ENDBRANCH   4   6
ENDBRANCH   3   4
TORSDOF 3
ENDMDL
MODEL 6
REMARK VINA RESULT:      -4.5      9.565     10.704
REMARK  3 active torsions:
REMARK  status: ('A' for Active; 'I' for Inactive)
REMARK    1  A    between atoms: C5_5  and  C8_8 
REMARK    2  A    between atoms: C7_7  and  N9_9 
REMARK    3  A    between atoms: C8_8  and  N9_9 
ROOT
HETATM    1  C1  UNL     1     -41.543   2.391  -3.792  1.00 20.00     0.013 C 
HETATM    2  C2  UNL     1     -42.347   3.070  -3.214  1.00 20.00    -0.087 C 
HETATM    3  C7  UNL     1     -43.332   3.898  -2.513  1.00 20.00     0.362 C 
ENDROOT
BRANCH   3   4
HETATM    4  N9  UNL     1     -43.042   3.942  -1.078  1.00 20.00     0.094 N 
HETATM    5  H22 UNL     1     -43.723   3.346  -0.594  1.00 20.00     0.317 HD
BRANCH   4   6
HETATM    6  C8  UNL     1     -43.102   5.283  -0.566  1.00 20.00     0.275 C 
BRANCH   6   7
HETATM    7  C5  UNL     1     -41.892   5.606   0.240  1.00 20.00     0.018 A 
HETATM    8  C3  UNL     1     -40.539   5.682  -0.418  1.00 20.00     0.011 A 
HETATM    9  C4  UNL     1     -41.175   6.932   0.129  1.00 20.00    -0.013 A 
HETATM   10  C6  UNL     1     -41.627   8.012  -0.793  1.00 20.00     0.010 C 
ENDBRANCH   6   7
ENDBRANCH   4   6
ENDBRANCH   3   4
TORSDOF 3
ENDMDL
MODEL 7
REMARK VINA RESULT:      -4.4      1.921      4.116
REMARK  3 active torsions:
REMARK  status: ('A' for Active; 'I' for Inactive)
REMARK    1  A    between atoms: C5_5  and  C8_8 
REMARK    2  A    between atoms: C7_7  and  N9_9 
REMARK    3  A    between atoms: C8_8  and  N9_9 
ROOT
HETATM    1  C1  UNL     1     -33.691   7.671   6.176  1.00 20.00     0.013 C 
HETATM    2  C2  UNL     1     -34.077   6.547   5.997  1.00 20.00    -0.087 C 
HETATM    3  C7  UNL     1     -34.546   5.176   5.785  1.00 20.00     0.362 C 
ENDROOT
BRANCH   3   4
HETATM    4  N9  UNL     1     -35.443   5.110   4.629  1.00 20.00     0.094 N 
HETATM    5  H22 UNL     1     -35.567   4.124   4.374  1.00 20.00     0.317 HD
BRANCH   4   6
HETATM    6  C8  UNL     1     -34.925   5.852   3.513  1.00 20.00     0.275 C 
BRANCH   6   7
HETATM    7  C5  UNL     1     -33.529   5.443   3.196  1.00 20.00     0.018 A 
HETATM    8  C3  UNL     1     -33.045   5.428   1.770  1.00 20.00     0.011 A 
HETATM    9  C4  UNL     1     -32.478   6.430   2.740  1.00 20.00    -0.013 A 
HETATM   10  C6  UNL     1     -32.764   7.883   2.575  1.00 20.00     0.010 C 
ENDBRANCH   6   7
ENDBRANCH   4   6
ENDBRANCH   3   4
TORSDOF 3
ENDMDL
MODEL 8
REMARK VINA RESULT:      -4.2     10.804     12.186
REMARK  3 active torsions:
REMARK  status: ('A' for Active; 'I' for Inactive)
REMARK    1  A    between atoms: C5_5  and  C8_8 
REMARK    2  A    between atoms: C7_7  and  N9_9 
REMARK    3  A    between atoms: C8_8  and  N9_9 
ROOT
HETATM    1  C1  UNL     1     -33.994  16.661  -7.724  1.00 20.00     0.013 C 
HETATM    2  C2  UNL     1     -34.120  15.468  -7.773  1.00 20.00    -0.087 C 
HETATM    3  C7  UNL     1     -34.274  14.012  -7.839  1.00 20.00     0.362 C 
ENDROOT
BRANCH   3   4
HETATM    4  N9  UNL     1     -34.099  13.414  -6.514  1.00 20.00     0.094 N 
HETATM    5  H22 UNL     1     -34.138  12.394  -6.613  1.00 20.00     0.317 HD
BRANCH   4   6
HETATM    6  C8  UNL     1     -35.106  13.864  -5.592  1.00 20.00     0.275 C 
BRANCH   6   7
HETATM    7  C5  UNL     1     -34.515  14.180  -4.262  1.00 20.00     0.018 A 
HETATM    8  C3  UNL     1     -33.327  15.101  -4.157  1.00 20.00     0.011 A 
HETATM    9  C4  UNL     1     -34.662  15.536  -3.611  1.00 20.00    -0.013 A 
HETATM   10  C6  UNL     1     -35.408  16.655  -4.253  1.00 20.00     0.010 C 
ENDBRANCH   6   7
ENDBRANCH   4   6
ENDBRANCH   3   4
TORSDOF 3
ENDMDL
MODEL 9
REMARK VINA RESULT:      -4.1     10.590     11.981
REMARK  3 active torsions:
REMARK  status: ('A' for Active; 'I' for Inactive)
REMARK    1  A    between atoms: C5_5  and  C8_8 
REMARK    2  A    between atoms: C7_7  and  N9_9 
REMARK    3  A    between atoms: C8_8  and  N9_9 
ROOT
HETATM    1  C1  UNL     1     -34.153  13.989  -7.811  1.00 20.00     0.013 C 
HETATM    2  C2  UNL     1     -34.973  13.847  -6.945  1.00 20.00    -0.087 C 
HETATM    3  C7  UNL     1     -35.977  13.674  -5.892  1.00 20.00     0.362 C 
ENDROOT
BRANCH   3   4
HETATM    4  N9  UNL     1     -35.348  13.234  -4.646  1.00 20.00     0.094 N 
HETATM    5  H22 UNL     1     -36.080  13.131  -3.934  1.00 20.00     0.317 HD
BRANCH   4   6
HETATM    6  C8  UNL     1     -34.347  14.165  -4.200  1.00 20.00     0.275 C 
BRANCH   6   7
HETATM    7  C5  UNL     1     -34.968  15.420  -3.693  1.00 20.00     0.018 A 
HETATM    8  C3  UNL     1     -34.171  16.371  -2.839  1.00 20.00     0.011 A 
HETATM    9  C4  UNL     1     -34.590  16.783  -4.225  1.00 20.00    -0.013 A 
HETATM   10  C6  UNL     1     -33.570  16.970  -5.295  1.00 20.00     0.010 C 
ENDBRANCH   6   7
ENDBRANCH   4   6
ENDBRANCH   3   4
TORSDOF 3
ENDMDL
