MODEL 1
REMARK VINA RESULT:      -5.4      0.000      0.000
REMARK  1 active torsions:
REMARK  status: ('A' for Active; 'I' for Inactive)
REMARK    1  A    between atoms: C3_3  and  C5_5 
ROOT
HETATM    1  C1  UNL     1     -33.616   7.007   5.146  1.00 20.00     0.022 A 
HETATM    2  C2  UNL     1     -32.898   7.963   4.373  1.00 20.00     0.028 A 
HETATM    3  C3  UNL     1     -34.028   5.933   4.388  1.00 20.00     0.048 A 
HETATM    4  C4  UNL     1     -32.788   7.584   3.053  1.00 20.00     0.052 A 
HETATM    5  S8  UNL     1     -33.551   6.082   2.750  1.00 20.00    -0.082 SA
HETATM    6 BR9  UNL     1     -31.902   8.598   1.714  1.00 20.00    -0.043 Br
ENDROOT
BRANCH   3   7
HETATM    7  C5  UNL     1     -34.794   4.742   4.818  1.00 20.00     0.393 C 
HETATM    8  F6  UNL     1     -34.981   4.734   6.168  1.00 20.00    -0.208 F 
HETATM    9  F7  UNL     1     -34.125   3.591   4.525  1.00 20.00    -0.208 F 
ENDBRANCH   3   7
TORSDOF 1
ENDMDL
MODEL 2
REMARK VINA RESULT:      -5.0      1.289      1.741
REMARK  1 active torsions:
REMARK  status: ('A' for Active; 'I' for Inactive)
REMARK    1  A    between atoms: C3_3  and  C5_5 
ROOT
HETATM    1  C1  UNL     1     -33.733   5.243   3.186  1.00 20.00     0.022 A 
HETATM    2  C2  UNL     1     -33.025   6.012   2.220  1.00 20.00     0.028 A 
HETATM    3  C3  UNL     1     -34.025   5.974   4.317  1.00 20.00     0.048 A 
HETATM    4  C4  UNL     1     -32.802   7.303   2.649  1.00 20.00     0.052 A 
HETATM    5  S8  UNL     1     -33.445   7.581   4.211  1.00 20.00    -0.082 SA
HETATM    6 BR9  UNL     1     -31.890   8.628   1.639  1.00 20.00    -0.043 Br
ENDROOT
BRANCH   3   7
HETATM    7  C5  UNL     1     -34.742   5.537   5.536  1.00 20.00     0.393 C 
HETATM    8  F6  UNL     1     -34.607   6.447   6.543  1.00 20.00    -0.208 F 
HETATM    9  F7  UNL     1     -34.234   4.367   6.017  1.00 20.00    -0.208 F 
ENDBRANCH   3   7
TORSDOF 1
ENDMDL
MODEL 3
REMARK VINA RESULT:      -4.7      3.947      4.647
REMARK  1 active torsions:
REMARK  status: ('A' for Active; 'I' for Inactive)
REMARK    1  A    between atoms: C3_3  and  C5_5 
ROOT
HETATM    1  C1  UNL     1     -32.960   6.309   2.093  1.00 20.00     0.022 A 
HETATM    2  C2  UNL     1     -33.621   5.412   2.980  1.00 20.00     0.028 A 
HETATM    3  C3  UNL     1     -32.698   7.524   2.687  1.00 20.00     0.048 A 
HETATM    4  C4  UNL     1     -33.838   5.975   4.219  1.00 20.00     0.052 A 
HETATM    5  S8  UNL     1     -33.248   7.580   4.307  1.00 20.00    -0.082 SA
HETATM    6 BR9  UNL     1     -34.692   5.090   5.666  1.00 20.00    -0.043 Br
ENDROOT
BRANCH   3   7
HETATM    7  C5  UNL     1     -32.033   8.710   2.103  1.00 20.00     0.393 C 
HETATM    8  F6  UNL     1     -32.944   9.606   1.627  1.00 20.00    -0.208 F 
HETATM    9  F7  UNL     1     -31.254   8.366   1.038  1.00 20.00    -0.208 F 
ENDBRANCH   3   7
TORSDOF 1
ENDMDL
MODEL 4
REMARK VINA RESULT:      -4.4      3.714      4.346
REMARK  1 active torsions:
REMARK  status: ('A' for Active; 'I' for Inactive)
REMARK    1  A    between atoms: C3_3  and  C5_5 
ROOT
HETATM    1  C1  UNL     1     -32.674   8.182   4.581  1.00 20.00     0.022 A 
HETATM    2  C2  UNL     1     -33.395   7.155   5.254  1.00 20.00     0.028 A 
HETATM    3  C3  UNL     1     -32.550   7.928   3.232  1.00 20.00     0.048 A 
HETATM    4  C4  UNL     1     -33.795   6.154   4.394  1.00 20.00     0.052 A 
HETATM    5  S8  UNL     1     -33.300   6.455   2.783  1.00 20.00    -0.082 SA
HETATM    6 BR9  UNL     1     -34.777   4.616   4.919  1.00 20.00    -0.043 Br
ENDROOT
BRANCH   3   7
HETATM    7  C5  UNL     1     -31.876   8.746   2.200  1.00 20.00     0.393 C 
HETATM    8  F6  UNL     1     -32.734   9.649   1.645  1.00 20.00    -0.208 F 
HETATM    9  F7  UNL     1     -31.428   7.973   1.170  1.00 20.00    -0.208 F 
ENDBRANCH   3   7
TORSDOF 1
ENDMDL
MODEL 5
REMARK VINA RESULT:      -4.4      3.818      4.452
REMARK  1 active torsions:
REMARK  status: ('A' for Active; 'I' for Inactive)
REMARK    1  A    between atoms: C3_3  and  C5_5 
ROOT
HETATM    1  C1  UNL     1     -32.714   8.137   4.240  1.00 20.00     0.022 A 
HETATM    2  C2  UNL     1     -33.299   7.235   5.174  1.00 20.00     0.028 A 
HETATM    3  C3  UNL     1     -32.878   7.712   2.939  1.00 20.00     0.048 A 
HETATM    4  C4  UNL     1     -33.888   6.155   4.553  1.00 20.00     0.052 A 
HETATM    5  S8  UNL     1     -33.734   6.231   2.849  1.00 20.00    -0.082 SA
HETATM    6 BR9  UNL     1     -34.769   4.741   5.463  1.00 20.00    -0.043 Br
ENDROOT
BRANCH   3   7
HETATM    7  C5  UNL     1     -32.419   8.364   1.693  1.00 20.00     0.393 C 
HETATM    8  F6  UNL     1     -31.060   8.475   1.663  1.00 20.00    -0.208 F 
HETATM    9  F7  UNL     1     -32.900   9.635   1.593  1.00 20.00    -0.208 F 
ENDBRANCH   3   7
TORSDOF 1
ENDMDL
MODEL 6
REMARK VINA RESULT:      -4.0      1.669      2.335
REMARK  1 active torsions:
REMARK  status: ('A' for Active; 'I' for Inactive)
REMARK    1  A    between atoms: C3_3  and  C5_5 
ROOT
HETATM    1  C1  UNL     1     -31.789   8.063   4.096  1.00 20.00     0.022 A 
HETATM    2  C2  UNL     1     -31.499   8.661   2.837  1.00 20.00     0.028 A 
HETATM    3  C3  UNL     1     -33.016   7.435   4.100  1.00 20.00     0.048 A 
HETATM    4  C4  UNL     1     -32.515   8.469   1.925  1.00 20.00     0.052 A 
HETATM    5  S8  UNL     1     -33.812   7.570   2.590  1.00 20.00    -0.082 SA
HETATM    6 BR9  UNL     1     -32.495   9.118   0.141  1.00 20.00    -0.043 Br
ENDROOT
BRANCH   3   7
HETATM    7  C5  UNL     1     -33.673   6.705   5.206  1.00 20.00     0.393 C 
HETATM    8  F6  UNL     1     -34.876   6.194   4.818  1.00 20.00    -0.208 F 
HETATM    9  F7  UNL     1     -33.939   7.533   6.257  1.00 20.00    -0.208 F 
ENDBRANCH   3   7
TORSDOF 1
ENDMDL
MODEL 7
REMARK VINA RESULT:      -3.6     12.442     12.807
REMARK  1 active torsions:
REMARK  status: ('A' for Active; 'I' for Inactive)
REMARK    1  A    between atoms: C3_3  and  C5_5 
ROOT
HETATM    1  C1  UNL     1     -33.482  15.061  -4.877  1.00 20.00     0.022 A 
HETATM    2  C2  UNL     1     -33.538  15.811  -3.668  1.00 20.00     0.028 A 
HETATM    3  C3  UNL     1     -34.735  14.692  -5.315  1.00 20.00     0.048 A 
HETATM    4  C4  UNL     1     -34.831  15.988  -3.227  1.00 20.00     0.052 A 
HETATM    5  S8  UNL     1     -35.972  15.249  -4.269  1.00 20.00    -0.082 SA
HETATM    6 BR9  UNL     1     -35.310  16.933  -1.651  1.00 20.00    -0.043 Br
ENDROOT
BRANCH   3   7
HETATM    7  C5  UNL     1     -35.097  13.912  -6.519  1.00 20.00     0.393 C 
HETATM    8  F6  UNL     1     -35.748  12.761  -6.188  1.00 20.00    -0.208 F 
HETATM    9  F7  UNL     1     -33.988  13.530  -7.213  1.00 20.00    -0.208 F 
ENDBRANCH   3   7
TORSDOF 1
ENDMDL
MODEL 8
REMARK VINA RESULT:      -3.6     12.539     13.069
REMARK  1 active torsions:
REMARK  status: ('A' for Active; 'I' for Inactive)
REMARK    1  A    between atoms: C3_3  and  C5_5 
ROOT
HETATM    1  C1  UNL     1     -33.296  16.720  -4.931  1.00 20.00     0.022 A 
HETATM    2  C2  UNL     1     -33.384  15.880  -6.078  1.00 20.00     0.028 A 
HETATM    3  C3  UNL     1     -34.116  16.291  -3.911  1.00 20.00     0.048 A 
HETATM    4  C4  UNL     1     -34.269  14.840  -5.890  1.00 20.00     0.052 A 
HETATM    5  S8  UNL     1     -34.989  14.881  -4.338  1.00 20.00    -0.082 SA
HETATM    6 BR9  UNL     1     -34.657  13.512  -7.191  1.00 20.00    -0.043 Br
ENDROOT
BRANCH   3   7
HETATM    7  C5  UNL     1     -34.308  16.888  -2.571  1.00 20.00     0.393 C 
HETATM    8  F6  UNL     1     -33.152  16.866  -1.848  1.00 20.00    -0.208 F 
HETATM    9  F7  UNL     1     -35.219  16.183  -1.841  1.00 20.00    -0.208 F 
ENDBRANCH   3   7
TORSDOF 1
ENDMDL
MODEL 9
REMARK VINA RESULT:      -3.6     12.422     12.977
REMARK  1 active torsions:
REMARK  status: ('A' for Active; 'I' for Inactive)
REMARK    1  A    between atoms: C3_3  and  C5_5 
ROOT
HETATM    1  C1  UNL     1     -34.836  14.701  -3.849  1.00 20.00     0.022 A 
HETATM    2  C2  UNL     1     -34.745  14.208  -5.182  1.00 20.00     0.028 A 
HETATM    3  C3  UNL     1     -34.375  15.995  -3.744  1.00 20.00     0.048 A 
HETATM    4  C4  UNL     1     -34.217  15.144  -6.045  1.00 20.00     0.052 A 
HETATM    5  S8  UNL     1     -33.833  16.610  -5.247  1.00 20.00    -0.082 SA
HETATM    6 BR9  UNL     1     -33.939  14.858  -7.902  1.00 20.00    -0.043 Br
ENDROOT
BRANCH   3   7
HETATM    7  C5  UNL     1     -34.304  16.852  -2.539  1.00 20.00     0.393 C 
HETATM    8  F6  UNL     1     -33.050  16.852  -2.004  1.00 20.00    -0.208 F 
HETATM    9  F7  UNL     1     -35.130  16.393  -1.556  1.00 20.00    -0.208 F 
ENDBRANCH   3   7
TORSDOF 1
ENDMDL
