MODEL 1
REMARK VINA RESULT:      -6.2      0.000      0.000
REMARK  0 active torsions:
REMARK  status: ('A' for Active; 'I' for Inactive)
ROOT
HETATM    1  C1  UNL     1     -34.355   4.081   4.457  1.00 20.00    -0.002 C 
HETATM    2  C2  UNL     1     -33.729   4.653   3.285  1.00 20.00     0.009 C 
HETATM    3  C3  UNL     1     -34.677   5.052   5.331  1.00 20.00    -0.013 C 
HETATM    4  C4  UNL     1     -33.520   7.342   5.465  1.00 20.00     0.006 C 
HETATM    5  C5  UNL     1     -32.571   8.039   4.809  1.00 20.00     0.113 C 
HETATM    6  C6  UNL     1     -32.793   6.940   2.819  1.00 20.00     0.124 C 
HETATM    7  C7  UNL     1     -33.701   5.978   3.452  1.00 20.00    -0.029 C 
HETATM    8  C8  UNL     1     -34.397   6.392   4.711  1.00 20.00     0.066 C 
HETATM    9  N9  UNL     1     -32.265   7.939   3.462  1.00 20.00    -0.273 NA
ENDROOT
TORSDOF 0
ENDMDL
MODEL 2
REMARK VINA RESULT:      -6.1      1.632      3.544
REMARK  0 active torsions:
REMARK  status: ('A' for Active; 'I' for Inactive)
ROOT
HETATM    1  C1  UNL     1     -32.182   7.893   3.441  1.00 20.00    -0.002 C 
HETATM    2  C2  UNL     1     -32.838   7.845   4.730  1.00 20.00     0.009 C 
HETATM    3  C3  UNL     1     -32.719   6.978   2.613  1.00 20.00    -0.013 C 
HETATM    4  C4  UNL     1     -33.925   4.842   3.378  1.00 20.00     0.006 C 
HETATM    5  C5  UNL     1     -34.314   4.251   4.526  1.00 20.00     0.113 C 
HETATM    6  C6  UNL     1     -34.396   6.166   5.768  1.00 20.00     0.124 C 
HETATM    7  C7  UNL     1     -33.791   6.912   4.659  1.00 20.00    -0.029 C 
HETATM    8  C8  UNL     1     -33.901   6.335   3.282  1.00 20.00     0.066 C 
HETATM    9  N9  UNL     1     -34.664   4.896   5.700  1.00 20.00    -0.273 NA
ENDROOT
TORSDOF 0
ENDMDL
MODEL 3
REMARK VINA RESULT:      -5.6      1.727      3.421
REMARK  0 active torsions:
REMARK  status: ('A' for Active; 'I' for Inactive)
ROOT
HETATM    1  C1  UNL     1     -33.486   7.812   5.660  1.00 20.00    -0.002 C 
HETATM    2  C2  UNL     1     -34.179   6.613   6.079  1.00 20.00     0.009 C 
HETATM    3  C3  UNL     1     -33.313   7.804   4.326  1.00 20.00    -0.013 C 
HETATM    4  C4  UNL     1     -33.241   5.687   2.871  1.00 20.00     0.006 C 
HETATM    5  C5  UNL     1     -33.397   4.355   3.009  1.00 20.00     0.113 C 
HETATM    6  C6  UNL     1     -34.687   4.456   4.891  1.00 20.00     0.124 C 
HETATM    7  C7  UNL     1     -34.444   5.899   4.981  1.00 20.00    -0.029 C 
HETATM    8  C8  UNL     1     -34.027   6.620   3.738  1.00 20.00     0.066 C 
HETATM    9  N9  UNL     1     -34.202   3.717   3.937  1.00 20.00    -0.273 NA
ENDROOT
TORSDOF 0
ENDMDL
MODEL 4
REMARK VINA RESULT:      -4.9      0.943      2.278
REMARK  0 active torsions:
REMARK  status: ('A' for Active; 'I' for Inactive)
ROOT
HETATM    1  C1  UNL     1     -34.776   6.125   5.924  1.00 20.00    -0.002 C 
HETATM    2  C2  UNL     1     -33.775   7.167   5.869  1.00 20.00     0.009 C 
HETATM    3  C3  UNL     1     -34.707   5.356   4.822  1.00 20.00    -0.013 C 
HETATM    4  C4  UNL     1     -33.753   6.123   2.562  1.00 20.00     0.006 C 
HETATM    5  C5  UNL     1     -33.147   7.203   2.030  1.00 20.00     0.113 C 
HETATM    6  C6  UNL     1     -32.321   8.012   4.000  1.00 20.00     0.124 C 
HETATM    7  C7  UNL     1     -33.086   7.002   4.736  1.00 20.00    -0.029 C 
HETATM    8  C8  UNL     1     -33.520   5.774   3.999  1.00 20.00     0.066 C 
HETATM    9  N9  UNL     1     -32.334   8.100   2.703  1.00 20.00    -0.273 NA
ENDROOT
TORSDOF 0
ENDMDL
MODEL 5
REMARK VINA RESULT:      -4.8      1.721      2.933
REMARK  0 active torsions:
REMARK  status: ('A' for Active; 'I' for Inactive)
ROOT
HETATM    1  C1  UNL     1     -33.143   7.448   2.052  1.00 20.00    -0.002 C 
HETATM    2  C2  UNL     1     -33.682   6.117   2.230  1.00 20.00     0.009 C 
HETATM    3  C3  UNL     1     -32.754   7.953   3.236  1.00 20.00    -0.013 C 
HETATM    4  C4  UNL     1     -33.692   7.227   5.516  1.00 20.00     0.006 C 
HETATM    5  C5  UNL     1     -34.553   6.318   6.016  1.00 20.00     0.113 C 
HETATM    6  C6  UNL     1     -34.383   4.843   4.280  1.00 20.00     0.124 C 
HETATM    7  C7  UNL     1     -33.588   5.818   3.528  1.00 20.00    -0.029 C 
HETATM    8  C8  UNL     1     -32.890   6.897   4.296  1.00 20.00     0.066 C 
HETATM    9  N9  UNL     1     -34.831   5.072   5.479  1.00 20.00    -0.273 NA
ENDROOT
TORSDOF 0
ENDMDL
MODEL 6
REMARK VINA RESULT:      -4.2     12.169     12.676
REMARK  0 active torsions:
REMARK  status: ('A' for Active; 'I' for Inactive)
ROOT
HETATM    1  C1  UNL     1     -35.627  17.418   0.384  1.00 20.00    -0.002 C 
HETATM    2  C2  UNL     1     -34.735  17.402  -0.754  1.00 20.00     0.009 C 
HETATM    3  C3  UNL     1     -35.142  18.227   1.343  1.00 20.00    -0.013 C 
HETATM    4  C4  UNL     1     -32.660  18.830   1.631  1.00 20.00     0.006 C 
HETATM    5  C5  UNL     1     -31.485  18.613   1.008  1.00 20.00     0.113 C 
HETATM    6  C6  UNL     1     -32.374  18.214  -1.057  1.00 20.00     0.124 C 
HETATM    7  C7  UNL     1     -33.722  18.229  -0.480  1.00 20.00    -0.029 C 
HETATM    8  C8  UNL     1     -33.919  18.931   0.827  1.00 20.00     0.066 C 
HETATM    9  N9  UNL     1     -31.302  18.416  -0.350  1.00 20.00    -0.273 NA
ENDROOT
TORSDOF 0
ENDMDL
MODEL 7
REMARK VINA RESULT:      -4.2     12.099     12.678
REMARK  0 active torsions:
REMARK  status: ('A' for Active; 'I' for Inactive)
ROOT
HETATM    1  C1  UNL     1     -34.397  17.332  -1.158  1.00 20.00    -0.002 C 
HETATM    2  C2  UNL     1     -35.669  16.943  -1.726  1.00 20.00     0.009 C 
HETATM    3  C3  UNL     1     -33.405  17.098  -2.036  1.00 20.00    -0.013 C 
HETATM    4  C4  UNL     1     -33.504  15.359  -3.925  1.00 20.00     0.006 C 
HETATM    5  C5  UNL     1     -34.385  14.489  -4.458  1.00 20.00     0.113 C 
HETATM    6  C6  UNL     1     -36.262  15.584  -3.757  1.00 20.00     0.124 C 
HETATM    7  C7  UNL     1     -35.434  16.497  -2.964  1.00 20.00    -0.029 C 
HETATM    8  C8  UNL     1     -33.994  16.648  -3.343  1.00 20.00     0.066 C 
HETATM    9  N9  UNL     1     -35.761  14.632  -4.487  1.00 20.00    -0.273 NA
ENDROOT
TORSDOF 0
ENDMDL
MODEL 8
REMARK VINA RESULT:      -4.1     12.075     13.332
REMARK  0 active torsions:
REMARK  status: ('A' for Active; 'I' for Inactive)
ROOT
HETATM    1  C1  UNL     1     -33.518  16.289  -4.002  1.00 20.00    -0.002 C 
HETATM    2  C2  UNL     1     -34.496  15.280  -3.657  1.00 20.00     0.009 C 
HETATM    3  C3  UNL     1     -33.456  16.437  -5.337  1.00 20.00    -0.013 C 
HETATM    4  C4  UNL     1     -34.114  14.631  -7.042  1.00 20.00     0.006 C 
HETATM    5  C5  UNL     1     -34.640  13.389  -7.054  1.00 20.00     0.113 C 
HETATM    6  C6  UNL     1     -35.698  13.556  -5.037  1.00 20.00     0.124 C 
HETATM    7  C7  UNL     1     -35.039  14.843  -4.797  1.00 20.00    -0.029 C 
HETATM    8  C8  UNL     1     -34.527  15.602  -5.981  1.00 20.00     0.066 C 
HETATM    9  N9  UNL     1     -35.523  12.866  -6.125  1.00 20.00    -0.273 NA
ENDROOT
TORSDOF 0
ENDMDL
MODEL 9
REMARK VINA RESULT:      -4.1     12.267     12.639
REMARK  0 active torsions:
REMARK  status: ('A' for Active; 'I' for Inactive)
ROOT
HETATM    1  C1  UNL     1     -34.818  16.662  -1.844  1.00 20.00    -0.002 C 
HETATM    2  C2  UNL     1     -33.486  17.222  -1.905  1.00 20.00     0.009 C 
HETATM    3  C3  UNL     1     -35.513  17.227  -0.839  1.00 20.00    -0.013 C 
HETATM    4  C4  UNL     1     -34.459  18.302   1.244  1.00 20.00     0.006 C 
HETATM    5  C5  UNL     1     -33.234  18.587   1.729  1.00 20.00     0.113 C 
HETATM    6  C6  UNL     1     -32.178  18.644  -0.296  1.00 20.00     0.124 C 
HETATM    7  C7  UNL     1     -33.395  18.146  -0.944  1.00 20.00    -0.029 C 
HETATM    8  C8  UNL     1     -34.699  18.335  -0.233  1.00 20.00     0.066 C 
HETATM    9  N9  UNL     1     -32.104  18.874   0.982  1.00 20.00    -0.273 NA
ENDROOT
TORSDOF 0
ENDMDL
