MODEL 1
REMARK VINA RESULT:      -5.5      0.000      0.000
REMARK  0 active torsions:
REMARK  status: ('A' for Active; 'I' for Inactive)
ROOT
HETATM    1  C1  UNL     1     -33.300   7.327   4.741  1.00 20.00    -0.037 C 
HETATM    2  C2  UNL     1     -33.675   6.796   3.391  1.00 20.00     0.040 C 
HETATM    3  C3  UNL     1     -32.081   8.077   2.283  1.00 20.00     0.243 C 
HETATM    4  C4  UNL     1     -33.761   6.788   5.876  1.00 20.00    -0.022 C 
HETATM    5  C5  UNL     1     -32.342   8.478   4.718  1.00 20.00     0.049 C 
HETATM    6  C6  UNL     1     -31.346   8.282   3.590  1.00 20.00     0.110 C 
HETATM    7  C7  UNL     1     -34.777   5.763   3.283  1.00 20.00     0.071 C 
HETATM    8  C8  UNL     1     -34.683   5.617   5.928  1.00 20.00     0.036 C 
HETATM    9  N9  UNL     1     -33.110   7.161   2.280  1.00 20.00    -0.219 NA
HETATM   10  O10 UNL     1     -31.708   8.663   1.268  1.00 20.00    -0.271 OA
ENDROOT
TORSDOF 0
ENDMDL
MODEL 2
REMARK VINA RESULT:      -5.1      1.198      2.251
REMARK  0 active torsions:
REMARK  status: ('A' for Active; 'I' for Inactive)
ROOT
HETATM    1  C1  UNL     1     -33.695   5.652   3.955  1.00 20.00    -0.037 C 
HETATM    2  C2  UNL     1     -33.336   7.004   4.492  1.00 20.00     0.040 C 
HETATM    3  C3  UNL     1     -32.528   7.762   2.446  1.00 20.00     0.243 C 
HETATM    4  C4  UNL     1     -34.428   4.776   4.652  1.00 20.00    -0.022 C 
HETATM    5  C5  UNL     1     -33.203   5.377   2.567  1.00 20.00     0.049 C 
HETATM    6  C6  UNL     1     -33.279   6.650   1.744  1.00 20.00     0.110 C 
HETATM    7  C7  UNL     1     -33.613   7.320   5.946  1.00 20.00     0.071 C 
HETATM    8  C8  UNL     1     -34.964   5.040   6.019  1.00 20.00     0.036 C 
HETATM    9  N9  UNL     1     -32.795   7.950   3.785  1.00 20.00    -0.219 NA
HETATM   10  O10 UNL     1     -31.775   8.495   1.808  1.00 20.00    -0.271 OA
ENDROOT
TORSDOF 0
ENDMDL
MODEL 3
REMARK VINA RESULT:      -4.9      2.491      3.767
REMARK  0 active torsions:
REMARK  status: ('A' for Active; 'I' for Inactive)
ROOT
HETATM    1  C1  UNL     1     -32.799   7.500   3.814  1.00 20.00    -0.037 C 
HETATM    2  C2  UNL     1     -33.528   6.306   3.277  1.00 20.00     0.040 C 
HETATM    3  C3  UNL     1     -34.430   5.744   5.346  1.00 20.00     0.243 C 
HETATM    4  C4  UNL     1     -32.221   8.405   3.016  1.00 20.00    -0.022 C 
HETATM    5  C5  UNL     1     -32.805   7.619   5.307  1.00 20.00     0.049 C 
HETATM    6  C6  UNL     1     -34.142   7.144   5.846  1.00 20.00     0.110 C 
HETATM    7  C7  UNL     1     -33.428   5.981   1.802  1.00 20.00     0.071 C 
HETATM    8  C8  UNL     1     -32.235   8.332   1.526  1.00 20.00     0.036 C 
HETATM    9  N9  UNL     1     -34.260   5.512   3.998  1.00 20.00    -0.219 NA
HETATM   10  O10 UNL     1     -34.864   4.891   6.119  1.00 20.00    -0.271 OA
ENDROOT
TORSDOF 0
ENDMDL
MODEL 4
REMARK VINA RESULT:      -4.8      2.609      4.319
REMARK  0 active torsions:
REMARK  status: ('A' for Active; 'I' for Inactive)
ROOT
HETATM    1  C1  UNL     1     -33.409   6.902   3.242  1.00 20.00    -0.037 C 
HETATM    2  C2  UNL     1     -33.200   7.275   4.678  1.00 20.00     0.040 C 
HETATM    3  C3  UNL     1     -34.426   5.467   5.477  1.00 20.00     0.243 C 
HETATM    4  C4  UNL     1     -32.737   7.489   2.244  1.00 20.00    -0.022 C 
HETATM    5  C5  UNL     1     -34.395   5.798   3.017  1.00 20.00     0.049 C 
HETATM    6  C6  UNL     1     -34.275   4.780   4.136  1.00 20.00     0.110 C 
HETATM    7  C7  UNL     1     -32.374   8.499   5.010  1.00 20.00     0.071 C 
HETATM    8  C8  UNL     1     -31.721   8.563   2.442  1.00 20.00     0.036 C 
HETATM    9  N9  UNL     1     -33.683   6.609   5.682  1.00 20.00    -0.219 NA
HETATM   10  O10 UNL     1     -35.133   4.966   6.349  1.00 20.00    -0.271 OA
ENDROOT
TORSDOF 0
ENDMDL
MODEL 5
REMARK VINA RESULT:      -4.3     11.300     11.854
REMARK  0 active torsions:
REMARK  status: ('A' for Active; 'I' for Inactive)
ROOT
HETATM    1  C1  UNL     1     -35.510  15.027  -4.239  1.00 20.00    -0.037 C 
HETATM    2  C2  UNL     1     -34.233  14.461  -4.782  1.00 20.00     0.040 C 
HETATM    3  C3  UNL     1     -35.314  13.204  -6.414  1.00 20.00     0.243 C 
HETATM    4  C4  UNL     1     -35.530  16.035  -3.359  1.00 20.00    -0.022 C 
HETATM    5  C5  UNL     1     -36.756  14.405  -4.790  1.00 20.00     0.049 C 
HETATM    6  C6  UNL     1     -36.547  14.069  -6.255  1.00 20.00     0.110 C 
HETATM    7  C7  UNL     1     -32.917  14.878  -4.161  1.00 20.00     0.071 C 
HETATM    8  C8  UNL     1     -34.306  16.698  -2.825  1.00 20.00     0.036 C 
HETATM    9  N9  UNL     1     -34.169  13.621  -5.770  1.00 20.00    -0.219 NA
HETATM   10  O10 UNL     1     -35.344  12.218  -7.148  1.00 20.00    -0.271 OA
ENDROOT
TORSDOF 0
ENDMDL
MODEL 6
REMARK VINA RESULT:      -4.3     11.314     11.784
REMARK  0 active torsions:
REMARK  status: ('A' for Active; 'I' for Inactive)
ROOT
HETATM    1  C1  UNL     1     -33.287  18.184  -0.795  1.00 20.00    -0.037 C 
HETATM    2  C2  UNL     1     -34.605  17.755  -0.226  1.00 20.00     0.040 C 
HETATM    3  C3  UNL     1     -35.264  16.684  -2.183  1.00 20.00     0.243 C 
HETATM    4  C4  UNL     1     -32.314  18.702  -0.035  1.00 20.00    -0.022 C 
HETATM    5  C5  UNL     1     -33.132  17.950  -2.266  1.00 20.00     0.049 C 
HETATM    6  C6  UNL     1     -33.823  16.653  -2.645  1.00 20.00     0.110 C 
HETATM    7  C7  UNL     1     -34.945  18.115   1.204  1.00 20.00     0.071 C 
HETATM    8  C8  UNL     1     -32.427  18.909   1.437  1.00 20.00     0.036 C 
HETATM    9  N9  UNL     1     -35.497  17.078  -0.883  1.00 20.00    -0.219 NA
HETATM   10  O10 UNL     1     -36.160  16.300  -2.933  1.00 20.00    -0.271 OA
ENDROOT
TORSDOF 0
ENDMDL
MODEL 7
REMARK VINA RESULT:      -4.2     11.049     11.714
REMARK  0 active torsions:
REMARK  status: ('A' for Active; 'I' for Inactive)
ROOT
HETATM    1  C1  UNL     1     -34.202  16.325  -3.032  1.00 20.00    -0.037 C 
HETATM    2  C2  UNL     1     -35.696  16.396  -3.110  1.00 20.00     0.040 C 
HETATM    3  C3  UNL     1     -35.849  14.601  -4.582  1.00 20.00     0.243 C 
HETATM    4  C4  UNL     1     -33.498  17.021  -2.131  1.00 20.00    -0.022 C 
HETATM    5  C5  UNL     1     -33.566  15.387  -4.011  1.00 20.00     0.049 C 
HETATM    6  C6  UNL     1     -34.452  14.168  -4.190  1.00 20.00     0.110 C 
HETATM    7  C7  UNL     1     -36.430  17.446  -2.304  1.00 20.00     0.071 C 
HETATM    8  C8  UNL     1     -34.109  17.931  -1.119  1.00 20.00     0.036 C 
HETATM    9  N9  UNL     1     -36.428  15.603  -3.833  1.00 20.00    -0.219 NA
HETATM   10  O10 UNL     1     -36.445  14.016  -5.485  1.00 20.00    -0.271 OA
ENDROOT
TORSDOF 0
ENDMDL
MODEL 8
REMARK VINA RESULT:      -4.2     11.496     11.753
REMARK  0 active torsions:
REMARK  status: ('A' for Active; 'I' for Inactive)
ROOT
HETATM    1  C1  UNL     1     -34.894  17.930   0.278  1.00 20.00    -0.037 C 
HETATM    2  C2  UNL     1     -33.960  18.481   1.311  1.00 20.00     0.040 C 
HETATM    3  C3  UNL     1     -32.118  18.414  -0.108  1.00 20.00     0.243 C 
HETATM    4  C4  UNL     1     -36.222  17.921   0.445  1.00 20.00    -0.022 C 
HETATM    5  C5  UNL     1     -34.229  17.432  -0.968  1.00 20.00     0.049 C 
HETATM    6  C6  UNL     1     -33.047  18.325  -1.300  1.00 20.00     0.110 C 
HETATM    7  C7  UNL     1     -34.499  18.836   2.681  1.00 20.00     0.071 C 
HETATM    8  C8  UNL     1     -36.913  18.447   1.658  1.00 20.00     0.036 C 
HETATM    9  N9  UNL     1     -32.692  18.684   1.115  1.00 20.00    -0.219 NA
HETATM   10  O10 UNL     1     -30.902  18.316  -0.266  1.00 20.00    -0.271 OA
ENDROOT
TORSDOF 0
ENDMDL
MODEL 9
REMARK VINA RESULT:      -4.2     11.438     11.881
REMARK  0 active torsions:
REMARK  status: ('A' for Active; 'I' for Inactive)
ROOT
HETATM    1  C1  UNL     1     -32.714  18.461  -0.096  1.00 20.00    -0.037 C 
HETATM    2  C2  UNL     1     -33.991  18.236   0.654  1.00 20.00     0.040 C 
HETATM    3  C3  UNL     1     -35.091  17.353  -1.196  1.00 20.00     0.243 C 
HETATM    4  C4  UNL     1     -31.570  18.787   0.518  1.00 20.00    -0.022 C 
HETATM    5  C5  UNL     1     -32.810  18.252  -1.576  1.00 20.00     0.049 C 
HETATM    6  C6  UNL     1     -33.755  17.100  -1.863  1.00 20.00     0.110 C 
HETATM    7  C7  UNL     1     -34.060  18.600   2.121  1.00 20.00     0.071 C 
HETATM    8  C8  UNL     1     -31.438  18.961   1.994  1.00 20.00     0.036 C 
HETATM    9  N9  UNL     1     -35.068  17.737   0.127  1.00 20.00    -0.219 NA
HETATM   10  O10 UNL     1     -36.136  17.147  -1.812  1.00 20.00    -0.271 OA
ENDROOT
TORSDOF 0
ENDMDL
