MODEL 1
REMARK VINA RESULT:      -4.7      0.000      0.000
REMARK  1 active torsions:
REMARK  status: ('A' for Active; 'I' for Inactive)
REMARK    1  A    between atoms: C9_9  and  S11_11 
ROOT
HETATM    1  C1  UNL     1     -35.496  17.106  -0.912  1.00 20.00     0.015 A 
HETATM    2  C2  UNL     1     -35.901  16.043  -3.082  1.00 20.00     0.016 A 
HETATM    3  C3  UNL     1     -34.652  17.815  -0.061  1.00 20.00     0.025 A 
HETATM    4  C4  UNL     1     -35.454  15.716  -4.353  1.00 20.00     0.039 A 
HETATM    5  C5  UNL     1     -32.964  17.832  -1.787  1.00 20.00     0.056 A 
HETATM    6  C6  UNL     1     -35.072  16.757  -2.206  1.00 20.00    -0.007 A 
HETATM    7  C7  UNL     1     -33.787  17.123  -2.657  1.00 20.00     0.070 A 
HETATM    8  C8  UNL     1     -33.384  18.179  -0.501  1.00 20.00     0.036 A 
HETATM    9  C9  UNL     1     -34.181  16.117  -4.706  1.00 20.00     0.091 A 
HETATM   10  N10 UNL     1     -33.350  16.806  -3.891  1.00 20.00    -0.242 NA
HETATM   11 CL12 UNL     1     -32.333  19.057   0.541  1.00 20.00    -0.084 Cl
ENDROOT
BRANCH   9  12
HETATM   12  S11 UNL     1     -33.553  15.720  -6.328  1.00 20.00    -0.123 SA
HETATM   13  H18 UNL     1     -32.248  15.775  -6.023  1.00 20.00     0.108 HD
ENDBRANCH   9  12
TORSDOF 1
ENDMDL
MODEL 2
REMARK VINA RESULT:      -4.7      4.030      5.513
REMARK  1 active torsions:
REMARK  status: ('A' for Active; 'I' for Inactive)
REMARK    1  A    between atoms: C9_9  and  S11_11 
ROOT
HETATM    1  C1  UNL     1     -32.914  17.768  -1.636  1.00 20.00     0.015 A 
HETATM    2  C2  UNL     1     -32.798  18.892   0.538  1.00 20.00     0.016 A 
HETATM    3  C3  UNL     1     -33.635  17.021  -2.564  1.00 20.00     0.025 A 
HETATM    4  C4  UNL     1     -33.405  19.245   1.734  1.00 20.00     0.039 A 
HETATM    5  C5  UNL     1     -35.524  17.017  -1.062  1.00 20.00     0.056 A 
HETATM    6  C6  UNL     1     -33.501  18.141  -0.414  1.00 20.00    -0.007 A 
HETATM    7  C7  UNL     1     -34.827  17.763  -0.116  1.00 20.00     0.070 A 
HETATM    8  C8  UNL     1     -34.942  16.646  -2.276  1.00 20.00     0.036 A 
HETATM    9  C9  UNL     1     -34.706  18.830   1.937  1.00 20.00     0.091 A 
HETATM   10  N10 UNL     1     -35.418  18.104   1.044  1.00 20.00    -0.242 NA
HETATM   11 CL12 UNL     1     -35.843  15.725  -3.416  1.00 20.00    -0.084 Cl
ENDROOT
BRANCH   9  12
HETATM   12  S11 UNL     1     -35.535  19.254   3.458  1.00 20.00    -0.123 SA
HETATM   13  H18 UNL     1     -35.340  18.086   4.089  1.00 20.00     0.108 HD
ENDBRANCH   9  12
TORSDOF 1
ENDMDL
MODEL 3
REMARK VINA RESULT:      -4.6      1.688      2.348
REMARK  1 active torsions:
REMARK  status: ('A' for Active; 'I' for Inactive)
REMARK    1  A    between atoms: C9_9  and  S11_11 
ROOT
HETATM    1  C1  UNL     1     -32.966  17.699  -1.728  1.00 20.00     0.015 A 
HETATM    2  C2  UNL     1     -33.496  16.489  -3.792  1.00 20.00     0.016 A 
HETATM    3  C3  UNL     1     -33.359  18.169  -0.478  1.00 20.00     0.025 A 
HETATM    4  C4  UNL     1     -34.406  15.777  -4.559  1.00 20.00     0.039 A 
HETATM    5  C5  UNL     1     -35.542  17.199  -0.823  1.00 20.00     0.056 A 
HETATM    6  C6  UNL     1     -33.866  16.975  -2.530  1.00 20.00    -0.007 A 
HETATM    7  C7  UNL     1     -35.176  16.717  -2.077  1.00 20.00     0.070 A 
HETATM    8  C8  UNL     1     -34.650  17.918  -0.026  1.00 20.00     0.036 A 
HETATM    9  C9  UNL     1     -35.666  15.575  -4.032  1.00 20.00     0.091 A 
HETATM   10  N10 UNL     1     -36.062  16.026  -2.819  1.00 20.00    -0.242 NA
HETATM   11 CL12 UNL     1     -35.146  18.494   1.518  1.00 20.00    -0.084 Cl
ENDROOT
BRANCH   9  12
HETATM   12  S11 UNL     1     -36.877  14.668  -4.976  1.00 20.00    -0.123 SA
HETATM   13  H18 UNL     1     -36.792  13.514  -4.297  1.00 20.00     0.108 HD
ENDBRANCH   9  12
TORSDOF 1
ENDMDL
MODEL 4
REMARK VINA RESULT:      -4.5      2.203      3.216
REMARK  1 active torsions:
REMARK  status: ('A' for Active; 'I' for Inactive)
REMARK    1  A    between atoms: C9_9  and  S11_11 
ROOT
HETATM    1  C1  UNL     1     -32.947  18.696   0.539  1.00 20.00     0.015 A 
HETATM    2  C2  UNL     1     -32.983  17.698  -1.699  1.00 20.00     0.016 A 
HETATM    3  C3  UNL     1     -33.600  18.994   1.731  1.00 20.00     0.025 A 
HETATM    4  C4  UNL     1     -33.673  17.018  -2.692  1.00 20.00     0.039 A 
HETATM    5  C5  UNL     1     -35.591  17.924   0.881  1.00 20.00     0.056 A 
HETATM    6  C6  UNL     1     -33.618  18.010  -0.488  1.00 20.00    -0.007 A 
HETATM    7  C7  UNL     1     -34.962  17.614  -0.321  1.00 20.00     0.070 A 
HETATM    8  C8  UNL     1     -34.925  18.606   1.902  1.00 20.00     0.036 A 
HETATM    9  C9  UNL     1     -34.985  16.673  -2.438  1.00 20.00     0.091 A 
HETATM   10  N10 UNL     1     -35.633  16.955  -1.284  1.00 20.00    -0.242 NA
HETATM   11 CL12 UNL     1     -35.743  18.967   3.372  1.00 20.00    -0.084 Cl
ENDROOT
BRANCH   9  12
HETATM   12  S11 UNL     1     -35.919  15.800  -3.681  1.00 20.00    -0.123 SA
HETATM   13  H18 UNL     1     -35.699  14.560  -3.219  1.00 20.00     0.108 HD
ENDBRANCH   9  12
TORSDOF 1
ENDMDL
MODEL 5
REMARK VINA RESULT:      -4.5      3.717      5.092
REMARK  1 active torsions:
REMARK  status: ('A' for Active; 'I' for Inactive)
REMARK    1  A    between atoms: C9_9  and  S11_11 
ROOT
HETATM    1  C1  UNL     1     -33.207  15.374  -4.053  1.00 20.00     0.015 A 
HETATM    2  C2  UNL     1     -33.535  16.962  -2.216  1.00 20.00     0.016 A 
HETATM    3  C3  UNL     1     -33.746  14.537  -5.026  1.00 20.00     0.025 A 
HETATM    4  C4  UNL     1     -34.393  17.679  -1.396  1.00 20.00     0.039 A 
HETATM    5  C5  UNL     1     -35.963  15.173  -4.315  1.00 20.00     0.056 A 
HETATM    6  C6  UNL     1     -34.051  16.113  -3.205  1.00 20.00    -0.007 A 
HETATM    7  C7  UNL     1     -35.452  16.016  -3.332  1.00 20.00     0.070 A 
HETATM    8  C8  UNL     1     -35.127  14.438  -5.157  1.00 20.00     0.036 A 
HETATM    9  C9  UNL     1     -35.749  17.519  -1.595  1.00 20.00     0.091 A 
HETATM   10  N10 UNL     1     -36.287  16.711  -2.537  1.00 20.00    -0.242 NA
HETATM   11 CL12 UNL     1     -35.804  13.408  -6.358  1.00 20.00    -0.084 Cl
ENDROOT
BRANCH   9  12
HETATM   12  S11 UNL     1     -36.899  18.416  -0.568  1.00 20.00    -0.123 SA
HETATM   13  H18 UNL     1     -35.999  18.938   0.279  1.00 20.00     0.108 HD
ENDBRANCH   9  12
TORSDOF 1
ENDMDL
MODEL 6
REMARK VINA RESULT:      -4.5      3.253      4.426
REMARK  1 active torsions:
REMARK  status: ('A' for Active; 'I' for Inactive)
REMARK    1  A    between atoms: C9_9  and  S11_11 
ROOT
HETATM    1  C1  UNL     1     -35.845  15.888  -3.173  1.00 20.00     0.015 A 
HETATM    2  C2  UNL     1     -35.543  17.015  -1.018  1.00 20.00     0.016 A 
HETATM    3  C3  UNL     1     -35.345  15.537  -4.425  1.00 20.00     0.025 A 
HETATM    4  C4  UNL     1     -34.748  17.763  -0.163  1.00 20.00     0.039 A 
HETATM    5  C5  UNL     1     -33.293  16.696  -3.906  1.00 20.00     0.056 A 
HETATM    6  C6  UNL     1     -35.064  16.647  -2.284  1.00 20.00    -0.007 A 
HETATM    7  C7  UNL     1     -33.766  17.061  -2.650  1.00 20.00     0.070 A 
HETATM    8  C8  UNL     1     -34.067  15.942  -4.791  1.00 20.00     0.036 A 
HETATM    9  C9  UNL     1     -33.492  18.122  -0.609  1.00 20.00     0.091 A 
HETATM   10  N10 UNL     1     -32.993  17.788  -1.821  1.00 20.00    -0.242 NA
HETATM   11 CL12 UNL     1     -33.438  15.513  -6.334  1.00 20.00    -0.084 Cl
ENDROOT
BRANCH   9  12
HETATM   12  S11 UNL     1     -32.428  19.087   0.449  1.00 20.00    -0.123 SA
HETATM   13  H18 UNL     1     -32.818  18.552   1.616  1.00 20.00     0.108 HD
ENDBRANCH   9  12
TORSDOF 1
ENDMDL
MODEL 7
REMARK VINA RESULT:      -4.4      3.527      4.649
REMARK  1 active torsions:
REMARK  status: ('A' for Active; 'I' for Inactive)
REMARK    1  A    between atoms: C9_9  and  S11_11 
ROOT
HETATM    1  C1  UNL     1     -35.834  16.688  -2.031  1.00 20.00     0.015 A 
HETATM    2  C2  UNL     1     -35.697  17.545   0.261  1.00 20.00     0.016 A 
HETATM    3  C3  UNL     1     -35.230  16.454  -3.263  1.00 20.00     0.025 A 
HETATM    4  C4  UNL     1     -34.958  18.147   1.268  1.00 20.00     0.039 A 
HETATM    5  C5  UNL     1     -33.189  17.431  -2.423  1.00 20.00     0.056 A 
HETATM    6  C6  UNL     1     -35.112  17.297  -0.990  1.00 20.00    -0.007 A 
HETATM    7  C7  UNL     1     -33.768  17.677  -1.182  1.00 20.00     0.070 A 
HETATM    8  C8  UNL     1     -33.905  16.826  -3.458  1.00 20.00     0.036 A 
HETATM    9  C9  UNL     1     -33.649  18.484   0.987  1.00 20.00     0.091 A 
HETATM   10  N10 UNL     1     -33.049  18.262  -0.205  1.00 20.00    -0.242 NA
HETATM   11 CL12 UNL     1     -33.147  16.540  -4.977  1.00 20.00    -0.084 Cl
ENDROOT
BRANCH   9  12
HETATM   12  S11 UNL     1     -32.653  19.262   2.245  1.00 20.00    -0.123 SA
HETATM   13  H18 UNL     1     -31.527  18.568   2.024  1.00 20.00     0.108 HD
ENDBRANCH   9  12
TORSDOF 1
ENDMDL
MODEL 8
REMARK VINA RESULT:      -4.4      1.253      1.469
REMARK  1 active torsions:
REMARK  status: ('A' for Active; 'I' for Inactive)
REMARK    1  A    between atoms: C9_9  and  S11_11 
ROOT
HETATM    1  C1  UNL     1     -35.897  16.967  -1.899  1.00 20.00     0.015 A 
HETATM    2  C2  UNL     1     -36.648  15.615  -3.800  1.00 20.00     0.016 A 
HETATM    3  C3  UNL     1     -34.863  17.577  -1.194  1.00 20.00     0.025 A 
HETATM    4  C4  UNL     1     -36.348  14.904  -4.952  1.00 20.00     0.039 A 
HETATM    5  C5  UNL     1     -33.289  16.738  -2.821  1.00 20.00     0.056 A 
HETATM    6  C6  UNL     1     -35.625  16.239  -3.071  1.00 20.00    -0.007 A 
HETATM    7  C7  UNL     1     -34.303  16.118  -3.545  1.00 20.00     0.070 A 
HETATM    8  C8  UNL     1     -33.556  17.462  -1.657  1.00 20.00     0.036 A 
HETATM    9  C9  UNL     1     -35.024  14.841  -5.338  1.00 20.00     0.091 A 
HETATM   10  N10 UNL     1     -34.009  15.429  -4.663  1.00 20.00    -0.242 NA
HETATM   11 CL12 UNL     1     -32.270  18.212  -0.795  1.00 20.00    -0.084 Cl
ENDROOT
BRANCH   9  12
HETATM   12  S11 UNL     1     -34.581  13.939  -6.812  1.00 20.00    -0.123 SA
HETATM   13  H18 UNL     1     -34.553  14.986  -7.650  1.00 20.00     0.108 HD
ENDBRANCH   9  12
TORSDOF 1
ENDMDL
MODEL 9
REMARK VINA RESULT:      -4.4      4.120      5.594
REMARK  1 active torsions:
REMARK  status: ('A' for Active; 'I' for Inactive)
REMARK    1  A    between atoms: C9_9  and  S11_11 
ROOT
HETATM    1  C1  UNL     1     -32.870  18.513  -0.060  1.00 20.00     0.015 A 
HETATM    2  C2  UNL     1     -34.136  19.250   1.905  1.00 20.00     0.016 A 
HETATM    3  C3  UNL     1     -32.817  17.805  -1.257  1.00 20.00     0.025 A 
HETATM    4  C4  UNL     1     -35.320  19.263   2.626  1.00 20.00     0.039 A 
HETATM    5  C5  UNL     1     -35.123  17.161  -0.953  1.00 20.00     0.056 A 
HETATM    6  C6  UNL     1     -34.055  18.545   0.695  1.00 20.00    -0.007 A 
HETATM    7  C7  UNL     1     -35.205  17.860   0.248  1.00 20.00     0.070 A 
HETATM    8  C8  UNL     1     -33.947  17.128  -1.704  1.00 20.00     0.036 A 
HETATM    9  C9  UNL     1     -36.391  18.563   2.108  1.00 20.00     0.091 A 
HETATM   10  N10 UNL     1     -36.355  17.871   0.946  1.00 20.00    -0.242 NA
HETATM   11 CL12 UNL     1     -33.894  16.251  -3.183  1.00 20.00    -0.084 Cl
ENDROOT
BRANCH   9  12
HETATM   12  S11 UNL     1     -37.939  18.545   2.996  1.00 20.00    -0.123 SA
HETATM   13  H18 UNL     1     -38.182  19.863   2.940  1.00 20.00     0.108 HD
ENDBRANCH   9  12
TORSDOF 1
ENDMDL
