MODEL 1
REMARK VINA RESULT:      -4.4      0.000      0.000
REMARK  0 active torsions:
REMARK  status: ('A' for Active; 'I' for Inactive)
ROOT
HETATM    1  C1  UNL     1     -34.157   4.537   4.240  1.00 20.00     0.223 A 
HETATM    2  C2  UNL     1     -35.752   6.184   3.620  1.00 20.00     0.128 A 
HETATM    3  C3  UNL     1     -33.426   5.527   3.410  1.00 20.00     0.092 A 
HETATM    4  C4  UNL     1     -34.434   6.588   3.029  1.00 20.00     0.026 A 
HETATM    5  C5  UNL     1     -33.207   6.962   3.842  1.00 20.00    -0.029 A 
HETATM    6  C6  UNL     1     -33.345   7.343   5.294  1.00 20.00     0.016 C 
HETATM    7  C7  UNL     1     -32.126   7.735   3.127  1.00 20.00     0.016 C 
HETATM    8  N8  UNL     1     -35.478   4.941   4.311  1.00 20.00    -0.360 N 
HETATM    9  O9  UNL     1     -33.628   3.556   4.737  1.00 20.00    -0.273 OA
HETATM   10  H20 UNL     1     -36.192   4.412   4.803  1.00 20.00     0.162 HD
ENDROOT
TORSDOF 0
ENDMDL
MODEL 2
REMARK VINA RESULT:      -4.4     11.861     12.635
REMARK  0 active torsions:
REMARK  status: ('A' for Active; 'I' for Inactive)
ROOT
HETATM    1  C1  UNL     1     -34.975  13.666  -5.094  1.00 20.00     0.223 A 
HETATM    2  C2  UNL     1     -33.137  15.114  -5.504  1.00 20.00     0.128 A 
HETATM    3  C3  UNL     1     -34.764  14.432  -3.839  1.00 20.00     0.092 A 
HETATM    4  C4  UNL     1     -33.607  15.368  -4.103  1.00 20.00     0.026 A 
HETATM    5  C5  UNL     1     -34.972  15.929  -3.745  1.00 20.00    -0.029 A 
HETATM    6  C6  UNL     1     -35.797  16.644  -4.784  1.00 20.00     0.016 C 
HETATM    7  C7  UNL     1     -35.128  16.512  -2.361  1.00 20.00     0.016 C 
HETATM    8  N8  UNL     1     -34.011  14.071  -6.001  1.00 20.00    -0.360 N 
HETATM    9  O9  UNL     1     -35.855  12.833  -5.233  1.00 20.00    -0.273 OA
HETATM   10  H20 UNL     1     -33.926  13.673  -6.931  1.00 20.00     0.162 HD
ENDROOT
TORSDOF 0
ENDMDL
MODEL 3
REMARK VINA RESULT:      -4.1     12.327     12.920
REMARK  0 active torsions:
REMARK  status: ('A' for Active; 'I' for Inactive)
ROOT
HETATM    1  C1  UNL     1     -33.011  14.677  -4.468  1.00 20.00     0.223 A 
HETATM    2  C2  UNL     1     -33.556  16.680  -5.622  1.00 20.00     0.128 A 
HETATM    3  C3  UNL     1     -33.535  15.615  -3.443  1.00 20.00     0.092 A 
HETATM    4  C4  UNL     1     -33.901  16.885  -4.178  1.00 20.00     0.026 A 
HETATM    5  C5  UNL     1     -34.968  16.103  -3.431  1.00 20.00    -0.029 A 
HETATM    6  C6  UNL     1     -36.029  15.349  -4.192  1.00 20.00     0.016 C 
HETATM    7  C7  UNL     1     -35.476  16.704  -2.143  1.00 20.00     0.016 C 
HETATM    8  N8  UNL     1     -33.020  15.336  -5.685  1.00 20.00    -0.360 N 
HETATM    9  O9  UNL     1     -32.644  13.542  -4.215  1.00 20.00    -0.273 OA
HETATM   10  H20 UNL     1     -32.681  14.914  -6.544  1.00 20.00     0.162 HD
ENDROOT
TORSDOF 0
ENDMDL
MODEL 4
REMARK VINA RESULT:      -4.1     12.141     12.723
REMARK  0 active torsions:
REMARK  status: ('A' for Active; 'I' for Inactive)
ROOT
HETATM    1  C1  UNL     1     -34.475  14.774  -4.179  1.00 20.00     0.223 A 
HETATM    2  C2  UNL     1     -35.199  16.870  -5.028  1.00 20.00     0.128 A 
HETATM    3  C3  UNL     1     -33.608  15.798  -3.543  1.00 20.00     0.092 A 
HETATM    4  C4  UNL     1     -34.080  17.136  -4.067  1.00 20.00     0.026 A 
HETATM    5  C5  UNL     1     -34.137  16.839  -2.578  1.00 20.00    -0.029 A 
HETATM    6  C6  UNL     1     -35.465  16.630  -1.896  1.00 20.00     0.016 C 
HETATM    7  C7  UNL     1     -33.126  17.539  -1.704  1.00 20.00     0.016 C 
HETATM    8  N8  UNL     1     -35.345  15.429  -5.031  1.00 20.00    -0.360 N 
HETATM    9  O9  UNL     1     -34.378  13.579  -3.952  1.00 20.00    -0.273 OA
HETATM   10  H20 UNL     1     -36.026  14.942  -5.607  1.00 20.00     0.162 HD
ENDROOT
TORSDOF 0
ENDMDL
MODEL 5
REMARK VINA RESULT:      -4.0     12.176     13.005
REMARK  0 active torsions:
REMARK  status: ('A' for Active; 'I' for Inactive)
ROOT
HETATM    1  C1  UNL     1     -33.141  14.352  -4.575  1.00 20.00     0.223 A 
HETATM    2  C2  UNL     1     -33.721  16.189  -5.964  1.00 20.00     0.128 A 
HETATM    3  C3  UNL     1     -34.600  14.563  -4.393  1.00 20.00     0.092 A 
HETATM    4  C4  UNL     1     -34.976  15.720  -5.290  1.00 20.00     0.026 A 
HETATM    5  C5  UNL     1     -35.606  14.355  -5.504  1.00 20.00    -0.029 A 
HETATM    6  C6  UNL     1     -35.238  13.529  -6.711  1.00 20.00     0.016 C 
HETATM    7  C7  UNL     1     -37.052  14.200  -5.099  1.00 20.00     0.016 C 
HETATM    8  N8  UNL     1     -32.684  15.315  -5.457  1.00 20.00    -0.360 N 
HETATM    9  O9  UNL     1     -32.514  13.472  -4.009  1.00 20.00    -0.273 OA
HETATM   10  H20 UNL     1     -31.708  15.399  -5.725  1.00 20.00     0.162 HD
ENDROOT
TORSDOF 0
ENDMDL
MODEL 6
REMARK VINA RESULT:      -4.0     12.217     12.883
REMARK  0 active torsions:
REMARK  status: ('A' for Active; 'I' for Inactive)
ROOT
HETATM    1  C1  UNL     1     -36.339  13.796  -5.343  1.00 20.00     0.223 A 
HETATM    2  C2  UNL     1     -34.398  13.954  -6.702  1.00 20.00     0.128 A 
HETATM    3  C3  UNL     1     -35.242  14.239  -4.446  1.00 20.00     0.092 A 
HETATM    4  C4  UNL     1     -34.009  14.359  -5.312  1.00 20.00     0.026 A 
HETATM    5  C5  UNL     1     -34.553  15.579  -4.590  1.00 20.00    -0.029 A 
HETATM    6  C6  UNL     1     -35.214  16.690  -5.366  1.00 20.00     0.016 C 
HETATM    7  C7  UNL     1     -33.765  16.075  -3.401  1.00 20.00     0.016 C 
HETATM    8  N8  UNL     1     -35.806  13.625  -6.608  1.00 20.00    -0.360 N 
HETATM    9  O9  UNL     1     -37.487  13.623  -4.966  1.00 20.00    -0.273 OA
HETATM   10  H20 UNL     1     -36.352  13.298  -7.399  1.00 20.00     0.162 HD
ENDROOT
TORSDOF 0
ENDMDL
MODEL 7
REMARK VINA RESULT:      -3.9      1.596      2.056
REMARK  0 active torsions:
REMARK  status: ('A' for Active; 'I' for Inactive)
ROOT
HETATM    1  C1  UNL     1     -33.248   5.528   3.027  1.00 20.00     0.223 A 
HETATM    2  C2  UNL     1     -34.123   7.094   4.583  1.00 20.00     0.128 A 
HETATM    3  C3  UNL     1     -33.372   6.813   2.293  1.00 20.00     0.092 A 
HETATM    4  C4  UNL     1     -33.911   7.818   3.287  1.00 20.00     0.026 A 
HETATM    5  C5  UNL     1     -32.555   8.040   2.639  1.00 20.00    -0.029 A 
HETATM    6  C6  UNL     1     -31.293   7.902   3.452  1.00 20.00     0.016 C 
HETATM    7  C7  UNL     1     -32.470   9.124   1.592  1.00 20.00     0.016 C 
HETATM    8  N8  UNL     1     -33.709   5.733   4.315  1.00 20.00    -0.360 N 
HETATM    9  O9  UNL     1     -32.815   4.505   2.521  1.00 20.00    -0.273 OA
HETATM   10  H20 UNL     1     -33.752   4.994   5.010  1.00 20.00     0.162 HD
ENDROOT
TORSDOF 0
ENDMDL
MODEL 8
REMARK VINA RESULT:      -3.8     12.725     13.399
REMARK  0 active torsions:
REMARK  status: ('A' for Active; 'I' for Inactive)
ROOT
HETATM    1  C1  UNL     1     -33.679  16.353  -5.652  1.00 20.00     0.223 A 
HETATM    2  C2  UNL     1     -33.089  14.449  -4.362  1.00 20.00     0.128 A 
HETATM    3  C3  UNL     1     -34.762  16.180  -4.651  1.00 20.00     0.092 A 
HETATM    4  C4  UNL     1     -34.380  14.980  -3.816  1.00 20.00     0.026 A 
HETATM    5  C5  UNL     1     -34.541  16.341  -3.162  1.00 20.00    -0.029 A 
HETATM    6  C6  UNL     1     -33.333  17.087  -2.655  1.00 20.00     0.016 C 
HETATM    7  C7  UNL     1     -35.767  16.545  -2.305  1.00 20.00     0.016 C 
HETATM    8  N8  UNL     1     -32.764  15.332  -5.462  1.00 20.00    -0.360 N 
HETATM    9  O9  UNL     1     -33.662  17.254  -6.474  1.00 20.00    -0.273 OA
HETATM   10  H20 UNL     1     -31.940  15.214  -6.043  1.00 20.00     0.162 HD
ENDROOT
TORSDOF 0
ENDMDL
MODEL 9
REMARK VINA RESULT:      -3.8     12.233     12.963
REMARK  0 active torsions:
REMARK  status: ('A' for Active; 'I' for Inactive)
ROOT
HETATM    1  C1  UNL     1     -36.161  13.824  -5.239  1.00 20.00     0.223 A 
HETATM    2  C2  UNL     1     -37.311  15.886  -4.983  1.00 20.00     0.128 A 
HETATM    3  C3  UNL     1     -35.228  14.878  -5.711  1.00 20.00     0.092 A 
HETATM    4  C4  UNL     1     -35.951  16.194  -5.531  1.00 20.00     0.026 A 
HETATM    5  C5  UNL     1     -34.649  15.935  -4.794  1.00 20.00    -0.029 A 
HETATM    6  C6  UNL     1     -34.650  15.722  -3.301  1.00 20.00     0.016 C 
HETATM    7  C7  UNL     1     -33.428  16.673  -5.286  1.00 20.00     0.016 C 
HETATM    8  N8  UNL     1     -37.338  14.443  -4.859  1.00 20.00    -0.360 N 
HETATM    9  O9  UNL     1     -35.880  12.637  -5.224  1.00 20.00    -0.273 OA
HETATM   10  H20 UNL     1     -38.148  13.931  -4.523  1.00 20.00     0.162 HD
ENDROOT
TORSDOF 0
ENDMDL
