MODEL 1
REMARK VINA RESULT:      -5.6      0.000      0.000
REMARK  1 active torsions:
REMARK  status: ('A' for Active; 'I' for Inactive)
REMARK    1  A    between atoms: C2_2  and  C3_3 
ROOT
HETATM    1  C1  UNL     1     -34.042   6.842   5.190  1.00 20.00     0.080 C 
HETATM    2  C2  UNL     1     -34.432   5.768   4.186  1.00 20.00     0.272 C 
HETATM    3  F4  UNL     1     -35.712   6.008   3.786  1.00 20.00    -0.216 F 
HETATM    4 CL8  UNL     1     -34.380   4.167   4.970  1.00 20.00    -0.073 Cl
ENDROOT
BRANCH   2   5
HETATM    5  C3  UNL     1     -33.545   5.779   2.959  1.00 20.00     0.437 C 
HETATM    6  F5  UNL     1     -32.975   4.572   2.754  1.00 20.00    -0.166 F 
HETATM    7  F6  UNL     1     -34.259   6.084   1.852  1.00 20.00    -0.166 F 
HETATM    8  F7  UNL     1     -32.554   6.692   3.067  1.00 20.00    -0.166 F 
ENDBRANCH   2   5
TORSDOF 1
ENDMDL
MODEL 2
REMARK VINA RESULT:      -5.3      1.700      2.127
REMARK  1 active torsions:
REMARK  status: ('A' for Active; 'I' for Inactive)
REMARK    1  A    between atoms: C2_2  and  C3_3 
ROOT
HETATM    1  C1  UNL     1     -34.543   4.919   5.387  1.00 20.00     0.080 C 
HETATM    2  C2  UNL     1     -34.360   5.703   4.098  1.00 20.00     0.272 C 
HETATM    3  F4  UNL     1     -35.591   5.927   3.560  1.00 20.00    -0.216 F 
HETATM    4 CL8  UNL     1     -33.409   4.738   2.938  1.00 20.00    -0.073 Cl
ENDROOT
BRANCH   2   5
HETATM    5  C3  UNL     1     -33.697   7.044   4.330  1.00 20.00     0.437 C 
HETATM    6  F5  UNL     1     -32.453   7.074   3.805  1.00 20.00    -0.166 F 
HETATM    7  F6  UNL     1     -34.406   8.039   3.750  1.00 20.00    -0.166 F 
HETATM    8  F7  UNL     1     -33.596   7.330   5.647  1.00 20.00    -0.166 F 
ENDBRANCH   2   5
TORSDOF 1
ENDMDL
MODEL 3
REMARK VINA RESULT:      -5.2      1.709      2.383
REMARK  1 active torsions:
REMARK  status: ('A' for Active; 'I' for Inactive)
REMARK    1  A    between atoms: C2_2  and  C3_3 
ROOT
HETATM    1  C1  UNL     1     -34.569   4.945   5.400  1.00 20.00     0.080 C 
HETATM    2  C2  UNL     1     -34.369   5.723   4.110  1.00 20.00     0.272 C 
HETATM    3  F4  UNL     1     -35.594   5.946   3.556  1.00 20.00    -0.216 F 
HETATM    4 CL8  UNL     1     -33.403   4.753   2.966  1.00 20.00    -0.073 Cl
ENDROOT
BRANCH   2   5
HETATM    5  C3  UNL     1     -33.708   7.065   4.345  1.00 20.00     0.437 C 
HETATM    6  F5  UNL     1     -34.394   8.063   3.747  1.00 20.00    -0.166 F 
HETATM    7  F6  UNL     1     -33.650   7.348   5.667  1.00 20.00    -0.166 F 
HETATM    8  F7  UNL     1     -32.444   7.090   3.869  1.00 20.00    -0.166 F 
ENDBRANCH   2   5
TORSDOF 1
ENDMDL
MODEL 4
REMARK VINA RESULT:      -5.2      1.908      2.911
REMARK  1 active torsions:
REMARK  status: ('A' for Active; 'I' for Inactive)
REMARK    1  A    between atoms: C2_2  and  C3_3 
ROOT
HETATM    1  C1  UNL     1     -32.945   4.655   2.762  1.00 20.00     0.080 C 
HETATM    2  C2  UNL     1     -33.803   5.879   3.039  1.00 20.00     0.272 C 
HETATM    3  F4  UNL     1     -34.498   6.174   1.906  1.00 20.00    -0.216 F 
HETATM    4 CL8  UNL     1     -32.757   7.269   3.434  1.00 20.00    -0.073 Cl
ENDROOT
BRANCH   2   5
HETATM    5  C3  UNL     1     -34.799   5.642   4.154  1.00 20.00     0.437 C 
HETATM    6  F5  UNL     1     -34.530   6.416   5.228  1.00 20.00    -0.166 F 
HETATM    7  F6  UNL     1     -36.056   5.935   3.748  1.00 20.00    -0.166 F 
HETATM    8  F7  UNL     1     -34.795   4.354   4.563  1.00 20.00    -0.166 F 
ENDBRANCH   2   5
TORSDOF 1
ENDMDL
MODEL 5
REMARK VINA RESULT:      -5.1      1.916      2.580
REMARK  1 active torsions:
REMARK  status: ('A' for Active; 'I' for Inactive)
REMARK    1  A    between atoms: C2_2  and  C3_3 
ROOT
HETATM    1  C1  UNL     1     -32.685   6.732   3.267  1.00 20.00     0.080 C 
HETATM    2  C2  UNL     1     -33.877   6.905   4.194  1.00 20.00     0.272 C 
HETATM    3  F4  UNL     1     -34.669   7.890   3.686  1.00 20.00    -0.216 F 
HETATM    4 CL8  UNL     1     -33.315   7.413   5.808  1.00 20.00    -0.073 Cl
ENDROOT
BRANCH   2   5
HETATM    5  C3  UNL     1     -34.708   5.644   4.303  1.00 20.00     0.437 C 
HETATM    6  F5  UNL     1     -34.908   5.297   5.593  1.00 20.00    -0.166 F 
HETATM    7  F6  UNL     1     -35.925   5.818   3.738  1.00 20.00    -0.166 F 
HETATM    8  F7  UNL     1     -34.117   4.600   3.681  1.00 20.00    -0.166 F 
ENDBRANCH   2   5
TORSDOF 1
ENDMDL
MODEL 6
REMARK VINA RESULT:      -4.8      1.450      1.579
REMARK  1 active torsions:
REMARK  status: ('A' for Active; 'I' for Inactive)
REMARK    1  A    between atoms: C2_2  and  C3_3 
ROOT
HETATM    1  C1  UNL     1     -35.664   5.945   3.769  1.00 20.00     0.080 C 
HETATM    2  C2  UNL     1     -34.205   5.742   4.144  1.00 20.00     0.272 C 
HETATM    3  F4  UNL     1     -34.081   4.508   4.708  1.00 20.00    -0.216 F 
HETATM    4 CL8  UNL     1     -33.719   6.963   5.350  1.00 20.00    -0.073 Cl
ENDROOT
BRANCH   2   5
HETATM    5  C3  UNL     1     -33.289   5.803   2.940  1.00 20.00     0.437 C 
HETATM    6  F5  UNL     1     -32.696   4.611   2.713  1.00 20.00    -0.166 F 
HETATM    7  F6  UNL     1     -33.981   6.131   1.825  1.00 20.00    -0.166 F 
HETATM    8  F7  UNL     1     -32.315   6.726   3.099  1.00 20.00    -0.166 F 
ENDBRANCH   2   5
TORSDOF 1
ENDMDL
MODEL 7
REMARK VINA RESULT:      -4.8      1.457      2.070
REMARK  1 active torsions:
REMARK  status: ('A' for Active; 'I' for Inactive)
REMARK    1  A    between atoms: C2_2  and  C3_3 
ROOT
HETATM    1  C1  UNL     1     -35.656   5.932   3.807  1.00 20.00     0.080 C 
HETATM    2  C2  UNL     1     -34.191   5.739   4.160  1.00 20.00     0.272 C 
HETATM    3  F4  UNL     1     -34.049   4.506   4.720  1.00 20.00    -0.216 F 
HETATM    4 CL8  UNL     1     -33.696   6.962   5.361  1.00 20.00    -0.073 Cl
ENDROOT
BRANCH   2   5
HETATM    5  C3  UNL     1     -33.293   5.809   2.943  1.00 20.00     0.437 C 
HETATM    6  F5  UNL     1     -33.991   6.141   1.835  1.00 20.00    -0.166 F 
HETATM    7  F6  UNL     1     -32.328   6.742   3.109  1.00 20.00    -0.166 F 
HETATM    8  F7  UNL     1     -32.679   4.628   2.706  1.00 20.00    -0.166 F 
ENDBRANCH   2   5
TORSDOF 1
ENDMDL
MODEL 8
REMARK VINA RESULT:      -4.8      1.455      2.067
REMARK  1 active torsions:
REMARK  status: ('A' for Active; 'I' for Inactive)
REMARK    1  A    between atoms: C2_2  and  C3_3 
ROOT
HETATM    1  C1  UNL     1     -35.659   5.929   3.811  1.00 20.00     0.080 C 
HETATM    2  C2  UNL     1     -34.192   5.735   4.161  1.00 20.00     0.272 C 
HETATM    3  F4  UNL     1     -34.049   4.499   4.715  1.00 20.00    -0.216 F 
HETATM    4 CL8  UNL     1     -33.696   6.952   5.367  1.00 20.00    -0.073 Cl
ENDROOT
BRANCH   2   5
HETATM    5  C3  UNL     1     -33.296   5.811   2.943  1.00 20.00     0.437 C 
HETATM    6  F5  UNL     1     -32.319   6.729   3.108  1.00 20.00    -0.166 F 
HETATM    7  F6  UNL     1     -32.698   4.620   2.710  1.00 20.00    -0.166 F 
HETATM    8  F7  UNL     1     -33.990   6.141   1.832  1.00 20.00    -0.166 F 
ENDBRANCH   2   5
TORSDOF 1
ENDMDL
MODEL 9
REMARK VINA RESULT:      -4.7      1.429      1.610
REMARK  1 active torsions:
REMARK  status: ('A' for Active; 'I' for Inactive)
REMARK    1  A    between atoms: C2_2  and  C3_3 
ROOT
HETATM    1  C1  UNL     1     -34.279   4.232   4.689  1.00 20.00     0.080 C 
HETATM    2  C2  UNL     1     -34.262   5.631   4.095  1.00 20.00     0.272 C 
HETATM    3  F4  UNL     1     -33.821   6.492   5.053  1.00 20.00    -0.216 F 
HETATM    4 CL8  UNL     1     -35.917   6.107   3.630  1.00 20.00    -0.073 Cl
ENDROOT
BRANCH   2   5
HETATM    5  C3  UNL     1     -33.333   5.737   2.903  1.00 20.00     0.437 C 
HETATM    6  F5  UNL     1     -32.722   4.559   2.649  1.00 20.00    -0.166 F 
HETATM    7  F6  UNL     1     -34.016   6.088   1.790  1.00 20.00    -0.166 F 
HETATM    8  F7  UNL     1     -32.372   6.667   3.100  1.00 20.00    -0.166 F 
ENDBRANCH   2   5
TORSDOF 1
ENDMDL
