MODEL 1
REMARK VINA RESULT:      -4.8      0.000      0.000
REMARK  0 active torsions:
REMARK  status: ('A' for Active; 'I' for Inactive)
ROOT
HETATM    1  C1  UNL     1     -34.009   6.821   4.704  1.00 20.00     0.075 C 
HETATM    2  C2  UNL     1     -34.314   6.118   6.025  1.00 20.00     0.273 C 
HETATM    3  C3  UNL     1     -34.388   4.484   4.354  1.00 20.00     0.312 C 
HETATM    4  C4  UNL     1     -34.421   5.818   3.634  1.00 20.00     0.127 C 
HETATM    5  C5  UNL     1     -33.575   5.865   2.378  1.00 20.00     0.053 C 
HETATM    6  N6  UNL     1     -34.922   4.837   5.669  1.00 20.00     0.086 N 
HETATM    7  F7  UNL     1     -35.714   6.078   3.280  1.00 20.00    -0.241 F 
HETATM    8  H17 UNL     1     -34.699   4.123   6.360  1.00 20.00     0.316 HD
ENDROOT
TORSDOF 0
ENDMDL
MODEL 2
REMARK VINA RESULT:      -4.7      1.648      2.699
REMARK  0 active torsions:
REMARK  status: ('A' for Active; 'I' for Inactive)
ROOT
HETATM    1  C1  UNL     1     -33.531   5.349   3.069  1.00 20.00     0.075 C 
HETATM    2  C2  UNL     1     -32.871   6.681   2.716  1.00 20.00     0.273 C 
HETATM    3  C3  UNL     1     -33.881   6.956   4.808  1.00 20.00     0.312 C 
HETATM    4  C4  UNL     1     -34.459   5.678   4.230  1.00 20.00     0.127 C 
HETATM    5  C5  UNL     1     -34.616   4.558   5.238  1.00 20.00     0.053 C 
HETATM    6  N6  UNL     1     -33.475   7.677   3.601  1.00 20.00     0.086 N 
HETATM    7  F7  UNL     1     -35.695   5.962   3.722  1.00 20.00    -0.241 F 
HETATM    8  H17 UNL     1     -32.813   8.418   3.822  1.00 20.00     0.316 HD
ENDROOT
TORSDOF 0
ENDMDL
MODEL 3
REMARK VINA RESULT:      -4.4      1.389      1.561
REMARK  0 active torsions:
REMARK  status: ('A' for Active; 'I' for Inactive)
ROOT
HETATM    1  C1  UNL     1     -33.652   6.987   5.455  1.00 20.00     0.075 C 
HETATM    2  C2  UNL     1     -34.574   5.812   5.774  1.00 20.00     0.273 C 
HETATM    3  C3  UNL     1     -34.028   5.651   3.505  1.00 20.00     0.312 C 
HETATM    4  C4  UNL     1     -33.622   7.048   3.934  1.00 20.00     0.127 C 
HETATM    5  C5  UNL     1     -32.303   7.514   3.354  1.00 20.00     0.053 C 
HETATM    6  N6  UNL     1     -35.064   5.323   4.485  1.00 20.00     0.086 N 
HETATM    7  F7  UNL     1     -34.592   7.917   3.522  1.00 20.00    -0.241 F 
HETATM    8  H17 UNL     1     -35.234   4.320   4.517  1.00 20.00     0.316 HD
ENDROOT
TORSDOF 0
ENDMDL
MODEL 4
REMARK VINA RESULT:      -4.0      1.475      2.444
REMARK  0 active torsions:
REMARK  status: ('A' for Active; 'I' for Inactive)
ROOT
HETATM    1  C1  UNL     1     -34.479   4.822   5.234  1.00 20.00     0.075 C 
HETATM    2  C2  UNL     1     -34.005   3.894   4.117  1.00 20.00     0.273 C 
HETATM    3  C3  UNL     1     -33.233   6.039   3.592  1.00 20.00     0.312 C 
HETATM    4  C4  UNL     1     -34.276   6.224   4.678  1.00 20.00     0.127 C 
HETATM    5  C5  UNL     1     -33.908   7.261   5.719  1.00 20.00     0.053 C 
HETATM    6  N6  UNL     1     -33.637   4.764   3.000  1.00 20.00     0.086 N 
HETATM    7  F7  UNL     1     -35.441   6.621   4.084  1.00 20.00    -0.241 F 
HETATM    8  H17 UNL     1     -32.881   4.356   2.454  1.00 20.00     0.316 HD
ENDROOT
TORSDOF 0
ENDMDL
MODEL 5
REMARK VINA RESULT:      -3.8      1.826      2.376
REMARK  0 active torsions:
REMARK  status: ('A' for Active; 'I' for Inactive)
ROOT
HETATM    1  C1  UNL     1     -34.525   6.194   2.773  1.00 20.00     0.075 C 
HETATM    2  C2  UNL     1     -35.188   5.743   4.073  1.00 20.00     0.273 C 
HETATM    3  C3  UNL     1     -33.447   7.188   4.664  1.00 20.00     0.312 C 
HETATM    4  C4  UNL     1     -33.209   6.819   3.213  1.00 20.00     0.127 C 
HETATM    5  C5  UNL     1     -32.748   7.974   2.348  1.00 20.00     0.053 C 
HETATM    6  N6  UNL     1     -34.236   6.052   5.140  1.00 20.00     0.086 N 
HETATM    7  F7  UNL     1     -32.243   5.853   3.173  1.00 20.00    -0.241 F 
HETATM    8  H17 UNL     1     -34.719   6.278   6.006  1.00 20.00     0.316 HD
ENDROOT
TORSDOF 0
ENDMDL
MODEL 6
REMARK VINA RESULT:      -3.5      1.617      2.040
REMARK  0 active torsions:
REMARK  status: ('A' for Active; 'I' for Inactive)
ROOT
HETATM    1  C1  UNL     1     -34.714   5.104   4.389  1.00 20.00     0.075 C 
HETATM    2  C2  UNL     1     -34.527   5.754   5.759  1.00 20.00     0.273 C 
HETATM    3  C3  UNL     1     -33.791   7.301   4.167  1.00 20.00     0.312 C 
HETATM    4  C4  UNL     1     -33.903   5.975   3.440  1.00 20.00     0.127 C 
HETATM    5  C5  UNL     1     -34.483   6.082   2.044  1.00 20.00     0.053 C 
HETATM    6  N6  UNL     1     -33.606   6.871   5.553  1.00 20.00     0.086 N 
HETATM    7  F7  UNL     1     -32.650   5.441   3.334  1.00 20.00    -0.241 F 
HETATM    8  H17 UNL     1     -33.802   7.630   6.202  1.00 20.00     0.316 HD
ENDROOT
TORSDOF 0
ENDMDL
MODEL 7
REMARK VINA RESULT:      -3.5      2.041      2.411
REMARK  0 active torsions:
REMARK  status: ('A' for Active; 'I' for Inactive)
ROOT
HETATM    1  C1  UNL     1     -34.356   6.381   5.719  1.00 20.00     0.075 C 
HETATM    2  C2  UNL     1     -33.287   7.435   5.997  1.00 20.00     0.273 C 
HETATM    3  C3  UNL     1     -33.616   7.397   3.682  1.00 20.00     0.312 C 
HETATM    4  C4  UNL     1     -34.273   6.139   4.218  1.00 20.00     0.127 C 
HETATM    5  C5  UNL     1     -35.599   5.807   3.565  1.00 20.00     0.053 C 
HETATM    6  N6  UNL     1     -32.624   7.684   4.718  1.00 20.00     0.086 N 
HETATM    7  F7  UNL     1     -33.424   5.091   4.000  1.00 20.00    -0.241 F 
HETATM    8  H17 UNL     1     -32.298   8.647   4.658  1.00 20.00     0.316 HD
ENDROOT
TORSDOF 0
ENDMDL
MODEL 8
REMARK VINA RESULT:      -3.4     16.849     17.180
REMARK  0 active torsions:
REMARK  status: ('A' for Active; 'I' for Inactive)
ROOT
HETATM    1  C1  UNL     1     -25.187  18.669  10.089  1.00 20.00     0.075 C 
HETATM    2  C2  UNL     1     -23.948  18.133   9.375  1.00 20.00     0.273 C 
HETATM    3  C3  UNL     1     -24.321  16.746  11.221  1.00 20.00     0.312 C 
HETATM    4  C4  UNL     1     -25.173  17.980  11.447  1.00 20.00     0.127 C 
HETATM    5  C5  UNL     1     -26.548  17.688  12.011  1.00 20.00     0.053 C 
HETATM    6  N6  UNL     1     -23.276  17.258  10.336  1.00 20.00     0.086 N 
HETATM    7  F7  UNL     1     -24.520  18.791  12.331  1.00 20.00    -0.241 F 
HETATM    8  H17 UNL     1     -22.792  16.499   9.861  1.00 20.00     0.316 HD
ENDROOT
TORSDOF 0
ENDMDL
MODEL 9
REMARK VINA RESULT:      -3.3     12.481     12.948
REMARK  0 active torsions:
REMARK  status: ('A' for Active; 'I' for Inactive)
ROOT
HETATM    1  C1  UNL     1     -34.103  14.876  -5.740  1.00 20.00     0.075 C 
HETATM    2  C2  UNL     1     -34.365  13.857  -6.847  1.00 20.00     0.273 C 
HETATM    3  C3  UNL     1     -36.082  13.611  -5.279  1.00 20.00     0.312 C 
HETATM    4  C4  UNL     1     -35.010  14.439  -4.598  1.00 20.00     0.127 C 
HETATM    5  C5  UNL     1     -35.549  15.580  -3.758  1.00 20.00     0.053 C 
HETATM    6  N6  UNL     1     -35.310  12.890  -6.290  1.00 20.00     0.086 N 
HETATM    7  F7  UNL     1     -34.295  13.615  -3.776  1.00 20.00    -0.241 F 
HETATM    8  H17 UNL     1     -35.917  12.514  -7.016  1.00 20.00     0.316 HD
ENDROOT
TORSDOF 0
ENDMDL
