MODEL 1
REMARK VINA RESULT:      -5.4      0.000      0.000
REMARK  3 active torsions:
REMARK  status: ('A' for Active; 'I' for Inactive)
REMARK    1  A    between atoms: C5_5  and  C8_8 
REMARK    2  A    between atoms: C7_7  and  N9_9 
REMARK    3  A    between atoms: C8_8  and  N9_9 
ROOT
HETATM    1  C1  UNL     1     -32.997   9.485  -0.307  1.00 20.00     0.013 C 
HETATM    2  C2  UNL     1     -32.498   9.209   0.749  1.00 20.00    -0.087 C 
HETATM    3  C7  UNL     1     -31.888   8.876   2.038  1.00 20.00     0.362 C 
ENDROOT
BRANCH   3   4
HETATM    4  N9  UNL     1     -32.259   7.523   2.452  1.00 20.00     0.094 N 
HETATM    5  H22 UNL     1     -31.417   7.047   2.795  1.00 20.00     0.317 HD
BRANCH   4   6
HETATM    6  C8  UNL     1     -33.271   7.540   3.474  1.00 20.00     0.275 C 
BRANCH   6   7
HETATM    7  C5  UNL     1     -33.867   6.187   3.664  1.00 20.00     0.018 A 
HETATM    8  C3  UNL     1     -35.362   6.009   3.636  1.00 20.00     0.011 A 
HETATM    9  C4  UNL     1     -34.611   5.860   4.933  1.00 20.00    -0.013 A 
HETATM   10  C6  UNL     1     -34.461   4.519   5.561  1.00 20.00     0.010 C 
ENDBRANCH   6   7
ENDBRANCH   4   6
ENDBRANCH   3   4
TORSDOF 3
ENDMDL
MODEL 2
REMARK VINA RESULT:      -5.3      1.484      5.003
REMARK  3 active torsions:
REMARK  status: ('A' for Active; 'I' for Inactive)
REMARK    1  A    between atoms: C5_5  and  C8_8 
REMARK    2  A    between atoms: C7_7  and  N9_9 
REMARK    3  A    between atoms: C8_8  and  N9_9 
ROOT
HETATM    1  C1  UNL     1     -34.389   4.033   4.501  1.00 20.00     0.013 C 
HETATM    2  C2  UNL     1     -34.360   5.090   5.069  1.00 20.00    -0.087 C 
HETATM    3  C7  UNL     1     -34.327   6.378   5.767  1.00 20.00     0.362 C 
ENDROOT
BRANCH   3   4
HETATM    4  N9  UNL     1     -33.460   7.324   5.063  1.00 20.00     0.094 N 
HETATM    5  H22 UNL     1     -32.486   7.026   5.190  1.00 20.00     0.317 HD
BRANCH   4   6
HETATM    6  C8  UNL     1     -33.780   7.396   3.664  1.00 20.00     0.275 C 
BRANCH   6   7
HETATM    7  C5  UNL     1     -32.546   7.495   2.834  1.00 20.00     0.018 A 
HETATM    8  C3  UNL     1     -31.384   8.332   3.303  1.00 20.00     0.011 A 
HETATM    9  C4  UNL     1     -32.211   8.784   2.128  1.00 20.00    -0.013 A 
HETATM   10  C6  UNL     1     -31.638   8.756   0.755  1.00 20.00     0.010 C 
ENDBRANCH   6   7
ENDBRANCH   4   6
ENDBRANCH   3   4
TORSDOF 3
ENDMDL
MODEL 3
REMARK VINA RESULT:      -5.3      1.594      4.908
REMARK  3 active torsions:
REMARK  status: ('A' for Active; 'I' for Inactive)
REMARK    1  A    between atoms: C5_5  and  C8_8 
REMARK    2  A    between atoms: C7_7  and  N9_9 
REMARK    3  A    between atoms: C8_8  and  N9_9 
ROOT
HETATM    1  C1  UNL     1     -34.391   6.485   6.131  1.00 20.00     0.013 C 
HETATM    2  C2  UNL     1     -34.405   5.570   5.354  1.00 20.00    -0.087 C 
HETATM    3  C7  UNL     1     -34.425   4.452   4.407  1.00 20.00     0.362 C 
ENDROOT
BRANCH   3   4
HETATM    4  N9  UNL     1     -33.636   4.769   3.216  1.00 20.00     0.094 N 
HETATM    5  H22 UNL     1     -33.882   4.099   2.479  1.00 20.00     0.317 HD
BRANCH   4   6
HETATM    6  C8  UNL     1     -33.872   6.114   2.766  1.00 20.00     0.275 C 
BRANCH   6   7
HETATM    7  C5  UNL     1     -32.590   6.821   2.488  1.00 20.00     0.018 A 
HETATM    8  C3  UNL     1     -32.068   7.850   3.457  1.00 20.00     0.011 A 
HETATM    9  C4  UNL     1     -32.597   8.280   2.114  1.00 20.00    -0.013 A 
HETATM   10  C6  UNL     1     -31.665   8.788   1.070  1.00 20.00     0.010 C 
ENDBRANCH   6   7
ENDBRANCH   4   6
ENDBRANCH   3   4
TORSDOF 3
ENDMDL
MODEL 4
REMARK VINA RESULT:      -5.3      0.811      1.035
REMARK  3 active torsions:
REMARK  status: ('A' for Active; 'I' for Inactive)
REMARK    1  A    between atoms: C5_5  and  C8_8 
REMARK    2  A    between atoms: C7_7  and  N9_9 
REMARK    3  A    between atoms: C8_8  and  N9_9 
ROOT
HETATM    1  C1  UNL     1     -33.180   9.476  -0.594  1.00 20.00     0.013 C 
HETATM    2  C2  UNL     1     -32.656   9.468   0.486  1.00 20.00    -0.087 C 
HETATM    3  C7  UNL     1     -32.018   9.462   1.804  1.00 20.00     0.362 C 
ENDROOT
BRANCH   3   4
HETATM    4  N9  UNL     1     -31.936   8.100   2.333  1.00 20.00     0.094 N 
HETATM    5  H22 UNL     1     -31.438   8.131   3.230  1.00 20.00     0.317 HD
BRANCH   4   6
HETATM    6  C8  UNL     1     -33.240   7.521   2.510  1.00 20.00     0.275 C 
BRANCH   6   7
HETATM    7  C5  UNL     1     -33.197   6.376   3.462  1.00 20.00     0.018 A 
HETATM    8  C3  UNL     1     -33.450   4.974   2.973  1.00 20.00     0.011 A 
HETATM    9  C4  UNL     1     -34.467   5.662   3.845  1.00 20.00    -0.013 A 
HETATM   10  C6  UNL     1     -34.676   5.211   5.248  1.00 20.00     0.010 C 
ENDBRANCH   6   7
ENDBRANCH   4   6
ENDBRANCH   3   4
TORSDOF 3
ENDMDL
MODEL 5
REMARK VINA RESULT:      -5.1      1.085      5.285
REMARK  3 active torsions:
REMARK  status: ('A' for Active; 'I' for Inactive)
REMARK    1  A    between atoms: C5_5  and  C8_8 
REMARK    2  A    between atoms: C7_7  and  N9_9 
REMARK    3  A    between atoms: C8_8  and  N9_9 
ROOT
HETATM    1  C1  UNL     1     -34.771   4.999   5.600  1.00 20.00     0.013 C 
HETATM    2  C2  UNL     1     -34.280   6.004   5.162  1.00 20.00    -0.087 C 
HETATM    3  C7  UNL     1     -33.682   7.231   4.631  1.00 20.00     0.362 C 
ENDROOT
BRANCH   3   4
HETATM    4  N9  UNL     1     -32.870   6.941   3.449  1.00 20.00     0.094 N 
HETATM    5  H22 UNL     1     -33.485   6.563   2.719  1.00 20.00     0.317 HD
BRANCH   4   6
HETATM    6  C8  UNL     1     -32.193   8.115   2.970  1.00 20.00     0.275 C 
BRANCH   6   7
HETATM    7  C5  UNL     1     -32.289   8.224   1.487  1.00 20.00     0.018 A 
HETATM    8  C3  UNL     1     -31.150   8.814   0.697  1.00 20.00     0.011 A 
HETATM    9  C4  UNL     1     -32.443   9.575   0.837  1.00 20.00    -0.013 A 
HETATM   10  C6  UNL     1     -33.345   9.740  -0.336  1.00 20.00     0.010 C 
ENDBRANCH   6   7
ENDBRANCH   4   6
ENDBRANCH   3   4
TORSDOF 3
ENDMDL
MODEL 6
REMARK VINA RESULT:      -4.6      1.293      1.645
REMARK  3 active torsions:
REMARK  status: ('A' for Active; 'I' for Inactive)
REMARK    1  A    between atoms: C5_5  and  C8_8 
REMARK    2  A    between atoms: C7_7  and  N9_9 
REMARK    3  A    between atoms: C8_8  and  N9_9 
ROOT
HETATM    1  C1  UNL     1     -32.831  10.400   0.983  1.00 20.00     0.013 C 
HETATM    2  C2  UNL     1     -32.322   9.411   1.436  1.00 20.00    -0.087 C 
HETATM    3  C7  UNL     1     -31.699   8.205   1.986  1.00 20.00     0.362 C 
ENDROOT
BRANCH   3   4
HETATM    4  N9  UNL     1     -31.636   8.275   3.446  1.00 20.00     0.094 N 
HETATM    5  H22 UNL     1     -31.563   9.262   3.719  1.00 20.00     0.317 HD
BRANCH   4   6
HETATM    6  C8  UNL     1     -32.791   7.675   4.055  1.00 20.00     0.275 C 
BRANCH   6   7
HETATM    7  C5  UNL     1     -33.440   6.700   3.134  1.00 20.00     0.018 A 
HETATM    8  C3  UNL     1     -34.651   5.925   3.584  1.00 20.00     0.011 A 
HETATM    9  C4  UNL     1     -33.332   5.221   3.400  1.00 20.00    -0.013 A 
HETATM   10  C6  UNL     1     -33.142   4.271   2.270  1.00 20.00     0.010 C 
ENDBRANCH   6   7
ENDBRANCH   4   6
ENDBRANCH   3   4
TORSDOF 3
ENDMDL
MODEL 7
REMARK VINA RESULT:      -4.2      2.021      2.669
REMARK  3 active torsions:
REMARK  status: ('A' for Active; 'I' for Inactive)
REMARK    1  A    between atoms: C5_5  and  C8_8 
REMARK    2  A    between atoms: C7_7  and  N9_9 
REMARK    3  A    between atoms: C8_8  and  N9_9 
ROOT
HETATM    1  C1  UNL     1     -31.550   8.240   3.098  1.00 20.00     0.013 C 
HETATM    2  C2  UNL     1     -32.378   7.467   2.701  1.00 20.00    -0.087 C 
HETATM    3  C7  UNL     1     -33.389   6.526   2.213  1.00 20.00     0.362 C 
ENDROOT
BRANCH   3   4
HETATM    4  N9  UNL     1     -33.024   5.151   2.555  1.00 20.00     0.094 N 
HETATM    5  H22 UNL     1     -32.071   5.156   2.937  1.00 20.00     0.317 HD
BRANCH   4   6
HETATM    6  C8  UNL     1     -33.938   4.581   3.507  1.00 20.00     0.275 C 
BRANCH   6   7
HETATM    7  C5  UNL     1     -33.699   5.123   4.874  1.00 20.00     0.018 A 
HETATM    8  C3  UNL     1     -34.740   4.952   5.948  1.00 20.00     0.011 A 
HETATM    9  C4  UNL     1     -34.480   6.315   5.362  1.00 20.00    -0.013 A 
HETATM   10  C6  UNL     1     -33.809   7.364   6.178  1.00 20.00     0.010 C 
ENDBRANCH   6   7
ENDBRANCH   4   6
ENDBRANCH   3   4
TORSDOF 3
ENDMDL
MODEL 8
REMARK VINA RESULT:      -4.2      1.163      1.610
REMARK  3 active torsions:
REMARK  status: ('A' for Active; 'I' for Inactive)
REMARK    1  A    between atoms: C5_5  and  C8_8 
REMARK    2  A    between atoms: C7_7  and  N9_9 
REMARK    3  A    between atoms: C8_8  and  N9_9 
ROOT
HETATM    1  C1  UNL     1     -31.759   9.109   0.669  1.00 20.00     0.013 C 
HETATM    2  C2  UNL     1     -31.906   8.570   1.731  1.00 20.00    -0.087 C 
HETATM    3  C7  UNL     1     -32.082   7.912   3.028  1.00 20.00     0.362 C 
ENDROOT
BRANCH   3   4
HETATM    4  N9  UNL     1     -33.483   7.961   3.447  1.00 20.00     0.094 N 
HETATM    5  H22 UNL     1     -34.045   7.451   2.756  1.00 20.00     0.317 HD
BRANCH   4   6
HETATM    6  C8  UNL     1     -33.665   7.391   4.754  1.00 20.00     0.275 C 
BRANCH   6   7
HETATM    7  C5  UNL     1     -34.449   6.125   4.684  1.00 20.00     0.018 A 
HETATM    8  C3  UNL     1     -34.712   5.329   5.936  1.00 20.00     0.011 A 
HETATM    9  C4  UNL     1     -33.764   4.799   4.892  1.00 20.00    -0.013 A 
HETATM   10  C6  UNL     1     -34.146   3.624   4.061  1.00 20.00     0.010 C 
ENDBRANCH   6   7
ENDBRANCH   4   6
ENDBRANCH   3   4
TORSDOF 3
ENDMDL
MODEL 9
REMARK VINA RESULT:      -4.2      1.982      4.410
REMARK  3 active torsions:
REMARK  status: ('A' for Active; 'I' for Inactive)
REMARK    1  A    between atoms: C5_5  and  C8_8 
REMARK    2  A    between atoms: C7_7  and  N9_9 
REMARK    3  A    between atoms: C8_8  and  N9_9 
ROOT
HETATM    1  C1  UNL     1     -34.649   4.667   5.539  1.00 20.00     0.013 C 
HETATM    2  C2  UNL     1     -34.422   5.810   5.827  1.00 20.00    -0.087 C 
HETATM    3  C7  UNL     1     -34.148   7.204   6.181  1.00 20.00     0.362 C 
ENDROOT
BRANCH   3   4
HETATM    4  N9  UNL     1     -32.813   7.600   5.730  1.00 20.00     0.094 N 
HETATM    5  H22 UNL     1     -32.214   6.767   5.727  1.00 20.00     0.317 HD
BRANCH   4   6
HETATM    6  C8  UNL     1     -32.850   8.191   4.421  1.00 20.00     0.275 C 
BRANCH   6   7
HETATM    7  C5  UNL     1     -32.359   7.238   3.386  1.00 20.00     0.018 A 
HETATM    8  C3  UNL     1     -32.623   7.504   1.927  1.00 20.00     0.011 A 
HETATM    9  C4  UNL     1     -33.335   6.376   2.628  1.00 20.00    -0.013 A 
HETATM   10  C6  UNL     1     -32.992   4.963   2.310  1.00 20.00     0.010 C 
ENDBRANCH   6   7
ENDBRANCH   4   6
ENDBRANCH   3   4
TORSDOF 3
ENDMDL
