MODEL 1
REMARK VINA RESULT:      -4.1      0.000      0.000
REMARK  1 active torsions:
REMARK  status: ('A' for Active; 'I' for Inactive)
REMARK    1  A    between atoms: C4_4  and  C8_8 
ROOT
HETATM    1  C5  UNL     1     -33.158  14.604  -4.704  1.00 20.00     0.033 C 
HETATM    2  C6  UNL     1     -34.368  14.837  -3.810  1.00 20.00     0.042 C 
HETATM    3  C7  UNL     1     -33.111  15.847  -5.570  1.00 20.00     0.273 C 
HETATM    4  C8  UNL     1     -34.574  16.363  -3.801  1.00 20.00     0.256 C 
HETATM    5  C9  UNL     1     -33.790  18.154  -5.277  1.00 20.00     0.310 C 
HETATM    6  N10 UNL     1     -33.464  16.897  -4.614  1.00 20.00     0.093 N 
ENDROOT
BRANCH   4   7
HETATM    7  C4  UNL     1     -34.600  16.941  -2.401  1.00 20.00    -0.018 A 
HETATM    8  C1  UNL     1     -33.457  17.478  -1.741  1.00 20.00     0.017 A 
HETATM    9  C2  UNL     1     -33.757  17.936  -0.477  1.00 20.00     0.050 A 
HETATM   10  S11 UNL     1     -35.410  17.718  -0.091  1.00 20.00    -0.113 SA
HETATM   11  C3  UNL     1     -35.731  17.010  -1.616  1.00 20.00     0.058 A 
ENDBRANCH   4   7
TORSDOF 1
ENDMDL
MODEL 2
REMARK VINA RESULT:      -4.1     11.601     12.601
REMARK  1 active torsions:
REMARK  status: ('A' for Active; 'I' for Inactive)
REMARK    1  A    between atoms: C4_4  and  C8_8 
ROOT
HETATM    1  C5  UNL     1     -34.580   5.079   5.384  1.00 20.00     0.033 C 
HETATM    2  C6  UNL     1     -34.875   6.287   4.506  1.00 20.00     0.042 C 
HETATM    3  C7  UNL     1     -34.169   4.009   4.393  1.00 20.00     0.273 C 
HETATM    4  C8  UNL     1     -34.091   6.039   3.204  1.00 20.00     0.256 C 
HETATM    5  C9  UNL     1     -33.113   4.024   2.213  1.00 20.00     0.310 C 
HETATM    6  N10 UNL     1     -33.367   4.774   3.437  1.00 20.00     0.093 N 
ENDROOT
BRANCH   4   7
HETATM    7  C4  UNL     1     -33.163   7.184   2.854  1.00 20.00    -0.018 A 
HETATM    8  C1  UNL     1     -32.151   7.682   3.724  1.00 20.00     0.017 A 
HETATM    9  C2  UNL     1     -31.451   8.726   3.160  1.00 20.00     0.050 A 
HETATM   10  S11 UNL     1     -32.015   9.101   1.588  1.00 20.00    -0.113 SA
HETATM   11  C3  UNL     1     -33.199   7.866   1.657  1.00 20.00     0.058 A 
ENDBRANCH   4   7
TORSDOF 1
ENDMDL
MODEL 3
REMARK VINA RESULT:      -4.0      0.975      1.124
REMARK  1 active torsions:
REMARK  status: ('A' for Active; 'I' for Inactive)
REMARK    1  A    between atoms: C4_4  and  C8_8 
ROOT
HETATM    1  C5  UNL     1     -33.017  15.538  -5.331  1.00 20.00     0.033 C 
HETATM    2  C6  UNL     1     -33.397  15.126  -3.916  1.00 20.00     0.042 C 
HETATM    3  C7  UNL     1     -34.306  16.096  -5.899  1.00 20.00     0.273 C 
HETATM    4  C8  UNL     1     -34.641  15.967  -3.573  1.00 20.00     0.256 C 
HETATM    5  C9  UNL     1     -36.245  17.199  -4.953  1.00 20.00     0.310 C 
HETATM    6  N10 UNL     1     -34.849  16.827  -4.754  1.00 20.00     0.093 N 
ENDROOT
BRANCH   4   7
HETATM    7  C4  UNL     1     -34.473  16.763  -2.295  1.00 20.00    -0.018 A 
HETATM    8  C1  UNL     1     -33.282  17.463  -1.945  1.00 20.00     0.017 A 
HETATM    9  C2  UNL     1     -33.396  18.104  -0.731  1.00 20.00     0.050 A 
HETATM   10  S11 UNL     1     -34.934  17.861  -0.019  1.00 20.00    -0.113 SA
HETATM   11  C3  UNL     1     -35.453  16.896  -1.336  1.00 20.00     0.058 A 
ENDBRANCH   4   7
TORSDOF 1
ENDMDL
MODEL 4
REMARK VINA RESULT:      -4.0      1.557      2.469
REMARK  1 active torsions:
REMARK  status: ('A' for Active; 'I' for Inactive)
REMARK    1  A    between atoms: C4_4  and  C8_8 
ROOT
HETATM    1  C5  UNL     1     -36.752  14.751  -4.551  1.00 20.00     0.033 C 
HETATM    2  C6  UNL     1     -36.344  16.202  -4.337  1.00 20.00     0.042 C 
HETATM    3  C7  UNL     1     -35.447  14.061  -4.897  1.00 20.00     0.273 C 
HETATM    4  C8  UNL     1     -34.842  16.152  -4.001  1.00 20.00     0.256 C 
HETATM    5  C9  UNL     1     -33.120  14.443  -4.339  1.00 20.00     0.310 C 
HETATM    6  N10 UNL     1     -34.508  14.714  -3.984  1.00 20.00     0.093 N 
ENDROOT
BRANCH   4   7
HETATM    7  C4  UNL     1     -34.511  16.843  -2.695  1.00 20.00    -0.018 A 
HETATM    8  C1  UNL     1     -35.352  16.810  -1.544  1.00 20.00     0.017 A 
HETATM    9  C2  UNL     1     -34.816  17.519  -0.492  1.00 20.00     0.050 A 
HETATM   10  S11 UNL     1     -33.305  18.220  -0.892  1.00 20.00    -0.113 SA
HETATM   11  C3  UNL     1     -33.364  17.575  -2.478  1.00 20.00     0.058 A 
ENDBRANCH   4   7
TORSDOF 1
ENDMDL
MODEL 5
REMARK VINA RESULT:      -3.9      3.096      5.670
REMARK  1 active torsions:
REMARK  status: ('A' for Active; 'I' for Inactive)
REMARK    1  A    between atoms: C4_4  and  C8_8 
ROOT
HETATM    1  C5  UNL     1     -31.044  18.514   2.079  1.00 20.00     0.033 C 
HETATM    2  C6  UNL     1     -31.493  18.984   0.702  1.00 20.00     0.042 C 
HETATM    3  C7  UNL     1     -32.227  18.838   2.970  1.00 20.00     0.273 C 
HETATM    4  C8  UNL     1     -33.032  18.996   0.763  1.00 20.00     0.256 C 
HETATM    5  C9  UNL     1     -34.620  19.003   2.628  1.00 20.00     0.310 C 
HETATM    6  N10 UNL     1     -33.358  18.487   2.110  1.00 20.00     0.093 N 
ENDROOT
BRANCH   4   7
HETATM    7  C4  UNL     1     -33.667  18.175  -0.339  1.00 20.00    -0.018 A 
HETATM    8  C1  UNL     1     -32.981  17.762  -1.518  1.00 20.00     0.017 A 
HETATM    9  C2  UNL     1     -33.790  17.027  -2.357  1.00 20.00     0.050 A 
HETATM   10  S11 UNL     1     -35.369  16.837  -1.721  1.00 20.00    -0.113 SA
HETATM   11  C3  UNL     1     -34.974  17.740  -0.321  1.00 20.00     0.058 A 
ENDBRANCH   4   7
TORSDOF 1
ENDMDL
MODEL 6
REMARK VINA RESULT:      -3.8     10.564     11.610
REMARK  1 active torsions:
REMARK  status: ('A' for Active; 'I' for Inactive)
REMARK    1  A    between atoms: C4_4  and  C8_8 
ROOT
HETATM    1  C5  UNL     1     -34.852   5.470   3.702  1.00 20.00     0.033 C 
HETATM    2  C6  UNL     1     -33.637   5.672   2.808  1.00 20.00     0.042 C 
HETATM    3  C7  UNL     1     -34.444   6.115   5.011  1.00 20.00     0.273 C 
HETATM    4  C8  UNL     1     -32.883   6.869   3.419  1.00 20.00     0.256 C 
HETATM    5  C9  UNL     1     -32.961   7.929   5.625  1.00 20.00     0.310 C 
HETATM    6  N10 UNL     1     -33.724   7.303   4.552  1.00 20.00     0.093 N 
ENDROOT
BRANCH   4   7
HETATM    7  C4  UNL     1     -32.638   7.978   2.417  1.00 20.00    -0.018 A 
HETATM    8  C1  UNL     1     -31.543   7.997   1.505  1.00 20.00     0.017 A 
HETATM    9  C2  UNL     1     -31.556   9.119   0.706  1.00 20.00     0.050 A 
HETATM   10  S11 UNL     1     -32.884  10.142   1.056  1.00 20.00    -0.113 SA
HETATM   11  C3  UNL     1     -33.447   9.085   2.280  1.00 20.00     0.058 A 
ENDBRANCH   4   7
TORSDOF 1
ENDMDL
MODEL 7
REMARK VINA RESULT:      -3.7      2.471      4.235
REMARK  1 active torsions:
REMARK  status: ('A' for Active; 'I' for Inactive)
REMARK    1  A    between atoms: C4_4  and  C8_8 
ROOT
HETATM    1  C5  UNL     1     -32.520  18.275  -1.195  1.00 20.00     0.033 C 
HETATM    2  C6  UNL     1     -33.313  18.338  -2.492  1.00 20.00     0.042 C 
HETATM    3  C7  UNL     1     -33.590  18.273  -0.122  1.00 20.00     0.273 C 
HETATM    4  C8  UNL     1     -34.710  17.795  -2.136  1.00 20.00     0.256 C 
HETATM    5  C9  UNL     1     -35.883  17.498  -0.007  1.00 20.00     0.310 C 
HETATM    6  N10 UNL     1     -34.611  17.409  -0.715  1.00 20.00     0.093 N 
ENDROOT
BRANCH   4   7
HETATM    7  C4  UNL     1     -35.134  16.644  -3.024  1.00 20.00    -0.018 A 
HETATM    8  C1  UNL     1     -34.260  15.598  -3.440  1.00 20.00     0.017 A 
HETATM    9  C2  UNL     1     -34.899  14.679  -4.244  1.00 20.00     0.050 A 
HETATM   10  S11 UNL     1     -36.545  15.079  -4.493  1.00 20.00    -0.113 SA
HETATM   11  C3  UNL     1     -36.408  16.485  -3.525  1.00 20.00     0.058 A 
ENDBRANCH   4   7
TORSDOF 1
ENDMDL
MODEL 8
REMARK VINA RESULT:      -3.7      2.959      4.631
REMARK  1 active torsions:
REMARK  status: ('A' for Active; 'I' for Inactive)
REMARK    1  A    between atoms: C4_4  and  C8_8 
ROOT
HETATM    1  C5  UNL     1     -35.030  16.819  -1.569  1.00 20.00     0.033 C 
HETATM    2  C6  UNL     1     -34.122  16.455  -2.736  1.00 20.00     0.042 C 
HETATM    3  C7  UNL     1     -36.049  17.755  -2.189  1.00 20.00     0.273 C 
HETATM    4  C8  UNL     1     -34.969  16.705  -3.998  1.00 20.00     0.256 C 
HETATM    5  C9  UNL     1     -37.005  18.006  -4.401  1.00 20.00     0.310 C 
HETATM    6  N10 UNL     1     -36.289  17.123  -3.487  1.00 20.00     0.093 N 
ENDROOT
BRANCH   4   7
HETATM    7  C4  UNL     1     -35.051  15.489  -4.897  1.00 20.00    -0.018 A 
HETATM    8  C1  UNL     1     -35.932  14.391  -4.670  1.00 20.00     0.017 A 
HETATM    9  C2  UNL     1     -35.805  13.418  -5.637  1.00 20.00     0.050 A 
HETATM   10  S11 UNL     1     -34.629  13.830  -6.811  1.00 20.00    -0.113 SA
HETATM   11  C3  UNL     1     -34.285  15.313  -6.029  1.00 20.00     0.058 A 
ENDBRANCH   4   7
TORSDOF 1
ENDMDL
MODEL 9
REMARK VINA RESULT:      -3.7      1.839      2.692
REMARK  1 active torsions:
REMARK  status: ('A' for Active; 'I' for Inactive)
REMARK    1  A    between atoms: C4_4  and  C8_8 
ROOT
HETATM    1  C5  UNL     1     -33.909  15.718  -7.299  1.00 20.00     0.033 C 
HETATM    2  C6  UNL     1     -33.240  15.848  -5.939  1.00 20.00     0.042 C 
HETATM    3  C7  UNL     1     -34.779  14.486  -7.153  1.00 20.00     0.273 C 
HETATM    4  C8  UNL     1     -34.159  15.088  -4.964  1.00 20.00     0.256 C 
HETATM    5  C9  UNL     1     -35.916  13.415  -5.300  1.00 20.00     0.310 C 
HETATM    6  N10 UNL     1     -35.296  14.640  -5.792  1.00 20.00     0.093 N 
ENDROOT
BRANCH   4   7
HETATM    7  C4  UNL     1     -34.596  15.939  -3.789  1.00 20.00    -0.018 A 
HETATM    8  C1  UNL     1     -33.719  16.371  -2.751  1.00 20.00     0.017 A 
HETATM    9  C2  UNL     1     -34.372  17.132  -1.806  1.00 20.00     0.050 A 
HETATM   10  S11 UNL     1     -36.034  17.323  -2.172  1.00 20.00    -0.113 SA
HETATM   11  C3  UNL     1     -35.885  16.387  -3.598  1.00 20.00     0.058 A 
ENDBRANCH   4   7
TORSDOF 1
ENDMDL
