MODEL 1
REMARK VINA RESULT:      -4.5      0.000      0.000
REMARK  0 active torsions:
REMARK  status: ('A' for Active; 'I' for Inactive)
ROOT
HETATM    1  C1  UNL     1     -33.943   7.188   5.919  1.00 20.00     0.011 C 
HETATM    2  C2  UNL     1     -32.906   7.681   4.910  1.00 20.00     0.017 C 
HETATM    3  C3  UNL     1     -34.313   5.724   5.727  1.00 20.00     0.074 C 
HETATM    4  C4  UNL     1     -33.704   6.110   3.066  1.00 20.00     0.089 C 
HETATM    5  C5  UNL     1     -33.388   7.543   3.469  1.00 20.00     0.067 C 
HETATM    6  S6  UNL     1     -35.035   5.416   4.090  1.00 20.00    -0.168 SA
HETATM    7 BR7  UNL     1     -31.980   8.221   2.278  1.00 20.00    -0.090 Br
ENDROOT
TORSDOF 0
ENDMDL
MODEL 2
REMARK VINA RESULT:      -4.1      1.246      2.140
REMARK  0 active torsions:
REMARK  status: ('A' for Active; 'I' for Inactive)
ROOT
HETATM    1  C1  UNL     1     -33.858   4.723   3.520  1.00 20.00     0.011 C 
HETATM    2  C2  UNL     1     -33.401   5.853   2.599  1.00 20.00     0.017 C 
HETATM    3  C3  UNL     1     -34.845   5.182   4.584  1.00 20.00     0.074 C 
HETATM    4  C4  UNL     1     -33.608   7.639   4.408  1.00 20.00     0.089 C 
HETATM    5  C5  UNL     1     -32.717   6.984   3.363  1.00 20.00     0.067 C 
HETATM    6  S6  UNL     1     -34.128   6.444   5.674  1.00 20.00    -0.168 SA
HETATM    7 BR7  UNL     1     -32.166   8.358   2.073  1.00 20.00    -0.090 Br
ENDROOT
TORSDOF 0
ENDMDL
MODEL 3
REMARK VINA RESULT:      -3.5      1.001      1.105
REMARK  0 active torsions:
REMARK  status: ('A' for Active; 'I' for Inactive)
ROOT
HETATM    1  C1  UNL     1     -34.685   6.122   5.450  1.00 20.00     0.011 C 
HETATM    2  C2  UNL     1     -33.609   7.091   4.962  1.00 20.00     0.017 C 
HETATM    3  C3  UNL     1     -34.324   4.662   5.218  1.00 20.00     0.074 C 
HETATM    4  C4  UNL     1     -32.852   5.561   3.067  1.00 20.00     0.089 C 
HETATM    5  C5  UNL     1     -33.335   6.947   3.467  1.00 20.00     0.067 C 
HETATM    6  S6  UNL     1     -34.094   4.293   3.455  1.00 20.00    -0.168 SA
HETATM    7 BR7  UNL     1     -31.954   8.250   2.963  1.00 20.00    -0.090 Br
ENDROOT
TORSDOF 0
ENDMDL
MODEL 4
REMARK VINA RESULT:      -3.0     12.229     12.984
REMARK  0 active torsions:
REMARK  status: ('A' for Active; 'I' for Inactive)
ROOT
HETATM    1  C1  UNL     1     -35.706  13.493  -5.932  1.00 20.00     0.011 C 
HETATM    2  C2  UNL     1     -35.119  14.134  -4.675  1.00 20.00     0.017 C 
HETATM    3  C3  UNL     1     -34.700  13.376  -7.068  1.00 20.00     0.074 C 
HETATM    4  C4  UNL     1     -33.491  15.601  -5.979  1.00 20.00     0.089 C 
HETATM    5  C5  UNL     1     -34.595  15.544  -4.934  1.00 20.00     0.067 C 
HETATM    6  S6  UNL     1     -34.076  14.999  -7.591  1.00 20.00    -0.168 SA
HETATM    7 BR7  UNL     1     -33.886  16.260  -3.248  1.00 20.00    -0.090 Br
ENDROOT
TORSDOF 0
ENDMDL
MODEL 5
REMARK VINA RESULT:      -2.9     11.823     12.225
REMARK  0 active torsions:
REMARK  status: ('A' for Active; 'I' for Inactive)
ROOT
HETATM    1  C1  UNL     1     -33.145  14.801  -4.560  1.00 20.00     0.011 C 
HETATM    2  C2  UNL     1     -33.640  15.967  -3.705  1.00 20.00     0.017 C 
HETATM    3  C3  UNL     1     -34.083  14.464  -5.711  1.00 20.00     0.074 C 
HETATM    4  C4  UNL     1     -36.102  15.436  -4.106  1.00 20.00     0.089 C 
HETATM    5  C5  UNL     1     -35.005  15.690  -3.082  1.00 20.00     0.067 C 
HETATM    6  S6  UNL     1     -35.730  13.977  -5.123  1.00 20.00    -0.168 SA
HETATM    7 BR7  UNL     1     -35.519  17.248  -2.002  1.00 20.00    -0.090 Br
ENDROOT
TORSDOF 0
ENDMDL
MODEL 6
REMARK VINA RESULT:      -2.9     11.921     12.817
REMARK  0 active torsions:
REMARK  status: ('A' for Active; 'I' for Inactive)
ROOT
HETATM    1  C1  UNL     1     -33.397  15.641  -6.220  1.00 20.00     0.011 C 
HETATM    2  C2  UNL     1     -33.352  16.567  -5.005  1.00 20.00     0.017 C 
HETATM    3  C3  UNL     1     -34.782  15.068  -6.482  1.00 20.00     0.074 C 
HETATM    4  C4  UNL     1     -35.195  15.312  -3.768  1.00 20.00     0.089 C 
HETATM    5  C5  UNL     1     -33.776  15.860  -3.721  1.00 20.00     0.067 C 
HETATM    6  S6  UNL     1     -35.381  14.074  -5.085  1.00 20.00    -0.168 SA
HETATM    7 BR7  UNL     1     -33.660  17.145  -2.240  1.00 20.00    -0.090 Br
ENDROOT
TORSDOF 0
ENDMDL
MODEL 7
REMARK VINA RESULT:      -2.9     12.019     12.447
REMARK  0 active torsions:
REMARK  status: ('A' for Active; 'I' for Inactive)
ROOT
HETATM    1  C1  UNL     1     -35.291  17.524  -0.002  1.00 20.00     0.011 C 
HETATM    2  C2  UNL     1     -35.207  16.987  -1.430  1.00 20.00     0.017 C 
HETATM    3  C3  UNL     1     -34.721  18.928   0.142  1.00 20.00     0.074 C 
HETATM    4  C4  UNL     1     -33.073  18.277  -1.969  1.00 20.00     0.089 C 
HETATM    5  C5  UNL     1     -33.770  16.925  -1.942  1.00 20.00     0.067 C 
HETATM    6  S6  UNL     1     -32.962  18.995  -0.304  1.00 20.00    -0.168 SA
HETATM    7 BR7  UNL     1     -33.795  16.207  -3.770  1.00 20.00    -0.090 Br
ENDROOT
TORSDOF 0
ENDMDL
MODEL 8
REMARK VINA RESULT:      -2.8     12.301     13.065
REMARK  0 active torsions:
REMARK  status: ('A' for Active; 'I' for Inactive)
ROOT
HETATM    1  C1  UNL     1     -33.501  14.429  -4.488  1.00 20.00     0.011 C 
HETATM    2  C2  UNL     1     -35.011  14.434  -4.253  1.00 20.00     0.017 C 
HETATM    3  C3  UNL     1     -33.003  15.681  -5.196  1.00 20.00     0.074 C 
HETATM    4  C4  UNL     1     -35.503  15.800  -6.351  1.00 20.00     0.089 C 
HETATM    5  C5  UNL     1     -35.800  14.537  -5.556  1.00 20.00     0.067 C 
HETATM    6  S6  UNL     1     -33.754  15.877  -6.837  1.00 20.00    -0.168 SA
HETATM    7 BR7  UNL     1     -37.716  14.518  -5.122  1.00 20.00    -0.090 Br
ENDROOT
TORSDOF 0
ENDMDL
MODEL 9
REMARK VINA RESULT:      -2.8     11.973     12.309
REMARK  0 active torsions:
REMARK  status: ('A' for Active; 'I' for Inactive)
ROOT
HETATM    1  C1  UNL     1     -33.790  16.245  -3.139  1.00 20.00     0.011 C 
HETATM    2  C2  UNL     1     -34.248  14.984  -3.870  1.00 20.00     0.017 C 
HETATM    3  C3  UNL     1     -34.843  16.799  -2.188  1.00 20.00     0.074 C 
HETATM    4  C4  UNL     1     -36.702  15.680  -3.889  1.00 20.00     0.089 C 
HETATM    5  C5  UNL     1     -35.503  15.221  -4.706  1.00 20.00     0.067 C 
HETATM    6  S6  UNL     1     -36.367  17.262  -3.059  1.00 20.00    -0.168 SA
HETATM    7 BR7  UNL     1     -35.976  13.539  -5.603  1.00 20.00    -0.090 Br
ENDROOT
TORSDOF 0
ENDMDL
