MODEL 1
REMARK VINA RESULT:      -5.0      0.000      0.000
REMARK  1 active torsions:
REMARK  status: ('A' for Active; 'I' for Inactive)
REMARK    1  A    between atoms: C4_4  and  C5_5 
ROOT
HETATM    1  C5  UNL     1     -33.507   7.259   3.603  1.00 20.00     0.039 C 
HETATM    2  C6  UNL     1     -34.294   6.022   3.197  1.00 20.00     0.060 C 
HETATM    3  C7  UNL     1     -35.137   5.458   4.326  1.00 20.00     0.008 C 
HETATM    4  C8  UNL     1     -34.321   5.469   5.602  1.00 20.00     0.022 C 
HETATM    5  C9  UNL     1     -33.951   6.902   5.937  1.00 20.00     0.149 C 
HETATM    6  N10 UNL     1     -33.339   7.625   4.827  1.00 20.00    -0.293 NA
ENDROOT
BRANCH   1   7
HETATM    7  C4  UNL     1     -32.868   8.069   2.519  1.00 20.00    -0.005 A 
HETATM    8  C1  UNL     1     -31.564   7.854   1.984  1.00 20.00     0.021 A 
HETATM    9  C2  UNL     1     -31.253   8.764   0.998  1.00 20.00     0.050 A 
HETATM   10  S11 UNL     1     -32.528   9.872   0.720  1.00 20.00    -0.113 SA
HETATM   11  C3  UNL     1     -33.502   9.136   1.920  1.00 20.00     0.063 A 
ENDBRANCH   1   7
TORSDOF 1
ENDMDL
MODEL 2
REMARK VINA RESULT:      -4.4     10.780     11.286
REMARK  1 active torsions:
REMARK  status: ('A' for Active; 'I' for Inactive)
REMARK    1  A    between atoms: C4_4  and  C5_5 
ROOT
HETATM    1  C5  UNL     1     -34.970  15.781  -3.321  1.00 20.00     0.039 C 
HETATM    2  C6  UNL     1     -33.895  14.961  -4.020  1.00 20.00     0.060 C 
HETATM    3  C7  UNL     1     -34.388  14.303  -5.296  1.00 20.00     0.008 C 
HETATM    4  C8  UNL     1     -35.765  13.722  -5.051  1.00 20.00     0.022 C 
HETATM    5  C9  UNL     1     -36.716  14.847  -4.682  1.00 20.00     0.149 C 
HETATM    6  N10 UNL     1     -36.224  15.702  -3.606  1.00 20.00    -0.293 NA
ENDROOT
BRANCH   1   7
HETATM    7  C4  UNL     1     -34.543  16.702  -2.221  1.00 20.00    -0.005 A 
HETATM    8  C1  UNL     1     -35.312  17.021  -1.064  1.00 20.00     0.021 A 
HETATM    9  C2  UNL     1     -34.655  17.900  -0.232  1.00 20.00     0.050 A 
HETATM   10  S11 UNL     1     -33.117  18.338  -0.845  1.00 20.00    -0.113 SA
HETATM   11  C3  UNL     1     -33.327  17.351  -2.228  1.00 20.00     0.063 A 
ENDBRANCH   1   7
TORSDOF 1
ENDMDL
MODEL 3
REMARK VINA RESULT:      -4.4     10.783     11.411
REMARK  1 active torsions:
REMARK  status: ('A' for Active; 'I' for Inactive)
REMARK    1  A    between atoms: C4_4  and  C5_5 
ROOT
HETATM    1  C5  UNL     1     -33.982  17.061  -2.344  1.00 20.00     0.039 C 
HETATM    2  C6  UNL     1     -35.201  16.815  -1.467  1.00 20.00     0.060 C 
HETATM    3  C7  UNL     1     -35.358  17.850  -0.368  1.00 20.00     0.008 C 
HETATM    4  C8  UNL     1     -34.002  18.120   0.252  1.00 20.00     0.022 C 
HETATM    5  C9  UNL     1     -33.076  18.676  -0.814  1.00 20.00     0.149 C 
HETATM    6  N10 UNL     1     -33.031  17.871  -2.031  1.00 20.00    -0.293 NA
ENDROOT
BRANCH   1   7
HETATM    7  C4  UNL     1     -33.874  16.290  -3.624  1.00 20.00    -0.005 A 
HETATM    8  C1  UNL     1     -34.216  14.917  -3.794  1.00 20.00     0.021 A 
HETATM    9  C2  UNL     1     -34.006  14.488  -5.085  1.00 20.00     0.050 A 
HETATM   10  S11 UNL     1     -33.399  15.737  -6.087  1.00 20.00    -0.113 SA
HETATM   11  C3  UNL     1     -33.416  16.857  -4.793  1.00 20.00     0.063 A 
ENDBRANCH   1   7
TORSDOF 1
ENDMDL
MODEL 4
REMARK VINA RESULT:      -4.4     10.701     11.349
REMARK  1 active torsions:
REMARK  status: ('A' for Active; 'I' for Inactive)
REMARK    1  A    between atoms: C4_4  and  C5_5 
ROOT
HETATM    1  C5  UNL     1     -34.656  16.671  -2.484  1.00 20.00     0.039 C 
HETATM    2  C6  UNL     1     -35.391  16.920  -1.176  1.00 20.00     0.060 C 
HETATM    3  C7  UNL     1     -34.869  18.131  -0.424  1.00 20.00     0.008 C 
HETATM    4  C8  UNL     1     -33.355  18.124  -0.469  1.00 20.00     0.022 C 
HETATM    5  C9  UNL     1     -32.905  18.216  -1.916  1.00 20.00     0.149 C 
HETATM    6  N10 UNL     1     -33.538  17.233  -2.791  1.00 20.00    -0.293 NA
ENDROOT
BRANCH   1   7
HETATM    7  C4  UNL     1     -35.253  15.693  -3.448  1.00 20.00    -0.005 A 
HETATM    8  C1  UNL     1     -34.574  14.581  -4.025  1.00 20.00     0.021 A 
HETATM    9  C2  UNL     1     -35.385  13.865  -4.877  1.00 20.00     0.050 A 
HETATM   10  S11 UNL     1     -36.959  14.533  -4.979  1.00 20.00    -0.113 SA
HETATM   11  C3  UNL     1     -36.558  15.784  -3.881  1.00 20.00     0.063 A 
ENDBRANCH   1   7
TORSDOF 1
ENDMDL
MODEL 5
REMARK VINA RESULT:      -4.3     10.947     11.619
REMARK  1 active torsions:
REMARK  status: ('A' for Active; 'I' for Inactive)
REMARK    1  A    between atoms: C4_4  and  C5_5 
ROOT
HETATM    1  C5  UNL     1     -34.196  16.095  -3.578  1.00 20.00     0.039 C 
HETATM    2  C6  UNL     1     -35.209  14.993  -3.849  1.00 20.00     0.060 C 
HETATM    3  C7  UNL     1     -34.841  14.130  -5.042  1.00 20.00     0.008 C 
HETATM    4  C8  UNL     1     -34.353  15.022  -6.164  1.00 20.00     0.022 C 
HETATM    5  C9  UNL     1     -33.115  15.766  -5.699  1.00 20.00     0.149 C 
HETATM    6  N10 UNL     1     -33.286  16.448  -4.420  1.00 20.00    -0.293 NA
ENDROOT
BRANCH   1   7
HETATM    7  C4  UNL     1     -34.289  16.827  -2.275  1.00 20.00    -0.005 A 
HETATM    8  C1  UNL     1     -33.240  17.582  -1.675  1.00 20.00     0.021 A 
HETATM    9  C2  UNL     1     -33.625  18.139  -0.475  1.00 20.00     0.050 A 
HETATM   10  S11 UNL     1     -35.244  17.751  -0.077  1.00 20.00    -0.113 SA
HETATM   11  C3  UNL     1     -35.435  16.836  -1.511  1.00 20.00     0.063 A 
ENDBRANCH   1   7
TORSDOF 1
ENDMDL
MODEL 6
REMARK VINA RESULT:      -4.3     10.792     11.159
REMARK  1 active torsions:
REMARK  status: ('A' for Active; 'I' for Inactive)
REMARK    1  A    between atoms: C4_4  and  C5_5 
ROOT
HETATM    1  C5  UNL     1     -34.527  16.703  -2.103  1.00 20.00     0.039 C 
HETATM    2  C6  UNL     1     -33.290  17.570  -1.923  1.00 20.00     0.060 C 
HETATM    3  C7  UNL     1     -33.184  18.171  -0.534  1.00 20.00     0.008 C 
HETATM    4  C8  UNL     1     -34.548  18.675  -0.110  1.00 20.00     0.022 C 
HETATM    5  C9  UNL     1     -35.513  17.504  -0.064  1.00 20.00     0.149 C 
HETATM    6  N10 UNL     1     -35.521  16.702  -1.283  1.00 20.00    -0.293 NA
ENDROOT
BRANCH   1   7
HETATM    7  C4  UNL     1     -34.600  15.831  -3.318  1.00 20.00    -0.005 A 
HETATM    8  C1  UNL     1     -33.482  15.288  -4.015  1.00 20.00     0.021 A 
HETATM    9  C2  UNL     1     -33.866  14.527  -5.097  1.00 20.00     0.050 A 
HETATM   10  S11 UNL     1     -35.569  14.470  -5.270  1.00 20.00    -0.113 SA
HETATM   11  C3  UNL     1     -35.797  15.464  -3.895  1.00 20.00     0.063 A 
ENDBRANCH   1   7
TORSDOF 1
ENDMDL
MODEL 7
REMARK VINA RESULT:      -4.2      2.280      4.744
REMARK  1 active torsions:
REMARK  status: ('A' for Active; 'I' for Inactive)
REMARK    1  A    between atoms: C4_4  and  C5_5 
ROOT
HETATM    1  C5  UNL     1     -33.007   8.157   2.543  1.00 20.00     0.039 C 
HETATM    2  C6  UNL     1     -31.888   7.622   1.661  1.00 20.00     0.060 C 
HETATM    3  C7  UNL     1     -31.221   8.702   0.830  1.00 20.00     0.008 C 
HETATM    4  C8  UNL     1     -32.287   9.613   0.257  1.00 20.00     0.022 C 
HETATM    5  C9  UNL     1     -33.039  10.270   1.401  1.00 20.00     0.149 C 
HETATM    6  N10 UNL     1     -33.529   9.326   2.400  1.00 20.00    -0.293 NA
ENDROOT
BRANCH   1   7
HETATM    7  C4  UNL     1     -33.548   7.257   3.610  1.00 20.00    -0.005 A 
HETATM    8  C1  UNL     1     -33.510   7.520   5.011  1.00 20.00     0.021 A 
HETATM    9  C2  UNL     1     -34.084   6.505   5.744  1.00 20.00     0.050 A 
HETATM   10  S11 UNL     1     -34.666   5.241   4.745  1.00 20.00    -0.113 SA
HETATM   11  C3  UNL     1     -34.150   6.051   3.327  1.00 20.00     0.063 A 
ENDBRANCH   1   7
TORSDOF 1
ENDMDL
MODEL 8
REMARK VINA RESULT:      -4.1     11.128     12.131
REMARK  1 active torsions:
REMARK  status: ('A' for Active; 'I' for Inactive)
REMARK    1  A    between atoms: C4_4  and  C5_5 
ROOT
HETATM    1  C5  UNL     1     -34.025  16.382  -4.347  1.00 20.00     0.039 C 
HETATM    2  C6  UNL     1     -34.635  15.782  -3.090  1.00 20.00     0.060 C 
HETATM    3  C7  UNL     1     -34.754  16.781  -1.953  1.00 20.00     0.008 C 
HETATM    4  C8  UNL     1     -33.480  17.597  -1.879  1.00 20.00     0.022 C 
HETATM    5  C9  UNL     1     -33.306  18.357  -3.181  1.00 20.00     0.149 C 
HETATM    6  N10 UNL     1     -33.412  17.516  -4.370  1.00 20.00    -0.293 NA
ENDROOT
BRANCH   1   7
HETATM    7  C4  UNL     1     -34.114  15.592  -5.616  1.00 20.00    -0.005 A 
HETATM    8  C1  UNL     1     -33.728  16.054  -6.907  1.00 20.00     0.021 A 
HETATM    9  C2  UNL     1     -33.931  15.101  -7.880  1.00 20.00     0.050 A 
HETATM   10  S11 UNL     1     -34.585  13.655  -7.237  1.00 20.00    -0.113 SA
HETATM   11  C3  UNL     1     -34.598  14.302  -5.652  1.00 20.00     0.063 A 
ENDBRANCH   1   7
TORSDOF 1
ENDMDL
MODEL 9
REMARK VINA RESULT:      -4.1     11.174     11.876
REMARK  1 active torsions:
REMARK  status: ('A' for Active; 'I' for Inactive)
REMARK    1  A    between atoms: C4_4  and  C5_5 
ROOT
HETATM    1  C5  UNL     1     -34.740  15.255  -4.883  1.00 20.00     0.039 C 
HETATM    2  C6  UNL     1     -33.727  15.645  -5.949  1.00 20.00     0.060 C 
HETATM    3  C7  UNL     1     -34.018  15.018  -7.300  1.00 20.00     0.008 C 
HETATM    4  C8  UNL     1     -34.405  13.568  -7.098  1.00 20.00     0.022 C 
HETATM    5  C9  UNL     1     -35.664  13.508  -6.251  1.00 20.00     0.149 C 
HETATM    6  N10 UNL     1     -35.579  14.286  -5.018  1.00 20.00    -0.293 NA
ENDROOT
BRANCH   1   7
HETATM    7  C4  UNL     1     -34.734  16.022  -3.597  1.00 20.00    -0.005 A 
HETATM    8  C1  UNL     1     -33.570  16.459  -2.901  1.00 20.00     0.021 A 
HETATM    9  C2  UNL     1     -33.883  17.139  -1.745  1.00 20.00     0.050 A 
HETATM   10  S11 UNL     1     -35.575  17.249  -1.502  1.00 20.00    -0.113 SA
HETATM   11  C3  UNL     1     -35.893  16.385  -2.946  1.00 20.00     0.063 A 
ENDBRANCH   1   7
TORSDOF 1
ENDMDL
