MODEL 1
REMARK VINA RESULT:      -6.0      0.000      0.000
REMARK  1 active torsions:
REMARK  status: ('A' for Active; 'I' for Inactive)
REMARK    1  A    between atoms: C3_3  and  C4_4 
ROOT
HETATM    1  C1  UNL     1     -33.102   7.345   4.360  1.00 20.00     0.067 A 
HETATM    2  C2  UNL     1     -33.612   6.469   3.438  1.00 20.00     0.080 A 
HETATM    3  C3  UNL     1     -32.375   7.901   2.476  1.00 20.00     0.208 A 
HETATM    4  C5  UNL     1     -33.387   7.250   5.808  1.00 20.00     0.062 C 
HETATM    5  C6  UNL     1     -34.529   5.340   3.664  1.00 20.00     0.067 C 
HETATM    6  C7  UNL     1     -34.602   6.321   6.050  1.00 20.00     0.006 C 
HETATM    7  C8  UNL     1     -34.565   5.039   5.180  1.00 20.00     0.007 C 
HETATM    8  N9  UNL     1     -32.303   8.263   3.742  1.00 20.00    -0.224 NA
HETATM    9  O11 UNL     1     -33.159   6.812   2.207  1.00 20.00    -0.292 OA
ENDROOT
BRANCH   3  10
HETATM   10  C4  UNL     1     -31.709   8.552   1.401  1.00 20.00     0.316 C 
HETATM   11  O10 UNL     1     -32.068   9.646   0.907  1.00 20.00    -0.298 OA
ENDBRANCH   3  10
TORSDOF 1
ENDMDL
MODEL 2
REMARK VINA RESULT:      -6.0      0.987      1.865
REMARK  1 active torsions:
REMARK  status: ('A' for Active; 'I' for Inactive)
REMARK    1  A    between atoms: C3_3  and  C4_4 
ROOT
HETATM    1  C1  UNL     1     -33.629   6.311   3.473  1.00 20.00     0.067 A 
HETATM    2  C2  UNL     1     -33.246   7.228   4.417  1.00 20.00     0.080 A 
HETATM    3  C3  UNL     1     -32.466   7.768   2.518  1.00 20.00     0.208 A 
HETATM    4  C5  UNL     1     -34.481   5.143   3.781  1.00 20.00     0.062 C 
HETATM    5  C6  UNL     1     -33.543   7.229   5.858  1.00 20.00     0.067 C 
HETATM    6  C7  UNL     1     -34.524   4.906   5.311  1.00 20.00     0.006 C 
HETATM    7  C8  UNL     1     -34.682   6.217   6.121  1.00 20.00     0.007 C 
HETATM    8  N9  UNL     1     -33.131   6.661   2.251  1.00 20.00    -0.224 NA
HETATM    9  O11 UNL     1     -32.486   8.180   3.823  1.00 20.00    -0.292 OA
ENDROOT
BRANCH   3  10
HETATM   10  C4  UNL     1     -31.747   8.540   1.563  1.00 20.00     0.316 C 
HETATM   11  O10 UNL     1     -32.223   9.520   0.946  1.00 20.00    -0.298 OA
ENDBRANCH   3  10
TORSDOF 1
ENDMDL
MODEL 3
REMARK VINA RESULT:      -4.5     11.108     11.523
REMARK  1 active torsions:
REMARK  status: ('A' for Active; 'I' for Inactive)
REMARK    1  A    between atoms: C3_3  and  C4_4 
ROOT
HETATM    1  C1  UNL     1     -33.698  17.156  -1.958  1.00 20.00     0.067 A 
HETATM    2  C2  UNL     1     -34.964  16.937  -1.480  1.00 20.00     0.080 A 
HETATM    3  C3  UNL     1     -34.644  15.799  -3.243  1.00 20.00     0.208 A 
HETATM    4  C5  UNL     1     -32.727  18.050  -1.292  1.00 20.00     0.062 C 
HETATM    5  C6  UNL     1     -35.608  17.536  -0.300  1.00 20.00     0.067 C 
HETATM    6  C7  UNL     1     -33.456  18.960  -0.272  1.00 20.00     0.006 C 
HETATM    7  C8  UNL     1     -34.513  18.200   0.567  1.00 20.00     0.007 C 
HETATM    8  N9  UNL     1     -33.491  16.420  -3.089  1.00 20.00    -0.224 NA
HETATM    9  O11 UNL     1     -35.599  16.065  -2.300  1.00 20.00    -0.292 OA
ENDROOT
BRANCH   3  10
HETATM   10  C4  UNL     1     -34.951  14.896  -4.298  1.00 20.00     0.316 C 
HETATM   11  O10 UNL     1     -34.711  13.667  -4.268  1.00 20.00    -0.298 OA
ENDBRANCH   3  10
TORSDOF 1
ENDMDL
MODEL 4
REMARK VINA RESULT:      -4.4     11.115     11.562
REMARK  1 active torsions:
REMARK  status: ('A' for Active; 'I' for Inactive)
REMARK    1  A    between atoms: C3_3  and  C4_4 
ROOT
HETATM    1  C1  UNL     1     -34.976  16.973  -1.492  1.00 20.00     0.067 A 
HETATM    2  C2  UNL     1     -33.677  17.188  -1.873  1.00 20.00     0.080 A 
HETATM    3  C3  UNL     1     -34.614  15.832  -3.211  1.00 20.00     0.208 A 
HETATM    4  C5  UNL     1     -35.593  17.632  -0.321  1.00 20.00     0.062 C 
HETATM    5  C6  UNL     1     -32.664  18.033  -1.220  1.00 20.00     0.067 C 
HETATM    6  C7  UNL     1     -34.495  18.239   0.587  1.00 20.00     0.006 C 
HETATM    7  C8  UNL     1     -33.382  18.961  -0.212  1.00 20.00     0.007 C 
HETATM    8  N9  UNL     1     -35.580  16.105  -2.355  1.00 20.00    -0.224 NA
HETATM    9  O11 UNL     1     -33.417  16.455  -2.983  1.00 20.00    -0.292 OA
ENDROOT
BRANCH   3  10
HETATM   10  C4  UNL     1     -34.733  14.956  -4.325  1.00 20.00     0.316 C 
HETATM   11  O10 UNL     1     -34.568  13.716  -4.269  1.00 20.00    -0.298 OA
ENDBRANCH   3  10
TORSDOF 1
ENDMDL
MODEL 5
REMARK VINA RESULT:      -4.4     11.444     12.046
REMARK  1 active torsions:
REMARK  status: ('A' for Active; 'I' for Inactive)
REMARK    1  A    between atoms: C3_3  and  C4_4 
ROOT
HETATM    1  C1  UNL     1     -33.251  17.789  -1.703  1.00 20.00     0.067 A 
HETATM    2  C2  UNL     1     -34.228  17.655  -0.750  1.00 20.00     0.080 A 
HETATM    3  C3  UNL     1     -32.532  18.627   0.078  1.00 20.00     0.208 A 
HETATM    4  C5  UNL     1     -33.414  17.324  -3.096  1.00 20.00     0.062 C 
HETATM    5  C6  UNL     1     -35.551  17.023  -0.884  1.00 20.00     0.067 C 
HETATM    6  C7  UNL     1     -34.618  16.354  -3.196  1.00 20.00     0.006 C 
HETATM    7  C8  UNL     1     -35.850  16.837  -2.391  1.00 20.00     0.007 C 
HETATM    8  N9  UNL     1     -32.162  18.418  -1.171  1.00 20.00    -0.224 NA
HETATM    9  O11 UNL     1     -33.783  18.186   0.414  1.00 20.00    -0.292 OA
ENDROOT
BRANCH   3  10
HETATM   10  C4  UNL     1     -31.736  19.263   1.069  1.00 20.00     0.316 C 
HETATM   11  O10 UNL     1     -30.582  18.898   1.390  1.00 20.00    -0.298 OA
ENDBRANCH   3  10
TORSDOF 1
ENDMDL
MODEL 6
REMARK VINA RESULT:      -4.4     11.481     11.905
REMARK  1 active torsions:
REMARK  status: ('A' for Active; 'I' for Inactive)
REMARK    1  A    between atoms: C3_3  and  C4_4 
ROOT
HETATM    1  C1  UNL     1     -34.265  17.834  -0.406  1.00 20.00     0.067 A 
HETATM    2  C2  UNL     1     -33.275  17.648  -1.336  1.00 20.00     0.080 A 
HETATM    3  C3  UNL     1     -32.493  18.637   0.372  1.00 20.00     0.208 A 
HETATM    4  C5  UNL     1     -35.656  17.376  -0.605  1.00 20.00     0.062 C 
HETATM    5  C6  UNL     1     -33.380  17.028  -2.667  1.00 20.00     0.067 C 
HETATM    6  C7  UNL     1     -35.898  17.046  -2.099  1.00 20.00     0.006 C 
HETATM    7  C8  UNL     1     -34.724  16.267  -2.744  1.00 20.00     0.007 C 
HETATM    8  N9  UNL     1     -33.761  18.467   0.694  1.00 20.00    -0.224 NA
HETATM    9  O11 UNL     1     -32.117  18.164  -0.856  1.00 20.00    -0.292 OA
ENDROOT
BRANCH   3  10
HETATM   10  C4  UNL     1     -31.518  19.263   1.196  1.00 20.00     0.316 C 
HETATM   11  O10 UNL     1     -30.320  18.905   1.270  1.00 20.00    -0.298 OA
ENDBRANCH   3  10
TORSDOF 1
ENDMDL
MODEL 7
REMARK VINA RESULT:      -4.3     11.372     11.776
REMARK  1 active torsions:
REMARK  status: ('A' for Active; 'I' for Inactive)
REMARK    1  A    between atoms: C3_3  and  C4_4 
ROOT
HETATM    1  C1  UNL     1     -34.476  16.137  -3.172  1.00 20.00     0.067 A 
HETATM    2  C2  UNL     1     -35.780  16.432  -2.873  1.00 20.00     0.080 A 
HETATM    3  C3  UNL     1     -35.698  14.900  -4.341  1.00 20.00     0.208 A 
HETATM    4  C5  UNL     1     -33.328  16.804  -2.522  1.00 20.00     0.062 C 
HETATM    5  C6  UNL     1     -36.293  17.441  -1.932  1.00 20.00     0.067 C 
HETATM    6  C7  UNL     1     -33.800  18.093  -1.804  1.00 20.00     0.006 C 
HETATM    7  C8  UNL     1     -35.126  17.900  -1.027  1.00 20.00     0.007 C 
HETATM    8  N9  UNL     1     -34.423  15.149  -4.113  1.00 20.00    -0.224 NA
HETATM    9  O11 UNL     1     -36.592  15.647  -3.622  1.00 20.00    -0.292 OA
ENDROOT
BRANCH   3  10
HETATM   10  C4  UNL     1     -36.190  13.934  -5.260  1.00 20.00     0.316 C 
HETATM   11  O10 UNL     1     -35.902  12.716  -5.226  1.00 20.00    -0.298 OA
ENDBRANCH   3  10
TORSDOF 1
ENDMDL
MODEL 8
REMARK VINA RESULT:      -4.3     11.385     12.373
REMARK  1 active torsions:
REMARK  status: ('A' for Active; 'I' for Inactive)
REMARK    1  A    between atoms: C3_3  and  C4_4 
ROOT
HETATM    1  C1  UNL     1     -34.064  16.745  -4.612  1.00 20.00     0.067 A 
HETATM    2  C2  UNL     1     -34.409  16.135  -3.434  1.00 20.00     0.080 A 
HETATM    3  C3  UNL     1     -34.938  14.899  -5.077  1.00 20.00     0.208 A 
HETATM    4  C5  UNL     1     -33.403  18.065  -4.674  1.00 20.00     0.062 C 
HETATM    5  C6  UNL     1     -34.246  16.644  -2.063  1.00 20.00     0.067 C 
HETATM    6  C7  UNL     1     -33.529  18.787  -3.310  1.00 20.00     0.006 C 
HETATM    7  C8  UNL     1     -33.276  17.848  -2.104  1.00 20.00     0.007 C 
HETATM    8  N9  UNL     1     -34.401  15.948  -5.668  1.00 20.00    -0.224 NA
HETATM    9  O11 UNL     1     -34.983  14.938  -3.709  1.00 20.00    -0.292 OA
ENDROOT
BRANCH   3  10
HETATM   10  C4  UNL     1     -35.462  13.761  -5.749  1.00 20.00     0.316 C 
HETATM   11  O10 UNL     1     -35.906  12.742  -5.173  1.00 20.00    -0.298 OA
ENDBRANCH   3  10
TORSDOF 1
ENDMDL
MODEL 9
REMARK VINA RESULT:      -4.2     11.293     12.386
REMARK  1 active torsions:
REMARK  status: ('A' for Active; 'I' for Inactive)
REMARK    1  A    between atoms: C3_3  and  C4_4 
ROOT
HETATM    1  C1  UNL     1     -34.382  16.164  -3.392  1.00 20.00     0.067 A 
HETATM    2  C2  UNL     1     -34.055  16.769  -4.577  1.00 20.00     0.080 A 
HETATM    3  C3  UNL     1     -34.961  14.885  -4.947  1.00 20.00     0.208 A 
HETATM    4  C5  UNL     1     -34.136  16.785  -2.073  1.00 20.00     0.062 C 
HETATM    5  C6  UNL     1     -33.392  18.066  -4.785  1.00 20.00     0.067 C 
HETATM    6  C7  UNL     1     -33.140  17.963  -2.218  1.00 20.00     0.006 C 
HETATM    7  C8  UNL     1     -33.432  18.852  -3.453  1.00 20.00     0.007 C 
HETATM    8  N9  UNL     1     -34.969  14.954  -3.630  1.00 20.00    -0.224 NA
HETATM    9  O11 UNL     1     -34.415  15.957  -5.600  1.00 20.00    -0.292 OA
ENDROOT
BRANCH   3  10
HETATM   10  C4  UNL     1     -35.468  13.798  -5.711  1.00 20.00     0.316 C 
HETATM   11  O10 UNL     1     -35.885  12.724  -5.220  1.00 20.00    -0.298 OA
ENDBRANCH   3  10
TORSDOF 1
ENDMDL
