MODEL 1
REMARK VINA RESULT:      -5.1      0.000      0.000
REMARK  0 active torsions:
REMARK  status: ('A' for Active; 'I' for Inactive)
ROOT
HETATM    1  C1  UNL     1     -32.144   9.140   1.133  1.00 20.00     0.012 C 
HETATM    2  C2  UNL     1     -32.330   8.305   1.974  1.00 20.00    -0.113 C 
HETATM    3  C3  UNL     1     -33.507   6.196   2.492  1.00 20.00     0.047 C 
HETATM    4  C4  UNL     1     -33.133   7.913   4.278  1.00 20.00     0.047 C 
HETATM    5  C5  UNL     1     -33.849   5.187   3.591  1.00 20.00     0.273 C 
HETATM    6  C6  UNL     1     -33.486   6.848   5.318  1.00 20.00     0.273 C 
HETATM    7  C7  UNL     1     -32.558   7.282   3.007  1.00 20.00     0.067 C 
HETATM    8  C8  UNL     1     -34.789   4.877   5.787  1.00 20.00     0.309 C 
HETATM    9  N9  UNL     1     -34.421   5.858   4.766  1.00 20.00     0.084 N 
ENDROOT
TORSDOF 0
ENDMDL
MODEL 2
REMARK VINA RESULT:      -4.1     11.464     11.851
REMARK  0 active torsions:
REMARK  status: ('A' for Active; 'I' for Inactive)
ROOT
HETATM    1  C1  UNL     1     -33.006  17.835  -1.349  1.00 20.00     0.012 C 
HETATM    2  C2  UNL     1     -33.530  17.280  -2.275  1.00 20.00    -0.113 C 
HETATM    3  C3  UNL     1     -35.588  16.146  -3.040  1.00 20.00     0.047 C 
HETATM    4  C4  UNL     1     -33.342  15.396  -3.862  1.00 20.00     0.047 C 
HETATM    5  C5  UNL     1     -36.226  15.333  -4.169  1.00 20.00     0.273 C 
HETATM    6  C6  UNL     1     -34.055  14.609  -4.964  1.00 20.00     0.273 C 
HETATM    7  C7  UNL     1     -34.173  16.600  -3.411  1.00 20.00     0.067 C 
HETATM    8  C8  UNL     1     -36.038  13.386  -5.573  1.00 20.00     0.309 C 
HETATM    9  N9  UNL     1     -35.391  14.180  -4.529  1.00 20.00     0.084 N 
ENDROOT
TORSDOF 0
ENDMDL
MODEL 3
REMARK VINA RESULT:      -4.0      1.606      4.075
REMARK  0 active torsions:
REMARK  status: ('A' for Active; 'I' for Inactive)
ROOT
HETATM    1  C1  UNL     1     -34.723   4.964   5.976  1.00 20.00     0.012 C 
HETATM    2  C2  UNL     1     -34.406   5.780   5.154  1.00 20.00    -0.113 C 
HETATM    3  C3  UNL     1     -33.756   6.113   2.794  1.00 20.00     0.047 C 
HETATM    4  C4  UNL     1     -32.771   7.547   4.599  1.00 20.00     0.047 C 
HETATM    5  C5  UNL     1     -33.236   7.121   1.766  1.00 20.00     0.273 C 
HETATM    6  C6  UNL     1     -32.285   8.508   3.512  1.00 20.00     0.273 C 
HETATM    7  C7  UNL     1     -34.018   6.781   4.147  1.00 20.00     0.067 C 
HETATM    8  C8  UNL     1     -31.513   8.720   1.240  1.00 20.00     0.309 C 
HETATM    9  N9  UNL     1     -32.026   7.797   2.252  1.00 20.00     0.084 N 
ENDROOT
TORSDOF 0
ENDMDL
MODEL 4
REMARK VINA RESULT:      -4.0     11.654     12.601
REMARK  0 active torsions:
REMARK  status: ('A' for Active; 'I' for Inactive)
ROOT
HETATM    1  C1  UNL     1     -33.782  17.400  -1.694  1.00 20.00     0.012 C 
HETATM    2  C2  UNL     1     -33.704  16.674  -2.647  1.00 20.00    -0.113 C 
HETATM    3  C3  UNL     1     -33.342  16.590  -5.089  1.00 20.00     0.047 C 
HETATM    4  C4  UNL     1     -34.892  14.964  -3.977  1.00 20.00     0.047 C 
HETATM    5  C5  UNL     1     -33.358  15.693  -6.329  1.00 20.00     0.273 C 
HETATM    6  C6  UNL     1     -34.856  14.121  -5.253  1.00 20.00     0.273 C 
HETATM    7  C7  UNL     1     -33.608  15.784  -3.814  1.00 20.00     0.067 C 
HETATM    8  C8  UNL     1     -34.647  14.147  -7.652  1.00 20.00     0.309 C 
HETATM    9  N9  UNL     1     -34.626  14.960  -6.437  1.00 20.00     0.084 N 
ENDROOT
TORSDOF 0
ENDMDL
MODEL 5
REMARK VINA RESULT:      -4.0     11.331     12.439
REMARK  0 active torsions:
REMARK  status: ('A' for Active; 'I' for Inactive)
ROOT
HETATM    1  C1  UNL     1     -33.360  17.351  -1.802  1.00 20.00     0.012 C 
HETATM    2  C2  UNL     1     -33.790  16.857  -2.808  1.00 20.00    -0.113 C 
HETATM    3  C3  UNL     1     -34.698  14.787  -3.807  1.00 20.00     0.047 C 
HETATM    4  C4  UNL     1     -33.291  16.348  -5.174  1.00 20.00     0.047 C 
HETATM    5  C5  UNL     1     -35.136  14.109  -5.107  1.00 20.00     0.273 C 
HETATM    6  C6  UNL     1     -33.776  15.619  -6.429  1.00 20.00     0.273 C 
HETATM    7  C7  UNL     1     -34.318  16.252  -4.042  1.00 20.00     0.067 C 
HETATM    8  C8  UNL     1     -34.506  13.519  -7.356  1.00 20.00     0.309 C 
HETATM    9  N9  UNL     1     -34.093  14.214  -6.137  1.00 20.00     0.084 N 
ENDROOT
TORSDOF 0
ENDMDL
MODEL 6
REMARK VINA RESULT:      -3.9     11.365     11.958
REMARK  0 active torsions:
REMARK  status: ('A' for Active; 'I' for Inactive)
ROOT
HETATM    1  C1  UNL     1     -32.925  18.225  -1.690  1.00 20.00     0.012 C 
HETATM    2  C2  UNL     1     -33.627  17.343  -2.102  1.00 20.00    -0.113 C 
HETATM    3  C3  UNL     1     -33.774  15.469  -3.705  1.00 20.00     0.047 C 
HETATM    4  C4  UNL     1     -35.806  16.827  -3.147  1.00 20.00     0.047 C 
HETATM    5  C5  UNL     1     -34.697  14.417  -4.324  1.00 20.00     0.273 C 
HETATM    6  C6  UNL     1     -36.662  15.730  -3.784  1.00 20.00     0.273 C 
HETATM    7  C7  UNL     1     -34.488  16.262  -2.607  1.00 20.00     0.067 C 
HETATM    8  C8  UNL     1     -36.774  14.022  -5.478  1.00 20.00     0.309 C 
HETATM    9  N9  UNL     1     -35.925  15.032  -4.846  1.00 20.00     0.084 N 
ENDROOT
TORSDOF 0
ENDMDL
MODEL 7
REMARK VINA RESULT:      -3.8     11.531     12.073
REMARK  0 active torsions:
REMARK  status: ('A' for Active; 'I' for Inactive)
ROOT
HETATM    1  C1  UNL     1     -33.609  15.726  -3.786  1.00 20.00     0.012 C 
HETATM    2  C2  UNL     1     -33.804  16.557  -2.941  1.00 20.00    -0.113 C 
HETATM    3  C3  UNL     1     -32.742  17.923  -1.178  1.00 20.00     0.047 C 
HETATM    4  C4  UNL     1     -35.088  17.088  -0.898  1.00 20.00     0.047 C 
HETATM    5  C5  UNL     1     -32.992  18.892  -0.020  1.00 20.00     0.273 C 
HETATM    6  C6  UNL     1     -35.262  18.085   0.250  1.00 20.00     0.273 C 
HETATM    7  C7  UNL     1     -34.043  17.575  -1.906  1.00 20.00     0.067 C 
HETATM    8  C8  UNL     1     -34.173  19.262   2.047  1.00 20.00     0.309 C 
HETATM    9  N9  UNL     1     -33.981  18.348   0.921  1.00 20.00     0.084 N 
ENDROOT
TORSDOF 0
ENDMDL
MODEL 8
REMARK VINA RESULT:      -3.7     11.573     12.169
REMARK  0 active torsions:
REMARK  status: ('A' for Active; 'I' for Inactive)
ROOT
HETATM    1  C1  UNL     1     -33.550  18.733   1.811  1.00 20.00     0.012 C 
HETATM    2  C2  UNL     1     -33.868  18.486   0.680  1.00 20.00    -0.113 C 
HETATM    3  C3  UNL     1     -35.352  17.112  -0.740  1.00 20.00     0.047 C 
HETATM    4  C4  UNL     1     -33.047  17.716  -1.520  1.00 20.00     0.047 C 
HETATM    5  C5  UNL     1     -35.685  16.701  -2.176  1.00 20.00     0.273 C 
HETATM    6  C6  UNL     1     -33.457  17.286  -2.930  1.00 20.00     0.273 C 
HETATM    7  C7  UNL     1     -34.258  18.184  -0.706  1.00 20.00     0.067 C 
HETATM    8  C8  UNL     1     -34.828  15.800  -4.239  1.00 20.00     0.309 C 
HETATM    9  N9  UNL     1     -34.486  16.237  -2.886  1.00 20.00     0.084 N 
ENDROOT
TORSDOF 0
ENDMDL
MODEL 9
REMARK VINA RESULT:      -3.6     11.826     12.289
REMARK  0 active torsions:
REMARK  status: ('A' for Active; 'I' for Inactive)
ROOT
HETATM    1  C1  UNL     1     -31.081  19.060   1.556  1.00 20.00     0.012 C 
HETATM    2  C2  UNL     1     -31.973  18.914   0.767  1.00 20.00    -0.113 C 
HETATM    3  C3  UNL     1     -34.270  18.056   0.461  1.00 20.00     0.047 C 
HETATM    4  C4  UNL     1     -32.598  17.906  -1.401  1.00 20.00     0.047 C 
HETATM    5  C5  UNL     1     -35.371  17.754  -0.558  1.00 20.00     0.273 C 
HETATM    6  C6  UNL     1     -33.754  17.610  -2.359  1.00 20.00     0.273 C 
HETATM    7  C7  UNL     1     -33.067  18.735  -0.201  1.00 20.00     0.067 C 
HETATM    8  C8  UNL     1     -35.932  16.612  -2.603  1.00 20.00     0.309 C 
HETATM    9  N9  UNL     1     -34.859  16.934  -1.664  1.00 20.00     0.084 N 
ENDROOT
TORSDOF 0
ENDMDL
