MODEL 1
REMARK VINA RESULT:      -5.0      0.000      0.000
REMARK  0 active torsions:
REMARK  status: ('A' for Active; 'I' for Inactive)
ROOT
HETATM    1  C1  UNL     1     -35.477  18.260   1.339  1.00 20.00     0.050 A 
HETATM    2  C2  UNL     1     -33.792  18.983   2.946  1.00 20.00     0.062 A 
HETATM    3  C3  UNL     1     -33.162  18.425   0.728  1.00 20.00     0.034 A 
HETATM    4  C4  UNL     1     -34.477  18.129   0.390  1.00 20.00    -0.040 A 
HETATM    5  C5  UNL     1     -35.128  18.691   2.624  1.00 20.00     0.118 A 
HETATM    6  C6  UNL     1     -32.786  18.851   1.988  1.00 20.00     0.028 A 
HETATM    7  C7  UNL     1     -32.330  18.203  -0.443  1.00 20.00     0.161 A 
HETATM    8  C8  UNL     1     -34.625  17.688  -1.031  1.00 20.00     0.047 A 
HETATM    9  C9  UNL     1     -33.192  17.735  -1.592  1.00 20.00     0.088 A 
HETATM   10  O10 UNL     1     -31.125  18.364  -0.505  1.00 20.00    -0.292 OA
HETATM   11  F11 UNL     1     -36.078  18.826   3.558  1.00 20.00    -0.206 F 
HETATM   12 BR12 UNL     1     -31.010  19.263   2.483  1.00 20.00    -0.050 Br
ENDROOT
TORSDOF 0
ENDMDL
MODEL 2
REMARK VINA RESULT:      -4.9      1.789      2.896
REMARK  0 active torsions:
REMARK  status: ('A' for Active; 'I' for Inactive)
ROOT
HETATM    1  C1  UNL     1     -34.261  19.003   2.952  1.00 20.00     0.050 A 
HETATM    2  C2  UNL     1     -35.255  18.235   0.862  1.00 20.00     0.062 A 
HETATM    3  C3  UNL     1     -32.906  18.518   1.031  1.00 20.00     0.034 A 
HETATM    4  C4  UNL     1     -33.014  18.933   2.353  1.00 20.00    -0.040 A 
HETATM    5  C5  UNL     1     -35.386  18.650   2.199  1.00 20.00     0.118 A 
HETATM    6  C6  UNL     1     -33.998  18.164   0.261  1.00 20.00     0.028 A 
HETATM    7  C7  UNL     1     -31.500  18.538   0.662  1.00 20.00     0.161 A 
HETATM    8  C8  UNL     1     -31.691  19.261   2.968  1.00 20.00     0.047 A 
HETATM    9  C9  UNL     1     -30.676  18.999   1.841  1.00 20.00     0.088 A 
HETATM   10  O10 UNL     1     -31.042  18.233  -0.425  1.00 20.00    -0.292 OA
HETATM   11  F11 UNL     1     -36.602  18.709   2.756  1.00 20.00    -0.206 F 
HETATM   12 BR12 UNL     1     -33.889  17.596  -1.537  1.00 20.00    -0.050 Br
ENDROOT
TORSDOF 0
ENDMDL
MODEL 3
REMARK VINA RESULT:      -4.8      2.815      3.406
REMARK  0 active torsions:
REMARK  status: ('A' for Active; 'I' for Inactive)
ROOT
HETATM    1  C1  UNL     1     -31.772  18.413  -0.182  1.00 20.00     0.050 A 
HETATM    2  C2  UNL     1     -32.587  19.061   2.022  1.00 20.00     0.062 A 
HETATM    3  C3  UNL     1     -34.092  18.211   0.397  1.00 20.00     0.034 A 
HETATM    4  C4  UNL     1     -33.066  18.060  -0.527  1.00 20.00    -0.040 A 
HETATM    5  C5  UNL     1     -31.535  18.916   1.102  1.00 20.00     0.118 A 
HETATM    6  C6  UNL     1     -33.890  18.705   1.672  1.00 20.00     0.028 A 
HETATM    7  C7  UNL     1     -35.330  17.770  -0.222  1.00 20.00     0.161 A 
HETATM    8  C8  UNL     1     -33.539  17.508  -1.834  1.00 20.00     0.047 A 
HETATM    9  C9  UNL     1     -35.052  17.312  -1.634  1.00 20.00     0.088 A 
HETATM   10  O10 UNL     1     -36.429  17.763   0.303  1.00 20.00    -0.292 OA
HETATM   11  F11 UNL     1     -30.292  19.263   1.460  1.00 20.00    -0.206 F 
HETATM   12 BR12 UNL     1     -35.259  18.923   2.955  1.00 20.00    -0.050 Br
ENDROOT
TORSDOF 0
ENDMDL
MODEL 4
REMARK VINA RESULT:      -4.7      6.321      7.783
REMARK  0 active torsions:
REMARK  status: ('A' for Active; 'I' for Inactive)
ROOT
HETATM    1  C1  UNL     1     -37.132  15.228  -4.103  1.00 20.00     0.050 A 
HETATM    2  C2  UNL     1     -36.695  14.252  -6.293  1.00 20.00     0.062 A 
HETATM    3  C3  UNL     1     -34.929  15.236  -5.052  1.00 20.00     0.034 A 
HETATM    4  C4  UNL     1     -35.791  15.560  -4.012  1.00 20.00    -0.040 A 
HETATM    5  C5  UNL     1     -37.583  14.570  -5.252  1.00 20.00     0.118 A 
HETATM    6  C6  UNL     1     -35.344  14.587  -6.200  1.00 20.00     0.028 A 
HETATM    7  C7  UNL     1     -33.596  15.695  -4.698  1.00 20.00     0.161 A 
HETATM    8  C8  UNL     1     -35.102  16.259  -2.884  1.00 20.00     0.047 A 
HETATM    9  C9  UNL     1     -33.634  16.351  -3.339  1.00 20.00     0.088 A 
HETATM   10  O10 UNL     1     -32.594  15.575  -5.380  1.00 20.00    -0.292 OA
HETATM   11  F11 UNL     1     -38.876  14.238  -5.362  1.00 20.00    -0.206 F 
HETATM   12 BR12 UNL     1     -34.201  14.130  -7.633  1.00 20.00    -0.050 Br
ENDROOT
TORSDOF 0
ENDMDL
MODEL 5
REMARK VINA RESULT:      -4.6      2.942      3.953
REMARK  0 active torsions:
REMARK  status: ('A' for Active; 'I' for Inactive)
ROOT
HETATM    1  C1  UNL     1     -32.660  18.925   1.981  1.00 20.00     0.050 A 
HETATM    2  C2  UNL     1     -31.867  18.503  -0.286  1.00 20.00     0.062 A 
HETATM    3  C3  UNL     1     -34.153  18.177   0.257  1.00 20.00     0.034 A 
HETATM    4  C4  UNL     1     -33.933  18.561   1.575  1.00 20.00    -0.040 A 
HETATM    5  C5  UNL     1     -31.623  18.895   1.041  1.00 20.00     0.118 A 
HETATM    6  C6  UNL     1     -33.150  18.137  -0.693  1.00 20.00     0.028 A 
HETATM    7  C7  UNL     1     -35.561  17.851   0.108  1.00 20.00     0.161 A 
HETATM    8  C8  UNL     1     -35.175  18.521   2.406  1.00 20.00     0.047 A 
HETATM    9  C9  UNL     1     -36.266  18.046   1.430  1.00 20.00     0.088 A 
HETATM   10  O10 UNL     1     -36.104  17.477  -0.916  1.00 20.00    -0.292 OA
HETATM   11  F11 UNL     1     -30.384  19.244   1.410  1.00 20.00    -0.206 F 
HETATM   12 BR12 UNL     1     -33.412  17.622  -2.491  1.00 20.00    -0.050 Br
ENDROOT
TORSDOF 0
ENDMDL
MODEL 6
REMARK VINA RESULT:      -4.6      3.076      4.339
REMARK  0 active torsions:
REMARK  status: ('A' for Active; 'I' for Inactive)
ROOT
HETATM    1  C1  UNL     1     -32.123  18.188  -0.816  1.00 20.00     0.050 A 
HETATM    2  C2  UNL     1     -34.521  17.752  -0.874  1.00 20.00     0.062 A 
HETATM    3  C3  UNL     1     -33.495  18.508   1.127  1.00 20.00     0.034 A 
HETATM    4  C4  UNL     1     -32.248  18.549   0.515  1.00 20.00    -0.040 A 
HETATM    5  C5  UNL     1     -33.270  17.788  -1.511  1.00 20.00     0.118 A 
HETATM    6  C6  UNL     1     -34.645  18.117   0.467  1.00 20.00     0.028 A 
HETATM    7  C7  UNL     1     -33.338  18.932   2.508  1.00 20.00     0.161 A 
HETATM    8  C8  UNL     1     -31.163  19.004   1.439  1.00 20.00     0.047 A 
HETATM    9  C9  UNL     1     -31.888  19.261   2.772  1.00 20.00     0.088 A 
HETATM   10  O10 UNL     1     -34.227  19.016   3.336  1.00 20.00    -0.292 OA
HETATM   11  F11 UNL     1     -33.174  17.435  -2.800  1.00 20.00    -0.206 F 
HETATM   12 BR12 UNL     1     -36.355  18.049   1.266  1.00 20.00    -0.050 Br
ENDROOT
TORSDOF 0
ENDMDL
MODEL 7
REMARK VINA RESULT:      -4.5     12.724     13.048
REMARK  0 active torsions:
REMARK  status: ('A' for Active; 'I' for Inactive)
ROOT
HETATM    1  C1  UNL     1     -32.716   8.189   4.497  1.00 20.00     0.050 A 
HETATM    2  C2  UNL     1     -32.220   6.942   2.462  1.00 20.00     0.062 A 
HETATM    3  C3  UNL     1     -33.582   5.978   4.148  1.00 20.00     0.034 A 
HETATM    4  C4  UNL     1     -33.466   7.113   4.942  1.00 20.00    -0.040 A 
HETATM    5  C5  UNL     1     -32.092   8.099   3.248  1.00 20.00     0.118 A 
HETATM    6  C6  UNL     1     -32.977   5.859   2.911  1.00 20.00     0.028 A 
HETATM    7  C7  UNL     1     -34.415   5.016   4.850  1.00 20.00     0.161 A 
HETATM    8  C8  UNL     1     -34.211   6.997   6.233  1.00 20.00     0.047 A 
HETATM    9  C9  UNL     1     -34.847   5.596   6.176  1.00 20.00     0.088 A 
HETATM   10  O10 UNL     1     -34.726   3.910   4.446  1.00 20.00    -0.292 OA
HETATM   11  F11 UNL     1     -31.362   9.127   2.796  1.00 20.00    -0.206 F 
HETATM   12 BR12 UNL     1     -33.113   4.333   1.806  1.00 20.00    -0.050 Br
ENDROOT
TORSDOF 0
ENDMDL
MODEL 8
REMARK VINA RESULT:      -4.5      6.163      7.669
REMARK  0 active torsions:
REMARK  status: ('A' for Active; 'I' for Inactive)
ROOT
HETATM    1  C1  UNL     1     -34.746  14.238  -4.628  1.00 20.00     0.050 A 
HETATM    2  C2  UNL     1     -37.104  14.247  -5.244  1.00 20.00     0.062 A 
HETATM    3  C3  UNL     1     -36.260  15.872  -3.736  1.00 20.00     0.034 A 
HETATM    4  C4  UNL     1     -34.980  15.337  -3.820  1.00 20.00    -0.040 A 
HETATM    5  C5  UNL     1     -35.817  13.692  -5.344  1.00 20.00     0.118 A 
HETATM    6  C6  UNL     1     -37.338  15.355  -4.430  1.00 20.00     0.028 A 
HETATM    7  C7  UNL     1     -36.220  17.006  -2.828  1.00 20.00     0.161 A 
HETATM    8  C8  UNL     1     -33.988  16.072  -2.976  1.00 20.00     0.047 A 
HETATM    9  C9  UNL     1     -34.814  17.188  -2.311  1.00 20.00     0.088 A 
HETATM   10  O10 UNL     1     -37.166  17.710  -2.522  1.00 20.00    -0.292 OA
HETATM   11  F11 UNL     1     -35.615  12.629  -6.133  1.00 20.00    -0.206 F 
HETATM   12 BR12 UNL     1     -39.090  16.055  -4.341  1.00 20.00    -0.050 Br
ENDROOT
TORSDOF 0
ENDMDL
MODEL 9
REMARK VINA RESULT:      -4.4      5.390      6.644
REMARK  0 active torsions:
REMARK  status: ('A' for Active; 'I' for Inactive)
ROOT
HETATM    1  C1  UNL     1     -36.501  16.980  -3.176  1.00 20.00     0.050 A 
HETATM    2  C2  UNL     1     -34.135  16.401  -3.087  1.00 20.00     0.062 A 
HETATM    3  C3  UNL     1     -35.658  15.013  -4.263  1.00 20.00     0.034 A 
HETATM    4  C4  UNL     1     -36.723  15.845  -3.938  1.00 20.00    -0.040 A 
HETATM    5  C5  UNL     1     -35.198  17.256  -2.749  1.00 20.00     0.118 A 
HETATM    6  C6  UNL     1     -34.360  15.259  -3.856  1.00 20.00     0.028 A 
HETATM    7  C7  UNL     1     -36.169  13.911  -5.060  1.00 20.00     0.161 A 
HETATM    8  C8  UNL     1     -38.025  15.364  -4.494  1.00 20.00     0.047 A 
HETATM    9  C9  UNL     1     -37.659  14.071  -5.245  1.00 20.00     0.088 A 
HETATM   10  O10 UNL     1     -35.510  12.994  -5.517  1.00 20.00    -0.292 OA
HETATM   11  F11 UNL     1     -34.959  18.347  -2.011  1.00 20.00    -0.206 F 
HETATM   12 BR12 UNL     1     -32.889  14.151  -4.277  1.00 20.00    -0.050 Br
ENDROOT
TORSDOF 0
ENDMDL
