MODEL 1
REMARK VINA RESULT:      -4.7      0.000      0.000
REMARK  0 active torsions:
REMARK  status: ('A' for Active; 'I' for Inactive)
ROOT
HETATM    1  C1  UNL     1     -34.115   5.477   3.913  1.00 20.00     0.014 C 
HETATM    2  C2  UNL     1     -33.766   5.442   2.459  1.00 20.00     0.085 C 
HETATM    3  C3  UNL     1     -34.148   6.317   6.043  1.00 20.00     0.034 C 
HETATM    4  C4  UNL     1     -34.789   4.942   5.942  1.00 20.00     0.149 C 
HETATM    5  C5  UNL     1     -32.619   6.413   2.178  1.00 20.00     0.277 C 
HETATM    6  C6  UNL     1     -33.000   7.680   4.209  1.00 20.00     0.282 C 
HETATM    7  C7  UNL     1     -34.179   6.800   4.609  1.00 20.00     0.063 C 
HETATM    8  C8  UNL     1     -31.818   8.680   2.362  1.00 20.00     0.309 C 
HETATM    9  N9  UNL     1     -34.439   4.425   4.601  1.00 20.00    -0.298 NA
HETATM   10  N10 UNL     1     -32.884   7.751   2.741  1.00 20.00     0.085 N 
ENDROOT
TORSDOF 0
ENDMDL
MODEL 2
REMARK VINA RESULT:      -4.0     11.682     13.216
REMARK  0 active torsions:
REMARK  status: ('A' for Active; 'I' for Inactive)
ROOT
HETATM    1  C1  UNL     1     -34.730  14.078  -5.428  1.00 20.00     0.014 C 
HETATM    2  C2  UNL     1     -34.610  14.539  -4.010  1.00 20.00     0.085 C 
HETATM    3  C3  UNL     1     -34.644  14.263  -7.709  1.00 20.00     0.034 C 
HETATM    4  C4  UNL     1     -35.198  12.924  -7.247  1.00 20.00     0.149 C 
HETATM    5  C5  UNL     1     -34.576  16.067  -3.964  1.00 20.00     0.277 C 
HETATM    6  C6  UNL     1     -33.933  16.270  -6.292  1.00 20.00     0.282 C 
HETATM    7  C7  UNL     1     -33.911  14.757  -6.480  1.00 20.00     0.063 C 
HETATM    8  C8  UNL     1     -33.503  18.075  -4.755  1.00 20.00     0.309 C 
HETATM    9  N9  UNL     1     -35.455  13.067  -5.797  1.00 20.00    -0.298 NA
HETATM   10  N10 UNL     1     -33.583  16.622  -4.904  1.00 20.00     0.085 N 
ENDROOT
TORSDOF 0
ENDMDL
MODEL 3
REMARK VINA RESULT:      -4.0      1.418      2.462
REMARK  0 active torsions:
REMARK  status: ('A' for Active; 'I' for Inactive)
ROOT
HETATM    1  C1  UNL     1     -32.952   7.346   4.328  1.00 20.00     0.014 C 
HETATM    2  C2  UNL     1     -31.834   8.341   4.306  1.00 20.00     0.085 C 
HETATM    3  C3  UNL     1     -34.607   6.030   3.450  1.00 20.00     0.034 C 
HETATM    4  C4  UNL     1     -34.566   5.990   4.970  1.00 20.00     0.149 C 
HETATM    5  C5  UNL     1     -31.850   9.106   2.982  1.00 20.00     0.277 C 
HETATM    6  C6  UNL     1     -33.172   7.418   1.852  1.00 20.00     0.282 C 
HETATM    7  C7  UNL     1     -33.226   6.541   3.097  1.00 20.00     0.063 C 
HETATM    8  C8  UNL     1     -31.824   8.955   0.576  1.00 20.00     0.309 C 
HETATM    9  N9  UNL     1     -33.660   7.084   5.383  1.00 20.00    -0.298 NA
HETATM   10  N10 UNL     1     -31.919   8.196   1.823  1.00 20.00     0.085 N 
ENDROOT
TORSDOF 0
ENDMDL
MODEL 4
REMARK VINA RESULT:      -3.9     11.879     12.556
REMARK  0 active torsions:
REMARK  status: ('A' for Active; 'I' for Inactive)
ROOT
HETATM    1  C1  UNL     1     -34.989  14.173  -4.822  1.00 20.00     0.014 C 
HETATM    2  C2  UNL     1     -36.165  13.406  -5.339  1.00 20.00     0.085 C 
HETATM    3  C3  UNL     1     -33.897  15.930  -3.840  1.00 20.00     0.034 C 
HETATM    4  C4  UNL     1     -32.946  14.874  -4.383  1.00 20.00     0.149 C 
HETATM    5  C5  UNL     1     -37.364  14.341  -5.495  1.00 20.00     0.277 C 
HETATM    6  C6  UNL     1     -36.449  16.006  -3.990  1.00 20.00     0.282 C 
HETATM    7  C7  UNL     1     -35.201  15.170  -3.727  1.00 20.00     0.063 C 
HETATM    8  C8  UNL     1     -38.819  15.937  -4.421  1.00 20.00     0.309 C 
HETATM    9  N9  UNL     1     -33.770  13.974  -5.220  1.00 20.00    -0.298 NA
HETATM   10  N10 UNL     1     -37.603  15.135  -4.274  1.00 20.00     0.085 N 
ENDROOT
TORSDOF 0
ENDMDL
MODEL 5
REMARK VINA RESULT:      -3.9      1.186      4.125
REMARK  0 active torsions:
REMARK  status: ('A' for Active; 'I' for Inactive)
ROOT
HETATM    1  C1  UNL     1     -32.778   7.832   4.352  1.00 20.00     0.014 C 
HETATM    2  C2  UNL     1     -33.450   7.564   5.661  1.00 20.00     0.085 C 
HETATM    3  C3  UNL     1     -32.188   7.432   2.175  1.00 20.00     0.034 C 
HETATM    4  C4  UNL     1     -31.484   8.646   2.764  1.00 20.00     0.149 C 
HETATM    5  C5  UNL     1     -33.886   6.101   5.729  1.00 20.00     0.277 C 
HETATM    6  C6  UNL     1     -33.796   5.809   3.324  1.00 20.00     0.282 C 
HETATM    7  C7  UNL     1     -33.370   7.257   3.104  1.00 20.00     0.063 C 
HETATM    8  C8  UNL     1     -35.134   4.327   4.674  1.00 20.00     0.309 C 
HETATM    9  N9  UNL     1     -31.740   8.600   4.220  1.00 20.00    -0.298 NA
HETATM   10  N10 UNL     1     -34.642   5.698   4.527  1.00 20.00     0.085 N 
ENDROOT
TORSDOF 0
ENDMDL
MODEL 6
REMARK VINA RESULT:      -3.8     11.921     13.156
REMARK  0 active torsions:
REMARK  status: ('A' for Active; 'I' for Inactive)
ROOT
HETATM    1  C1  UNL     1     -33.605  16.891  -4.583  1.00 20.00     0.014 C 
HETATM    2  C2  UNL     1     -33.641  16.441  -6.010  1.00 20.00     0.085 C 
HETATM    3  C3  UNL     1     -34.098  16.824  -2.348  1.00 20.00     0.034 C 
HETATM    4  C4  UNL     1     -33.310  18.065  -2.741  1.00 20.00     0.149 C 
HETATM    5  C5  UNL     1     -34.800  15.465  -6.214  1.00 20.00     0.277 C 
HETATM    6  C6  UNL     1     -34.980  14.953  -3.851  1.00 20.00     0.282 C 
HETATM    7  C7  UNL     1     -33.823  15.882  -3.501  1.00 20.00     0.063 C 
HETATM    8  C8  UNL     1     -35.853  13.420  -5.493  1.00 20.00     0.309 C 
HETATM    9  N9  UNL     1     -33.322  18.105  -4.220  1.00 20.00    -0.298 NA
HETATM   10  N10 UNL     1     -34.798  14.391  -5.202  1.00 20.00     0.085 N 
ENDROOT
TORSDOF 0
ENDMDL
MODEL 7
REMARK VINA RESULT:      -3.7     11.738     12.522
REMARK  0 active torsions:
REMARK  status: ('A' for Active; 'I' for Inactive)
ROOT
HETATM    1  C1  UNL     1     -34.856  14.900  -4.173  1.00 20.00     0.014 C 
HETATM    2  C2  UNL     1     -33.824  15.686  -3.427  1.00 20.00     0.085 C 
HETATM    3  C3  UNL     1     -36.950  14.388  -4.945  1.00 20.00     0.034 C 
HETATM    4  C4  UNL     1     -35.918  13.327  -5.293  1.00 20.00     0.149 C 
HETATM    5  C5  UNL     1     -34.507  16.618  -2.426  1.00 20.00     0.277 C 
HETATM    6  C6  UNL     1     -36.642  16.522  -3.570  1.00 20.00     0.282 C 
HETATM    7  C7  UNL     1     -36.090  15.598  -4.650  1.00 20.00     0.063 C 
HETATM    8  C8  UNL     1     -36.138  18.363  -2.099  1.00 20.00     0.309 C 
HETATM    9  N9  UNL     1     -34.714  13.652  -4.497  1.00 20.00    -0.298 NA
HETATM   10  N10 UNL     1     -35.581  17.408  -3.058  1.00 20.00     0.085 N 
ENDROOT
TORSDOF 0
ENDMDL
MODEL 8
REMARK VINA RESULT:      -3.7     12.287     13.236
REMARK  0 active torsions:
REMARK  status: ('A' for Active; 'I' for Inactive)
ROOT
HETATM    1  C1  UNL     1     -33.406  17.959  -2.817  1.00 20.00     0.014 C 
HETATM    2  C2  UNL     1     -33.577  17.679  -4.277  1.00 20.00     0.085 C 
HETATM    3  C3  UNL     1     -33.938  17.890  -0.591  1.00 20.00     0.034 C 
HETATM    4  C4  UNL     1     -32.734  18.774  -0.883  1.00 20.00     0.149 C 
HETATM    5  C5  UNL     1     -35.012  17.230  -4.553  1.00 20.00     0.277 C 
HETATM    6  C6  UNL     1     -35.422  16.622  -2.242  1.00 20.00     0.282 C 
HETATM    7  C7  UNL     1     -34.010  17.016  -1.825  1.00 20.00     0.063 C 
HETATM    8  C8  UNL     1     -36.770  15.674  -4.001  1.00 20.00     0.309 C 
HETATM    9  N9  UNL     1     -32.697  18.942  -2.352  1.00 20.00    -0.298 NA
HETATM   10  N10 UNL     1     -35.434  16.151  -3.640  1.00 20.00     0.085 N 
ENDROOT
TORSDOF 0
ENDMDL
MODEL 9
REMARK VINA RESULT:      -3.7     12.028     13.197
REMARK  0 active torsions:
REMARK  status: ('A' for Active; 'I' for Inactive)
ROOT
HETATM    1  C1  UNL     1     -37.066  14.317  -5.355  1.00 20.00     0.014 C 
HETATM    2  C2  UNL     1     -35.894  13.410  -5.151  1.00 20.00     0.085 C 
HETATM    3  C3  UNL     1     -38.142  16.310  -5.694  1.00 20.00     0.034 C 
HETATM    4  C4  UNL     1     -39.103  15.152  -5.470  1.00 20.00     0.149 C 
HETATM    5  C5  UNL     1     -34.665  14.231  -4.760  1.00 20.00     0.277 C 
HETATM    6  C6  UNL     1     -35.586  16.297  -5.632  1.00 20.00     0.282 C 
HETATM    7  C7  UNL     1     -36.864  15.604  -6.092  1.00 20.00     0.063 C 
HETATM    8  C8  UNL     1     -33.205  16.059  -5.341  1.00 20.00     0.309 C 
HETATM    9  N9  UNL     1     -38.276  14.023  -4.989  1.00 20.00    -0.298 NA
HETATM   10  N10 UNL     1     -34.446  15.362  -5.682  1.00 20.00     0.085 N 
ENDROOT
TORSDOF 0
ENDMDL
