MODEL 1
REMARK VINA RESULT:      -5.1      0.000      0.000
REMARK  0 active torsions:
REMARK  status: ('A' for Active; 'I' for Inactive)
ROOT
HETATM    1  C1  UNL     1     -32.703   7.258   2.259  1.00 20.00     0.034 A 
HETATM    2  C2  UNL     1     -33.446   7.208   5.698  1.00 20.00     0.027 A 
HETATM    3  C3  UNL     1     -31.797   8.227   2.893  1.00 20.00     0.118 A 
HETATM    4  C4  UNL     1     -34.440   5.855   3.454  1.00 20.00     0.124 A 
HETATM    5  C5  UNL     1     -33.365   6.841   3.333  1.00 20.00     0.011 A 
HETATM    6  C6  UNL     1     -32.904   7.494   4.515  1.00 20.00     0.066 A 
HETATM    7  C7  UNL     1     -34.555   6.191   5.819  1.00 20.00     0.178 A 
HETATM    8  N8  UNL     1     -31.905   8.368   4.183  1.00 20.00    -0.261 NA
HETATM    9  N9  UNL     1     -35.003   5.535   4.566  1.00 20.00    -0.297 NA
ENDROOT
TORSDOF 0
ENDMDL
MODEL 2
REMARK VINA RESULT:      -5.0      1.148      1.983
REMARK  0 active torsions:
REMARK  status: ('A' for Active; 'I' for Inactive)
ROOT
HETATM    1  C1  UNL     1     -31.997   8.431   4.137  1.00 20.00     0.034 A 
HETATM    2  C2  UNL     1     -34.278   5.877   3.324  1.00 20.00     0.027 A 
HETATM    3  C3  UNL     1     -31.895   8.231   2.684  1.00 20.00     0.118 A 
HETATM    4  C4  UNL     1     -33.531   7.160   5.702  1.00 20.00     0.124 A 
HETATM    5  C5  UNL     1     -32.925   7.522   4.419  1.00 20.00     0.011 A 
HETATM    6  C6  UNL     1     -33.349   6.830   3.246  1.00 20.00     0.066 A 
HETATM    7  C7  UNL     1     -34.900   5.507   4.648  1.00 20.00     0.178 A 
HETATM    8  N8  UNL     1     -32.664   7.318   2.167  1.00 20.00    -0.261 NA
HETATM    9  N9  UNL     1     -34.431   6.251   5.842  1.00 20.00    -0.297 NA
ENDROOT
TORSDOF 0
ENDMDL
MODEL 3
REMARK VINA RESULT:      -4.7      0.793      3.646
REMARK  0 active torsions:
REMARK  status: ('A' for Active; 'I' for Inactive)
ROOT
HETATM    1  C1  UNL     1     -33.919   6.885   6.003  1.00 20.00     0.034 A 
HETATM    2  C2  UNL     1     -33.526   6.308   2.554  1.00 20.00     0.027 A 
HETATM    3  C3  UNL     1     -34.826   5.779   5.661  1.00 20.00     0.118 A 
HETATM    4  C4  UNL     1     -32.394   8.100   4.387  1.00 20.00     0.124 A 
HETATM    5  C5  UNL     1     -33.393   7.116   4.804  1.00 20.00     0.011 A 
HETATM    6  C6  UNL     1     -33.930   6.232   3.821  1.00 20.00     0.066 A 
HETATM    7  C7  UNL     1     -32.496   7.325   2.127  1.00 20.00     0.178 A 
HETATM    8  N8  UNL     1     -34.839   5.400   4.417  1.00 20.00    -0.261 NA
HETATM    9  N9  UNL     1     -31.963   8.223   3.180  1.00 20.00    -0.297 NA
ENDROOT
TORSDOF 0
ENDMDL
MODEL 4
REMARK VINA RESULT:      -4.6      1.324      3.076
REMARK  0 active torsions:
REMARK  status: ('A' for Active; 'I' for Inactive)
ROOT
HETATM    1  C1  UNL     1     -34.786   5.297   4.444  1.00 20.00     0.034 A 
HETATM    2  C2  UNL     1     -32.558   8.021   4.511  1.00 20.00     0.027 A 
HETATM    3  C3  UNL     1     -34.785   5.798   5.826  1.00 20.00     0.118 A 
HETATM    4  C4  UNL     1     -33.431   6.245   2.526  1.00 20.00     0.124 A 
HETATM    5  C5  UNL     1     -33.921   6.148   3.901  1.00 20.00     0.011 A 
HETATM    6  C6  UNL     1     -33.438   7.083   4.864  1.00 20.00     0.066 A 
HETATM    7  C7  UNL     1     -32.054   8.117   3.092  1.00 20.00     0.178 A 
HETATM    8  N8  UNL     1     -34.017   6.819   6.075  1.00 20.00    -0.261 NA
HETATM    9  N9  UNL     1     -32.583   7.127   2.123  1.00 20.00    -0.297 NA
ENDROOT
TORSDOF 0
ENDMDL
MODEL 5
REMARK VINA RESULT:      -4.3      1.217      1.522
REMARK  0 active torsions:
REMARK  status: ('A' for Active; 'I' for Inactive)
ROOT
HETATM    1  C1  UNL     1     -33.405   5.293   2.200  1.00 20.00     0.034 A 
HETATM    2  C2  UNL     1     -33.763   7.202   5.135  1.00 20.00     0.027 A 
HETATM    3  C3  UNL     1     -32.897   6.637   1.886  1.00 20.00     0.118 A 
HETATM    4  C4  UNL     1     -34.343   4.551   4.433  1.00 20.00     0.124 A 
HETATM    5  C5  UNL     1     -33.753   5.482   3.469  1.00 20.00     0.011 A 
HETATM    6  C6  UNL     1     -33.482   6.817   3.890  1.00 20.00     0.066 A 
HETATM    7  C7  UNL     1     -34.372   6.240   6.126  1.00 20.00     0.178 A 
HETATM    8  N8  UNL     1     -32.937   7.514   2.846  1.00 20.00    -0.261 NA
HETATM    9  N9  UNL     1     -34.636   4.861   5.647  1.00 20.00    -0.297 NA
ENDROOT
TORSDOF 0
ENDMDL
MODEL 6
REMARK VINA RESULT:      -4.2     11.480     12.727
REMARK  0 active torsions:
REMARK  status: ('A' for Active; 'I' for Inactive)
ROOT
HETATM    1  C1  UNL     1     -34.324  14.045  -7.622  1.00 20.00     0.034 A 
HETATM    2  C2  UNL     1     -34.689  14.465  -4.147  1.00 20.00     0.027 A 
HETATM    3  C3  UNL     1     -35.193  12.952  -7.161  1.00 20.00     0.118 A 
HETATM    4  C4  UNL     1     -33.315  15.850  -6.160  1.00 20.00     0.124 A 
HETATM    5  C5  UNL     1     -34.108  14.658  -6.463  1.00 20.00     0.011 A 
HETATM    6  C6  UNL     1     -34.783  13.999  -5.393  1.00 20.00     0.066 A 
HETATM    7  C7  UNL     1     -33.869  15.694  -3.839  1.00 20.00     0.178 A 
HETATM    8  N8  UNL     1     -35.460  12.918  -5.888  1.00 20.00    -0.261 NA
HETATM    9  N9  UNL     1     -33.185  16.348  -4.980  1.00 20.00    -0.297 NA
ENDROOT
TORSDOF 0
ENDMDL
MODEL 7
REMARK VINA RESULT:      -4.0     11.555     12.489
REMARK  0 active torsions:
REMARK  status: ('A' for Active; 'I' for Inactive)
ROOT
HETATM    1  C1  UNL     1     -34.519  15.525  -3.572  1.00 20.00     0.034 A 
HETATM    2  C2  UNL     1     -33.980  14.585  -6.920  1.00 20.00     0.027 A 
HETATM    3  C3  UNL     1     -33.572  16.502  -4.130  1.00 20.00     0.118 A 
HETATM    4  C4  UNL     1     -35.533  13.569  -4.820  1.00 20.00     0.124 A 
HETATM    5  C5  UNL     1     -34.699  14.758  -4.643  1.00 20.00     0.011 A 
HETATM    6  C6  UNL     1     -33.933  15.225  -5.752  1.00 20.00     0.066 A 
HETATM    7  C7  UNL     1     -34.841  13.358  -7.099  1.00 20.00     0.178 A 
HETATM    8  N8  UNL     1     -33.232  16.338  -5.375  1.00 20.00    -0.261 NA
HETATM    9  N9  UNL     1     -35.621  12.908  -5.921  1.00 20.00    -0.297 NA
ENDROOT
TORSDOF 0
ENDMDL
MODEL 8
REMARK VINA RESULT:      -3.9     11.486     11.993
REMARK  0 active torsions:
REMARK  status: ('A' for Active; 'I' for Inactive)
ROOT
HETATM    1  C1  UNL     1     -34.016  15.730  -3.621  1.00 20.00     0.034 A 
HETATM    2  C2  UNL     1     -36.209  13.625  -5.394  1.00 20.00     0.027 A 
HETATM    3  C3  UNL     1     -33.181  14.695  -4.248  1.00 20.00     0.118 A 
HETATM    4  C4  UNL     1     -36.535  15.915  -3.811  1.00 20.00     0.124 A 
HETATM    5  C5  UNL     1     -35.211  15.338  -4.051  1.00 20.00     0.011 A 
HETATM    6  C6  UNL     1     -35.114  14.172  -4.866  1.00 20.00     0.066 A 
HETATM    7  C7  UNL     1     -37.572  14.222  -5.145  1.00 20.00     0.178 A 
HETATM    8  N8  UNL     1     -33.800  13.801  -4.962  1.00 20.00    -0.261 NA
HETATM    9  N9  UNL     1     -37.628  15.435  -4.292  1.00 20.00    -0.297 NA
ENDROOT
TORSDOF 0
ENDMDL
MODEL 9
REMARK VINA RESULT:      -3.9      1.305      2.992
REMARK  0 active torsions:
REMARK  status: ('A' for Active; 'I' for Inactive)
ROOT
HETATM    1  C1  UNL     1     -33.292   5.010   2.647  1.00 20.00     0.034 A 
HETATM    2  C2  UNL     1     -34.287   6.044   5.860  1.00 20.00     0.027 A 
HETATM    3  C3  UNL     1     -33.987   3.865   3.254  1.00 20.00     0.118 A 
HETATM    4  C4  UNL     1     -32.914   7.262   3.742  1.00 20.00     0.124 A 
HETATM    5  C5  UNL     1     -33.393   5.882   3.645  1.00 20.00     0.011 A 
HETATM    6  C6  UNL     1     -34.085   5.322   4.758  1.00 20.00     0.066 A 
HETATM    7  C7  UNL     1     -33.791   7.466   5.957  1.00 20.00     0.178 A 
HETATM    8  N8  UNL     1     -34.443   4.035   4.461  1.00 20.00    -0.261 NA
HETATM    9  N9  UNL     1     -33.077   8.010   4.777  1.00 20.00    -0.297 NA
ENDROOT
TORSDOF 0
ENDMDL
