MODEL 1
REMARK VINA RESULT:      -5.1      0.000      0.000
REMARK  0 active torsions:
REMARK  status: ('A' for Active; 'I' for Inactive)
ROOT
HETATM    1  C1  UNL     1     -34.353   6.210   4.993  1.00 20.00    -0.057 C 
HETATM    2  C2  UNL     1     -32.729   7.650   3.792  1.00 20.00    -0.057 C 
HETATM    3  C3  UNL     1     -34.443   5.437   6.084  1.00 20.00     0.016 C 
HETATM    4  C4  UNL     1     -31.461   8.080   3.882  1.00 20.00     0.016 C 
HETATM    5  C5  UNL     1     -33.634   7.537   4.995  1.00 20.00     0.070 C 
HETATM    6  C6  UNL     1     -34.942   5.803   3.659  1.00 20.00     0.306 C 
HETATM    7  C7  UNL     1     -33.349   7.215   2.481  1.00 20.00     0.306 C 
HETATM    8  C8  UNL     1     -33.010   4.802   2.560  1.00 20.00     0.310 C 
HETATM    9  N9  UNL     1     -33.990   5.889   2.536  1.00 20.00     0.091 N 
ENDROOT
TORSDOF 0
ENDMDL
MODEL 2
REMARK VINA RESULT:      -4.2      1.476      3.530
REMARK  0 active torsions:
REMARK  status: ('A' for Active; 'I' for Inactive)
ROOT
HETATM    1  C1  UNL     1     -32.900   6.939   2.920  1.00 20.00    -0.057 C 
HETATM    2  C2  UNL     1     -34.034   4.911   3.789  1.00 20.00    -0.057 C 
HETATM    3  C3  UNL     1     -31.673   7.400   2.640  1.00 20.00     0.016 C 
HETATM    4  C4  UNL     1     -33.754   3.677   4.234  1.00 20.00     0.016 C 
HETATM    5  C5  UNL     1     -33.329   5.526   2.605  1.00 20.00     0.070 C 
HETATM    6  C6  UNL     1     -33.950   7.790   3.602  1.00 20.00     0.306 C 
HETATM    7  C7  UNL     1     -35.063   5.801   4.455  1.00 20.00     0.306 C 
HETATM    8  C8  UNL     1     -33.662   7.140   5.935  1.00 20.00     0.310 C 
HETATM    9  N9  UNL     1     -34.563   7.149   4.782  1.00 20.00     0.091 N 
ENDROOT
TORSDOF 0
ENDMDL
MODEL 3
REMARK VINA RESULT:      -4.1      1.271      2.067
REMARK  0 active torsions:
REMARK  status: ('A' for Active; 'I' for Inactive)
ROOT
HETATM    1  C1  UNL     1     -34.273   4.925   4.070  1.00 20.00    -0.057 C 
HETATM    2  C2  UNL     1     -34.000   7.087   5.255  1.00 20.00    -0.057 C 
HETATM    3  C3  UNL     1     -33.898   3.641   4.159  1.00 20.00     0.016 C 
HETATM    4  C4  UNL     1     -33.397   7.610   6.333  1.00 20.00     0.016 C 
HETATM    5  C5  UNL     1     -34.676   5.738   5.277  1.00 20.00     0.070 C 
HETATM    6  C6  UNL     1     -34.298   5.675   2.756  1.00 20.00     0.306 C 
HETATM    7  C7  UNL     1     -34.030   7.797   3.917  1.00 20.00     0.306 C 
HETATM    8  C8  UNL     1     -32.125   6.780   2.786  1.00 20.00     0.310 C 
HETATM    9  N9  UNL     1     -33.577   6.962   2.790  1.00 20.00     0.091 N 
ENDROOT
TORSDOF 0
ENDMDL
MODEL 4
REMARK VINA RESULT:      -3.9     11.550     12.880
REMARK  0 active torsions:
REMARK  status: ('A' for Active; 'I' for Inactive)
ROOT
HETATM    1  C1  UNL     1     -33.731  15.502  -4.040  1.00 20.00    -0.057 C 
HETATM    2  C2  UNL     1     -35.254  14.022  -5.322  1.00 20.00    -0.057 C 
HETATM    3  C3  UNL     1     -33.754  16.404  -3.049  1.00 20.00     0.016 C 
HETATM    4  C4  UNL     1     -36.551  13.688  -5.401  1.00 20.00     0.016 C 
HETATM    5  C5  UNL     1     -34.550  14.234  -4.004  1.00 20.00     0.070 C 
HETATM    6  C6  UNL     1     -32.900  15.691  -5.292  1.00 20.00     0.306 C 
HETATM    7  C7  UNL     1     -34.395  14.240  -6.550  1.00 20.00     0.306 C 
HETATM    8  C8  UNL     1     -34.538  16.659  -6.818  1.00 20.00     0.310 C 
HETATM    9  N9  UNL     1     -33.662  15.519  -6.544  1.00 20.00     0.091 N 
ENDROOT
TORSDOF 0
ENDMDL
MODEL 5
REMARK VINA RESULT:      -3.7     11.376     12.925
REMARK  0 active torsions:
REMARK  status: ('A' for Active; 'I' for Inactive)
ROOT
HETATM    1  C1  UNL     1     -33.880  15.475  -6.536  1.00 20.00    -0.057 C 
HETATM    2  C2  UNL     1     -33.865  15.473  -4.055  1.00 20.00    -0.057 C 
HETATM    3  C3  UNL     1     -34.032  16.313  -7.571  1.00 20.00     0.016 C 
HETATM    4  C4  UNL     1     -34.004  16.312  -3.017  1.00 20.00     0.016 C 
HETATM    5  C5  UNL     1     -33.096  15.843  -5.300  1.00 20.00     0.070 C 
HETATM    6  C6  UNL     1     -34.507  14.097  -6.510  1.00 20.00     0.306 C 
HETATM    7  C7  UNL     1     -34.493  14.095  -4.076  1.00 20.00     0.306 C 
HETATM    8  C8  UNL     1     -36.569  14.524  -5.280  1.00 20.00     0.310 C 
HETATM    9  N9  UNL     1     -35.286  13.820  -5.288  1.00 20.00     0.091 N 
ENDROOT
TORSDOF 0
ENDMDL
MODEL 6
REMARK VINA RESULT:      -3.6      1.008      2.911
REMARK  0 active torsions:
REMARK  status: ('A' for Active; 'I' for Inactive)
ROOT
HETATM    1  C1  UNL     1     -32.823   7.291   2.989  1.00 20.00    -0.057 C 
HETATM    2  C2  UNL     1     -33.433   7.108   5.387  1.00 20.00    -0.057 C 
HETATM    3  C3  UNL     1     -32.792   8.188   1.994  1.00 20.00     0.016 C 
HETATM    4  C4  UNL     1     -33.911   7.854   6.395  1.00 20.00     0.016 C 
HETATM    5  C5  UNL     1     -32.416   7.632   4.403  1.00 20.00     0.070 C 
HETATM    6  C6  UNL     1     -33.297   5.868   2.785  1.00 20.00     0.306 C 
HETATM    7  C7  UNL     1     -33.896   5.688   5.137  1.00 20.00     0.306 C 
HETATM    8  C8  UNL     1     -35.634   6.031   3.462  1.00 20.00     0.310 C 
HETATM    9  N9  UNL     1     -34.328   5.438   3.749  1.00 20.00     0.091 N 
ENDROOT
TORSDOF 0
ENDMDL
MODEL 7
REMARK VINA RESULT:      -3.6     11.738     12.510
REMARK  0 active torsions:
REMARK  status: ('A' for Active; 'I' for Inactive)
ROOT
HETATM    1  C1  UNL     1     -35.015  16.970  -2.422  1.00 20.00    -0.057 C 
HETATM    2  C2  UNL     1     -33.870  15.630  -4.168  1.00 20.00    -0.057 C 
HETATM    3  C3  UNL     1     -35.316  16.930  -1.117  1.00 20.00     0.016 C 
HETATM    4  C4  UNL     1     -33.214  14.469  -4.321  1.00 20.00     0.016 C 
HETATM    5  C5  UNL     1     -33.679  16.517  -2.962  1.00 20.00     0.070 C 
HETATM    6  C6  UNL     1     -36.000  17.448  -3.468  1.00 20.00     0.306 C 
HETATM    7  C7  UNL     1     -34.878  16.133  -5.181  1.00 20.00     0.306 C 
HETATM    8  C8  UNL     1     -36.972  15.341  -4.217  1.00 20.00     0.310 C 
HETATM    9  N9  UNL     1     -36.176  16.509  -4.593  1.00 20.00     0.091 N 
ENDROOT
TORSDOF 0
ENDMDL
MODEL 8
REMARK VINA RESULT:      -3.5     11.533     12.573
REMARK  0 active torsions:
REMARK  status: ('A' for Active; 'I' for Inactive)
ROOT
HETATM    1  C1  UNL     1     -35.758  13.937  -5.274  1.00 20.00    -0.057 C 
HETATM    2  C2  UNL     1     -34.765  15.523  -3.645  1.00 20.00    -0.057 C 
HETATM    3  C3  UNL     1     -35.480  13.342  -6.442  1.00 20.00     0.016 C 
HETATM    4  C4  UNL     1     -33.656  16.254  -3.454  1.00 20.00     0.016 C 
HETATM    5  C5  UNL     1     -34.725  14.114  -4.187  1.00 20.00     0.070 C 
HETATM    6  C6  UNL     1     -37.125  14.504  -4.956  1.00 20.00     0.306 C 
HETATM    7  C7  UNL     1     -36.151  16.060  -3.359  1.00 20.00     0.306 C 
HETATM    8  C8  UNL     1     -36.832  16.847  -5.563  1.00 20.00     0.310 C 
HETATM    9  N9  UNL     1     -37.095  15.900  -4.480  1.00 20.00     0.091 N 
ENDROOT
TORSDOF 0
ENDMDL
MODEL 9
REMARK VINA RESULT:      -3.5     11.472     12.938
REMARK  0 active torsions:
REMARK  status: ('A' for Active; 'I' for Inactive)
ROOT
HETATM    1  C1  UNL     1     -35.342  14.085  -5.368  1.00 20.00    -0.057 C 
HETATM    2  C2  UNL     1     -33.813  15.690  -6.484  1.00 20.00    -0.057 C 
HETATM    3  C3  UNL     1     -36.644  13.779  -5.289  1.00 20.00     0.016 C 
HETATM    4  C4  UNL     1     -33.840  16.724  -7.338  1.00 20.00     0.016 C 
HETATM    5  C5  UNL     1     -34.673  14.463  -6.668  1.00 20.00     0.070 C 
HETATM    6  C6  UNL     1     -34.437  14.105  -4.154  1.00 20.00     0.306 C 
HETATM    7  C7  UNL     1     -32.938  15.679  -5.248  1.00 20.00     0.306 C 
HETATM    8  C8  UNL     1     -34.495  16.465  -3.544  1.00 20.00     0.310 C 
HETATM    9  N9  UNL     1     -33.664  15.353  -4.007  1.00 20.00     0.091 N 
ENDROOT
TORSDOF 0
ENDMDL
