MODEL 1
REMARK VINA RESULT:      -5.2      0.000      0.000
REMARK  1 active torsions:
REMARK  status: ('A' for Active; 'I' for Inactive)
REMARK    1  A    between atoms: C2_2  and  C6_6 
ROOT
HETATM    1  C1  UNL     1     -32.112   7.871   2.777  1.00 20.00     0.119 A 
HETATM    2  C2  UNL     1     -33.621   6.747   3.954  1.00 20.00     0.043 A 
HETATM    3  C3  UNL     1     -33.192   6.877   2.543  1.00 20.00     0.105 A 
HETATM    4  N7  UNL     1     -31.979   8.207   4.018  1.00 20.00    -0.167 NA
HETATM    5  N8  UNL     1     -32.950   7.482   4.782  1.00 20.00    -0.159 NA
ENDROOT
BRANCH   2   6
HETATM    6  C6  UNL     1     -34.710   5.854   4.374  1.00 20.00     0.035 A 
HETATM    7  C4  UNL     1     -34.455   4.375   4.469  1.00 20.00     0.011 A 
HETATM    8  C5  UNL     1     -34.631   5.184   5.718  1.00 20.00     0.011 A 
ENDBRANCH   2   6
TORSDOF 1
ENDMDL
MODEL 2
REMARK VINA RESULT:      -5.1      1.180      1.345
REMARK  1 active torsions:
REMARK  status: ('A' for Active; 'I' for Inactive)
REMARK    1  A    between atoms: C2_2  and  C6_6 
ROOT
HETATM    1  C1  UNL     1     -32.051   8.146   3.672  1.00 20.00     0.119 A 
HETATM    2  C2  UNL     1     -33.673   6.641   3.829  1.00 20.00     0.043 A 
HETATM    3  C3  UNL     1     -32.934   7.565   4.717  1.00 20.00     0.105 A 
HETATM    4  N7  UNL     1     -32.256   7.658   2.492  1.00 20.00    -0.167 NA
HETATM    5  N8  UNL     1     -33.304   6.687   2.589  1.00 20.00    -0.159 NA
ENDROOT
BRANCH   2   6
HETATM    6  C6  UNL     1     -34.739   5.753   4.316  1.00 20.00     0.035 A 
HETATM    7  C4  UNL     1     -34.447   4.291   4.512  1.00 20.00     0.011 A 
HETATM    8  C5  UNL     1     -34.640   5.180   5.703  1.00 20.00     0.011 A 
ENDBRANCH   2   6
TORSDOF 1
ENDMDL
MODEL 3
REMARK VINA RESULT:      -5.1      1.780      3.724
REMARK  1 active torsions:
REMARK  status: ('A' for Active; 'I' for Inactive)
REMARK    1  A    between atoms: C2_2  and  C6_6 
ROOT
HETATM    1  C1  UNL     1     -34.661   4.901   5.645  1.00 20.00     0.119 A 
HETATM    2  C2  UNL     1     -33.917   6.398   4.186  1.00 20.00     0.043 A 
HETATM    3  C3  UNL     1     -34.237   6.325   5.629  1.00 20.00     0.105 A 
HETATM    4  N7  UNL     1     -34.590   4.327   4.487  1.00 20.00    -0.167 NA
HETATM    5  N8  UNL     1     -34.109   5.290   3.543  1.00 20.00    -0.159 NA
ENDROOT
BRANCH   2   6
HETATM    6  C6  UNL     1     -33.418   7.622   3.543  1.00 20.00     0.035 A 
HETATM    7  C4  UNL     1     -31.939   7.895   3.526  1.00 20.00     0.011 A 
HETATM    8  C5  UNL     1     -32.643   7.513   2.259  1.00 20.00     0.011 A 
ENDBRANCH   2   6
TORSDOF 1
ENDMDL
MODEL 4
REMARK VINA RESULT:      -4.9      1.508      3.479
REMARK  1 active torsions:
REMARK  status: ('A' for Active; 'I' for Inactive)
REMARK    1  A    between atoms: C2_2  and  C6_6 
ROOT
HETATM    1  C1  UNL     1     -34.476   4.421   4.487  1.00 20.00     0.119 A 
HETATM    2  C2  UNL     1     -33.819   6.508   4.120  1.00 20.00     0.043 A 
HETATM    3  C3  UNL     1     -33.916   5.233   3.375  1.00 20.00     0.105 A 
HETATM    4  N7  UNL     1     -34.646   5.089   5.581  1.00 20.00    -0.167 NA
HETATM    5  N8  UNL     1     -34.224   6.438   5.347  1.00 20.00    -0.159 NA
ENDROOT
BRANCH   2   6
HETATM    6  C6  UNL     1     -33.311   7.746   3.512  1.00 20.00     0.035 A 
HETATM    7  C4  UNL     1     -31.831   8.011   3.508  1.00 20.00     0.011 A 
HETATM    8  C5  UNL     1     -32.532   7.668   2.228  1.00 20.00     0.011 A 
ENDBRANCH   2   6
TORSDOF 1
ENDMDL
MODEL 5
REMARK VINA RESULT:      -4.7      1.023      3.472
REMARK  1 active torsions:
REMARK  status: ('A' for Active; 'I' for Inactive)
REMARK    1  A    between atoms: C2_2  and  C6_6 
ROOT
HETATM    1  C1  UNL     1     -34.822   5.625   4.884  1.00 20.00     0.119 A 
HETATM    2  C2  UNL     1     -33.288   6.746   3.739  1.00 20.00     0.043 A 
HETATM    3  C3  UNL     1     -34.226   5.623   3.523  1.00 20.00     0.105 A 
HETATM    4  N7  UNL     1     -34.330   6.533   5.663  1.00 20.00    -0.167 NA
HETATM    5  N8  UNL     1     -33.340   7.260   4.926  1.00 20.00    -0.159 NA
ENDROOT
BRANCH   2   6
HETATM    6  C6  UNL     1     -32.381   7.238   2.692  1.00 20.00     0.035 A 
HETATM    7  C4  UNL     1     -32.678   8.548   2.016  1.00 20.00     0.011 A 
HETATM    8  C5  UNL     1     -31.525   8.442   2.968  1.00 20.00     0.011 A 
ENDBRANCH   2   6
TORSDOF 1
ENDMDL
MODEL 6
REMARK VINA RESULT:      -4.1      1.902      4.334
REMARK  1 active torsions:
REMARK  status: ('A' for Active; 'I' for Inactive)
REMARK    1  A    between atoms: C2_2  and  C6_6 
ROOT
HETATM    1  C1  UNL     1     -33.198   6.907   3.627  1.00 20.00     0.119 A 
HETATM    2  C2  UNL     1     -32.282   8.283   2.146  1.00 20.00     0.043 A 
HETATM    3  C3  UNL     1     -33.279   7.190   2.170  1.00 20.00     0.105 A 
HETATM    4  N7  UNL     1     -32.357   7.663   4.254  1.00 20.00    -0.167 NA
HETATM    5  N8  UNL     1     -31.766   8.555   3.302  1.00 20.00    -0.159 NA
ENDROOT
BRANCH   2   6
HETATM    6  C6  UNL     1     -31.918   9.000   0.917  1.00 20.00     0.035 A 
HETATM    7  C4  UNL     1     -32.988   9.331  -0.088  1.00 20.00     0.011 A 
HETATM    8  C5  UNL     1     -32.372  10.423   0.735  1.00 20.00     0.011 A 
ENDBRANCH   2   6
TORSDOF 1
ENDMDL
MODEL 7
REMARK VINA RESULT:      -4.0     12.081     12.636
REMARK  1 active torsions:
REMARK  status: ('A' for Active; 'I' for Inactive)
REMARK    1  A    between atoms: C2_2  and  C6_6 
ROOT
HETATM    1  C1  UNL     1     -35.470  13.161  -6.595  1.00 20.00     0.119 A 
HETATM    2  C2  UNL     1     -34.226  14.360  -5.202  1.00 20.00     0.043 A 
HETATM    3  C3  UNL     1     -34.401  14.192  -6.662  1.00 20.00     0.105 A 
HETATM    4  N7  UNL     1     -35.802  12.839  -5.387  1.00 20.00    -0.167 NA
HETATM    5  N8  UNL     1     -35.003  13.612  -4.485  1.00 20.00    -0.159 NA
ENDROOT
BRANCH   2   6
HETATM    6  C6  UNL     1     -33.257  15.300  -4.621  1.00 20.00     0.035 A 
HETATM    7  C4  UNL     1     -33.491  16.779  -4.760  1.00 20.00     0.011 A 
HETATM    8  C5  UNL     1     -33.656  16.119  -3.424  1.00 20.00     0.011 A 
ENDBRANCH   2   6
TORSDOF 1
ENDMDL
MODEL 8
REMARK VINA RESULT:      -3.8     11.711     12.371
REMARK  1 active torsions:
REMARK  status: ('A' for Active; 'I' for Inactive)
REMARK    1  A    between atoms: C2_2  and  C6_6 
ROOT
HETATM    1  C1  UNL     1     -36.817  13.869  -5.256  1.00 20.00     0.119 A 
HETATM    2  C2  UNL     1     -35.038  14.658  -4.190  1.00 20.00     0.043 A 
HETATM    3  C3  UNL     1     -36.400  15.110  -4.553  1.00 20.00     0.105 A 
HETATM    4  N7  UNL     1     -35.904  12.953  -5.274  1.00 20.00    -0.167 NA
HETATM    5  N8  UNL     1     -34.755  13.459  -4.586  1.00 20.00    -0.159 NA
ENDROOT
BRANCH   2   6
HETATM    6  C6  UNL     1     -34.095  15.499  -3.439  1.00 20.00     0.035 A 
HETATM    7  C4  UNL     1     -33.609  16.785  -4.049  1.00 20.00     0.011 A 
HETATM    8  C5  UNL     1     -34.564  16.820  -2.894  1.00 20.00     0.011 A 
ENDBRANCH   2   6
TORSDOF 1
ENDMDL
MODEL 9
REMARK VINA RESULT:      -3.8     12.201     12.617
REMARK  1 active torsions:
REMARK  status: ('A' for Active; 'I' for Inactive)
REMARK    1  A    between atoms: C2_2  and  C6_6 
ROOT
HETATM    1  C1  UNL     1     -31.726  18.819   1.785  1.00 20.00     0.119 A 
HETATM    2  C2  UNL     1     -32.641  18.471  -0.207  1.00 20.00     0.043 A 
HETATM    3  C3  UNL     1     -33.082  18.719   1.184  1.00 20.00     0.105 A 
HETATM    4  N7  UNL     1     -30.769  18.664   0.929  1.00 20.00    -0.167 NA
HETATM    5  N8  UNL     1     -31.355  18.441  -0.358  1.00 20.00    -0.159 NA
ENDROOT
BRANCH   2   6
HETATM    6  C6  UNL     1     -33.584  18.283  -1.318  1.00 20.00     0.035 A 
HETATM    7  C4  UNL     1     -33.559  16.996  -2.096  1.00 20.00     0.011 A 
HETATM    8  C5  UNL     1     -34.702  17.289  -1.171  1.00 20.00     0.011 A 
ENDBRANCH   2   6
TORSDOF 1
ENDMDL
