MODEL 1
REMARK VINA RESULT:      -4.8      0.000      0.000
REMARK  0 active torsions:
REMARK  status: ('A' for Active; 'I' for Inactive)
ROOT
HETATM    1  C1  UNL     1     -35.377  13.660  -5.894  1.00 20.00     0.136 C 
HETATM    2  C2  UNL     1     -34.523  13.488  -7.128  1.00 20.00     0.084 C 
HETATM    3  C3  UNL     1     -33.976  15.398  -3.713  1.00 20.00     0.002 C 
HETATM    4  C4  UNL     1     -33.159  15.253  -5.014  1.00 20.00     0.006 C 
HETATM    5  C5  UNL     1     -35.651  15.603  -7.903  1.00 20.00     0.006 C 
HETATM    6  C6  UNL     1     -35.466  15.507  -4.108  1.00 20.00     0.018 C 
HETATM    7  C7  UNL     1     -36.465  15.728  -6.580  1.00 20.00     0.018 C 
HETATM    8  C8  UNL     1     -34.293  14.978  -7.451  1.00 20.00    -0.002 C 
HETATM    9  C9  UNL     1     -34.141  15.665  -6.097  1.00 20.00     0.006 C 
HETATM   10  C10 UNL     1     -35.481  15.152  -5.569  1.00 20.00     0.024 C 
HETATM   11  O11 UNL     1     -35.913  12.753  -5.277  1.00 20.00    -0.297 OA
ENDROOT
TORSDOF 0
ENDMDL
MODEL 2
REMARK VINA RESULT:      -4.6      1.339      2.393
REMARK  0 active torsions:
REMARK  status: ('A' for Active; 'I' for Inactive)
ROOT
HETATM    1  C1  UNL     1     -33.818  14.426  -5.130  1.00 20.00     0.136 C 
HETATM    2  C2  UNL     1     -33.138  15.665  -5.662  1.00 20.00     0.084 C 
HETATM    3  C3  UNL     1     -36.858  14.877  -4.590  1.00 20.00     0.002 C 
HETATM    4  C4  UNL     1     -36.143  16.104  -5.194  1.00 20.00     0.006 C 
HETATM    5  C5  UNL     1     -33.805  14.765  -7.918  1.00 20.00     0.006 C 
HETATM    6  C6  UNL     1     -36.254  13.616  -5.248  1.00 20.00     0.018 C 
HETATM    7  C7  UNL     1     -34.521  13.534  -7.284  1.00 20.00     0.018 C 
HETATM    8  C8  UNL     1     -34.044  15.911  -6.885  1.00 20.00    -0.002 C 
HETATM    9  C9  UNL     1     -35.451  15.542  -6.424  1.00 20.00     0.006 C 
HETATM   10  C10 UNL     1     -35.051  14.132  -5.987  1.00 20.00     0.024 C 
HETATM   11  O11 UNL     1     -33.426  13.758  -4.186  1.00 20.00    -0.297 OA
ENDROOT
TORSDOF 0
ENDMDL
MODEL 3
REMARK VINA RESULT:      -4.6      0.836      3.146
REMARK  0 active torsions:
REMARK  status: ('A' for Active; 'I' for Inactive)
ROOT
HETATM    1  C1  UNL     1     -35.546  14.036  -5.050  1.00 20.00     0.136 C 
HETATM    2  C2  UNL     1     -36.232  15.054  -4.169  1.00 20.00     0.084 C 
HETATM    3  C3  UNL     1     -34.988  15.133  -7.918  1.00 20.00     0.002 C 
HETATM    4  C4  UNL     1     -35.630  16.167  -6.970  1.00 20.00     0.006 C 
HETATM    5  C5  UNL     1     -33.886  15.761  -3.583  1.00 20.00     0.006 C 
HETATM    6  C6  UNL     1     -33.996  14.289  -7.085  1.00 20.00     0.018 C 
HETATM    7  C7  UNL     1     -33.261  14.709  -4.547  1.00 20.00     0.018 C 
HETATM    8  C8  UNL     1     -35.202  16.195  -4.302  1.00 20.00    -0.002 C 
HETATM    9  C9  UNL     1     -34.726  16.140  -5.750  1.00 20.00     0.006 C 
HETATM   10  C10 UNL     1     -34.298  14.674  -5.663  1.00 20.00     0.024 C 
HETATM   11  O11 UNL     1     -35.921  12.886  -5.220  1.00 20.00    -0.297 OA
ENDROOT
TORSDOF 0
ENDMDL
MODEL 4
REMARK VINA RESULT:      -4.5      1.596      2.209
REMARK  0 active torsions:
REMARK  status: ('A' for Active; 'I' for Inactive)
ROOT
HETATM    1  C1  UNL     1     -34.390  14.501  -4.403  1.00 20.00     0.136 C 
HETATM    2  C2  UNL     1     -32.949  14.716  -4.799  1.00 20.00     0.084 C 
HETATM    3  C3  UNL     1     -35.317  16.478  -2.173  1.00 20.00     0.002 C 
HETATM    4  C4  UNL     1     -33.867  16.710  -2.649  1.00 20.00     0.006 C 
HETATM    5  C5  UNL     1     -33.908  16.347  -6.463  1.00 20.00     0.006 C 
HETATM    6  C6  UNL     1     -36.156  16.083  -3.409  1.00 20.00     0.018 C 
HETATM    7  C7  UNL     1     -35.362  16.096  -5.965  1.00 20.00     0.018 C 
HETATM    8  C8  UNL     1     -33.040  16.210  -5.172  1.00 20.00    -0.002 C 
HETATM    9  C9  UNL     1     -34.002  16.820  -4.158  1.00 20.00     0.006 C 
HETATM   10  C10 UNL     1     -35.130  15.838  -4.481  1.00 20.00     0.024 C 
HETATM   11  O11 UNL     1     -34.883  13.426  -4.095  1.00 20.00    -0.297 OA
ENDROOT
TORSDOF 0
ENDMDL
MODEL 5
REMARK VINA RESULT:      -4.5      1.056      1.811
REMARK  0 active torsions:
REMARK  status: ('A' for Active; 'I' for Inactive)
ROOT
HETATM    1  C1  UNL     1     -35.959  13.812  -5.521  1.00 20.00     0.136 C 
HETATM    2  C2  UNL     1     -36.523  14.317  -6.828  1.00 20.00     0.084 C 
HETATM    3  C3  UNL     1     -33.179  15.067  -4.861  1.00 20.00     0.002 C 
HETATM    4  C4  UNL     1     -33.815  15.608  -6.159  1.00 20.00     0.006 C 
HETATM    5  C5  UNL     1     -37.535  16.133  -5.405  1.00 20.00     0.006 C 
HETATM    6  C6  UNL     1     -34.317  14.852  -3.839  1.00 20.00     0.018 C 
HETATM    7  C7  UNL     1     -36.882  15.568  -4.109  1.00 20.00     0.018 C 
HETATM    8  C8  UNL     1     -36.484  15.828  -6.519  1.00 20.00    -0.002 C 
HETATM    9  C9  UNL     1     -35.203  16.043  -5.720  1.00 20.00     0.006 C 
HETATM   10  C10 UNL     1     -35.572  15.011  -4.653  1.00 20.00     0.024 C 
HETATM   11  O11 UNL     1     -35.856  12.636  -5.206  1.00 20.00    -0.297 OA
ENDROOT
TORSDOF 0
ENDMDL
MODEL 6
REMARK VINA RESULT:      -4.5      3.378      4.963
REMARK  0 active torsions:
REMARK  status: ('A' for Active; 'I' for Inactive)
ROOT
HETATM    1  C1  UNL     1     -34.636  18.228  -3.387  1.00 20.00     0.136 C 
HETATM    2  C2  UNL     1     -36.052  17.766  -3.638  1.00 20.00     0.084 C 
HETATM    3  C3  UNL     1     -33.888  18.176  -0.358  1.00 20.00     0.002 C 
HETATM    4  C4  UNL     1     -35.307  17.649  -0.659  1.00 20.00     0.006 C 
HETATM    5  C5  UNL     1     -35.013  15.477  -3.800  1.00 20.00     0.006 C 
HETATM    6  C6  UNL     1     -32.965  17.708  -1.505  1.00 20.00     0.018 C 
HETATM    7  C7  UNL     1     -33.590  16.032  -3.495  1.00 20.00     0.018 C 
HETATM    8  C8  UNL     1     -35.961  16.386  -2.956  1.00 20.00    -0.002 C 
HETATM    9  C9  UNL     1     -35.076  16.599  -1.732  1.00 20.00     0.006 C 
HETATM   10  C10 UNL     1     -33.915  17.177  -2.542  1.00 20.00     0.024 C 
HETATM   11  O11 UNL     1     -34.148  19.263  -3.814  1.00 20.00    -0.297 OA
ENDROOT
TORSDOF 0
ENDMDL
MODEL 7
REMARK VINA RESULT:      -4.5      1.606      3.112
REMARK  0 active torsions:
REMARK  status: ('A' for Active; 'I' for Inactive)
ROOT
HETATM    1  C1  UNL     1     -33.497  14.667  -4.458  1.00 20.00     0.136 C 
HETATM    2  C2  UNL     1     -33.765  15.805  -3.502  1.00 20.00     0.084 C 
HETATM    3  C3  UNL     1     -36.124  13.428  -5.599  1.00 20.00     0.002 C 
HETATM    4  C4  UNL     1     -36.358  14.636  -4.667  1.00 20.00     0.006 C 
HETATM    5  C5  UNL     1     -33.693  17.235  -5.575  1.00 20.00     0.006 C 
HETATM    6  C6  UNL     1     -34.851  13.716  -6.425  1.00 20.00     0.018 C 
HETATM    7  C7  UNL     1     -33.458  16.000  -6.495  1.00 20.00     0.018 C 
HETATM    8  C8  UNL     1     -34.615  16.688  -4.439  1.00 20.00    -0.002 C 
HETATM    9  C9  UNL     1     -35.462  15.714  -5.252  1.00 20.00     0.006 C 
HETATM   10  C10 UNL     1     -34.254  14.926  -5.762  1.00 20.00     0.024 C 
HETATM   11  O11 UNL     1     -32.772  13.711  -4.228  1.00 20.00    -0.297 OA
ENDROOT
TORSDOF 0
ENDMDL
MODEL 8
REMARK VINA RESULT:      -4.4      1.088      2.549
REMARK  0 active torsions:
REMARK  status: ('A' for Active; 'I' for Inactive)
ROOT
HETATM    1  C1  UNL     1     -35.341  13.851  -5.000  1.00 20.00     0.136 C 
HETATM    2  C2  UNL     1     -34.176  14.057  -4.060  1.00 20.00     0.084 C 
HETATM    3  C3  UNL     1     -37.653  15.884  -4.487  1.00 20.00     0.002 C 
HETATM    4  C4  UNL     1     -36.419  16.104  -3.588  1.00 20.00     0.006 C 
HETATM    5  C5  UNL     1     -33.347  15.645  -5.831  1.00 20.00     0.006 C 
HETATM    6  C6  UNL     1     -37.143  15.458  -5.882  1.00 20.00     0.018 C 
HETATM    7  C7  UNL     1     -34.603  15.406  -6.722  1.00 20.00     0.018 C 
HETATM    8  C8  UNL     1     -33.896  15.541  -4.373  1.00 20.00    -0.002 C 
HETATM    9  C9  UNL     1     -35.268  16.176  -4.576  1.00 20.00     0.006 C 
HETATM   10  C10 UNL     1     -35.680  15.186  -5.666  1.00 20.00     0.024 C 
HETATM   11  O11 UNL     1     -35.899  12.785  -5.206  1.00 20.00    -0.297 OA
ENDROOT
TORSDOF 0
ENDMDL
MODEL 9
REMARK VINA RESULT:      -4.4      2.310      3.635
REMARK  0 active torsions:
REMARK  status: ('A' for Active; 'I' for Inactive)
ROOT
HETATM    1  C1  UNL     1     -35.231  16.881  -4.947  1.00 20.00     0.136 C 
HETATM    2  C2  UNL     1     -33.723  16.803  -4.957  1.00 20.00     0.084 C 
HETATM    3  C3  UNL     1     -36.568  14.069  -5.163  1.00 20.00     0.002 C 
HETATM    4  C4  UNL     1     -35.026  14.024  -5.106  1.00 20.00     0.006 C 
HETATM    5  C5  UNL     1     -33.965  16.582  -2.459  1.00 20.00     0.006 C 
HETATM    6  C6  UNL     1     -37.036  15.201  -4.221  1.00 20.00     0.018 C 
HETATM    7  C7  UNL     1     -35.520  16.630  -2.543  1.00 20.00     0.018 C 
HETATM    8  C8  UNL     1     -33.541  15.840  -3.766  1.00 20.00    -0.002 C 
HETATM    9  C9  UNL     1     -34.693  14.845  -3.873  1.00 20.00     0.006 C 
HETATM   10  C10 UNL     1     -35.769  15.932  -3.874  1.00 20.00     0.024 C 
HETATM   11  O11 UNL     1     -35.903  17.605  -5.666  1.00 20.00    -0.297 OA
ENDROOT
TORSDOF 0
ENDMDL
