MODEL 1
REMARK VINA RESULT:      -4.0      0.000      0.000
REMARK  2 active torsions:
REMARK  status: ('A' for Active; 'I' for Inactive)
REMARK    1  A    between atoms: C1_1  and  C8_8 
REMARK    2  A    between atoms: C8_8  and  O9_9 
ROOT
HETATM    1  C1  UNL     1     -35.483  14.964  -5.194  1.00 20.00     0.026 A 
HETATM    2  C2  UNL     1     -34.270  15.371  -4.370  1.00 20.00    -0.034 A 
HETATM    3  C3  UNL     1     -34.620  16.124  -5.672  1.00 20.00    -0.034 A 
HETATM    4  C4  UNL     1     -34.539  16.037  -3.035  1.00 20.00     0.016 C 
HETATM    5  C5  UNL     1     -33.044  14.487  -4.313  1.00 20.00     0.016 C 
HETATM    6  C6  UNL     1     -33.738  15.975  -6.890  1.00 20.00     0.016 C 
HETATM    7  C7  UNL     1     -35.223  17.510  -5.586  1.00 20.00     0.016 C 
ENDROOT
BRANCH   1   8
HETATM    8  C8  UNL     1     -35.582  13.665  -5.917  1.00 20.00     0.170 C 
BRANCH   8   9
HETATM    9  O9  UNL     1     -35.963  12.631  -5.011  1.00 20.00    -0.400 OA
HETATM   10  H25 UNL     1     -36.353  11.925  -5.548  1.00 20.00     0.209 HD
ENDBRANCH   8   9
ENDBRANCH   1   8
TORSDOF 2
ENDMDL
MODEL 2
REMARK VINA RESULT:      -3.9      0.994      2.105
REMARK  2 active torsions:
REMARK  status: ('A' for Active; 'I' for Inactive)
REMARK    1  A    between atoms: C1_1  and  C8_8 
REMARK    2  A    between atoms: C8_8  and  O9_9 
ROOT
HETATM    1  C1  UNL     1     -34.946  14.513  -4.153  1.00 20.00     0.026 A 
HETATM    2  C2  UNL     1     -33.701  15.024  -4.865  1.00 20.00    -0.034 A 
HETATM    3  C3  UNL     1     -34.570  15.983  -4.023  1.00 20.00    -0.034 A 
HETATM    4  C4  UNL     1     -32.362  14.567  -4.321  1.00 20.00     0.016 C 
HETATM    5  C5  UNL     1     -33.674  15.154  -6.372  1.00 20.00     0.016 C 
HETATM    6  C6  UNL     1     -35.394  17.051  -4.704  1.00 20.00     0.016 C 
HETATM    7  C7  UNL     1     -34.064  16.447  -2.672  1.00 20.00     0.016 C 
ENDROOT
BRANCH   1   8
HETATM    8  C8  UNL     1     -36.163  14.041  -4.870  1.00 20.00     0.170 C 
BRANCH   8   9
HETATM    9  O9  UNL     1     -36.052  12.646  -5.148  1.00 20.00    -0.400 OA
HETATM   10  H25 UNL     1     -36.938  12.345  -5.402  1.00 20.00     0.209 HD
ENDBRANCH   8   9
ENDBRANCH   1   8
TORSDOF 2
ENDMDL
MODEL 3
REMARK VINA RESULT:      -3.8      1.265      2.569
REMARK  2 active torsions:
REMARK  status: ('A' for Active; 'I' for Inactive)
REMARK    1  A    between atoms: C1_1  and  C8_8 
REMARK    2  A    between atoms: C8_8  and  O9_9 
ROOT
HETATM    1  C1  UNL     1     -35.254  14.769  -4.330  1.00 20.00     0.026 A 
HETATM    2  C2  UNL     1     -34.699  16.005  -5.024  1.00 20.00    -0.034 A 
HETATM    3  C3  UNL     1     -35.468  16.135  -3.691  1.00 20.00    -0.034 A 
HETATM    4  C4  UNL     1     -33.193  16.172  -5.030  1.00 20.00     0.016 C 
HETATM    5  C5  UNL     1     -35.319  16.512  -6.307  1.00 20.00     0.016 C 
HETATM    6  C6  UNL     1     -36.840  16.768  -3.669  1.00 20.00     0.016 C 
HETATM    7  C7  UNL     1     -34.699  16.428  -2.420  1.00 20.00     0.016 C 
ENDROOT
BRANCH   1   8
HETATM    8  C8  UNL     1     -36.362  13.945  -4.888  1.00 20.00     0.170 C 
BRANCH   8   9
HETATM    9  O9  UNL     1     -35.914  12.607  -5.098  1.00 20.00    -0.400 OA
HETATM   10  H25 UNL     1     -35.956  12.450  -6.054  1.00 20.00     0.209 HD
ENDBRANCH   8   9
ENDBRANCH   1   8
TORSDOF 2
ENDMDL
MODEL 4
REMARK VINA RESULT:      -3.7      1.851      2.584
REMARK  2 active torsions:
REMARK  status: ('A' for Active; 'I' for Inactive)
REMARK    1  A    between atoms: C1_1  and  C8_8 
REMARK    2  A    between atoms: C8_8  and  O9_9 
ROOT
HETATM    1  C1  UNL     1     -34.222  15.308  -3.755  1.00 20.00     0.026 A 
HETATM    2  C2  UNL     1     -34.487  16.668  -3.126  1.00 20.00    -0.034 A 
HETATM    3  C3  UNL     1     -35.377  16.152  -4.277  1.00 20.00    -0.034 A 
HETATM    4  C4  UNL     1     -35.035  16.676  -1.713  1.00 20.00     0.016 C 
HETATM    5  C5  UNL     1     -33.540  17.824  -3.362  1.00 20.00     0.016 C 
HETATM    6  C6  UNL     1     -35.301  16.800  -5.640  1.00 20.00     0.016 C 
HETATM    7  C7  UNL     1     -36.778  15.666  -3.968  1.00 20.00     0.016 C 
ENDROOT
BRANCH   1   8
HETATM    8  C8  UNL     1     -33.005  15.001  -4.557  1.00 20.00     0.170 C 
BRANCH   8   9
HETATM    9  O9  UNL     1     -32.641  13.632  -4.385  1.00 20.00    -0.400 OA
HETATM   10  H25 UNL     1     -33.167  13.125  -5.022  1.00 20.00     0.209 HD
ENDBRANCH   8   9
ENDBRANCH   1   8
TORSDOF 2
ENDMDL
MODEL 5
REMARK VINA RESULT:      -3.7      1.260      1.564
REMARK  2 active torsions:
REMARK  status: ('A' for Active; 'I' for Inactive)
REMARK    1  A    between atoms: C1_1  and  C8_8 
REMARK    2  A    between atoms: C8_8  and  O9_9 
ROOT
HETATM    1  C1  UNL     1     -35.409  14.906  -4.362  1.00 20.00     0.026 A 
HETATM    2  C2  UNL     1     -34.392  16.027  -4.206  1.00 20.00    -0.034 A 
HETATM    3  C3  UNL     1     -35.842  16.340  -4.635  1.00 20.00    -0.034 A 
HETATM    4  C4  UNL     1     -33.948  16.362  -2.796  1.00 20.00     0.016 C 
HETATM    5  C5  UNL     1     -33.259  16.183  -5.197  1.00 20.00     0.016 C 
HETATM    6  C6  UNL     1     -36.130  16.801  -6.045  1.00 20.00     0.016 C 
HETATM    7  C7  UNL     1     -36.787  16.975  -3.637  1.00 20.00     0.016 C 
ENDROOT
BRANCH   1   8
HETATM    8  C8  UNL     1     -35.321  13.862  -5.421  1.00 20.00     0.170 C 
BRANCH   8   9
HETATM    9  O9  UNL     1     -35.953  12.663  -4.976  1.00 20.00    -0.400 OA
HETATM   10  H25 UNL     1     -35.688  11.966  -5.596  1.00 20.00     0.209 HD
ENDBRANCH   8   9
ENDBRANCH   1   8
TORSDOF 2
ENDMDL
MODEL 6
REMARK VINA RESULT:      -3.7      1.879      3.087
REMARK  2 active torsions:
REMARK  status: ('A' for Active; 'I' for Inactive)
REMARK    1  A    between atoms: C1_1  and  C8_8 
REMARK    2  A    between atoms: C8_8  and  O9_9 
ROOT
HETATM    1  C1  UNL     1     -33.626  15.694  -3.759  1.00 20.00     0.026 A 
HETATM    2  C2  UNL     1     -34.051  17.075  -4.237  1.00 20.00    -0.034 A 
HETATM    3  C3  UNL     1     -34.956  16.262  -3.285  1.00 20.00    -0.034 A 
HETATM    4  C4  UNL     1     -33.278  18.259  -3.692  1.00 20.00     0.016 C 
HETATM    5  C5  UNL     1     -34.472  17.298  -5.672  1.00 20.00     0.016 C 
HETATM    6  C6  UNL     1     -36.261  15.689  -3.788  1.00 20.00     0.016 C 
HETATM    7  C7  UNL     1     -35.051  16.668  -1.829  1.00 20.00     0.016 C 
ENDROOT
BRANCH   1   8
HETATM    8  C8  UNL     1     -33.516  14.514  -4.662  1.00 20.00     0.170 C 
BRANCH   8   9
HETATM    9  O9  UNL     1     -32.361  13.748  -4.323  1.00 20.00    -0.400 OA
HETATM   10  H25 UNL     1     -32.498  12.864  -4.696  1.00 20.00     0.209 HD
ENDBRANCH   8   9
ENDBRANCH   1   8
TORSDOF 2
ENDMDL
MODEL 7
REMARK VINA RESULT:      -3.6      1.774      3.071
REMARK  2 active torsions:
REMARK  status: ('A' for Active; 'I' for Inactive)
REMARK    1  A    between atoms: C1_1  and  C8_8 
REMARK    2  A    between atoms: C8_8  and  O9_9 
ROOT
HETATM    1  C1  UNL     1     -33.756  14.640  -5.832  1.00 20.00     0.026 A 
HETATM    2  C2  UNL     1     -35.104  14.045  -6.213  1.00 20.00    -0.034 A 
HETATM    3  C3  UNL     1     -34.864  15.567  -6.313  1.00 20.00    -0.034 A 
HETATM    4  C4  UNL     1     -35.157  13.219  -7.483  1.00 20.00     0.016 C 
HETATM    5  C5  UNL     1     -36.031  13.494  -5.153  1.00 20.00     0.016 C 
HETATM    6  C6  UNL     1     -35.553  16.506  -5.350  1.00 20.00     0.016 C 
HETATM    7  C7  UNL     1     -34.686  16.200  -7.677  1.00 20.00     0.016 C 
ENDROOT
BRANCH   1   8
HETATM    8  C8  UNL     1     -33.230  14.648  -4.438  1.00 20.00     0.170 C 
BRANCH   8   9
HETATM    9  O9  UNL     1     -32.280  13.596  -4.271  1.00 20.00    -0.400 OA
HETATM   10  H25 UNL     1     -32.788  12.770  -4.236  1.00 20.00     0.209 HD
ENDBRANCH   8   9
ENDBRANCH   1   8
TORSDOF 2
ENDMDL
MODEL 8
REMARK VINA RESULT:      -3.5      1.666      2.774
REMARK  2 active torsions:
REMARK  status: ('A' for Active; 'I' for Inactive)
REMARK    1  A    between atoms: C1_1  and  C8_8 
REMARK    2  A    between atoms: C8_8  and  O9_9 
ROOT
HETATM    1  C1  UNL     1     -34.368  14.574  -4.340  1.00 20.00     0.026 A 
HETATM    2  C2  UNL     1     -35.334  15.672  -4.763  1.00 20.00    -0.034 A 
HETATM    3  C3  UNL     1     -35.141  14.419  -5.643  1.00 20.00    -0.034 A 
HETATM    4  C4  UNL     1     -36.605  15.819  -3.951  1.00 20.00     0.016 C 
HETATM    5  C5  UNL     1     -34.817  17.014  -5.234  1.00 20.00     0.016 C 
HETATM    6  C6  UNL     1     -34.436  14.531  -6.975  1.00 20.00     0.016 C 
HETATM    7  C7  UNL     1     -36.228  13.364  -5.676  1.00 20.00     0.016 C 
ENDROOT
BRANCH   1   8
HETATM    8  C8  UNL     1     -32.891  14.761  -4.283  1.00 20.00     0.170 C 
BRANCH   8   9
HETATM    9  O9  UNL     1     -32.241  13.491  -4.259  1.00 20.00    -0.400 OA
HETATM   10  H25 UNL     1     -31.705  13.472  -3.452  1.00 20.00     0.209 HD
ENDBRANCH   8   9
ENDBRANCH   1   8
TORSDOF 2
ENDMDL
MODEL 9
REMARK VINA RESULT:      -3.5      1.474      2.980
REMARK  2 active torsions:
REMARK  status: ('A' for Active; 'I' for Inactive)
REMARK    1  A    between atoms: C1_1  and  C8_8 
REMARK    2  A    between atoms: C8_8  and  O9_9 
ROOT
HETATM    1  C1  UNL     1     -35.805  14.318  -4.983  1.00 20.00     0.026 A 
HETATM    2  C2  UNL     1     -35.105  14.754  -6.262  1.00 20.00    -0.034 A 
HETATM    3  C3  UNL     1     -34.516  15.123  -4.884  1.00 20.00    -0.034 A 
HETATM    4  C4  UNL     1     -34.440  13.669  -7.085  1.00 20.00     0.016 C 
HETATM    5  C5  UNL     1     -35.705  15.829  -7.141  1.00 20.00     0.016 C 
HETATM    6  C6  UNL     1     -34.539  16.559  -4.412  1.00 20.00     0.016 C 
HETATM    7  C7  UNL     1     -33.286  14.393  -4.386  1.00 20.00     0.016 C 
ENDROOT
BRANCH   1   8
HETATM    8  C8  UNL     1     -37.131  14.844  -4.556  1.00 20.00     0.170 C 
BRANCH   8   9
HETATM    9  O9  UNL     1     -38.159  13.924  -4.922  1.00 20.00    -0.400 OA
HETATM   10  H25 UNL     1     -38.738  13.836  -4.149  1.00 20.00     0.209 HD
ENDBRANCH   8   9
ENDBRANCH   1   8
TORSDOF 2
ENDMDL
