MODEL 1
REMARK VINA RESULT:      -5.4      0.000      0.000
REMARK  0 active torsions:
REMARK  status: ('A' for Active; 'I' for Inactive)
ROOT
HETATM    1  C1  UNL     1     -33.869   4.314   3.874  1.00 20.00     0.136 C 
HETATM    2  C2  UNL     1     -33.092   4.589   2.590  1.00 20.00     0.084 C 
HETATM    3  C3  UNL     1     -33.921   7.374   6.084  1.00 20.00     0.002 C 
HETATM    4  C4  UNL     1     -33.248   7.770   4.753  1.00 20.00     0.006 C 
HETATM    5  C5  UNL     1     -34.600   6.582   2.255  1.00 20.00     0.006 C 
HETATM    6  C6  UNL     1     -34.446   5.928   5.923  1.00 20.00     0.018 C 
HETATM    7  C7  UNL     1     -35.388   6.194   3.517  1.00 20.00     0.018 C 
HETATM    8  C8  UNL     1     -33.161   6.148   2.587  1.00 20.00    -0.002 C 
HETATM    9  C9  UNL     1     -33.027   6.431   4.079  1.00 20.00     0.006 C 
HETATM   10  C10 UNL     1     -34.292   5.645   4.455  1.00 20.00     0.024 C 
HETATM   11  O11 UNL     1     -34.125   3.214   4.334  1.00 20.00    -0.297 OA
ENDROOT
TORSDOF 0
ENDMDL
MODEL 2
REMARK VINA RESULT:      -4.8     12.340     12.930
REMARK  0 active torsions:
REMARK  status: ('A' for Active; 'I' for Inactive)
ROOT
HETATM    1  C1  UNL     1     -36.670  14.187  -5.073  1.00 20.00     0.136 C 
HETATM    2  C2  UNL     1     -35.758  13.340  -5.956  1.00 20.00     0.084 C 
HETATM    3  C3  UNL     1     -34.640  16.359  -2.748  1.00 20.00     0.002 C 
HETATM    4  C4  UNL     1     -33.656  15.645  -3.700  1.00 20.00     0.006 C 
HETATM    5  C5  UNL     1     -34.618  15.489  -6.620  1.00 20.00     0.006 C 
HETATM    6  C6  UNL     1     -36.070  16.022  -3.228  1.00 20.00     0.018 C 
HETATM    7  C7  UNL     1     -35.627  16.282  -5.773  1.00 20.00     0.018 C 
HETATM    8  C8  UNL     1     -34.446  14.177  -5.832  1.00 20.00    -0.002 C 
HETATM    9  C9  UNL     1     -34.534  14.611  -4.374  1.00 20.00     0.006 C 
HETATM   10  C10 UNL     1     -35.863  15.358  -4.560  1.00 20.00     0.024 C 
HETATM   11  O11 UNL     1     -37.849  13.969  -4.846  1.00 20.00    -0.297 OA
ENDROOT
TORSDOF 0
ENDMDL
MODEL 3
REMARK VINA RESULT:      -4.7     12.334     13.666
REMARK  0 active torsions:
REMARK  status: ('A' for Active; 'I' for Inactive)
ROOT
HETATM    1  C1  UNL     1     -34.738  13.643  -6.651  1.00 20.00     0.136 C 
HETATM    2  C2  UNL     1     -34.078  14.178  -7.918  1.00 20.00     0.084 C 
HETATM    3  C3  UNL     1     -33.874  15.804  -3.679  1.00 20.00     0.002 C 
HETATM    4  C4  UNL     1     -33.294  16.485  -4.937  1.00 20.00     0.006 C 
HETATM    5  C5  UNL     1     -35.153  16.396  -7.389  1.00 20.00     0.006 C 
HETATM    6  C6  UNL     1     -34.711  14.594  -4.155  1.00 20.00     0.018 C 
HETATM    7  C7  UNL     1     -35.852  15.764  -6.173  1.00 20.00     0.018 C 
HETATM    8  C8  UNL     1     -33.811  15.646  -7.458  1.00 20.00    -0.002 C 
HETATM    9  C9  UNL     1     -33.445  15.413  -5.997  1.00 20.00     0.006 C 
HETATM   10  C10 UNL     1     -34.796  14.771  -5.645  1.00 20.00     0.024 C 
HETATM   11  O11 UNL     1     -35.167  12.512  -6.491  1.00 20.00    -0.297 OA
ENDROOT
TORSDOF 0
ENDMDL
MODEL 4
REMARK VINA RESULT:      -4.7     11.896     13.435
REMARK  0 active torsions:
REMARK  status: ('A' for Active; 'I' for Inactive)
ROOT
HETATM    1  C1  UNL     1     -36.991  14.547  -4.913  1.00 20.00     0.136 C 
HETATM    2  C2  UNL     1     -36.888  15.931  -4.279  1.00 20.00     0.084 C 
HETATM    3  C3  UNL     1     -34.233  14.024  -7.436  1.00 20.00     0.002 C 
HETATM    4  C4  UNL     1     -33.979  15.378  -6.739  1.00 20.00     0.006 C 
HETATM    5  C5  UNL     1     -34.502  15.351  -3.706  1.00 20.00     0.006 C 
HETATM    6  C6  UNL     1     -35.424  13.351  -6.715  1.00 20.00     0.018 C 
HETATM    7  C7  UNL     1     -34.707  13.943  -4.289  1.00 20.00     0.018 C 
HETATM    8  C8  UNL     1     -35.391  16.238  -4.596  1.00 20.00    -0.002 C 
HETATM    9  C9  UNL     1     -35.269  15.609  -5.979  1.00 20.00     0.006 C 
HETATM   10  C10 UNL     1     -35.638  14.200  -5.493  1.00 20.00     0.024 C 
HETATM   11  O11 UNL     1     -37.983  13.837  -4.924  1.00 20.00    -0.297 OA
ENDROOT
TORSDOF 0
ENDMDL
MODEL 5
REMARK VINA RESULT:      -4.6      1.737      3.080
REMARK  0 active torsions:
REMARK  status: ('A' for Active; 'I' for Inactive)
ROOT
HETATM    1  C1  UNL     1     -33.899   6.793   5.646  1.00 20.00     0.136 C 
HETATM    2  C2  UNL     1     -34.526   5.432   5.934  1.00 20.00     0.084 C 
HETATM    3  C3  UNL     1     -32.227   6.802   2.262  1.00 20.00     0.002 C 
HETATM    4  C4  UNL     1     -32.956   5.451   2.420  1.00 20.00     0.006 C 
HETATM    5  C5  UNL     1     -35.732   5.663   3.732  1.00 20.00     0.006 C 
HETATM    6  C6  UNL     1     -32.602   7.673   3.483  1.00 20.00     0.018 C 
HETATM    7  C7  UNL     1     -35.126   7.065   3.551  1.00 20.00     0.018 C 
HETATM    8  C8  UNL     1     -34.627   4.890   4.474  1.00 20.00    -0.002 C 
HETATM    9  C9  UNL     1     -33.334   5.445   3.886  1.00 20.00     0.006 C 
HETATM   10  C10 UNL     1     -33.712   6.910   4.149  1.00 20.00     0.024 C 
HETATM   11  O11 UNL     1     -33.623   7.644   6.475  1.00 20.00    -0.297 OA
ENDROOT
TORSDOF 0
ENDMDL
MODEL 6
REMARK VINA RESULT:      -4.6     11.854     12.855
REMARK  0 active torsions:
REMARK  status: ('A' for Active; 'I' for Inactive)
ROOT
HETATM    1  C1  UNL     1     -34.942  13.977  -4.647  1.00 20.00     0.136 C 
HETATM    2  C2  UNL     1     -33.452  14.050  -4.324  1.00 20.00     0.084 C 
HETATM    3  C3  UNL     1     -36.776  16.926  -3.168  1.00 20.00     0.002 C 
HETATM    4  C4  UNL     1     -35.267  17.143  -2.925  1.00 20.00     0.006 C 
HETATM    5  C5  UNL     1     -33.481  16.370  -5.310  1.00 20.00     0.006 C 
HETATM    6  C6  UNL     1     -36.922  15.669  -4.056  1.00 20.00     0.018 C 
HETATM    7  C7  UNL     1     -34.964  16.191  -5.680  1.00 20.00     0.018 C 
HETATM    8  C8  UNL     1     -33.343  15.573  -4.001  1.00 20.00    -0.002 C 
HETATM    9  C9  UNL     1     -34.672  15.799  -3.291  1.00 20.00     0.006 C 
HETATM   10  C10 UNL     1     -35.518  15.368  -4.498  1.00 20.00     0.024 C 
HETATM   11  O11 UNL     1     -35.551  12.978  -4.991  1.00 20.00    -0.297 OA
ENDROOT
TORSDOF 0
ENDMDL
MODEL 7
REMARK VINA RESULT:      -4.5     12.506     13.010
REMARK  0 active torsions:
REMARK  status: ('A' for Active; 'I' for Inactive)
ROOT
HETATM    1  C1  UNL     1     -35.302  14.735  -4.735  1.00 20.00     0.136 C 
HETATM    2  C2  UNL     1     -33.971  14.449  -5.424  1.00 20.00     0.084 C 
HETATM    3  C3  UNL     1     -34.811  17.045  -1.791  1.00 20.00     0.002 C 
HETATM    4  C4  UNL     1     -33.455  16.919  -2.517  1.00 20.00     0.006 C 
HETATM    5  C5  UNL     1     -33.663  16.946  -5.588  1.00 20.00     0.006 C 
HETATM    6  C6  UNL     1     -35.863  16.303  -2.647  1.00 20.00     0.018 C 
HETATM    7  C7  UNL     1     -35.053  17.155  -4.963  1.00 20.00     0.018 C 
HETATM    8  C8  UNL     1     -33.151  15.669  -4.898  1.00 20.00    -0.002 C 
HETATM    9  C9  UNL     1     -33.697  15.774  -3.479  1.00 20.00     0.006 C 
HETATM   10  C10 UNL     1     -35.145  16.009  -3.934  1.00 20.00     0.024 C 
HETATM   11  O11 UNL     1     -36.318  14.068  -4.837  1.00 20.00    -0.297 OA
ENDROOT
TORSDOF 0
ENDMDL
MODEL 8
REMARK VINA RESULT:      -4.5     12.376     13.661
REMARK  0 active torsions:
REMARK  status: ('A' for Active; 'I' for Inactive)
ROOT
HETATM    1  C1  UNL     1     -33.674  14.387  -5.085  1.00 20.00     0.136 C 
HETATM    2  C2  UNL     1     -32.988  15.607  -5.693  1.00 20.00     0.084 C 
HETATM    3  C3  UNL     1     -37.338  14.325  -5.993  1.00 20.00     0.002 C 
HETATM    4  C4  UNL     1     -36.686  15.498  -6.756  1.00 20.00     0.006 C 
HETATM    5  C5  UNL     1     -33.908  14.858  -7.918  1.00 20.00     0.006 C 
HETATM    6  C6  UNL     1     -36.203  13.549  -5.285  1.00 20.00     0.018 C 
HETATM    7  C7  UNL     1     -34.502  13.607  -7.248  1.00 20.00     0.018 C 
HETATM    8  C8  UNL     1     -34.016  15.933  -6.821  1.00 20.00    -0.002 C 
HETATM    9  C9  UNL     1     -35.321  15.601  -6.108  1.00 20.00     0.006 C 
HETATM   10  C10 UNL     1     -34.945  14.132  -5.865  1.00 20.00     0.024 C 
HETATM   11  O11 UNL     1     -33.256  13.722  -4.152  1.00 20.00    -0.297 OA
ENDROOT
TORSDOF 0
ENDMDL
MODEL 9
REMARK VINA RESULT:      -4.5     12.265     13.731
REMARK  0 active torsions:
REMARK  status: ('A' for Active; 'I' for Inactive)
ROOT
HETATM    1  C1  UNL     1     -35.267  13.422  -6.130  1.00 20.00     0.136 C 
HETATM    2  C2  UNL     1     -36.301  13.659  -5.033  1.00 20.00     0.084 C 
HETATM    3  C3  UNL     1     -33.910  16.701  -7.417  1.00 20.00     0.002 C 
HETATM    4  C4  UNL     1     -34.834  17.014  -6.221  1.00 20.00     0.006 C 
HETATM    5  C5  UNL     1     -34.555  15.053  -3.864  1.00 20.00     0.006 C 
HETATM    6  C6  UNL     1     -33.785  15.162  -7.511  1.00 20.00     0.018 C 
HETATM    7  C7  UNL     1     -33.541  14.701  -4.967  1.00 20.00     0.018 C 
HETATM    8  C8  UNL     1     -35.896  15.108  -4.619  1.00 20.00    -0.002 C 
HETATM    9  C9  UNL     1     -35.528  15.689  -5.979  1.00 20.00     0.006 C 
HETATM   10  C10 UNL     1     -34.413  14.665  -6.240  1.00 20.00     0.024 C 
HETATM   11  O11 UNL     1     -35.138  12.399  -6.782  1.00 20.00    -0.297 OA
ENDROOT
TORSDOF 0
ENDMDL
