MODEL 1
REMARK VINA RESULT:      -4.8      0.000      0.000
REMARK  1 active torsions:
REMARK  status: ('A' for Active; 'I' for Inactive)
REMARK    1  A    between atoms: C3_3  and  C5_5 
ROOT
HETATM    1  C1  UNL     1     -32.620   8.093   2.483  1.00 20.00     0.221 A 
HETATM    2  C4  UNL     1     -34.011   7.433   2.477  1.00 20.00     0.138 A 
HETATM    3  C5  UNL     1     -33.381   6.373   3.426  1.00 20.00     0.060 A 
HETATM    4  C7  UNL     1     -33.191   4.982   2.845  1.00 20.00     0.044 C 
HETATM    5  N8  UNL     1     -32.145   7.149   3.340  1.00 20.00    -0.348 N 
HETATM    6  O9  UNL     1     -32.104   9.054   1.961  1.00 20.00    -0.273 OA
HETATM    7  H20 UNL     1     -31.222   7.034   3.734  1.00 20.00     0.163 HD
ENDROOT
BRANCH   3   8
HETATM    8  C3  UNL     1     -33.921   6.367   4.803  1.00 20.00    -0.065 C 
HETATM    9  C2  UNL     1     -33.703   7.379   5.655  1.00 20.00     0.016 C 
HETATM   10  C6  UNL     1     -34.727   5.163   5.191  1.00 20.00     0.045 C 
ENDBRANCH   3   8
TORSDOF 1
ENDMDL
MODEL 2
REMARK VINA RESULT:      -4.7      1.056      2.125
REMARK  1 active torsions:
REMARK  status: ('A' for Active; 'I' for Inactive)
REMARK    1  A    between atoms: C3_3  and  C5_5 
ROOT
HETATM    1  C1  UNL     1     -32.642   8.412   2.354  1.00 20.00     0.221 A 
HETATM    2  C4  UNL     1     -31.871   7.429   3.255  1.00 20.00     0.138 A 
HETATM    3  C5  UNL     1     -33.263   7.066   3.848  1.00 20.00     0.060 A 
HETATM    4  C7  UNL     1     -33.517   7.509   5.278  1.00 20.00     0.044 C 
HETATM    5  N8  UNL     1     -33.827   8.021   2.896  1.00 20.00    -0.348 N 
HETATM    6  O9  UNL     1     -32.363   9.220   1.499  1.00 20.00    -0.273 OA
HETATM    7  H20 UNL     1     -34.767   8.341   2.705  1.00 20.00     0.163 HD
ENDROOT
BRANCH   3   8
HETATM    8  C3  UNL     1     -33.722   5.688   3.568  1.00 20.00    -0.065 C 
HETATM    9  C2  UNL     1     -33.118   4.912   2.656  1.00 20.00     0.016 C 
HETATM   10  C6  UNL     1     -34.900   5.210   4.362  1.00 20.00     0.045 C 
ENDBRANCH   3   8
TORSDOF 1
ENDMDL
MODEL 3
REMARK VINA RESULT:      -4.4      1.263      1.733
REMARK  1 active torsions:
REMARK  status: ('A' for Active; 'I' for Inactive)
REMARK    1  A    between atoms: C3_3  and  C5_5 
ROOT
HETATM    1  C1  UNL     1     -32.271   7.597   3.361  1.00 20.00     0.221 A 
HETATM    2  C4  UNL     1     -33.727   7.810   3.814  1.00 20.00     0.138 A 
HETATM    3  C5  UNL     1     -33.943   6.322   3.414  1.00 20.00     0.060 A 
HETATM    4  C7  UNL     1     -34.811   6.077   2.192  1.00 20.00     0.044 C 
HETATM    5  N8  UNL     1     -32.525   6.295   3.063  1.00 20.00    -0.348 N 
HETATM    6  O9  UNL     1     -31.271   8.273   3.282  1.00 20.00    -0.273 OA
HETATM    7  H20 UNL     1     -31.915   5.583   2.685  1.00 20.00     0.163 HD
ENDROOT
BRANCH   3   8
HETATM    8  C3  UNL     1     -34.241   5.409   4.539  1.00 20.00    -0.065 C 
HETATM    9  C2  UNL     1     -34.298   4.079   4.376  1.00 20.00     0.016 C 
HETATM   10  C6  UNL     1     -34.473   6.055   5.872  1.00 20.00     0.045 C 
ENDBRANCH   3   8
TORSDOF 1
ENDMDL
MODEL 4
REMARK VINA RESULT:      -4.2     10.967     11.864
REMARK  1 active torsions:
REMARK  status: ('A' for Active; 'I' for Inactive)
REMARK    1  A    between atoms: C3_3  and  C5_5 
ROOT
HETATM    1  C1  UNL     1     -35.345  13.823  -4.818  1.00 20.00     0.221 A 
HETATM    2  C4  UNL     1     -34.066  14.122  -4.014  1.00 20.00     0.138 A 
HETATM    3  C5  UNL     1     -34.391  15.620  -4.282  1.00 20.00     0.060 A 
HETATM    4  C7  UNL     1     -33.454  16.350  -5.229  1.00 20.00     0.044 C 
HETATM    5  N8  UNL     1     -35.584  15.152  -4.985  1.00 20.00    -0.348 N 
HETATM    6  O9  UNL     1     -35.941  12.835  -5.181  1.00 20.00    -0.273 OA
HETATM    7  H20 UNL     1     -36.332  15.621  -5.477  1.00 20.00     0.163 HD
ENDROOT
BRANCH   3   8
HETATM    8  C3  UNL     1     -34.745  16.408  -3.081  1.00 20.00    -0.065 C 
HETATM    9  C2  UNL     1     -36.020  16.638  -2.735  1.00 20.00     0.016 C 
HETATM   10  C6  UNL     1     -33.596  16.933  -2.273  1.00 20.00     0.045 C 
ENDBRANCH   3   8
TORSDOF 1
ENDMDL
MODEL 5
REMARK VINA RESULT:      -4.2     11.483     11.839
REMARK  1 active torsions:
REMARK  status: ('A' for Active; 'I' for Inactive)
REMARK    1  A    between atoms: C3_3  and  C5_5 
ROOT
HETATM    1  C1  UNL     1     -35.362  13.213  -6.106  1.00 20.00     0.221 A 
HETATM    2  C4  UNL     1     -35.396  14.746  -6.244  1.00 20.00     0.138 A 
HETATM    3  C5  UNL     1     -35.654  14.759  -4.710  1.00 20.00     0.060 A 
HETATM    4  C7  UNL     1     -37.039  15.196  -4.266  1.00 20.00     0.044 C 
HETATM    5  N8  UNL     1     -35.557  13.301  -4.763  1.00 20.00    -0.348 N 
HETATM    6  O9  UNL     1     -35.222  12.269  -6.850  1.00 20.00    -0.273 OA
HETATM    7  H20 UNL     1     -35.643  12.572  -4.069  1.00 20.00     0.163 HD
ENDROOT
BRANCH   3   8
HETATM    8  C3  UNL     1     -34.564  15.344  -3.897  1.00 20.00    -0.065 C 
HETATM    9  C2  UNL     1     -33.272  15.117  -4.177  1.00 20.00     0.016 C 
HETATM   10  C6  UNL     1     -34.988  16.203  -2.744  1.00 20.00     0.045 C 
ENDBRANCH   3   8
TORSDOF 1
ENDMDL
MODEL 6
REMARK VINA RESULT:      -4.0     11.188     12.390
REMARK  1 active torsions:
REMARK  status: ('A' for Active; 'I' for Inactive)
REMARK    1  A    between atoms: C3_3  and  C5_5 
ROOT
HETATM    1  C1  UNL     1     -35.518  13.708  -4.902  1.00 20.00     0.221 A 
HETATM    2  C4  UNL     1     -36.035  15.157  -4.961  1.00 20.00     0.138 A 
HETATM    3  C5  UNL     1     -34.671  15.545  -4.323  1.00 20.00     0.060 A 
HETATM    4  C7  UNL     1     -34.719  16.040  -2.888  1.00 20.00     0.044 C 
HETATM    5  N8  UNL     1     -34.334  14.124  -4.375  1.00 20.00    -0.348 N 
HETATM    6  O9  UNL     1     -35.943  12.614  -5.190  1.00 20.00    -0.273 OA
HETATM    7  H20 UNL     1     -33.526  13.588  -4.089  1.00 20.00     0.163 HD
ENDROOT
BRANCH   3   8
HETATM    8  C3  UNL     1     -33.779  16.344  -5.191  1.00 20.00    -0.065 C 
HETATM    9  C2  UNL     1     -33.253  15.844  -6.319  1.00 20.00     0.016 C 
HETATM   10  C6  UNL     1     -33.496  17.745  -4.738  1.00 20.00     0.045 C 
ENDBRANCH   3   8
TORSDOF 1
ENDMDL
MODEL 7
REMARK VINA RESULT:      -4.0      2.514      3.725
REMARK  1 active torsions:
REMARK  status: ('A' for Active; 'I' for Inactive)
REMARK    1  A    between atoms: C3_3  and  C5_5 
ROOT
HETATM    1  C1  UNL     1     -34.446   4.827   4.357  1.00 20.00     0.221 A 
HETATM    2  C4  UNL     1     -35.033   6.200   3.985  1.00 20.00     0.138 A 
HETATM    3  C5  UNL     1     -33.679   6.782   4.483  1.00 20.00     0.060 A 
HETATM    4  C7  UNL     1     -33.729   7.587   5.770  1.00 20.00     0.044 C 
HETATM    5  N8  UNL     1     -33.276   5.402   4.745  1.00 20.00    -0.348 N 
HETATM    6  O9  UNL     1     -34.822   3.678   4.334  1.00 20.00    -0.273 OA
HETATM    7  H20 UNL     1     -32.439   4.981   5.124  1.00 20.00     0.163 HD
ENDROOT
BRANCH   3   8
HETATM    8  C3  UNL     1     -32.840   7.401   3.434  1.00 20.00    -0.065 C 
HETATM    9  C2  UNL     1     -33.083   7.210   2.129  1.00 20.00     0.016 C 
HETATM   10  C6  UNL     1     -31.704   8.254   3.914  1.00 20.00     0.045 C 
ENDBRANCH   3   8
TORSDOF 1
ENDMDL
MODEL 8
REMARK VINA RESULT:      -4.0     11.133     12.572
REMARK  1 active torsions:
REMARK  status: ('A' for Active; 'I' for Inactive)
REMARK    1  A    between atoms: C3_3  and  C5_5 
ROOT
HETATM    1  C1  UNL     1     -37.120  14.170  -5.091  1.00 20.00     0.221 A 
HETATM    2  C4  UNL     1     -36.234  15.427  -5.028  1.00 20.00     0.138 A 
HETATM    3  C5  UNL     1     -35.041  14.451  -5.238  1.00 20.00     0.060 A 
HETATM    4  C7  UNL     1     -34.113  14.261  -4.049  1.00 20.00     0.044 C 
HETATM    5  N8  UNL     1     -36.033  13.380  -5.304  1.00 20.00    -0.348 N 
HETATM    6  O9  UNL     1     -38.301  13.925  -4.997  1.00 20.00    -0.273 OA
HETATM    7  H20 UNL     1     -35.970  12.378  -5.423  1.00 20.00     0.163 HD
ENDROOT
BRANCH   3   8
HETATM    8  C3  UNL     1     -34.325  14.605  -6.523  1.00 20.00    -0.065 C 
HETATM    9  C2  UNL     1     -34.408  13.685  -7.496  1.00 20.00     0.016 C 
HETATM   10  C6  UNL     1     -33.501  15.849  -6.676  1.00 20.00     0.045 C 
ENDBRANCH   3   8
TORSDOF 1
ENDMDL
MODEL 9
REMARK VINA RESULT:      -4.0      2.236      3.209
REMARK  1 active torsions:
REMARK  status: ('A' for Active; 'I' for Inactive)
REMARK    1  A    between atoms: C3_3  and  C5_5 
ROOT
HETATM    1  C1  UNL     1     -33.675   7.196   5.635  1.00 20.00     0.221 A 
HETATM    2  C4  UNL     1     -34.575   5.955   5.770  1.00 20.00     0.138 A 
HETATM    3  C5  UNL     1     -34.506   5.882   4.218  1.00 20.00     0.060 A 
HETATM    4  C7  UNL     1     -35.790   6.203   3.474  1.00 20.00     0.044 C 
HETATM    5  N8  UNL     1     -33.632   7.051   4.283  1.00 20.00    -0.348 N 
HETATM    6  O9  UNL     1     -33.178   8.005   6.385  1.00 20.00    -0.273 OA
HETATM    7  H20 UNL     1     -33.169   7.614   3.582  1.00 20.00     0.163 HD
ENDROOT
BRANCH   3   8
HETATM    8  C3  UNL     1     -33.793   4.702   3.679  1.00 20.00    -0.065 C 
HETATM    9  C2  UNL     1     -33.874   3.498   4.263  1.00 20.00     0.016 C 
HETATM   10  C6  UNL     1     -32.975   4.932   2.444  1.00 20.00     0.045 C 
ENDBRANCH   3   8
TORSDOF 1
ENDMDL
