MODEL 1
REMARK VINA RESULT:      -4.5      0.000      0.000
REMARK  0 active torsions:
REMARK  status: ('A' for Active; 'I' for Inactive)
ROOT
HETATM    1  C1  UNL     1     -33.223   5.541   3.053  1.00 20.00     0.272 A 
HETATM    2  C2  UNL     1     -33.827   6.967   4.697  1.00 20.00     0.272 A 
HETATM    3  C3  UNL     1     -33.402   6.840   2.374  1.00 20.00     0.109 A 
HETATM    4  C4  UNL     1     -33.806   7.793   3.474  1.00 20.00     0.109 A 
HETATM    5  C5  UNL     1     -32.547   8.051   2.675  1.00 20.00    -0.021 A 
HETATM    6  C6  UNL     1     -31.197   7.874   3.323  1.00 20.00     0.016 C 
HETATM    7  C7  UNL     1     -32.586   9.182   1.678  1.00 20.00     0.016 C 
HETATM    8  O8  UNL     1     -32.884   4.514   2.486  1.00 20.00    -0.264 OA
HETATM    9  O9  UNL     1     -34.103   7.395   5.806  1.00 20.00    -0.264 OA
HETATM   10  O10 UNL     1     -33.501   5.672   4.389  1.00 20.00    -0.244 OA
ENDROOT
TORSDOF 0
ENDMDL
MODEL 2
REMARK VINA RESULT:      -4.5     10.813     12.086
REMARK  0 active torsions:
REMARK  status: ('A' for Active; 'I' for Inactive)
ROOT
HETATM    1  C1  UNL     1     -35.196  13.772  -5.193  1.00 20.00     0.272 A 
HETATM    2  C2  UNL     1     -33.942  15.456  -6.027  1.00 20.00     0.272 A 
HETATM    3  C3  UNL     1     -34.701  14.494  -4.004  1.00 20.00     0.109 A 
HETATM    4  C4  UNL     1     -33.863  15.620  -4.562  1.00 20.00     0.109 A 
HETATM    5  C5  UNL     1     -35.067  15.930  -3.701  1.00 20.00    -0.021 A 
HETATM    6  C6  UNL     1     -36.299  16.537  -4.323  1.00 20.00     0.016 C 
HETATM    7  C7  UNL     1     -34.801  16.424  -2.301  1.00 20.00     0.016 C 
HETATM    8  O8  UNL     1     -35.923  12.793  -5.145  1.00 20.00    -0.264 OA
HETATM    9  O9  UNL     1     -33.392  16.195  -6.828  1.00 20.00    -0.264 OA
HETATM   10  O10 UNL     1     -34.709  14.361  -6.332  1.00 20.00    -0.244 OA
ENDROOT
TORSDOF 0
ENDMDL
MODEL 3
REMARK VINA RESULT:      -4.4     10.914     12.163
REMARK  0 active torsions:
REMARK  status: ('A' for Active; 'I' for Inactive)
ROOT
HETATM    1  C1  UNL     1     -34.695  15.470  -6.646  1.00 20.00     0.272 A 
HETATM    2  C2  UNL     1     -35.550  13.728  -5.489  1.00 20.00     0.272 A 
HETATM    3  C3  UNL     1     -34.905  15.994  -5.281  1.00 20.00     0.109 A 
HETATM    4  C4  UNL     1     -35.477  14.828  -4.508  1.00 20.00     0.109 A 
HETATM    5  C5  UNL     1     -34.173  15.458  -4.071  1.00 20.00    -0.021 A 
HETATM    6  C6  UNL     1     -32.878  14.705  -4.251  1.00 20.00     0.016 C 
HETATM    7  C7  UNL     1     -34.202  16.302  -2.822  1.00 20.00     0.016 C 
HETATM    8  O8  UNL     1     -34.233  16.126  -7.565  1.00 20.00    -0.264 OA
HETATM    9  O9  UNL     1     -35.957  12.607  -5.230  1.00 20.00    -0.264 OA
HETATM   10  O10 UNL     1     -35.104  14.163  -6.711  1.00 20.00    -0.244 OA
ENDROOT
TORSDOF 0
ENDMDL
MODEL 4
REMARK VINA RESULT:      -4.4     10.770     12.110
REMARK  0 active torsions:
REMARK  status: ('A' for Active; 'I' for Inactive)
ROOT
HETATM    1  C1  UNL     1     -35.980  14.010  -5.151  1.00 20.00     0.272 A 
HETATM    2  C2  UNL     1     -33.779  14.108  -4.649  1.00 20.00     0.272 A 
HETATM    3  C3  UNL     1     -35.491  15.217  -5.847  1.00 20.00     0.109 A 
HETATM    4  C4  UNL     1     -34.019  15.282  -5.510  1.00 20.00     0.109 A 
HETATM    5  C5  UNL     1     -34.460  15.169  -6.953  1.00 20.00    -0.021 A 
HETATM    6  C6  UNL     1     -34.232  13.885  -7.710  1.00 20.00     0.016 C 
HETATM    7  C7  UNL     1     -34.320  16.400  -7.813  1.00 20.00     0.016 C 
HETATM    8  O8  UNL     1     -37.135  13.618  -5.193  1.00 20.00    -0.264 OA
HETATM    9  O9  UNL     1     -32.691  13.815  -4.180  1.00 20.00    -0.264 OA
HETATM   10  O10 UNL     1     -34.951  13.422  -4.459  1.00 20.00    -0.244 OA
ENDROOT
TORSDOF 0
ENDMDL
MODEL 5
REMARK VINA RESULT:      -4.4     11.096     11.928
REMARK  0 active torsions:
REMARK  status: ('A' for Active; 'I' for Inactive)
ROOT
HETATM    1  C1  UNL     1     -35.577  13.294  -6.176  1.00 20.00     0.272 A 
HETATM    2  C2  UNL     1     -36.957  14.565  -4.917  1.00 20.00     0.272 A 
HETATM    3  C3  UNL     1     -35.088  14.675  -6.363  1.00 20.00     0.109 A 
HETATM    4  C4  UNL     1     -36.011  15.524  -5.520  1.00 20.00     0.109 A 
HETATM    5  C5  UNL     1     -34.526  15.510  -5.234  1.00 20.00    -0.021 A 
HETATM    6  C6  UNL     1     -34.009  14.835  -3.988  1.00 20.00     0.016 C 
HETATM    7  C7  UNL     1     -33.741  16.739  -5.615  1.00 20.00     0.016 C 
HETATM    8  O8  UNL     1     -35.072  12.314  -6.699  1.00 20.00    -0.264 OA
HETATM    9  O9  UNL     1     -37.857  14.879  -4.155  1.00 20.00    -0.264 OA
HETATM   10  O10 UNL     1     -36.670  13.295  -5.347  1.00 20.00    -0.244 OA
ENDROOT
TORSDOF 0
ENDMDL
MODEL 6
REMARK VINA RESULT:      -4.3     10.939     12.223
REMARK  0 active torsions:
REMARK  status: ('A' for Active; 'I' for Inactive)
ROOT
HETATM    1  C1  UNL     1     -33.789  16.950  -5.236  1.00 20.00     0.272 A 
HETATM    2  C2  UNL     1     -33.297  14.926  -4.360  1.00 20.00     0.272 A 
HETATM    3  C3  UNL     1     -34.807  16.739  -4.188  1.00 20.00     0.109 A 
HETATM    4  C4  UNL     1     -34.478  15.385  -3.602  1.00 20.00     0.109 A 
HETATM    5  C5  UNL     1     -34.465  16.613  -2.720  1.00 20.00    -0.021 A 
HETATM    6  C6  UNL     1     -33.154  17.155  -2.207  1.00 20.00     0.016 C 
HETATM    7  C7  UNL     1     -35.598  16.765  -1.736  1.00 20.00     0.016 C 
HETATM    8  O8  UNL     1     -33.722  17.950  -5.932  1.00 20.00    -0.264 OA
HETATM    9  O9  UNL     1     -32.730  13.863  -4.163  1.00 20.00    -0.264 OA
HETATM   10  O10 UNL     1     -32.957  15.861  -5.303  1.00 20.00    -0.244 OA
ENDROOT
TORSDOF 0
ENDMDL
MODEL 7
REMARK VINA RESULT:      -4.3     11.075     12.033
REMARK  0 active torsions:
REMARK  status: ('A' for Active; 'I' for Inactive)
ROOT
HETATM    1  C1  UNL     1     -37.363  14.995  -4.476  1.00 20.00     0.272 A 
HETATM    2  C2  UNL     1     -35.915  13.458  -5.279  1.00 20.00     0.272 A 
HETATM    3  C3  UNL     1     -36.074  15.326  -3.837  1.00 20.00     0.109 A 
HETATM    4  C4  UNL     1     -35.106  14.298  -4.374  1.00 20.00     0.109 A 
HETATM    5  C5  UNL     1     -34.857  15.770  -4.618  1.00 20.00    -0.021 A 
HETATM    6  C6  UNL     1     -35.023  16.340  -6.004  1.00 20.00     0.016 C 
HETATM    7  C7  UNL     1     -33.739  16.416  -3.838  1.00 20.00     0.016 C 
HETATM    8  O8  UNL     1     -38.396  15.618  -4.292  1.00 20.00    -0.264 OA
HETATM    9  O9  UNL     1     -35.472  12.515  -5.914  1.00 20.00    -0.264 OA
HETATM   10  O10 UNL     1     -37.214  13.896  -5.282  1.00 20.00    -0.244 OA
ENDROOT
TORSDOF 0
ENDMDL
MODEL 8
REMARK VINA RESULT:      -4.3     10.838     12.074
REMARK  0 active torsions:
REMARK  status: ('A' for Active; 'I' for Inactive)
ROOT
HETATM    1  C1  UNL     1     -34.485  14.818  -4.186  1.00 20.00     0.272 A 
HETATM    2  C2  UNL     1     -35.194  16.810  -4.981  1.00 20.00     0.272 A 
HETATM    3  C3  UNL     1     -33.614  15.813  -3.530  1.00 20.00     0.109 A 
HETATM    4  C4  UNL     1     -34.089  17.146  -4.062  1.00 20.00     0.109 A 
HETATM    5  C5  UNL     1     -34.137  16.865  -2.577  1.00 20.00    -0.021 A 
HETATM    6  C6  UNL     1     -35.467  16.662  -1.894  1.00 20.00     0.016 C 
HETATM    7  C7  UNL     1     -33.124  17.570  -1.711  1.00 20.00     0.016 C 
HETATM    8  O8  UNL     1     -34.410  13.614  -3.998  1.00 20.00    -0.264 OA
HETATM    9  O9  UNL     1     -35.842  17.637  -5.602  1.00 20.00    -0.264 OA
HETATM   10  O10 UNL     1     -35.364  15.450  -5.027  1.00 20.00    -0.244 OA
ENDROOT
TORSDOF 0
ENDMDL
MODEL 9
REMARK VINA RESULT:      -4.2     10.712     11.605
REMARK  0 active torsions:
REMARK  status: ('A' for Active; 'I' for Inactive)
ROOT
HETATM    1  C1  UNL     1     -33.828  14.182  -4.468  1.00 20.00     0.272 A 
HETATM    2  C2  UNL     1     -36.061  14.170  -4.811  1.00 20.00     0.272 A 
HETATM    3  C3  UNL     1     -34.147  15.557  -4.900  1.00 20.00     0.109 A 
HETATM    4  C4  UNL     1     -35.641  15.549  -5.129  1.00 20.00     0.109 A 
HETATM    5  C5  UNL     1     -35.038  16.484  -4.104  1.00 20.00    -0.021 A 
HETATM    6  C6  UNL     1     -35.261  16.231  -2.634  1.00 20.00     0.016 C 
HETATM    7  C7  UNL     1     -34.991  17.950  -4.456  1.00 20.00     0.016 C 
HETATM    8  O8  UNL     1     -32.705  13.799  -4.179  1.00 20.00    -0.264 OA
HETATM    9  O9  UNL     1     -37.214  13.776  -4.870  1.00 20.00    -0.264 OA
HETATM   10  O10 UNL     1     -34.969  13.421  -4.455  1.00 20.00    -0.244 OA
ENDROOT
TORSDOF 0
ENDMDL
