MODEL 1
REMARK VINA RESULT:      -3.6      0.000      0.000
REMARK  0 active torsions:
REMARK  status: ('A' for Active; 'I' for Inactive)
ROOT
HETATM    1  C1  UNL     1     -34.502   5.828   5.685  1.00 20.00    -0.019 C 
HETATM    2  C2  UNL     1     -34.685   5.230   4.505  1.00 20.00     0.080 C 
HETATM    3  C3  UNL     1     -33.823   7.148   5.843  1.00 20.00     0.037 C 
HETATM    4 CL4  UNL     1     -34.160   5.909   3.022  1.00 20.00    -0.097 Cl
ENDROOT
TORSDOF 0
ENDMDL
MODEL 2
REMARK VINA RESULT:      -3.6      1.811      2.389
REMARK  0 active torsions:
REMARK  status: ('A' for Active; 'I' for Inactive)
ROOT
HETATM    1  C1  UNL     1     -34.689   5.212   4.408  1.00 20.00    -0.019 C 
HETATM    2  C2  UNL     1     -34.565   5.720   5.637  1.00 20.00     0.080 C 
HETATM    3  C3  UNL     1     -34.163   5.884   3.184  1.00 20.00     0.037 C 
HETATM    4 CL4  UNL     1     -33.784   7.211   5.959  1.00 20.00    -0.097 Cl
ENDROOT
TORSDOF 0
ENDMDL
MODEL 3
REMARK VINA RESULT:      -3.5      1.999      2.536
REMARK  0 active torsions:
REMARK  status: ('A' for Active; 'I' for Inactive)
ROOT
HETATM    1  C1  UNL     1     -34.362   5.715   3.847  1.00 20.00    -0.019 C 
HETATM    2  C2  UNL     1     -33.952   6.919   4.256  1.00 20.00     0.080 C 
HETATM    3  C3  UNL     1     -34.614   4.573   4.774  1.00 20.00     0.037 C 
HETATM    4 CL4  UNL     1     -33.665   7.299   5.902  1.00 20.00    -0.097 Cl
ENDROOT
TORSDOF 0
ENDMDL
MODEL 4
REMARK VINA RESULT:      -3.5      1.162      2.088
REMARK  0 active torsions:
REMARK  status: ('A' for Active; 'I' for Inactive)
ROOT
HETATM    1  C1  UNL     1     -34.583   5.366   5.678  1.00 20.00    -0.019 C 
HETATM    2  C2  UNL     1     -34.120   6.618   5.637  1.00 20.00     0.080 C 
HETATM    3  C3  UNL     1     -34.491   4.417   4.529  1.00 20.00     0.037 C 
HETATM    4 CL4  UNL     1     -33.361   7.290   4.257  1.00 20.00    -0.097 Cl
ENDROOT
TORSDOF 0
ENDMDL
MODEL 5
REMARK VINA RESULT:      -3.5      1.473      1.554
REMARK  0 active torsions:
REMARK  status: ('A' for Active; 'I' for Inactive)
ROOT
HETATM    1  C1  UNL     1     -33.929   6.998   4.394  1.00 20.00    -0.019 C 
HETATM    2  C2  UNL     1     -34.267   5.839   3.822  1.00 20.00     0.080 C 
HETATM    3  C3  UNL     1     -33.775   7.174   5.868  1.00 20.00     0.037 C 
HETATM    4 CL4  UNL     1     -34.564   4.408   4.715  1.00 20.00    -0.097 Cl
ENDROOT
TORSDOF 0
ENDMDL
MODEL 6
REMARK VINA RESULT:      -3.5      1.426      1.652
REMARK  0 active torsions:
REMARK  status: ('A' for Active; 'I' for Inactive)
ROOT
HETATM    1  C1  UNL     1     -34.015   6.849   5.499  1.00 20.00    -0.019 C 
HETATM    2  C2  UNL     1     -34.513   5.636   5.752  1.00 20.00     0.080 C 
HETATM    3  C3  UNL     1     -33.454   7.248   4.175  1.00 20.00     0.037 C 
HETATM    4 CL4  UNL     1     -34.570   4.386   4.583  1.00 20.00    -0.097 Cl
ENDROOT
TORSDOF 0
ENDMDL
MODEL 7
REMARK VINA RESULT:      -3.4      0.992      1.605
REMARK  0 active torsions:
REMARK  status: ('A' for Active; 'I' for Inactive)
ROOT
HETATM    1  C1  UNL     1     -34.106   6.657   5.405  1.00 20.00    -0.019 C 
HETATM    2  C2  UNL     1     -33.629   7.102   4.240  1.00 20.00     0.080 C 
HETATM    3  C3  UNL     1     -34.599   5.264   5.615  1.00 20.00     0.037 C 
HETATM    4 CL4  UNL     1     -33.523   6.123   2.838  1.00 20.00    -0.097 Cl
ENDROOT
TORSDOF 0
ENDMDL
MODEL 8
REMARK VINA RESULT:      -3.3      2.278      2.493
REMARK  0 active torsions:
REMARK  status: ('A' for Active; 'I' for Inactive)
ROOT
HETATM    1  C1  UNL     1     -34.076   5.993   3.566  1.00 20.00    -0.019 C 
HETATM    2  C2  UNL     1     -34.476   6.072   4.838  1.00 20.00     0.080 C 
HETATM    3  C3  UNL     1     -33.016   6.865   2.981  1.00 20.00     0.037 C 
HETATM    4 CL4  UNL     1     -33.816   7.188   5.957  1.00 20.00    -0.097 Cl
ENDROOT
TORSDOF 0
ENDMDL
MODEL 9
REMARK VINA RESULT:      -3.3      1.978      2.496
REMARK  0 active torsions:
REMARK  status: ('A' for Active; 'I' for Inactive)
ROOT
HETATM    1  C1  UNL     1     -33.567   7.141   4.239  1.00 20.00    -0.019 C 
HETATM    2  C2  UNL     1     -34.052   6.739   5.416  1.00 20.00     0.080 C 
HETATM    3  C3  UNL     1     -33.474   6.255   3.041  1.00 20.00     0.037 C 
HETATM    4 CL4  UNL     1     -34.631   5.151   5.696  1.00 20.00    -0.097 Cl
ENDROOT
TORSDOF 0
ENDMDL
