MODEL 1
REMARK VINA RESULT:      -4.7      0.000      0.000
REMARK  1 active torsions:
REMARK  status: ('A' for Active; 'I' for Inactive)
REMARK    1  A    between atoms: C7_7  and  N9_9 
ROOT
HETATM    1  C1  UNL     1     -32.194   8.590   4.659  1.00 20.00     0.031 C 
HETATM    2  C4  UNL     1     -33.089   7.413   5.040  1.00 20.00     0.019 C 
HETATM    3  C5  UNL     1     -31.388   8.287   3.394  1.00 20.00     0.273 C 
HETATM    4  C6  UNL     1     -33.071   6.721   2.611  1.00 20.00     0.288 C 
HETATM    5  C8  UNL     1     -33.933   6.987   3.845  1.00 20.00     0.086 C 
HETATM    6  N9  UNL     1     -32.207   7.855   2.254  1.00 20.00     0.094 N 
HETATM    7 BR10 UNL     1     -34.925   5.365   4.303  1.00 20.00    -0.089 Br
ENDROOT
BRANCH   6   8
HETATM    8  C7  UNL     1     -32.946   8.970   1.611  1.00 20.00     0.223 A 
HETATM    9  C2  UNL     1     -32.200  10.132   1.014  1.00 20.00     0.038 A 
HETATM   10  C3  UNL     1     -32.904   9.153   0.119  1.00 20.00     0.038 A 
ENDBRANCH   6   8
TORSDOF 1
ENDMDL
MODEL 2
REMARK VINA RESULT:      -4.0     10.513     11.082
REMARK  1 active torsions:
REMARK  status: ('A' for Active; 'I' for Inactive)
REMARK    1  A    between atoms: C7_7  and  N9_9 
ROOT
HETATM    1  C1  UNL     1     -33.223  15.076  -4.922  1.00 20.00     0.031 C 
HETATM    2  C4  UNL     1     -34.540  14.505  -5.442  1.00 20.00     0.019 C 
HETATM    3  C5  UNL     1     -33.340  16.577  -4.644  1.00 20.00     0.273 C 
HETATM    4  C6  UNL     1     -35.730  16.389  -4.253  1.00 20.00     0.288 C 
HETATM    5  C8  UNL     1     -35.681  14.882  -4.507  1.00 20.00     0.086 C 
HETATM    6  N9  UNL     1     -34.457  16.932  -3.759  1.00 20.00     0.094 N 
HETATM    7 BR10 UNL     1     -37.376  14.304  -5.293  1.00 20.00    -0.089 Br
ENDROOT
BRANCH   6   8
HETATM    8  C7  UNL     1     -34.199  16.608  -2.334  1.00 20.00     0.223 A 
HETATM    9  C2  UNL     1     -33.913  17.704  -1.344  1.00 20.00     0.038 A 
HETATM   10  C3  UNL     1     -35.211  16.954  -1.277  1.00 20.00     0.038 A 
ENDBRANCH   6   8
TORSDOF 1
ENDMDL
MODEL 3
REMARK VINA RESULT:      -4.0     10.276     11.374
REMARK  1 active torsions:
REMARK  status: ('A' for Active; 'I' for Inactive)
REMARK    1  A    between atoms: C7_7  and  N9_9 
ROOT
HETATM    1  C1  UNL     1     -33.748  17.288  -5.709  1.00 20.00     0.031 C 
HETATM    2  C4  UNL     1     -34.033  17.616  -4.245  1.00 20.00     0.019 C 
HETATM    3  C5  UNL     1     -33.169  15.879  -5.860  1.00 20.00     0.273 C 
HETATM    4  C6  UNL     1     -34.261  15.137  -3.821  1.00 20.00     0.288 C 
HETATM    5  C8  UNL     1     -34.882  16.519  -3.617  1.00 20.00     0.086 C 
HETATM    6  N9  UNL     1     -33.984  14.831  -5.232  1.00 20.00     0.094 N 
HETATM    7 BR10 UNL     1     -35.070  16.867  -1.702  1.00 20.00    -0.089 Br
ENDROOT
BRANCH   6   8
HETATM    8  C7  UNL     1     -35.205  14.497  -6.007  1.00 20.00     0.223 A 
HETATM    9  C2  UNL     1     -35.317  13.177  -6.718  1.00 20.00     0.038 A 
HETATM   10  C3  UNL     1     -36.163  13.451  -5.508  1.00 20.00     0.038 A 
ENDBRANCH   6   8
TORSDOF 1
ENDMDL
MODEL 4
REMARK VINA RESULT:      -3.9     10.583     11.215
REMARK  1 active torsions:
REMARK  status: ('A' for Active; 'I' for Inactive)
REMARK    1  A    between atoms: C7_7  and  N9_9 
ROOT
HETATM    1  C1  UNL     1     -35.293  13.882  -5.157  1.00 20.00     0.031 C 
HETATM    2  C4  UNL     1     -36.799  14.083  -5.313  1.00 20.00     0.019 C 
HETATM    3  C5  UNL     1     -34.543  15.212  -5.248  1.00 20.00     0.273 C 
HETATM    4  C6  UNL     1     -36.486  16.442  -4.465  1.00 20.00     0.288 C 
HETATM    5  C8  UNL     1     -37.289  15.148  -4.339  1.00 20.00     0.086 C 
HETATM    6  N9  UNL     1     -35.037  16.239  -4.321  1.00 20.00     0.094 N 
HETATM    7 BR10 UNL     1     -39.177  15.521  -4.690  1.00 20.00    -0.089 Br
ENDROOT
BRANCH   6   8
HETATM    8  C7  UNL     1     -34.618  16.008  -2.916  1.00 20.00     0.223 A 
HETATM    9  C2  UNL     1     -33.704  16.982  -2.225  1.00 20.00     0.038 A 
HETATM   10  C3  UNL     1     -35.143  16.881  -1.810  1.00 20.00     0.038 A 
ENDBRANCH   6   8
TORSDOF 1
ENDMDL
MODEL 5
REMARK VINA RESULT:      -3.8     10.443     11.664
REMARK  1 active torsions:
REMARK  status: ('A' for Active; 'I' for Inactive)
REMARK    1  A    between atoms: C7_7  and  N9_9 
ROOT
HETATM    1  C1  UNL     1     -35.323  14.035  -4.926  1.00 20.00     0.031 C 
HETATM    2  C4  UNL     1     -35.139  14.696  -6.290  1.00 20.00     0.019 C 
HETATM    3  C5  UNL     1     -34.095  14.245  -4.037  1.00 20.00     0.273 C 
HETATM    4  C6  UNL     1     -33.515  16.296  -5.202  1.00 20.00     0.288 C 
HETATM    5  C8  UNL     1     -34.732  16.154  -6.116  1.00 20.00     0.086 C 
HETATM    6  N9  UNL     1     -33.698  15.652  -3.893  1.00 20.00     0.094 N 
HETATM    7 BR10 UNL     1     -34.318  16.920  -7.867  1.00 20.00    -0.089 Br
ENDROOT
BRANCH   6   8
HETATM    8  C7  UNL     1     -34.585  16.419  -2.984  1.00 20.00     0.223 A 
HETATM    9  C2  UNL     1     -34.038  17.029  -1.723  1.00 20.00     0.038 A 
HETATM   10  C3  UNL     1     -34.449  17.912  -2.865  1.00 20.00     0.038 A 
ENDBRANCH   6   8
TORSDOF 1
ENDMDL
MODEL 6
REMARK VINA RESULT:      -3.7     10.104     11.233
REMARK  1 active torsions:
REMARK  status: ('A' for Active; 'I' for Inactive)
REMARK    1  A    between atoms: C7_7  and  N9_9 
ROOT
HETATM    1  C1  UNL     1     -33.749  15.547  -3.820  1.00 20.00     0.031 C 
HETATM    2  C4  UNL     1     -34.845  16.499  -3.348  1.00 20.00     0.019 C 
HETATM    3  C5  UNL     1     -34.299  14.137  -4.048  1.00 20.00     0.273 C 
HETATM    4  C6  UNL     1     -36.524  15.002  -4.496  1.00 20.00     0.288 C 
HETATM    5  C8  UNL     1     -36.038  16.437  -4.294  1.00 20.00     0.086 C 
HETATM    6  N9  UNL     1     -35.462  14.089  -4.944  1.00 20.00     0.094 N 
HETATM    7 BR10 UNL     1     -37.496  17.517  -3.564  1.00 20.00    -0.089 Br
ENDROOT
BRANCH   6   8
HETATM    8  C7  UNL     1     -35.106  14.267  -6.373  1.00 20.00     0.223 A 
HETATM    9  C2  UNL     1     -35.144  13.097  -7.317  1.00 20.00     0.038 A 
HETATM   10  C3  UNL     1     -36.164  14.191  -7.439  1.00 20.00     0.038 A 
ENDBRANCH   6   8
TORSDOF 1
ENDMDL
MODEL 7
REMARK VINA RESULT:      -3.7     10.330     11.591
REMARK  1 active torsions:
REMARK  status: ('A' for Active; 'I' for Inactive)
REMARK    1  A    between atoms: C7_7  and  N9_9 
ROOT
HETATM    1  C1  UNL     1     -33.390  14.522  -4.283  1.00 20.00     0.031 C 
HETATM    2  C4  UNL     1     -34.851  14.115  -4.455  1.00 20.00     0.019 C 
HETATM    3  C5  UNL     1     -32.989  15.594  -5.300  1.00 20.00     0.273 C 
HETATM    4  C6  UNL     1     -35.279  16.390  -5.468  1.00 20.00     0.288 C 
HETATM    5  C8  UNL     1     -35.744  15.350  -4.448  1.00 20.00     0.086 C 
HETATM    6  N9  UNL     1     -33.869  16.771  -5.301  1.00 20.00     0.094 N 
HETATM    7 BR10 UNL     1     -37.581  14.819  -4.859  1.00 20.00    -0.089 Br
ENDROOT
BRANCH   6   8
HETATM    8  C7  UNL     1     -33.641  17.671  -4.144  1.00 20.00     0.223 A 
HETATM    9  C2  UNL     1     -33.120  19.066  -4.356  1.00 20.00     0.038 A 
HETATM   10  C3  UNL     1     -34.538  18.856  -3.911  1.00 20.00     0.038 A 
ENDBRANCH   6   8
TORSDOF 1
ENDMDL
MODEL 8
REMARK VINA RESULT:      -3.7     10.702     11.859
REMARK  1 active torsions:
REMARK  status: ('A' for Active; 'I' for Inactive)
REMARK    1  A    between atoms: C7_7  and  N9_9 
ROOT
HETATM    1  C1  UNL     1     -37.335  16.035  -5.802  1.00 20.00     0.031 C 
HETATM    2  C4  UNL     1     -36.510  15.435  -6.938  1.00 20.00     0.019 C 
HETATM    3  C5  UNL     1     -37.106  15.280  -4.491  1.00 20.00     0.273 C 
HETATM    4  C6  UNL     1     -34.889  14.582  -5.198  1.00 20.00     0.288 C 
HETATM    5  C8  UNL     1     -35.048  15.326  -6.524  1.00 20.00     0.086 C 
HETATM    6  N9  UNL     1     -35.691  15.161  -4.111  1.00 20.00     0.094 N 
HETATM    7 BR10 UNL     1     -34.052  14.383  -7.918  1.00 20.00    -0.089 Br
ENDROOT
BRANCH   6   8
HETATM    8  C7  UNL     1     -35.123  16.423  -3.576  1.00 20.00     0.223 A 
HETATM    9  C2  UNL     1     -34.802  16.552  -2.112  1.00 20.00     0.038 A 
HETATM   10  C3  UNL     1     -33.691  16.482  -3.119  1.00 20.00     0.038 A 
ENDBRANCH   6   8
TORSDOF 1
ENDMDL
MODEL 9
REMARK VINA RESULT:      -3.6     10.398     11.524
REMARK  1 active torsions:
REMARK  status: ('A' for Active; 'I' for Inactive)
REMARK    1  A    between atoms: C7_7  and  N9_9 
ROOT
HETATM    1  C1  UNL     1     -33.780  15.819  -6.285  1.00 20.00     0.031 C 
HETATM    2  C4  UNL     1     -33.234  16.480  -5.021  1.00 20.00     0.019 C 
HETATM    3  C5  UNL     1     -34.422  14.466  -5.971  1.00 20.00     0.273 C 
HETATM    4  C6  UNL     1     -34.931  15.155  -3.698  1.00 20.00     0.288 C 
HETATM    5  C8  UNL     1     -34.315  16.532  -3.948  1.00 20.00     0.086 C 
HETATM    6  N9  UNL     1     -35.447  14.523  -4.920  1.00 20.00     0.094 N 
HETATM    7 BR10 UNL     1     -33.539  17.206  -2.284  1.00 20.00    -0.089 Br
ENDROOT
BRANCH   6   8
HETATM    8  C7  UNL     1     -36.727  15.112  -5.385  1.00 20.00     0.223 A 
HETATM    9  C2  UNL     1     -38.002  14.317  -5.310  1.00 20.00     0.038 A 
HETATM   10  C3  UNL     1     -37.796  15.490  -4.397  1.00 20.00     0.038 A 
ENDBRANCH   6   8
TORSDOF 1
ENDMDL
