MODEL 1
REMARK VINA RESULT:      -4.4      0.000      0.000
REMARK  1 active torsions:
REMARK  status: ('A' for Active; 'I' for Inactive)
REMARK    1  A    between atoms: C5_5  and  O7_7 
ROOT
HETATM    1  C1  UNL     1     -33.776   7.314   6.025  1.00 20.00     0.015 C 
HETATM    2  C2  UNL     1     -34.094   6.614   5.103  1.00 20.00    -0.075 C 
HETATM    3  C3  UNL     1     -33.612   5.918   2.732  1.00 20.00     0.221 A 
HETATM    4  C4  UNL     1     -33.919   4.342   4.032  1.00 20.00     0.221 A 
HETATM    5  C5  UNL     1     -34.478   5.773   3.992  1.00 20.00     0.162 A 
HETATM    6  O6  UNL     1     -33.194   4.537   2.798  1.00 20.00    -0.383 OA
ENDROOT
BRANCH   5   7
HETATM    7  O7  UNL     1     -35.900   5.889   3.796  1.00 20.00    -0.373 OA
HETATM    8  H13 UNL     1     -36.232   4.983   3.746  1.00 20.00     0.212 HD
ENDBRANCH   5   7
TORSDOF 1
ENDMDL
MODEL 2
REMARK VINA RESULT:      -4.2      1.442      2.308
REMARK  1 active torsions:
REMARK  status: ('A' for Active; 'I' for Inactive)
REMARK    1  A    between atoms: C5_5  and  O7_7 
ROOT
HETATM    1  C1  UNL     1     -32.659   7.054   2.771  1.00 20.00     0.015 C 
HETATM    2  C2  UNL     1     -33.526   6.490   3.380  1.00 20.00    -0.075 C 
HETATM    3  C3  UNL     1     -34.305   4.327   4.406  1.00 20.00     0.221 A 
HETATM    4  C4  UNL     1     -34.507   5.970   5.641  1.00 20.00     0.221 A 
HETATM    5  C5  UNL     1     -34.570   5.812   4.114  1.00 20.00     0.162 A 
HETATM    6  O6  UNL     1     -34.337   4.549   5.833  1.00 20.00    -0.383 OA
ENDROOT
BRANCH   5   7
HETATM    7  O7  UNL     1     -35.837   6.116   3.501  1.00 20.00    -0.373 OA
HETATM    8  H13 UNL     1     -35.780   5.775   2.599  1.00 20.00     0.212 HD
ENDBRANCH   5   7
TORSDOF 1
ENDMDL
MODEL 3
REMARK VINA RESULT:      -4.0      1.461      2.943
REMARK  1 active torsions:
REMARK  status: ('A' for Active; 'I' for Inactive)
REMARK    1  A    between atoms: C5_5  and  O7_7 
ROOT
HETATM    1  C1  UNL     1     -32.976   4.670   2.517  1.00 20.00     0.015 C 
HETATM    2  C2  UNL     1     -33.703   5.220   3.297  1.00 20.00    -0.075 C 
HETATM    3  C3  UNL     1     -34.461   5.402   5.692  1.00 20.00     0.221 A 
HETATM    4  C4  UNL     1     -34.056   7.216   4.791  1.00 20.00     0.221 A 
HETATM    5  C5  UNL     1     -34.579   5.882   4.237  1.00 20.00     0.162 A 
HETATM    6  O6  UNL     1     -34.047   6.709   6.144  1.00 20.00    -0.383 OA
ENDROOT
BRANCH   5   7
HETATM    7  O7  UNL     1     -35.910   5.906   3.688  1.00 20.00    -0.373 OA
HETATM    8  H13 UNL     1     -35.829   5.565   2.789  1.00 20.00     0.212 HD
ENDBRANCH   5   7
TORSDOF 1
ENDMDL
MODEL 4
REMARK VINA RESULT:      -3.6      2.469      3.066
REMARK  1 active torsions:
REMARK  status: ('A' for Active; 'I' for Inactive)
REMARK    1  A    between atoms: C5_5  and  O7_7 
ROOT
HETATM    1  C1  UNL     1     -33.921   7.197   5.676  1.00 20.00     0.015 C 
HETATM    2  C2  UNL     1     -33.382   7.211   4.604  1.00 20.00    -0.075 C 
HETATM    3  C3  UNL     1     -33.262   8.279   2.327  1.00 20.00     0.221 A 
HETATM    4  C4  UNL     1     -31.428   8.036   3.246  1.00 20.00     0.221 A 
HETATM    5  C5  UNL     1     -32.732   7.226   3.313  1.00 20.00     0.162 A 
HETATM    6  O6  UNL     1     -31.979   8.938   2.261  1.00 20.00    -0.383 OA
ENDROOT
BRANCH   5   7
HETATM    7  O7  UNL     1     -32.662   5.877   2.815  1.00 20.00    -0.373 OA
HETATM    8  H13 UNL     1     -32.982   5.917   1.905  1.00 20.00     0.212 HD
ENDBRANCH   5   7
TORSDOF 1
ENDMDL
MODEL 5
REMARK VINA RESULT:      -3.6     11.868     12.941
REMARK  1 active torsions:
REMARK  status: ('A' for Active; 'I' for Inactive)
REMARK    1  A    between atoms: C5_5  and  O7_7 
ROOT
HETATM    1  C1  UNL     1     -34.411  13.905  -7.697  1.00 20.00     0.015 C 
HETATM    2  C2  UNL     1     -34.814  13.881  -6.566  1.00 20.00    -0.075 C 
HETATM    3  C3  UNL     1     -34.270  14.243  -4.134  1.00 20.00     0.221 A 
HETATM    4  C4  UNL     1     -36.039  15.117  -4.746  1.00 20.00     0.221 A 
HETATM    5  C5  UNL     1     -35.300  13.851  -5.205  1.00 20.00     0.162 A 
HETATM    6  O6  UNL     1     -35.064  15.372  -3.711  1.00 20.00    -0.383 OA
ENDROOT
BRANCH   5   7
HETATM    7  O7  UNL     1     -35.990  12.605  -4.989  1.00 20.00    -0.373 OA
HETATM    8  H13 UNL     1     -35.927  12.433  -4.041  1.00 20.00     0.212 HD
ENDBRANCH   5   7
TORSDOF 1
ENDMDL
MODEL 6
REMARK VINA RESULT:      -3.5      2.806      3.771
REMARK  1 active torsions:
REMARK  status: ('A' for Active; 'I' for Inactive)
REMARK    1  A    between atoms: C5_5  and  O7_7 
ROOT
HETATM    1  C1  UNL     1     -32.534   9.330   0.869  1.00 20.00     0.015 C 
HETATM    2  C2  UNL     1     -32.490   8.609   1.828  1.00 20.00    -0.075 C 
HETATM    3  C3  UNL     1     -33.748   7.623   3.773  1.00 20.00     0.221 A 
HETATM    4  C4  UNL     1     -32.651   6.248   2.690  1.00 20.00     0.221 A 
HETATM    5  C5  UNL     1     -32.436   7.742   2.983  1.00 20.00     0.162 A 
HETATM    6  O6  UNL     1     -33.836   6.205   3.516  1.00 20.00    -0.383 OA
ENDROOT
BRANCH   5   7
HETATM    7  O7  UNL     1     -31.265   8.071   3.753  1.00 20.00    -0.373 OA
HETATM    8  H13 UNL     1     -30.626   7.371   3.568  1.00 20.00     0.212 HD
ENDBRANCH   5   7
TORSDOF 1
ENDMDL
MODEL 7
REMARK VINA RESULT:      -3.4      2.611      3.547
REMARK  1 active torsions:
REMARK  status: ('A' for Active; 'I' for Inactive)
REMARK    1  A    between atoms: C5_5  and  O7_7 
ROOT
HETATM    1  C1  UNL     1     -33.009   4.785   2.591  1.00 20.00     0.015 C 
HETATM    2  C2  UNL     1     -33.013   5.957   2.853  1.00 20.00    -0.075 C 
HETATM    3  C3  UNL     1     -31.653   7.956   3.558  1.00 20.00     0.221 A 
HETATM    4  C4  UNL     1     -32.915   8.309   1.960  1.00 20.00     0.221 A 
HETATM    5  C5  UNL     1     -33.018   7.367   3.170  1.00 20.00     0.162 A 
HETATM    6  O6  UNL     1     -31.669   8.865   2.436  1.00 20.00    -0.383 OA
ENDROOT
BRANCH   5   7
HETATM    7  O7  UNL     1     -34.100   7.631   4.083  1.00 20.00    -0.373 OA
HETATM    8  H13 UNL     1     -34.196   8.591   4.104  1.00 20.00     0.212 HD
ENDBRANCH   5   7
TORSDOF 1
ENDMDL
MODEL 8
REMARK VINA RESULT:      -3.4     12.184     13.049
REMARK  1 active torsions:
REMARK  status: ('A' for Active; 'I' for Inactive)
REMARK    1  A    between atoms: C5_5  and  O7_7 
ROOT
HETATM    1  C1  UNL     1     -35.920  13.497  -5.139  1.00 20.00     0.015 C 
HETATM    2  C2  UNL     1     -34.867  14.040  -4.950  1.00 20.00    -0.075 C 
HETATM    3  C3  UNL     1     -33.188  15.717  -5.794  1.00 20.00     0.221 A 
HETATM    4  C4  UNL     1     -33.645  15.910  -3.788  1.00 20.00     0.221 A 
HETATM    5  C5  UNL     1     -33.597  14.692  -4.724  1.00 20.00     0.162 A 
HETATM    6  O6  UNL     1     -33.183  16.795  -4.833  1.00 20.00    -0.383 OA
ENDROOT
BRANCH   5   7
HETATM    7  O7  UNL     1     -32.614  13.690  -4.404  1.00 20.00    -0.373 OA
HETATM    8  H13 UNL     1     -32.262  13.389  -5.251  1.00 20.00     0.212 HD
ENDBRANCH   5   7
TORSDOF 1
ENDMDL
MODEL 9
REMARK VINA RESULT:      -3.4     12.189     12.994
REMARK  1 active torsions:
REMARK  status: ('A' for Active; 'I' for Inactive)
REMARK    1  A    between atoms: C5_5  and  O7_7 
ROOT
HETATM    1  C1  UNL     1     -34.305  15.293  -3.789  1.00 20.00     0.015 C 
HETATM    2  C2  UNL     1     -34.843  14.606  -4.613  1.00 20.00    -0.075 C 
HETATM    3  C3  UNL     1     -36.545  14.493  -6.465  1.00 20.00     0.221 A 
HETATM    4  C4  UNL     1     -34.729  13.623  -6.929  1.00 20.00     0.221 A 
HETATM    5  C5  UNL     1     -35.492  13.778  -5.604  1.00 20.00     0.162 A 
HETATM    6  O6  UNL     1     -35.801  14.239  -7.677  1.00 20.00    -0.383 OA
ENDROOT
BRANCH   5   7
HETATM    7  O7  UNL     1     -35.918  12.554  -4.976  1.00 20.00    -0.373 OA
HETATM    8  H13 UNL     1     -36.811  12.388  -5.305  1.00 20.00     0.212 HD
ENDBRANCH   5   7
TORSDOF 1
ENDMDL
