MODEL 1
REMARK VINA RESULT:      -4.1      0.000      0.000
REMARK  2 active torsions:
REMARK  status: ('A' for Active; 'I' for Inactive)
REMARK    1  A    between atoms: C3_3  and  C4_4 
REMARK    2  A    between atoms: C3_3  and  O6_6 
ROOT
HETATM    1  C1  UNL     1     -34.398   5.051   4.314  1.00 20.00     0.081 C 
HETATM    2  C4  UNL     1     -34.248   6.493   4.088  1.00 20.00     0.212 C 
HETATM    3  N5  UNL     1     -34.518   3.911   4.495  1.00 20.00    -0.196 NA
HETATM    4 CL7  UNL     1     -33.742   7.249   5.623  1.00 20.00    -0.107 Cl
ENDROOT
BRANCH   2   5
HETATM    5  C3  UNL     1     -33.248   6.803   2.978  1.00 20.00     0.202 C 
BRANCH   5   6
HETATM    6  O6  UNL     1     -32.206   7.649   3.449  1.00 20.00    -0.394 OA
HETATM    7  C2  UNL     1     -31.764   8.544   2.438  1.00 20.00     0.201 C 
ENDBRANCH   5   6
ENDBRANCH   2   5
TORSDOF 2
ENDMDL
MODEL 2
REMARK VINA RESULT:      -3.8      3.008      3.855
REMARK  2 active torsions:
REMARK  status: ('A' for Active; 'I' for Inactive)
REMARK    1  A    between atoms: C3_3  and  C4_4 
REMARK    2  A    between atoms: C3_3  and  O6_6 
ROOT
HETATM    1  C1  UNL     1     -32.678   7.182   3.087  1.00 20.00     0.081 C 
HETATM    2  C4  UNL     1     -33.686   6.180   2.723  1.00 20.00     0.212 C 
HETATM    3  N5  UNL     1     -31.879   7.973   3.372  1.00 20.00    -0.196 NA
HETATM    4 CL7  UNL     1     -32.872   4.600   2.566  1.00 20.00    -0.107 Cl
ENDROOT
BRANCH   2   5
HETATM    5  C3  UNL     1     -34.821   6.105   3.740  1.00 20.00     0.202 C 
BRANCH   5   6
HETATM    6  O6  UNL     1     -34.831   4.846   4.403  1.00 20.00    -0.394 OA
HETATM    7  C2  UNL     1     -34.559   4.986   5.791  1.00 20.00     0.201 C 
ENDBRANCH   5   6
ENDBRANCH   2   5
TORSDOF 2
ENDMDL
MODEL 3
REMARK VINA RESULT:      -3.7      1.558      1.743
REMARK  2 active torsions:
REMARK  status: ('A' for Active; 'I' for Inactive)
REMARK    1  A    between atoms: C3_3  and  C4_4 
REMARK    2  A    between atoms: C3_3  and  O6_6 
ROOT
HETATM    1  C1  UNL     1     -33.172   5.936   3.029  1.00 20.00     0.081 C 
HETATM    2  C4  UNL     1     -33.210   7.322   3.508  1.00 20.00     0.212 C 
HETATM    3  N5  UNL     1     -33.146   4.838   2.651  1.00 20.00    -0.196 NA
HETATM    4 CL7  UNL     1     -33.592   7.299   5.252  1.00 20.00    -0.107 Cl
ENDROOT
BRANCH   2   5
HETATM    5  C3  UNL     1     -31.898   8.057   3.252  1.00 20.00     0.202 C 
BRANCH   5   6
HETATM    6  O6  UNL     1     -31.697   8.275   1.861  1.00 20.00    -0.394 OA
HETATM    7  C2  UNL     1     -32.460   9.377   1.391  1.00 20.00     0.201 C 
ENDBRANCH   5   6
ENDBRANCH   2   5
TORSDOF 2
ENDMDL
MODEL 4
REMARK VINA RESULT:      -3.6      2.600      3.328
REMARK  2 active torsions:
REMARK  status: ('A' for Active; 'I' for Inactive)
REMARK    1  A    between atoms: C3_3  and  C4_4 
REMARK    2  A    between atoms: C3_3  and  O6_6 
ROOT
HETATM    1  C1  UNL     1     -33.574   7.398   5.001  1.00 20.00     0.081 C 
HETATM    2  C4  UNL     1     -33.437   7.330   3.542  1.00 20.00     0.212 C 
HETATM    3  N5  UNL     1     -33.681   7.455   6.155  1.00 20.00    -0.196 NA
HETATM    4 CL7  UNL     1     -31.800   7.893   3.108  1.00 20.00    -0.107 Cl
ENDROOT
BRANCH   2   5
HETATM    5  C3  UNL     1     -33.686   5.925   3.002  1.00 20.00     0.202 C 
BRANCH   5   6
HETATM    6  O6  UNL     1     -34.708   5.267   3.742  1.00 20.00    -0.394 OA
HETATM    7  C2  UNL     1     -34.228   4.073   4.345  1.00 20.00     0.201 C 
ENDBRANCH   5   6
ENDBRANCH   2   5
TORSDOF 2
ENDMDL
MODEL 5
REMARK VINA RESULT:      -3.6      2.716      3.703
REMARK  2 active torsions:
REMARK  status: ('A' for Active; 'I' for Inactive)
REMARK    1  A    between atoms: C3_3  and  C4_4 
REMARK    2  A    between atoms: C3_3  and  O6_6 
ROOT
HETATM    1  C1  UNL     1     -32.579   7.894   2.612  1.00 20.00     0.081 C 
HETATM    2  C4  UNL     1     -32.972   6.825   3.538  1.00 20.00     0.212 C 
HETATM    3  N5  UNL     1     -32.265   8.741   1.883  1.00 20.00    -0.196 NA
HETATM    4 CL7  UNL     1     -33.272   7.555   5.138  1.00 20.00    -0.107 Cl
ENDROOT
BRANCH   2   5
HETATM    5  C3  UNL     1     -34.201   6.064   3.052  1.00 20.00     0.202 C 
BRANCH   5   6
HETATM    6  O6  UNL     1     -34.947   5.545   4.147  1.00 20.00    -0.394 OA
HETATM    7  C2  UNL     1     -34.464   4.270   4.547  1.00 20.00     0.201 C 
ENDBRANCH   5   6
ENDBRANCH   2   5
TORSDOF 2
ENDMDL
MODEL 6
REMARK VINA RESULT:      -3.5      1.555      1.598
REMARK  2 active torsions:
REMARK  status: ('A' for Active; 'I' for Inactive)
REMARK    1  A    between atoms: C3_3  and  C4_4 
REMARK    2  A    between atoms: C3_3  and  O6_6 
ROOT
HETATM    1  C1  UNL     1     -33.574   5.134   3.165  1.00 20.00     0.081 C 
HETATM    2  C4  UNL     1     -34.328   6.034   4.045  1.00 20.00     0.212 C 
HETATM    3  N5  UNL     1     -32.980   4.420   2.469  1.00 20.00    -0.196 NA
HETATM    4 CL7  UNL     1     -34.640   5.180   5.581  1.00 20.00    -0.107 Cl
ENDROOT
BRANCH   2   5
HETATM    5  C3  UNL     1     -33.593   7.347   4.297  1.00 20.00     0.202 C 
BRANCH   5   6
HETATM    6  O6  UNL     1     -32.974   7.823   3.107  1.00 20.00    -0.394 OA
HETATM    7  C2  UNL     1     -31.630   8.219   3.343  1.00 20.00     0.201 C 
ENDBRANCH   5   6
ENDBRANCH   2   5
TORSDOF 2
ENDMDL
MODEL 7
REMARK VINA RESULT:      -3.5      2.013      2.117
REMARK  2 active torsions:
REMARK  status: ('A' for Active; 'I' for Inactive)
REMARK    1  A    between atoms: C3_3  and  C4_4 
REMARK    2  A    between atoms: C3_3  and  O6_6 
ROOT
HETATM    1  C1  UNL     1     -33.712   6.900   5.178  1.00 20.00     0.081 C 
HETATM    2  C4  UNL     1     -33.887   6.063   3.985  1.00 20.00     0.212 C 
HETATM    3  N5  UNL     1     -33.576   7.559   6.123  1.00 20.00    -0.196 NA
HETATM    4 CL7  UNL     1     -35.637   5.870   3.691  1.00 20.00    -0.107 Cl
ENDROOT
BRANCH   2   5
HETATM    5  C3  UNL     1     -33.194   6.651   2.760  1.00 20.00     0.202 C 
BRANCH   5   6
HETATM    6  O6  UNL     1     -32.215   7.611   3.137  1.00 20.00    -0.394 OA
HETATM    7  C2  UNL     1     -31.980   8.551   2.098  1.00 20.00     0.201 C 
ENDBRANCH   5   6
ENDBRANCH   2   5
TORSDOF 2
ENDMDL
MODEL 8
REMARK VINA RESULT:      -3.2      3.108      4.136
REMARK  2 active torsions:
REMARK  status: ('A' for Active; 'I' for Inactive)
REMARK    1  A    between atoms: C3_3  and  C4_4 
REMARK    2  A    between atoms: C3_3  and  O6_6 
ROOT
HETATM    1  C1  UNL     1     -32.490   9.054   1.609  1.00 20.00     0.081 C 
HETATM    2  C4  UNL     1     -32.088   7.865   2.369  1.00 20.00     0.212 C 
HETATM    3  N5  UNL     1     -32.805   9.996   1.008  1.00 20.00    -0.196 NA
HETATM    4 CL7  UNL     1     -31.375   8.405   3.913  1.00 20.00    -0.107 Cl
ENDROOT
BRANCH   2   5
HETATM    5  C3  UNL     1     -33.257   6.915   2.616  1.00 20.00     0.202 C 
BRANCH   5   6
HETATM    6  O6  UNL     1     -33.738   7.033   3.950  1.00 20.00    -0.394 OA
HETATM    7  C2  UNL     1     -34.619   5.968   4.281  1.00 20.00     0.201 C 
ENDBRANCH   5   6
ENDBRANCH   2   5
TORSDOF 2
ENDMDL
MODEL 9
REMARK VINA RESULT:      -3.1     11.711     11.904
REMARK  2 active torsions:
REMARK  status: ('A' for Active; 'I' for Inactive)
REMARK    1  A    between atoms: C3_3  and  C4_4 
REMARK    2  A    between atoms: C3_3  and  O6_6 
ROOT
HETATM    1  C1  UNL     1     -35.254  13.768  -4.688  1.00 20.00     0.081 C 
HETATM    2  C4  UNL     1     -34.445  14.777  -3.997  1.00 20.00     0.212 C 
HETATM    3  N5  UNL     1     -35.891  12.967  -5.236  1.00 20.00    -0.196 NA
HETATM    4 CL7  UNL     1     -33.113  15.263  -5.081  1.00 20.00    -0.107 Cl
ENDROOT
BRANCH   2   5
HETATM    5  C3  UNL     1     -35.270  15.991  -3.577  1.00 20.00     0.202 C 
BRANCH   5   6
HETATM    6  O6  UNL     1     -35.070  16.293  -2.201  1.00 20.00    -0.394 OA
HETATM    7  C2  UNL     1     -33.871  17.028  -1.998  1.00 20.00     0.201 C 
ENDBRANCH   5   6
ENDBRANCH   2   5
TORSDOF 2
ENDMDL
