MODEL 1
REMARK VINA RESULT:      -4.4      0.000      0.000
REMARK  1 active torsions:
REMARK  status: ('A' for Active; 'I' for Inactive)
REMARK    1  A    between atoms: C5_5  and  C6_6 
ROOT
HETATM    1  C1  UNL     1     -31.853   8.397   1.594  1.00 20.00     0.100 C 
HETATM    2  C2  UNL     1     -33.509   6.802   2.649  1.00 20.00     0.038 A 
HETATM    3  C3  UNL     1     -32.272   8.218   4.016  1.00 20.00     0.072 A 
HETATM    4  C4  UNL     1     -32.521   7.827   2.719  1.00 20.00     0.052 A 
HETATM    5  C5  UNL     1     -33.976   6.449   3.896  1.00 20.00    -0.002 A 
HETATM    6  N7  UNL     1     -31.310   8.861   0.679  1.00 20.00    -0.191 NA
HETATM    7  S8  UNL     1     -33.226   7.352   5.143  1.00 20.00    -0.104 SA
ENDROOT
BRANCH   5   8
HETATM    8  C6  UNL     1     -34.996   5.435   4.243  1.00 20.00     0.160 C 
HETATM    9 CL9  UNL     1     -34.657   4.705   5.834  1.00 20.00    -0.125 Cl
ENDBRANCH   5   8
TORSDOF 1
ENDMDL
MODEL 2
REMARK VINA RESULT:      -4.1      3.585      4.436
REMARK  1 active torsions:
REMARK  status: ('A' for Active; 'I' for Inactive)
REMARK    1  A    between atoms: C5_5  and  C6_6 
ROOT
HETATM    1  C1  UNL     1     -34.363   5.717   4.117  1.00 20.00     0.100 C 
HETATM    2  C2  UNL     1     -33.219   7.089   2.326  1.00 20.00     0.038 A 
HETATM    3  C3  UNL     1     -32.716   7.497   4.559  1.00 20.00     0.072 A 
HETATM    4  C4  UNL     1     -33.460   6.735   3.685  1.00 20.00     0.052 A 
HETATM    5  C5  UNL     1     -32.299   8.108   2.214  1.00 20.00    -0.002 A 
HETATM    6  N7  UNL     1     -35.095   4.888   4.468  1.00 20.00    -0.191 NA
HETATM    7  S8  UNL     1     -31.731   8.634   3.741  1.00 20.00    -0.104 SA
ENDROOT
BRANCH   5   8
HETATM    8  C6  UNL     1     -31.785   8.752   0.985  1.00 20.00     0.160 C 
HETATM    9 CL9  UNL     1     -32.548  10.343   0.729  1.00 20.00    -0.125 Cl
ENDBRANCH   5   8
TORSDOF 1
ENDMDL
MODEL 3
REMARK VINA RESULT:      -4.0      1.228      1.644
REMARK  1 active torsions:
REMARK  status: ('A' for Active; 'I' for Inactive)
REMARK    1  A    between atoms: C5_5  and  C6_6 
ROOT
HETATM    1  C1  UNL     1     -32.093   8.472   1.546  1.00 20.00     0.100 C 
HETATM    2  C2  UNL     1     -33.001   7.847   3.823  1.00 20.00     0.038 A 
HETATM    3  C3  UNL     1     -33.235   6.349   2.060  1.00 20.00     0.072 A 
HETATM    4  C4  UNL     1     -32.754   7.582   2.444  1.00 20.00     0.052 A 
HETATM    5  C5  UNL     1     -33.660   6.806   4.439  1.00 20.00    -0.002 A 
HETATM    6  N7  UNL     1     -31.553   9.196   0.816  1.00 20.00    -0.191 NA
HETATM    7  S8  UNL     1     -33.979   5.517   3.358  1.00 20.00    -0.104 SA
ENDROOT
BRANCH   5   8
HETATM    8  C6  UNL     1     -34.092   6.697   5.849  1.00 20.00     0.160 C 
HETATM    9 CL9  UNL     1     -34.734   5.071   6.199  1.00 20.00    -0.125 Cl
ENDBRANCH   5   8
TORSDOF 1
ENDMDL
MODEL 4
REMARK VINA RESULT:      -4.0     11.454     12.028
REMARK  1 active torsions:
REMARK  status: ('A' for Active; 'I' for Inactive)
REMARK    1  A    between atoms: C5_5  and  C6_6 
ROOT
HETATM    1  C1  UNL     1     -35.398  13.889  -5.023  1.00 20.00     0.100 C 
HETATM    2  C2  UNL     1     -34.408  15.524  -3.366  1.00 20.00     0.038 A 
HETATM    3  C3  UNL     1     -34.416  16.068  -5.626  1.00 20.00     0.072 A 
HETATM    4  C4  UNL     1     -34.762  15.122  -4.686  1.00 20.00     0.052 A 
HETATM    5  C5  UNL     1     -33.804  16.763  -3.348  1.00 20.00    -0.002 A 
HETATM    6  N7  UNL     1     -35.917  12.888  -5.296  1.00 20.00    -0.191 NA
HETATM    7  S8  UNL     1     -33.668  17.435  -4.916  1.00 20.00    -0.104 SA
ENDROOT
BRANCH   5   8
HETATM    8  C6  UNL     1     -33.296  17.521  -2.184  1.00 20.00     0.160 C 
HETATM    9 CL9  UNL     1     -34.409  17.388  -0.797  1.00 20.00    -0.125 Cl
ENDBRANCH   5   8
TORSDOF 1
ENDMDL
MODEL 5
REMARK VINA RESULT:      -3.9     11.274     11.671
REMARK  1 active torsions:
REMARK  status: ('A' for Active; 'I' for Inactive)
REMARK    1  A    between atoms: C5_5  and  C6_6 
ROOT
HETATM    1  C1  UNL     1     -35.561  13.787  -4.920  1.00 20.00     0.100 C 
HETATM    2  C2  UNL     1     -34.245  15.423  -3.508  1.00 20.00     0.038 A 
HETATM    3  C3  UNL     1     -36.515  15.792  -3.851  1.00 20.00     0.072 A 
HETATM    4  C4  UNL     1     -35.448  14.963  -4.119  1.00 20.00     0.052 A 
HETATM    5  C5  UNL     1     -34.440  16.587  -2.797  1.00 20.00    -0.002 A 
HETATM    6  N7  UNL     1     -35.653  12.830  -5.570  1.00 20.00    -0.191 NA
HETATM    7  S8  UNL     1     -36.065  17.120  -2.867  1.00 20.00    -0.104 SA
ENDROOT
BRANCH   5   8
HETATM    8  C6  UNL     1     -33.448  17.371  -2.028  1.00 20.00     0.160 C 
HETATM    9 CL9  UNL     1     -34.086  17.811  -0.422  1.00 20.00    -0.125 Cl
ENDBRANCH   5   8
TORSDOF 1
ENDMDL
MODEL 6
REMARK VINA RESULT:      -3.9     11.564     11.799
REMARK  1 active torsions:
REMARK  status: ('A' for Active; 'I' for Inactive)
REMARK    1  A    between atoms: C5_5  and  C6_6 
ROOT
HETATM    1  C1  UNL     1     -37.128  14.368  -4.832  1.00 20.00     0.100 C 
HETATM    2  C2  UNL     1     -35.547  15.807  -3.479  1.00 20.00     0.038 A 
HETATM    3  C3  UNL     1     -34.676  14.357  -5.074  1.00 20.00     0.072 A 
HETATM    4  C4  UNL     1     -35.825  14.827  -4.477  1.00 20.00     0.052 A 
HETATM    5  C5  UNL     1     -34.197  16.048  -3.354  1.00 20.00    -0.002 A 
HETATM    6  N7  UNL     1     -38.189  13.995  -5.122  1.00 20.00    -0.191 NA
HETATM    7  S8  UNL     1     -33.270  15.096  -4.433  1.00 20.00    -0.104 SA
ENDROOT
BRANCH   5   8
HETATM    8  C6  UNL     1     -33.512  16.986  -2.438  1.00 20.00     0.160 C 
HETATM    9 CL9  UNL     1     -34.469  17.251  -0.958  1.00 20.00    -0.125 Cl
ENDBRANCH   5   8
TORSDOF 1
ENDMDL
MODEL 7
REMARK VINA RESULT:      -3.7     11.530     11.688
REMARK  1 active torsions:
REMARK  status: ('A' for Active; 'I' for Inactive)
REMARK    1  A    between atoms: C5_5  and  C6_6 
ROOT
HETATM    1  C1  UNL     1     -32.329  18.095  -0.850  1.00 20.00     0.100 C 
HETATM    2  C2  UNL     1     -33.653  16.724  -2.513  1.00 20.00     0.038 A 
HETATM    3  C3  UNL     1     -34.786  18.126  -1.046  1.00 20.00     0.072 A 
HETATM    4  C4  UNL     1     -33.552  17.666  -1.448  1.00 20.00     0.052 A 
HETATM    5  C5  UNL     1     -34.961  16.502  -2.884  1.00 20.00    -0.002 A 
HETATM    6  N7  UNL     1     -31.335  18.446  -0.364  1.00 20.00    -0.191 NA
HETATM    7  S8  UNL     1     -36.060  17.425  -1.950  1.00 20.00    -0.104 SA
ENDROOT
BRANCH   5   8
HETATM    8  C6  UNL     1     -35.478  15.604  -3.940  1.00 20.00     0.160 C 
HETATM    9 CL9  UNL     1     -34.472  14.138  -4.082  1.00 20.00    -0.125 Cl
ENDBRANCH   5   8
TORSDOF 1
ENDMDL
MODEL 8
REMARK VINA RESULT:      -3.7     11.167     11.508
REMARK  1 active torsions:
REMARK  status: ('A' for Active; 'I' for Inactive)
REMARK    1  A    between atoms: C5_5  and  C6_6 
ROOT
HETATM    1  C1  UNL     1     -35.533  13.751  -4.869  1.00 20.00     0.100 C 
HETATM    2  C2  UNL     1     -36.041  15.695  -3.332  1.00 20.00     0.038 A 
HETATM    3  C3  UNL     1     -33.846  15.324  -4.001  1.00 20.00     0.072 A 
HETATM    4  C4  UNL     1     -35.149  14.886  -4.095  1.00 20.00     0.052 A 
HETATM    5  C5  UNL     1     -35.385  16.720  -2.686  1.00 20.00    -0.002 A 
HETATM    6  N7  UNL     1     -35.846  12.829  -5.500  1.00 20.00    -0.191 NA
HETATM    7  S8  UNL     1     -33.702  16.704  -2.998  1.00 20.00    -0.104 SA
ENDROOT
BRANCH   5   8
HETATM    8  C6  UNL     1     -35.952  17.765  -1.806  1.00 20.00     0.160 C 
HETATM    9 CL9  UNL     1     -35.613  17.412  -0.092  1.00 20.00    -0.125 Cl
ENDBRANCH   5   8
TORSDOF 1
ENDMDL
MODEL 9
REMARK VINA RESULT:      -3.7     11.479     11.823
REMARK  1 active torsions:
REMARK  status: ('A' for Active; 'I' for Inactive)
REMARK    1  A    between atoms: C5_5  and  C6_6 
ROOT
HETATM    1  C1  UNL     1     -33.669  16.242  -3.485  1.00 20.00     0.100 C 
HETATM    2  C2  UNL     1     -33.104  17.697  -1.494  1.00 20.00     0.038 A 
HETATM    3  C3  UNL     1     -35.233  16.778  -1.657  1.00 20.00     0.072 A 
HETATM    4  C4  UNL     1     -33.995  16.883  -2.252  1.00 20.00     0.052 A 
HETATM    5  C5  UNL     1     -33.695  18.183  -0.349  1.00 20.00    -0.002 A 
HETATM    6  N7  UNL     1     -33.404  15.720  -4.487  1.00 20.00    -0.191 NA
HETATM    7  S8  UNL     1     -35.318  17.659  -0.191  1.00 20.00    -0.104 SA
ENDROOT
BRANCH   5   8
HETATM    8  C6  UNL     1     -33.108  19.056   0.690  1.00 20.00     0.160 C 
HETATM    9 CL9  UNL     1     -31.356  18.768   0.853  1.00 20.00    -0.125 Cl
ENDBRANCH   5   8
TORSDOF 1
ENDMDL
