MODEL 1
REMARK VINA RESULT:      -5.1      0.000      0.000
REMARK  5 active torsions:
REMARK  status: ('A' for Active; 'I' for Inactive)
REMARK    1  A    between atoms: C1_1  and  C3_3 
REMARK    2  A    between atoms: C3_3  and  C7_7 
REMARK    3  A    between atoms: C4_4  and  C5_5 
REMARK    4  A    between atoms: C4_4  and  C6_6 
REMARK    5  A    between atoms: C5_5  and  C7_7 
ROOT
HETATM    1  C2  UNL     1     -33.293   5.815   2.657  1.00 20.00     0.010 C 
HETATM    2  C7  UNL     1     -33.411   7.181   3.343  1.00 20.00    -0.012 C 
ENDROOT
BRANCH   2   3
HETATM    3  C3  UNL     1     -33.792   6.975   4.820  1.00 20.00     0.073 C 
BRANCH   3   4
HETATM    4  C1  UNL     1     -34.665   5.765   5.068  1.00 20.00     0.231 C 
HETATM    5  O8  UNL     1     -34.449   4.903   5.912  1.00 20.00    -0.307 OA
ENDBRANCH   3   4
ENDBRANCH   2   3
BRANCH   2   6
HETATM    6  C5  UNL     1     -32.098   7.987   3.227  1.00 20.00     0.005 C 
BRANCH   6   7
HETATM    7  C4  UNL     1     -31.755   8.381   1.784  1.00 20.00     0.015 C 
BRANCH   7   8
HETATM    8  C6  UNL     1     -32.529   9.603   1.296  1.00 20.00     0.114 C 
HETATM    9 CL9  UNL     1     -33.082   9.415  -0.384  1.00 20.00    -0.130 Cl
ENDBRANCH   7   8
ENDBRANCH   6   7
ENDBRANCH   2   6
TORSDOF 5
ENDMDL
MODEL 2
REMARK VINA RESULT:      -5.1      1.071      1.213
REMARK  5 active torsions:
REMARK  status: ('A' for Active; 'I' for Inactive)
REMARK    1  A    between atoms: C1_1  and  C3_3 
REMARK    2  A    between atoms: C3_3  and  C7_7 
REMARK    3  A    between atoms: C4_4  and  C5_5 
REMARK    4  A    between atoms: C4_4  and  C6_6 
REMARK    5  A    between atoms: C5_5  and  C7_7 
ROOT
HETATM    1  C2  UNL     1     -32.902   5.024   2.611  1.00 20.00     0.010 C 
HETATM    2  C7  UNL     1     -33.669   6.319   2.902  1.00 20.00    -0.012 C 
ENDROOT
BRANCH   2   3
HETATM    3  C3  UNL     1     -34.943   5.986   3.698  1.00 20.00     0.073 C 
BRANCH   3   4
HETATM    4  C1  UNL     1     -34.779   4.840   4.671  1.00 20.00     0.231 C 
HETATM    5  O8  UNL     1     -34.450   4.957   5.846  1.00 20.00    -0.307 OA
ENDBRANCH   3   4
ENDBRANCH   2   3
BRANCH   2   6
HETATM    6  C5  UNL     1     -32.794   7.331   3.675  1.00 20.00     0.005 C 
BRANCH   6   7
HETATM    7  C4  UNL     1     -31.908   8.188   2.761  1.00 20.00     0.015 C 
BRANCH   7   8
HETATM    8  C6  UNL     1     -32.597   8.586   1.459  1.00 20.00     0.114 C 
HETATM    9 CL9  UNL     1     -32.603  10.348   1.218  1.00 20.00    -0.130 Cl
ENDBRANCH   7   8
ENDBRANCH   6   7
ENDBRANCH   2   6
TORSDOF 5
ENDMDL
MODEL 3
REMARK VINA RESULT:      -5.0      1.299      1.705
REMARK  5 active torsions:
REMARK  status: ('A' for Active; 'I' for Inactive)
REMARK    1  A    between atoms: C1_1  and  C3_3 
REMARK    2  A    between atoms: C3_3  and  C7_7 
REMARK    3  A    between atoms: C4_4  and  C5_5 
REMARK    4  A    between atoms: C4_4  and  C6_6 
REMARK    5  A    between atoms: C5_5  and  C7_7 
ROOT
HETATM    1  C2  UNL     1     -33.615   7.381   5.517  1.00 20.00     0.010 C 
HETATM    2  C7  UNL     1     -33.453   6.879   4.078  1.00 20.00    -0.012 C 
ENDROOT
BRANCH   2   3
HETATM    3  C3  UNL     1     -34.651   5.984   3.715  1.00 20.00     0.073 C 
BRANCH   3   4
HETATM    4  C1  UNL     1     -34.780   4.748   4.577  1.00 20.00     0.231 C 
HETATM    5  O8  UNL     1     -34.246   3.670   4.345  1.00 20.00    -0.307 OA
ENDBRANCH   3   4
ENDBRANCH   2   3
BRANCH   2   6
HETATM    6  C5  UNL     1     -33.329   8.053   3.081  1.00 20.00     0.005 C 
BRANCH   6   7
HETATM    7  C4  UNL     1     -31.904   8.244   2.545  1.00 20.00     0.015 C 
BRANCH   7   8
HETATM    8  C6  UNL     1     -31.866   8.844   1.142  1.00 20.00     0.114 C 
HETATM    9 CL9  UNL     1     -32.651  10.438   1.075  1.00 20.00    -0.130 Cl
ENDBRANCH   7   8
ENDBRANCH   6   7
ENDBRANCH   2   6
TORSDOF 5
ENDMDL
MODEL 4
REMARK VINA RESULT:      -4.9      3.453      4.927
REMARK  5 active torsions:
REMARK  status: ('A' for Active; 'I' for Inactive)
REMARK    1  A    between atoms: C1_1  and  C3_3 
REMARK    2  A    between atoms: C3_3  and  C7_7 
REMARK    3  A    between atoms: C4_4  and  C5_5 
REMARK    4  A    between atoms: C4_4  and  C6_6 
REMARK    5  A    between atoms: C5_5  and  C7_7 
ROOT
HETATM    1  C2  UNL     1     -31.439   8.361   3.734  1.00 20.00     0.010 C 
HETATM    2  C7  UNL     1     -32.503   8.025   2.684  1.00 20.00    -0.012 C 
ENDROOT
BRANCH   2   3
HETATM    3  C3  UNL     1     -31.941   8.314   1.281  1.00 20.00     0.073 C 
BRANCH   3   4
HETATM    4  C1  UNL     1     -32.443   9.603   0.669  1.00 20.00     0.231 C 
HETATM    5  O8  UNL     1     -32.785  10.595   1.302  1.00 20.00    -0.307 OA
ENDBRANCH   3   4
ENDBRANCH   2   3
BRANCH   2   6
HETATM    6  C5  UNL     1     -32.960   6.553   2.794  1.00 20.00     0.005 C 
BRANCH   6   7
HETATM    7  C4  UNL     1     -34.385   6.401   3.341  1.00 20.00     0.015 C 
BRANCH   7   8
HETATM    8  C6  UNL     1     -34.426   5.865   4.770  1.00 20.00     0.114 C 
HETATM    9 CL9  UNL     1     -33.944   7.096   5.959  1.00 20.00    -0.130 Cl
ENDBRANCH   7   8
ENDBRANCH   6   7
ENDBRANCH   2   6
TORSDOF 5
ENDMDL
MODEL 5
REMARK VINA RESULT:      -4.8      2.101      2.815
REMARK  5 active torsions:
REMARK  status: ('A' for Active; 'I' for Inactive)
REMARK    1  A    between atoms: C1_1  and  C3_3 
REMARK    2  A    between atoms: C3_3  and  C7_7 
REMARK    3  A    between atoms: C4_4  and  C5_5 
REMARK    4  A    between atoms: C4_4  and  C6_6 
REMARK    5  A    between atoms: C5_5  and  C7_7 
ROOT
HETATM    1  C2  UNL     1     -34.025   3.866   4.220  1.00 20.00     0.010 C 
HETATM    2  C7  UNL     1     -34.861   5.119   4.502  1.00 20.00    -0.012 C 
ENDROOT
BRANCH   2   3
HETATM    3  C3  UNL     1     -34.494   5.673   5.889  1.00 20.00     0.073 C 
BRANCH   3   4
HETATM    4  C1  UNL     1     -34.122   7.139   5.888  1.00 20.00     0.231 C 
HETATM    5  O8  UNL     1     -33.015   7.584   6.169  1.00 20.00    -0.307 OA
ENDBRANCH   3   4
ENDBRANCH   2   3
BRANCH   2   6
HETATM    6  C5  UNL     1     -34.650   6.195   3.413  1.00 20.00     0.005 C 
BRANCH   6   7
HETATM    7  C4  UNL     1     -33.239   6.179   2.811  1.00 20.00     0.015 C 
BRANCH   7   8
HETATM    8  C6  UNL     1     -32.771   7.553   2.340  1.00 20.00     0.114 C 
HETATM    9 CL9  UNL     1     -31.482   8.210   3.374  1.00 20.00    -0.130 Cl
ENDBRANCH   7   8
ENDBRANCH   6   7
ENDBRANCH   2   6
TORSDOF 5
ENDMDL
MODEL 6
REMARK VINA RESULT:      -4.8      3.089      4.603
REMARK  5 active torsions:
REMARK  status: ('A' for Active; 'I' for Inactive)
REMARK    1  A    between atoms: C1_1  and  C3_3 
REMARK    2  A    between atoms: C3_3  and  C7_7 
REMARK    3  A    between atoms: C4_4  and  C5_5 
REMARK    4  A    between atoms: C4_4  and  C6_6 
REMARK    5  A    between atoms: C5_5  and  C7_7 
ROOT
HETATM    1  C2  UNL     1     -33.663   7.270   5.859  1.00 20.00     0.010 C 
HETATM    2  C7  UNL     1     -33.878   7.479   4.356  1.00 20.00    -0.012 C 
ENDROOT
BRANCH   2   3
HETATM    3  C3  UNL     1     -32.511   7.590   3.658  1.00 20.00     0.073 C 
BRANCH   3   4
HETATM    4  C1  UNL     1     -32.591   8.042   2.217  1.00 20.00     0.231 C 
HETATM    5  O8  UNL     1     -31.714   8.659   1.624  1.00 20.00    -0.307 OA
ENDBRANCH   3   4
ENDBRANCH   2   3
BRANCH   2   6
HETATM    6  C5  UNL     1     -34.712   6.333   3.741  1.00 20.00     0.005 C 
BRANCH   6   7
HETATM    7  C4  UNL     1     -34.805   5.097   4.646  1.00 20.00     0.015 C 
BRANCH   7   8
HETATM    8  C6  UNL     1     -33.982   3.916   4.138  1.00 20.00     0.114 C 
HETATM    9 CL9  UNL     1     -33.054   4.329   2.678  1.00 20.00    -0.130 Cl
ENDBRANCH   7   8
ENDBRANCH   6   7
ENDBRANCH   2   6
TORSDOF 5
ENDMDL
MODEL 7
REMARK VINA RESULT:      -4.8      1.359      2.198
REMARK  5 active torsions:
REMARK  status: ('A' for Active; 'I' for Inactive)
REMARK    1  A    between atoms: C1_1  and  C3_3 
REMARK    2  A    between atoms: C3_3  and  C7_7 
REMARK    3  A    between atoms: C4_4  and  C5_5 
REMARK    4  A    between atoms: C4_4  and  C6_6 
REMARK    5  A    between atoms: C5_5  and  C7_7 
ROOT
HETATM    1  C2  UNL     1     -33.563   7.755   6.122  1.00 20.00     0.010 C 
HETATM    2  C7  UNL     1     -33.639   6.687   5.025  1.00 20.00    -0.012 C 
ENDROOT
BRANCH   2   3
HETATM    3  C3  UNL     1     -34.782   5.709   5.347  1.00 20.00     0.073 C 
BRANCH   3   4
HETATM    4  C1  UNL     1     -34.427   4.255   5.130  1.00 20.00     0.231 C 
HETATM    5  O8  UNL     1     -34.292   3.719   4.036  1.00 20.00    -0.307 OA
ENDBRANCH   3   4
ENDBRANCH   2   3
BRANCH   2   6
HETATM    6  C5  UNL     1     -33.844   7.323   3.631  1.00 20.00     0.005 C 
BRANCH   6   7
HETATM    7  C4  UNL     1     -32.636   7.147   2.702  1.00 20.00     0.015 C 
BRANCH   7   8
HETATM    8  C6  UNL     1     -31.760   8.394   2.613  1.00 20.00     0.114 C 
HETATM    9 CL9  UNL     1     -32.384   9.565   1.429  1.00 20.00    -0.130 Cl
ENDBRANCH   7   8
ENDBRANCH   6   7
ENDBRANCH   2   6
TORSDOF 5
ENDMDL
MODEL 8
REMARK VINA RESULT:      -4.7      3.028      4.505
REMARK  5 active torsions:
REMARK  status: ('A' for Active; 'I' for Inactive)
REMARK    1  A    between atoms: C1_1  and  C3_3 
REMARK    2  A    between atoms: C3_3  and  C7_7 
REMARK    3  A    between atoms: C4_4  and  C5_5 
REMARK    4  A    between atoms: C4_4  and  C6_6 
REMARK    5  A    between atoms: C5_5  and  C7_7 
ROOT
HETATM    1  C2  UNL     1     -32.911   4.810   2.370  1.00 20.00     0.010 C 
HETATM    2  C7  UNL     1     -33.154   6.165   3.044  1.00 20.00    -0.012 C 
ENDROOT
BRANCH   2   3
HETATM    3  C3  UNL     1     -32.773   7.292   2.068  1.00 20.00     0.073 C 
BRANCH   3   4
HETATM    4  C1  UNL     1     -31.848   8.332   2.661  1.00 20.00     0.231 C 
HETATM    5  O8  UNL     1     -31.422   8.321   3.810  1.00 20.00    -0.307 OA
ENDBRANCH   3   4
ENDBRANCH   2   3
BRANCH   2   6
HETATM    6  C5  UNL     1     -34.624   6.313   3.498  1.00 20.00     0.005 C 
BRANCH   6   7
HETATM    7  C4  UNL     1     -35.039   5.279   4.553  1.00 20.00     0.015 C 
BRANCH   7   8
HETATM    8  C6  UNL     1     -34.484   5.581   5.942  1.00 20.00     0.114 C 
HETATM    9 CL9  UNL     1     -33.892   7.253   6.074  1.00 20.00    -0.130 Cl
ENDBRANCH   7   8
ENDBRANCH   6   7
ENDBRANCH   2   6
TORSDOF 5
ENDMDL
MODEL 9
REMARK VINA RESULT:      -4.6      3.436      4.803
REMARK  5 active torsions:
REMARK  status: ('A' for Active; 'I' for Inactive)
REMARK    1  A    between atoms: C1_1  and  C3_3 
REMARK    2  A    between atoms: C3_3  and  C7_7 
REMARK    3  A    between atoms: C4_4  and  C5_5 
REMARK    4  A    between atoms: C4_4  and  C6_6 
REMARK    5  A    between atoms: C5_5  and  C7_7 
ROOT
HETATM    1  C2  UNL     1     -33.186   6.347   2.236  1.00 20.00     0.010 C 
HETATM    2  C7  UNL     1     -32.615   7.059   3.466  1.00 20.00    -0.012 C 
ENDROOT
BRANCH   2   3
HETATM    3  C3  UNL     1     -31.766   8.259   3.009  1.00 20.00     0.073 C 
BRANCH   3   4
HETATM    4  C1  UNL     1     -32.106   8.761   1.623  1.00 20.00     0.231 C 
HETATM    5  O8  UNL     1     -32.707   9.801   1.380  1.00 20.00    -0.307 OA
ENDBRANCH   3   4
ENDBRANCH   2   3
BRANCH   2   6
HETATM    6  C5  UNL     1     -33.736   7.520   4.424  1.00 20.00     0.005 C 
BRANCH   6   7
HETATM    7  C4  UNL     1     -33.825   6.676   5.702  1.00 20.00     0.015 C 
BRANCH   7   8
HETATM    8  C6  UNL     1     -34.861   5.558   5.613  1.00 20.00     0.114 C 
HETATM    9 CL9  UNL     1     -34.244   4.147   4.726  1.00 20.00    -0.130 Cl
ENDBRANCH   7   8
ENDBRANCH   6   7
ENDBRANCH   2   6
TORSDOF 5
ENDMDL
