MODEL 1
REMARK VINA RESULT:      -4.5      0.000      0.000
REMARK  1 active torsions:
REMARK  status: ('A' for Active; 'I' for Inactive)
REMARK    1  A    between atoms: C6_6  and  C8_8 
ROOT
HETATM    1  C1  UNL     1     -32.951   7.856   2.449  1.00 20.00     0.069 C 
HETATM    2  C2  UNL     1     -34.290   6.199   5.576  1.00 20.00     0.002 C 
HETATM    3  C3  UNL     1     -35.228   5.642   4.505  1.00 20.00     0.002 C 
HETATM    4  C4  UNL     1     -33.358   7.178   4.859  1.00 20.00     0.024 C 
HETATM    5  C5  UNL     1     -34.821   6.311   3.192  1.00 20.00     0.024 C 
HETATM    6  C6  UNL     1     -33.359   6.727   3.393  1.00 20.00     0.049 C 
HETATM    7  N9  UNL     1     -32.642   8.714   1.731  1.00 20.00    -0.196 NA
ENDROOT
BRANCH   6   8
HETATM    8  C8  UNL     1     -32.453   5.575   3.197  1.00 20.00     0.020 C 
HETATM    9  C7  UNL     1     -33.019   4.586   2.232  1.00 20.00     0.007 C 
ENDBRANCH   6   8
TORSDOF 1
ENDMDL
MODEL 2
REMARK VINA RESULT:      -4.3      1.934      3.467
REMARK  1 active torsions:
REMARK  status: ('A' for Active; 'I' for Inactive)
REMARK    1  A    between atoms: C6_6  and  C8_8 
ROOT
HETATM    1  C1  UNL     1     -33.427   7.319   4.887  1.00 20.00     0.069 C 
HETATM    2  C2  UNL     1     -32.809   8.762   1.444  1.00 20.00     0.002 C 
HETATM    3  C3  UNL     1     -31.383   8.590   1.967  1.00 20.00     0.002 C 
HETATM    4  C4  UNL     1     -33.736   8.341   2.585  1.00 20.00     0.024 C 
HETATM    5  C5  UNL     1     -31.515   8.076   3.401  1.00 20.00     0.024 C 
HETATM    6  C6  UNL     1     -32.892   7.405   3.458  1.00 20.00     0.049 C 
HETATM    7  N9  UNL     1     -33.833   7.255   5.972  1.00 20.00    -0.196 NA
ENDROOT
BRANCH   6   8
HETATM    8  C8  UNL     1     -32.840   6.047   2.874  1.00 20.00     0.020 C 
HETATM    9  C7  UNL     1     -33.983   5.204   3.336  1.00 20.00     0.007 C 
ENDBRANCH   6   8
TORSDOF 1
ENDMDL
MODEL 3
REMARK VINA RESULT:      -4.3      0.778      2.167
REMARK  1 active torsions:
REMARK  status: ('A' for Active; 'I' for Inactive)
REMARK    1  A    between atoms: C6_6  and  C8_8 
ROOT
HETATM    1  C1  UNL     1     -32.937   7.911   2.395  1.00 20.00     0.069 C 
HETATM    2  C2  UNL     1     -35.103   5.334   4.124  1.00 20.00     0.002 C 
HETATM    3  C3  UNL     1     -33.871   4.506   3.756  1.00 20.00     0.002 C 
HETATM    4  C4  UNL     1     -34.864   6.732   3.549  1.00 20.00     0.024 C 
HETATM    5  C5  UNL     1     -32.947   5.441   2.976  1.00 20.00     0.024 C 
HETATM    6  C6  UNL     1     -33.341   6.854   3.422  1.00 20.00     0.049 C 
HETATM    7  N9  UNL     1     -32.630   8.713   1.614  1.00 20.00    -0.196 NA
ENDROOT
BRANCH   6   8
HETATM    8  C8  UNL     1     -32.729   7.184   4.727  1.00 20.00     0.020 C 
HETATM    9  C7  UNL     1     -33.764   7.508   5.754  1.00 20.00     0.007 C 
ENDBRANCH   6   8
TORSDOF 1
ENDMDL
MODEL 4
REMARK VINA RESULT:      -4.2     11.404     12.260
REMARK  1 active torsions:
REMARK  status: ('A' for Active; 'I' for Inactive)
REMARK    1  A    between atoms: C6_6  and  C8_8 
ROOT
HETATM    1  C1  UNL     1     -35.527  13.899  -4.936  1.00 20.00     0.069 C 
HETATM    2  C2  UNL     1     -35.203  16.915  -2.674  1.00 20.00     0.002 C 
HETATM    3  C3  UNL     1     -33.739  16.520  -2.875  1.00 20.00     0.002 C 
HETATM    4  C4  UNL     1     -36.033  15.865  -3.415  1.00 20.00     0.024 C 
HETATM    5  C5  UNL     1     -33.753  15.250  -3.725  1.00 20.00     0.024 C 
HETATM    6  C6  UNL     1     -35.089  15.288  -4.477  1.00 20.00     0.049 C 
HETATM    7  N9  UNL     1     -35.859  12.843  -5.285  1.00 20.00    -0.196 NA
ENDROOT
BRANCH   6   8
HETATM    8  C8  UNL     1     -35.007  16.186  -5.649  1.00 20.00     0.020 C 
HETATM    9  C7  UNL     1     -33.845  15.846  -6.524  1.00 20.00     0.007 C 
ENDBRANCH   6   8
TORSDOF 1
ENDMDL
MODEL 5
REMARK VINA RESULT:      -4.1     11.148     12.486
REMARK  1 active torsions:
REMARK  status: ('A' for Active; 'I' for Inactive)
REMARK    1  A    between atoms: C6_6  and  C8_8 
ROOT
HETATM    1  C1  UNL     1     -36.785  14.143  -5.178  1.00 20.00     0.069 C 
HETATM    2  C2  UNL     1     -33.465  15.928  -5.513  1.00 20.00     0.002 C 
HETATM    3  C3  UNL     1     -33.130  14.842  -4.490  1.00 20.00     0.002 C 
HETATM    4  C4  UNL     1     -34.958  15.785  -5.813  1.00 20.00     0.024 C 
HETATM    5  C5  UNL     1     -34.436  14.095  -4.219  1.00 20.00     0.024 C 
HETATM    6  C6  UNL     1     -35.296  14.330  -5.466  1.00 20.00     0.049 C 
HETATM    7  N9  UNL     1     -37.915  14.000  -4.958  1.00 20.00    -0.196 NA
ENDROOT
BRANCH   6   8
HETATM    8  C8  UNL     1     -34.893  13.422  -6.562  1.00 20.00     0.020 C 
HETATM    9  C7  UNL     1     -35.540  13.796  -7.854  1.00 20.00     0.007 C 
ENDBRANCH   6   8
TORSDOF 1
ENDMDL
MODEL 6
REMARK VINA RESULT:      -4.1     11.522     12.917
REMARK  1 active torsions:
REMARK  status: ('A' for Active; 'I' for Inactive)
REMARK    1  A    between atoms: C6_6  and  C8_8 
ROOT
HETATM    1  C1  UNL     1     -37.025  14.174  -5.314  1.00 20.00     0.069 C 
HETATM    2  C2  UNL     1     -34.097  13.955  -7.701  1.00 20.00     0.002 C 
HETATM    3  C3  UNL     1     -34.165  15.459  -7.432  1.00 20.00     0.002 C 
HETATM    4  C4  UNL     1     -35.270  13.333  -6.942  1.00 20.00     0.024 C 
HETATM    5  C5  UNL     1     -35.376  15.675  -6.525  1.00 20.00     0.024 C 
HETATM    6  C6  UNL     1     -35.593  14.330  -5.822  1.00 20.00     0.049 C 
HETATM    7  N9  UNL     1     -38.113  14.056  -4.929  1.00 20.00    -0.196 NA
ENDROOT
BRANCH   6   8
HETATM    8  C8  UNL     1     -34.654  14.170  -4.690  1.00 20.00     0.020 C 
HETATM    9  C7  UNL     1     -34.744  15.314  -3.734  1.00 20.00     0.007 C 
ENDBRANCH   6   8
TORSDOF 1
ENDMDL
MODEL 7
REMARK VINA RESULT:      -4.1      1.247      2.020
REMARK  1 active torsions:
REMARK  status: ('A' for Active; 'I' for Inactive)
REMARK    1  A    between atoms: C6_6  and  C8_8 
ROOT
HETATM    1  C1  UNL     1     -32.658   7.296   3.358  1.00 20.00     0.069 C 
HETATM    2  C2  UNL     1     -34.193   4.044   4.535  1.00 20.00     0.002 C 
HETATM    3  C3  UNL     1     -34.730   5.032   5.571  1.00 20.00     0.002 C 
HETATM    4  C4  UNL     1     -33.270   4.848   3.618  1.00 20.00     0.024 C 
HETATM    5  C5  UNL     1     -34.105   6.386   5.233  1.00 20.00     0.024 C 
HETATM    6  C6  UNL     1     -33.749   6.299   3.743  1.00 20.00     0.049 C 
HETATM    7  N9  UNL     1     -31.829   8.054   3.065  1.00 20.00    -0.196 NA
ENDROOT
BRANCH   6   8
HETATM    8  C8  UNL     1     -34.943   6.533   2.903  1.00 20.00     0.020 C 
HETATM    9  C7  UNL     1     -34.703   6.142   1.482  1.00 20.00     0.007 C 
ENDBRANCH   6   8
TORSDOF 1
ENDMDL
MODEL 8
REMARK VINA RESULT:      -4.0     11.235     12.476
REMARK  1 active torsions:
REMARK  status: ('A' for Active; 'I' for Inactive)
REMARK    1  A    between atoms: C6_6  and  C8_8 
ROOT
HETATM    1  C1  UNL     1     -36.754  14.534  -4.867  1.00 20.00     0.069 C 
HETATM    2  C2  UNL     1     -32.991  14.865  -4.653  1.00 20.00     0.002 C 
HETATM    3  C3  UNL     1     -33.291  15.596  -5.962  1.00 20.00     0.002 C 
HETATM    4  C4  UNL     1     -34.329  14.322  -4.151  1.00 20.00     0.024 C 
HETATM    5  C5  UNL     1     -34.796  15.459  -6.190  1.00 20.00     0.024 C 
HETATM    6  C6  UNL     1     -35.391  15.220  -4.797  1.00 20.00     0.049 C 
HETATM    7  N9  UNL     1     -37.789  14.013  -4.921  1.00 20.00    -0.196 NA
ENDROOT
BRANCH   6   8
HETATM    8  C8  UNL     1     -35.523  16.494  -4.057  1.00 20.00     0.020 C 
HETATM    9  C7  UNL     1     -35.551  16.273  -2.581  1.00 20.00     0.007 C 
ENDBRANCH   6   8
TORSDOF 1
ENDMDL
MODEL 9
REMARK VINA RESULT:      -3.9      1.890      3.531
REMARK  1 active torsions:
REMARK  status: ('A' for Active; 'I' for Inactive)
REMARK    1  A    between atoms: C6_6  and  C8_8 
ROOT
HETATM    1  C1  UNL     1     -33.059   5.608   2.866  1.00 20.00     0.069 C 
HETATM    2  C2  UNL     1     -31.547   9.077   2.870  1.00 20.00     0.002 C 
HETATM    3  C3  UNL     1     -32.558   9.181   1.728  1.00 20.00     0.002 C 
HETATM    4  C4  UNL     1     -31.612   7.631   3.366  1.00 20.00     0.024 C 
HETATM    5  C5  UNL     1     -33.184   7.794   1.585  1.00 20.00     0.024 C 
HETATM    6  C6  UNL     1     -33.003   7.132   2.956  1.00 20.00     0.049 C 
HETATM    7  N9  UNL     1     -33.102   4.450   2.797  1.00 20.00    -0.196 NA
ENDROOT
BRANCH   6   8
HETATM    8  C8  UNL     1     -34.032   7.603   3.908  1.00 20.00     0.020 C 
HETATM    9  C7  UNL     1     -33.753   7.134   5.298  1.00 20.00     0.007 C 
ENDBRANCH   6   8
TORSDOF 1
ENDMDL
