MODEL 1
REMARK VINA RESULT:      -5.1      0.000      0.000
REMARK  2 active torsions:
REMARK  status: ('A' for Active; 'I' for Inactive)
REMARK    1  A    between atoms: C1_1  and  C2_2 
REMARK    2  A    between atoms: C3_3  and  C7_7 
ROOT
HETATM    1  C1  UNL     1     -32.745   7.167   3.032  1.00 20.00     0.061 C 
HETATM    2  C3  UNL     1     -33.393   6.800   4.152  1.00 20.00     0.022 C 
HETATM    3 CL9  UNL     1     -33.182   7.708   5.633  1.00 20.00    -0.088 Cl
ENDROOT
BRANCH   2   4
HETATM    4  C7  UNL     1     -34.354   5.598   4.265  1.00 20.00    -0.013 C 
HETATM    5  C4  UNL     1     -33.771   4.375   3.525  1.00 20.00     0.020 C 
HETATM    6  C5  UNL     1     -34.611   5.159   5.726  1.00 20.00     0.020 C 
HETATM    7  C6  UNL     1     -35.728   5.953   3.656  1.00 20.00     0.020 C 
ENDBRANCH   2   4
BRANCH   1   8
HETATM    8  C2  UNL     1     -31.820   8.319   2.911  1.00 20.00     0.260 C 
HETATM    9  O8  UNL     1     -31.913   9.125   1.991  1.00 20.00    -0.302 OA
ENDBRANCH   1   8
TORSDOF 2
ENDMDL
MODEL 2
REMARK VINA RESULT:      -5.0      0.068      1.447
REMARK  2 active torsions:
REMARK  status: ('A' for Active; 'I' for Inactive)
REMARK    1  A    between atoms: C1_1  and  C2_2 
REMARK    2  A    between atoms: C3_3  and  C7_7 
ROOT
HETATM    1  C1  UNL     1     -32.722   7.196   3.079  1.00 20.00     0.061 C 
HETATM    2  C3  UNL     1     -33.382   6.821   4.190  1.00 20.00     0.022 C 
HETATM    3 CL9  UNL     1     -33.167   7.705   5.686  1.00 20.00    -0.088 Cl
ENDROOT
BRANCH   2   4
HETATM    4  C7  UNL     1     -34.359   5.631   4.280  1.00 20.00    -0.013 C 
HETATM    5  C4  UNL     1     -34.609   5.254   5.756  1.00 20.00     0.020 C 
HETATM    6  C5  UNL     1     -35.742   5.929   3.652  1.00 20.00     0.020 C 
HETATM    7  C6  UNL     1     -33.783   4.408   3.534  1.00 20.00     0.020 C 
ENDBRANCH   2   4
BRANCH   1   8
HETATM    8  C2  UNL     1     -31.780   8.337   2.981  1.00 20.00     0.260 C 
HETATM    9  O8  UNL     1     -31.869   9.168   2.084  1.00 20.00    -0.302 OA
ENDBRANCH   1   8
TORSDOF 2
ENDMDL
MODEL 3
REMARK VINA RESULT:      -4.9      1.656      2.021
REMARK  2 active torsions:
REMARK  status: ('A' for Active; 'I' for Inactive)
REMARK    1  A    between atoms: C1_1  and  C2_2 
REMARK    2  A    between atoms: C3_3  and  C7_7 
ROOT
HETATM    1  C1  UNL     1     -32.830   7.495   3.281  1.00 20.00     0.061 C 
HETATM    2  C3  UNL     1     -33.315   6.243   3.369  1.00 20.00     0.022 C 
HETATM    3 CL9  UNL     1     -32.724   4.990   2.299  1.00 20.00    -0.088 Cl
ENDROOT
BRANCH   2   4
HETATM    4  C7  UNL     1     -34.393   5.780   4.370  1.00 20.00    -0.013 C 
HETATM    5  C4  UNL     1     -35.803   6.056   3.806  1.00 20.00     0.020 C 
HETATM    6  C5  UNL     1     -34.323   4.266   4.685  1.00 20.00     0.020 C 
HETATM    7  C6  UNL     1     -34.230   6.524   5.714  1.00 20.00     0.020 C 
ENDBRANCH   2   4
BRANCH   1   8
HETATM    8  C2  UNL     1     -31.795   7.952   2.323  1.00 20.00     0.260 C 
HETATM    9  O8  UNL     1     -32.075   8.669   1.369  1.00 20.00    -0.302 OA
ENDBRANCH   1   8
TORSDOF 2
ENDMDL
MODEL 4
REMARK VINA RESULT:      -4.1      1.617      2.386
REMARK  2 active torsions:
REMARK  status: ('A' for Active; 'I' for Inactive)
REMARK    1  A    between atoms: C1_1  and  C2_2 
REMARK    2  A    between atoms: C3_3  and  C7_7 
ROOT
HETATM    1  C1  UNL     1     -32.979   8.305   1.570  1.00 20.00     0.061 C 
HETATM    2  C3  UNL     1     -32.748   7.697   2.748  1.00 20.00     0.022 C 
HETATM    3 CL9  UNL     1     -31.426   8.220   3.768  1.00 20.00    -0.088 Cl
ENDROOT
BRANCH   2   4
HETATM    4  C7  UNL     1     -33.577   6.527   3.317  1.00 20.00    -0.013 C 
HETATM    5  C4  UNL     1     -33.726   6.670   4.847  1.00 20.00     0.020 C 
HETATM    6  C5  UNL     1     -35.008   6.452   2.731  1.00 20.00     0.020 C 
HETATM    7  C6  UNL     1     -32.892   5.180   2.997  1.00 20.00     0.020 C 
ENDBRANCH   2   4
BRANCH   1   8
HETATM    8  C2  UNL     1     -32.189   9.430   1.013  1.00 20.00     0.260 C 
HETATM    9  O8  UNL     1     -32.603  10.584   1.046  1.00 20.00    -0.302 OA
ENDBRANCH   1   8
TORSDOF 2
ENDMDL
MODEL 5
REMARK VINA RESULT:      -3.9      2.674      4.649
REMARK  2 active torsions:
REMARK  status: ('A' for Active; 'I' for Inactive)
REMARK    1  A    between atoms: C1_1  and  C2_2 
REMARK    2  A    between atoms: C3_3  and  C7_7 
ROOT
HETATM    1  C1  UNL     1     -33.568   7.169   2.302  1.00 20.00     0.061 C 
HETATM    2  C3  UNL     1     -32.613   8.115   2.232  1.00 20.00     0.022 C 
HETATM    3 CL9  UNL     1     -31.507   8.354   3.568  1.00 20.00    -0.088 Cl
ENDROOT
BRANCH   2   4
HETATM    4  C7  UNL     1     -32.384   9.053   1.030  1.00 20.00    -0.013 C 
HETATM    5  C4  UNL     1     -30.975   8.831   0.438  1.00 20.00     0.020 C 
HETATM    6  C5  UNL     1     -33.395   8.830  -0.120  1.00 20.00     0.020 C 
HETATM    7  C6  UNL     1     -32.523  10.528   1.468  1.00 20.00     0.020 C 
ENDBRANCH   2   4
BRANCH   1   8
HETATM    8  C2  UNL     1     -33.798   6.262   3.452  1.00 20.00     0.260 C 
HETATM    9  O8  UNL     1     -34.922   5.871   3.748  1.00 20.00    -0.302 OA
ENDBRANCH   1   8
TORSDOF 2
ENDMDL
MODEL 6
REMARK VINA RESULT:      -3.9      2.670      4.689
REMARK  2 active torsions:
REMARK  status: ('A' for Active; 'I' for Inactive)
REMARK    1  A    between atoms: C1_1  and  C2_2 
REMARK    2  A    between atoms: C3_3  and  C7_7 
ROOT
HETATM    1  C1  UNL     1     -33.579   7.192   2.345  1.00 20.00     0.061 C 
HETATM    2  C3  UNL     1     -32.603   8.114   2.257  1.00 20.00     0.022 C 
HETATM    3 CL9  UNL     1     -31.472   8.331   3.574  1.00 20.00    -0.088 Cl
ENDROOT
BRANCH   2   4
HETATM    4  C7  UNL     1     -32.371   9.043   1.048  1.00 20.00    -0.013 C 
HETATM    5  C4  UNL     1     -33.422   8.769  -0.049  1.00 20.00     0.020 C 
HETATM    6  C5  UNL     1     -32.475  10.546   1.405  1.00 20.00     0.020 C 
HETATM    7  C6  UNL     1     -30.959   8.819   0.464  1.00 20.00     0.020 C 
ENDBRANCH   2   4
BRANCH   1   8
HETATM    8  C2  UNL     1     -33.813   6.294   3.501  1.00 20.00     0.260 C 
HETATM    9  O8  UNL     1     -34.913   5.799   3.719  1.00 20.00    -0.302 OA
ENDBRANCH   1   8
TORSDOF 2
ENDMDL
MODEL 7
REMARK VINA RESULT:      -3.7     11.896     12.464
REMARK  2 active torsions:
REMARK  status: ('A' for Active; 'I' for Inactive)
REMARK    1  A    between atoms: C1_1  and  C2_2 
REMARK    2  A    between atoms: C3_3  and  C7_7 
ROOT
HETATM    1  C1  UNL     1     -35.844  15.065  -4.595  1.00 20.00     0.061 C 
HETATM    2  C3  UNL     1     -34.726  15.557  -4.031  1.00 20.00     0.022 C 
HETATM    3 CL9  UNL     1     -33.177  14.799  -4.333  1.00 20.00    -0.088 Cl
ENDROOT
BRANCH   2   4
HETATM    4  C7  UNL     1     -34.671  16.785  -3.100  1.00 20.00    -0.013 C 
HETATM    5  C4  UNL     1     -35.708  16.643  -1.964  1.00 20.00     0.020 C 
HETATM    6  C5  UNL     1     -33.291  16.980  -2.427  1.00 20.00     0.020 C 
HETATM    7  C6  UNL     1     -34.966  18.075  -3.897  1.00 20.00     0.020 C 
ENDBRANCH   2   4
BRANCH   1   8
HETATM    8  C2  UNL     1     -35.909  13.885  -5.490  1.00 20.00     0.260 C 
HETATM    9  O8  UNL     1     -35.850  12.742  -5.053  1.00 20.00    -0.302 OA
ENDBRANCH   1   8
TORSDOF 2
ENDMDL
MODEL 8
REMARK VINA RESULT:      -3.7     11.748     12.428
REMARK  2 active torsions:
REMARK  status: ('A' for Active; 'I' for Inactive)
REMARK    1  A    between atoms: C1_1  and  C2_2 
REMARK    2  A    between atoms: C3_3  and  C7_7 
ROOT
HETATM    1  C1  UNL     1     -32.910  17.821  -1.895  1.00 20.00     0.061 C 
HETATM    2  C3  UNL     1     -34.107  17.222  -2.037  1.00 20.00     0.022 C 
HETATM    3 CL9  UNL     1     -35.190  17.079  -0.670  1.00 20.00    -0.088 Cl
ENDROOT
BRANCH   2   4
HETATM    4  C7  UNL     1     -34.645  16.622  -3.352  1.00 20.00    -0.013 C 
HETATM    5  C4  UNL     1     -34.465  17.625  -4.512  1.00 20.00     0.020 C 
HETATM    6  C5  UNL     1     -33.922  15.319  -3.768  1.00 20.00     0.020 C 
HETATM    7  C6  UNL     1     -36.143  16.276  -3.208  1.00 20.00     0.020 C 
ENDBRANCH   2   4
BRANCH   1   8
HETATM    8  C2  UNL     1     -32.382  18.402  -0.637  1.00 20.00     0.260 C 
HETATM    9  O8  UNL     1     -31.194  18.327  -0.344  1.00 20.00    -0.302 OA
ENDBRANCH   1   8
TORSDOF 2
ENDMDL
MODEL 9
REMARK VINA RESULT:      -3.6     11.811     12.454
REMARK  2 active torsions:
REMARK  status: ('A' for Active; 'I' for Inactive)
REMARK    1  A    between atoms: C1_1  and  C2_2 
REMARK    2  A    between atoms: C3_3  and  C7_7 
ROOT
HETATM    1  C1  UNL     1     -35.825  15.196  -4.375  1.00 20.00     0.061 C 
HETATM    2  C3  UNL     1     -34.713  15.723  -3.830  1.00 20.00     0.022 C 
HETATM    3 CL9  UNL     1     -33.141  15.050  -4.205  1.00 20.00    -0.088 Cl
ENDROOT
BRANCH   2   4
HETATM    4  C7  UNL     1     -34.685  16.923  -2.861  1.00 20.00    -0.013 C 
HETATM    5  C4  UNL     1     -35.204  18.194  -3.568  1.00 20.00     0.020 C 
HETATM    6  C5  UNL     1     -35.568  16.715  -1.607  1.00 20.00     0.020 C 
HETATM    7  C6  UNL     1     -33.246  17.173  -2.360  1.00 20.00     0.020 C 
ENDBRANCH   2   4
BRANCH   1   8
HETATM    8  C2  UNL     1     -35.864  14.044  -5.306  1.00 20.00     0.260 C 
HETATM    9  O8  UNL     1     -35.606  12.905  -4.932  1.00 20.00    -0.302 OA
ENDBRANCH   1   8
TORSDOF 2
ENDMDL
