MODEL 1
REMARK VINA RESULT:      -5.8      0.000      0.000
REMARK  3 active torsions:
REMARK  status: ('A' for Active; 'I' for Inactive)
REMARK    1  A    between atoms: C3_3  and  C8_8 
REMARK    2  A    between atoms: C3_3  and  O10_10 
REMARK    3  A    between atoms: C6_6  and  C8_8 
ROOT
HETATM    1  C1  UNL     1     -33.907   6.743   5.052  1.00 20.00    -0.026 C 
HETATM    2  C2  UNL     1     -32.985   7.572   4.554  1.00 20.00    -0.025 C 
HETATM    3  C4  UNL     1     -33.331   5.900   2.921  1.00 20.00     0.017 C 
HETATM    4  C5  UNL     1     -34.390   5.765   4.026  1.00 20.00     0.004 C 
HETATM    5  C6  UNL     1     -32.686   7.282   3.114  1.00 20.00     0.018 C 
HETATM    6  C7  UNL     1     -34.494   4.342   4.556  1.00 20.00     0.014 C 
ENDROOT
BRANCH   5   7
HETATM    7  C8  UNL     1     -33.276   8.341   2.191  1.00 20.00     0.118 C 
BRANCH   7   8
HETATM    8  C3  UNL     1     -32.212   9.035   1.380  1.00 20.00     0.140 C 
HETATM    9  O9  UNL     1     -31.223   8.515   0.890  1.00 20.00    -0.650 OA
BRANCH   8  10
HETATM   10  O10 UNL     1     -32.507  10.355   1.264  1.00 20.00    -0.776 OA
HETATM   11  H22 UNL     1     -32.026  10.773   0.518  1.00 20.00     0.167 HD
ENDBRANCH   8  10
ENDBRANCH   7   8
ENDBRANCH   5   7
TORSDOF 3
ENDMDL
MODEL 2
REMARK VINA RESULT:      -5.6      0.146      1.025
REMARK  3 active torsions:
REMARK  status: ('A' for Active; 'I' for Inactive)
REMARK    1  A    between atoms: C3_3  and  C8_8 
REMARK    2  A    between atoms: C3_3  and  O10_10 
REMARK    3  A    between atoms: C6_6  and  C8_8 
ROOT
HETATM    1  C1  UNL     1     -33.962   6.697   5.033  1.00 20.00    -0.026 C 
HETATM    2  C2  UNL     1     -33.072   7.549   4.516  1.00 20.00    -0.025 C 
HETATM    3  C4  UNL     1     -33.364   5.838   2.914  1.00 20.00     0.017 C 
HETATM    4  C5  UNL     1     -34.413   5.685   4.026  1.00 20.00     0.004 C 
HETATM    5  C6  UNL     1     -32.768   7.245   3.080  1.00 20.00     0.018 C 
HETATM    6  C7  UNL     1     -34.464   4.268   4.581  1.00 20.00     0.014 C 
ENDROOT
BRANCH   5   7
HETATM    7  C8  UNL     1     -33.399   8.266   2.141  1.00 20.00     0.118 C 
BRANCH   7   8
HETATM    8  C3  UNL     1     -32.366   9.163   1.511  1.00 20.00     0.140 C 
HETATM    9  O9  UNL     1     -32.468  10.365   1.327  1.00 20.00    -0.650 OA
BRANCH   8  10
HETATM   10  O10 UNL     1     -31.273   8.436   1.163  1.00 20.00    -0.776 OA
HETATM   11  H22 UNL     1     -31.317   7.520   1.509  1.00 20.00     0.167 HD
ENDBRANCH   8  10
ENDBRANCH   7   8
ENDBRANCH   5   7
TORSDOF 3
ENDMDL
MODEL 3
REMARK VINA RESULT:      -5.4      0.912      1.550
REMARK  3 active torsions:
REMARK  status: ('A' for Active; 'I' for Inactive)
REMARK    1  A    between atoms: C3_3  and  C8_8 
REMARK    2  A    between atoms: C3_3  and  O10_10 
REMARK    3  A    between atoms: C6_6  and  C8_8 
ROOT
HETATM    1  C1  UNL     1     -33.888   5.156   3.446  1.00 20.00    -0.026 C 
HETATM    2  C2  UNL     1     -33.797   6.125   2.531  1.00 20.00    -0.025 C 
HETATM    3  C4  UNL     1     -33.827   7.197   4.636  1.00 20.00     0.017 C 
HETATM    4  C5  UNL     1     -33.685   5.680   4.834  1.00 20.00     0.004 C 
HETATM    5  C6  UNL     1     -33.530   7.463   3.151  1.00 20.00     0.018 C 
HETATM    6  C7  UNL     1     -34.692   5.131   5.835  1.00 20.00     0.014 C 
ENDROOT
BRANCH   5   7
HETATM    7  C8  UNL     1     -32.096   7.920   2.911  1.00 20.00     0.118 C 
BRANCH   7   8
HETATM    8  C3  UNL     1     -31.965   8.711   1.635  1.00 20.00     0.140 C 
HETATM    9  O9  UNL     1     -31.171   8.500   0.732  1.00 20.00    -0.650 OA
BRANCH   8  10
HETATM   10  O10 UNL     1     -32.875   9.719   1.619  1.00 20.00    -0.776 OA
HETATM   11  H22 UNL     1     -33.651   9.503   1.060  1.00 20.00     0.167 HD
ENDBRANCH   8  10
ENDBRANCH   7   8
ENDBRANCH   5   7
TORSDOF 3
ENDMDL
MODEL 4
REMARK VINA RESULT:      -5.3      2.972      4.526
REMARK  3 active torsions:
REMARK  status: ('A' for Active; 'I' for Inactive)
REMARK    1  A    between atoms: C3_3  and  C8_8 
REMARK    2  A    between atoms: C3_3  and  O10_10 
REMARK    3  A    between atoms: C6_6  and  C8_8 
ROOT
HETATM    1  C1  UNL     1     -31.542   8.402   3.019  1.00 20.00    -0.026 C 
HETATM    2  C2  UNL     1     -32.244   7.708   3.919  1.00 20.00    -0.025 C 
HETATM    3  C4  UNL     1     -33.615   7.892   2.005  1.00 20.00     0.017 C 
HETATM    4  C5  UNL     1     -32.202   8.396   1.675  1.00 20.00     0.004 C 
HETATM    5  C6  UNL     1     -33.497   7.130   3.334  1.00 20.00     0.018 C 
HETATM    6  C7  UNL     1     -32.217   9.765   1.009  1.00 20.00     0.014 C 
ENDROOT
BRANCH   5   7
HETATM    7  C8  UNL     1     -33.385   5.623   3.140  1.00 20.00     0.118 C 
BRANCH   7   8
HETATM    8  C3  UNL     1     -34.373   4.872   3.996  1.00 20.00     0.140 C 
HETATM    9  O9  UNL     1     -34.229   3.747   4.448  1.00 20.00    -0.650 OA
BRANCH   8  10
HETATM   10  O10 UNL     1     -35.477   5.634   4.206  1.00 20.00    -0.776 OA
HETATM   11  H22 UNL     1     -36.292   5.193   3.887  1.00 20.00     0.167 HD
ENDBRANCH   8  10
ENDBRANCH   7   8
ENDBRANCH   5   7
TORSDOF 3
ENDMDL
MODEL 5
REMARK VINA RESULT:      -4.9      3.080      4.392
REMARK  3 active torsions:
REMARK  status: ('A' for Active; 'I' for Inactive)
REMARK    1  A    between atoms: C3_3  and  C8_8 
REMARK    2  A    between atoms: C3_3  and  O10_10 
REMARK    3  A    between atoms: C6_6  and  C8_8 
ROOT
HETATM    1  C1  UNL     1     -31.901   8.265   4.310  1.00 20.00    -0.026 C 
HETATM    2  C2  UNL     1     -32.860   8.076   5.221  1.00 20.00    -0.025 C 
HETATM    3  C4  UNL     1     -33.668   7.153   3.202  1.00 20.00     0.017 C 
HETATM    4  C5  UNL     1     -32.185   7.524   3.041  1.00 20.00     0.004 C 
HETATM    5  C6  UNL     1     -33.954   7.187   4.712  1.00 20.00     0.018 C 
HETATM    6  C7  UNL     1     -31.931   8.355   1.791  1.00 20.00     0.014 C 
ENDROOT
BRANCH   5   7
HETATM    7  C8  UNL     1     -33.901   5.805   5.352  1.00 20.00     0.118 C 
BRANCH   7   8
HETATM    8  C3  UNL     1     -34.647   4.780   4.538  1.00 20.00     0.140 C 
HETATM    9  O9  UNL     1     -34.258   3.657   4.258  1.00 20.00    -0.650 OA
BRANCH   8  10
HETATM   10  O10 UNL     1     -35.845   5.284   4.144  1.00 20.00    -0.776 OA
HETATM   11  H22 UNL     1     -35.974   5.205   3.176  1.00 20.00     0.167 HD
ENDBRANCH   8  10
ENDBRANCH   7   8
ENDBRANCH   5   7
TORSDOF 3
ENDMDL
MODEL 6
REMARK VINA RESULT:      -4.7     10.528     11.395
REMARK  3 active torsions:
REMARK  status: ('A' for Active; 'I' for Inactive)
REMARK    1  A    between atoms: C3_3  and  C8_8 
REMARK    2  A    between atoms: C3_3  and  O10_10 
REMARK    3  A    between atoms: C6_6  and  C8_8 
ROOT
HETATM    1  C1  UNL     1     -35.107  16.802  -1.789  1.00 20.00    -0.026 C 
HETATM    2  C2  UNL     1     -35.797  16.325  -2.830  1.00 20.00    -0.025 C 
HETATM    3  C4  UNL     1     -33.595  16.691  -3.602  1.00 20.00     0.017 C 
HETATM    4  C5  UNL     1     -33.639  16.862  -2.075  1.00 20.00     0.004 C 
HETATM    5  C6  UNL     1     -34.910  15.997  -3.992  1.00 20.00     0.018 C 
HETATM    6  C7  UNL     1     -32.992  18.163  -1.621  1.00 20.00     0.014 C 
ENDROOT
BRANCH   5   7
HETATM    7  C8  UNL     1     -34.749  14.492  -4.171  1.00 20.00     0.118 C 
BRANCH   7   8
HETATM    8  C3  UNL     1     -35.680  13.950  -5.226  1.00 20.00     0.140 C 
HETATM    9  O9  UNL     1     -36.148  14.573  -6.166  1.00 20.00    -0.650 OA
BRANCH   8  10
HETATM   10  O10 UNL     1     -35.938  12.639  -4.985  1.00 20.00    -0.776 OA
HETATM   11  H22 UNL     1     -36.174  12.478  -4.047  1.00 20.00     0.167 HD
ENDBRANCH   8  10
ENDBRANCH   7   8
ENDBRANCH   5   7
TORSDOF 3
ENDMDL
MODEL 7
REMARK VINA RESULT:      -4.7     10.619     11.704
REMARK  3 active torsions:
REMARK  status: ('A' for Active; 'I' for Inactive)
REMARK    1  A    between atoms: C3_3  and  C8_8 
REMARK    2  A    between atoms: C3_3  and  O10_10 
REMARK    3  A    between atoms: C6_6  and  C8_8 
ROOT
HETATM    1  C1  UNL     1     -33.336  16.996  -4.600  1.00 20.00    -0.026 C 
HETATM    2  C2  UNL     1     -33.409  15.965  -5.446  1.00 20.00    -0.025 C 
HETATM    3  C4  UNL     1     -34.522  15.290  -3.475  1.00 20.00     0.017 C 
HETATM    4  C5  UNL     1     -34.200  16.790  -3.395  1.00 20.00     0.004 C 
HETATM    5  C6  UNL     1     -34.324  14.889  -4.945  1.00 20.00     0.018 C 
HETATM    6  C7  UNL     1     -33.509  17.164  -2.091  1.00 20.00     0.014 C 
ENDROOT
BRANCH   5   7
HETATM    7  C8  UNL     1     -35.632  14.852  -5.726  1.00 20.00     0.118 C 
BRANCH   7   8
HETATM    8  C3  UNL     1     -36.559  13.778  -5.219  1.00 20.00     0.140 C 
HETATM    9  O9  UNL     1     -37.733  13.919  -4.917  1.00 20.00    -0.650 OA
BRANCH   8  10
HETATM   10  O10 UNL     1     -35.896  12.595  -5.139  1.00 20.00    -0.776 OA
HETATM   11  H22 UNL     1     -35.959  12.201  -4.243  1.00 20.00     0.167 HD
ENDBRANCH   8  10
ENDBRANCH   7   8
ENDBRANCH   5   7
TORSDOF 3
ENDMDL
MODEL 8
REMARK VINA RESULT:      -4.5     10.381     11.250
REMARK  3 active torsions:
REMARK  status: ('A' for Active; 'I' for Inactive)
REMARK    1  A    between atoms: C3_3  and  C8_8 
REMARK    2  A    between atoms: C3_3  and  O10_10 
REMARK    3  A    between atoms: C6_6  and  C8_8 
ROOT
HETATM    1  C1  UNL     1     -35.062  16.963  -1.439  1.00 20.00    -0.026 C 
HETATM    2  C2  UNL     1     -35.748  16.488  -2.483  1.00 20.00    -0.025 C 
HETATM    3  C4  UNL     1     -33.576  16.968  -3.277  1.00 20.00     0.017 C 
HETATM    4  C5  UNL     1     -33.603  17.093  -1.745  1.00 20.00     0.004 C 
HETATM    5  C6  UNL     1     -34.867  16.230  -3.667  1.00 20.00     0.018 C 
HETATM    6  C7  UNL     1     -33.003  18.406  -1.262  1.00 20.00     0.014 C 
ENDROOT
BRANCH   5   7
HETATM    7  C8  UNL     1     -34.647  14.740  -3.894  1.00 20.00     0.118 C 
BRANCH   7   8
HETATM    8  C3  UNL     1     -33.651  14.480  -4.994  1.00 20.00     0.140 C 
HETATM    9  O9  UNL     1     -33.754  14.826  -6.160  1.00 20.00    -0.650 OA
BRANCH   8  10
HETATM   10  O10 UNL     1     -32.589  13.789  -4.503  1.00 20.00    -0.776 OA
HETATM   11  H22 UNL     1     -31.744  14.261  -4.655  1.00 20.00     0.167 HD
ENDBRANCH   8  10
ENDBRANCH   7   8
ENDBRANCH   5   7
TORSDOF 3
ENDMDL
MODEL 9
REMARK VINA RESULT:      -4.5      3.061      4.568
REMARK  3 active torsions:
REMARK  status: ('A' for Active; 'I' for Inactive)
REMARK    1  A    between atoms: C3_3  and  C8_8 
REMARK    2  A    between atoms: C3_3  and  O10_10 
REMARK    3  A    between atoms: C6_6  and  C8_8 
ROOT
HETATM    1  C1  UNL     1     -32.962   6.869   1.737  1.00 20.00    -0.026 C 
HETATM    2  C2  UNL     1     -32.948   6.097   2.828  1.00 20.00    -0.025 C 
HETATM    3  C4  UNL     1     -32.186   8.226   3.510  1.00 20.00     0.017 C 
HETATM    4  C5  UNL     1     -32.721   8.308   2.071  1.00 20.00     0.004 C 
HETATM    5  C6  UNL     1     -32.683   6.886   4.074  1.00 20.00     0.018 C 
HETATM    6  C7  UNL     1     -31.738   8.986   1.127  1.00 20.00     0.014 C 
ENDROOT
BRANCH   5   7
HETATM    7  C8  UNL     1     -33.939   7.036   4.924  1.00 20.00     0.118 C 
BRANCH   7   8
HETATM    8  C3  UNL     1     -34.674   5.729   5.075  1.00 20.00     0.140 C 
HETATM    9  O9  UNL     1     -34.434   4.854   5.892  1.00 20.00    -0.650 OA
BRANCH   8  10
HETATM   10  O10 UNL     1     -35.669   5.649   4.154  1.00 20.00    -0.776 OA
HETATM   11  H22 UNL     1     -35.810   4.728   3.847  1.00 20.00     0.167 HD
ENDBRANCH   8  10
ENDBRANCH   7   8
ENDBRANCH   5   7
TORSDOF 3
ENDMDL
