MODEL 1
REMARK VINA RESULT:      -5.2      0.000      0.000
REMARK  2 active torsions:
REMARK  status: ('A' for Active; 'I' for Inactive)
REMARK    1  A    between atoms: C6_6  and  C7_7 
REMARK    2  A    between atoms: C7_7  and  C8_8 
ROOT
HETATM    1  C1  UNL     1     -32.281   8.187   2.141  1.00 20.00     0.059 C 
HETATM    2  C6  UNL     1     -32.403   7.209   3.236  1.00 20.00     0.129 C 
HETATM    3  N9  UNL     1     -32.182   8.957   1.279  1.00 20.00    -0.197 NA
ENDROOT
BRANCH   2   4
HETATM    4  C7  UNL     1     -33.460   6.119   2.933  1.00 20.00     0.002 C 
HETATM    5  C2  UNL     1     -32.749   4.843   2.441  1.00 20.00     0.011 C 
BRANCH   4   6
HETATM    6  C8  UNL     1     -34.440   5.858   4.140  1.00 20.00    -0.047 C 
HETATM    7  C3  UNL     1     -34.108   6.734   5.364  1.00 20.00     0.015 C 
HETATM    8  C4  UNL     1     -34.371   4.376   4.574  1.00 20.00     0.015 C 
HETATM    9  C5  UNL     1     -35.903   6.137   3.729  1.00 20.00     0.015 C 
ENDBRANCH   4   6
ENDBRANCH   2   4
TORSDOF 2
ENDMDL
MODEL 2
REMARK VINA RESULT:      -5.2      0.028      1.436
REMARK  2 active torsions:
REMARK  status: ('A' for Active; 'I' for Inactive)
REMARK    1  A    between atoms: C6_6  and  C7_7 
REMARK    2  A    between atoms: C7_7  and  C8_8 
ROOT
HETATM    1  C1  UNL     1     -32.280   8.172   2.143  1.00 20.00     0.059 C 
HETATM    2  C6  UNL     1     -32.406   7.197   3.242  1.00 20.00     0.129 C 
HETATM    3  N9  UNL     1     -32.177   8.939   1.280  1.00 20.00    -0.197 NA
ENDROOT
BRANCH   2   4
HETATM    4  C7  UNL     1     -33.463   6.107   2.938  1.00 20.00     0.002 C 
HETATM    5  C2  UNL     1     -32.752   4.834   2.437  1.00 20.00     0.011 C 
BRANCH   4   6
HETATM    6  C8  UNL     1     -34.437   5.839   4.148  1.00 20.00    -0.047 C 
HETATM    7  C3  UNL     1     -34.376   4.380   4.637  1.00 20.00     0.015 C 
HETATM    8  C4  UNL     1     -35.896   6.152   3.740  1.00 20.00     0.015 C 
HETATM    9  C5  UNL     1     -34.097   6.762   5.339  1.00 20.00     0.015 C 
ENDBRANCH   4   6
ENDBRANCH   2   4
TORSDOF 2
ENDMDL
MODEL 3
REMARK VINA RESULT:      -4.9      0.929      2.297
REMARK  2 active torsions:
REMARK  status: ('A' for Active; 'I' for Inactive)
REMARK    1  A    between atoms: C6_6  and  C7_7 
REMARK    2  A    between atoms: C7_7  and  C8_8 
ROOT
HETATM    1  C1  UNL     1     -32.521   8.145   2.513  1.00 20.00     0.059 C 
HETATM    2  C6  UNL     1     -33.613   8.036   3.496  1.00 20.00     0.129 C 
HETATM    3  N9  UNL     1     -31.662   8.234   1.739  1.00 20.00    -0.197 NA
ENDROOT
BRANCH   2   4
HETATM    4  C7  UNL     1     -33.387   6.874   4.495  1.00 20.00     0.002 C 
HETATM    5  C2  UNL     1     -33.640   7.380   5.929  1.00 20.00     0.011 C 
BRANCH   4   6
HETATM    6  C8  UNL     1     -34.217   5.583   4.137  1.00 20.00    -0.047 C 
HETATM    7  C3  UNL     1     -33.504   4.698   3.096  1.00 20.00     0.015 C 
HETATM    8  C4  UNL     1     -35.600   5.977   3.569  1.00 20.00     0.015 C 
HETATM    9  C5  UNL     1     -34.476   4.731   5.399  1.00 20.00     0.015 C 
ENDBRANCH   4   6
ENDBRANCH   2   4
TORSDOF 2
ENDMDL
MODEL 4
REMARK VINA RESULT:      -4.9      0.935      1.926
REMARK  2 active torsions:
REMARK  status: ('A' for Active; 'I' for Inactive)
REMARK    1  A    between atoms: C6_6  and  C7_7 
REMARK    2  A    between atoms: C7_7  and  C8_8 
ROOT
HETATM    1  C1  UNL     1     -32.521   8.138   2.508  1.00 20.00     0.059 C 
HETATM    2  C6  UNL     1     -33.624   8.022   3.479  1.00 20.00     0.129 C 
HETATM    3  N9  UNL     1     -31.654   8.232   1.744  1.00 20.00    -0.197 NA
ENDROOT
BRANCH   2   4
HETATM    4  C7  UNL     1     -33.392   6.877   4.494  1.00 20.00     0.002 C 
HETATM    5  C2  UNL     1     -33.622   7.409   5.923  1.00 20.00     0.011 C 
BRANCH   4   6
HETATM    6  C8  UNL     1     -34.234   5.585   4.170  1.00 20.00    -0.047 C 
HETATM    7  C3  UNL     1     -34.484   4.719   5.419  1.00 20.00     0.015 C 
HETATM    8  C4  UNL     1     -33.502   4.718   3.119  1.00 20.00     0.015 C 
HETATM    9  C5  UNL     1     -35.604   5.963   3.563  1.00 20.00     0.015 C 
ENDBRANCH   4   6
ENDBRANCH   2   4
TORSDOF 2
ENDMDL
MODEL 5
REMARK VINA RESULT:      -4.9      0.946      2.141
REMARK  2 active torsions:
REMARK  status: ('A' for Active; 'I' for Inactive)
REMARK    1  A    between atoms: C6_6  and  C7_7 
REMARK    2  A    between atoms: C7_7  and  C8_8 
ROOT
HETATM    1  C1  UNL     1     -32.510   8.150   2.524  1.00 20.00     0.059 C 
HETATM    2  C6  UNL     1     -33.613   8.039   3.495  1.00 20.00     0.129 C 
HETATM    3  N9  UNL     1     -31.642   8.241   1.760  1.00 20.00    -0.197 NA
ENDROOT
BRANCH   2   4
HETATM    4  C7  UNL     1     -33.392   6.884   4.501  1.00 20.00     0.002 C 
HETATM    5  C2  UNL     1     -33.611   7.409   5.934  1.00 20.00     0.011 C 
BRANCH   4   6
HETATM    6  C8  UNL     1     -34.254   5.606   4.171  1.00 20.00    -0.047 C 
HETATM    7  C3  UNL     1     -35.630   5.964   3.577  1.00 20.00     0.015 C 
HETATM    8  C4  UNL     1     -34.482   4.768   5.450  1.00 20.00     0.015 C 
HETATM    9  C5  UNL     1     -33.517   4.694   3.165  1.00 20.00     0.015 C 
ENDBRANCH   4   6
ENDBRANCH   2   4
TORSDOF 2
ENDMDL
MODEL 6
REMARK VINA RESULT:      -4.4      2.366      4.032
REMARK  2 active torsions:
REMARK  status: ('A' for Active; 'I' for Inactive)
REMARK    1  A    between atoms: C6_6  and  C7_7 
REMARK    2  A    between atoms: C7_7  and  C8_8 
ROOT
HETATM    1  C1  UNL     1     -34.665   4.955   4.356  1.00 20.00     0.059 C 
HETATM    2  C6  UNL     1     -35.030   6.229   3.710  1.00 20.00     0.129 C 
HETATM    3  N9  UNL     1     -34.380   3.952   4.862  1.00 20.00    -0.197 NA
ENDROOT
BRANCH   2   4
HETATM    4  C7  UNL     1     -34.057   7.374   4.083  1.00 20.00     0.002 C 
HETATM    5  C2  UNL     1     -33.631   7.219   5.557  1.00 20.00     0.011 C 
BRANCH   4   6
HETATM    6  C8  UNL     1     -32.836   7.492   3.094  1.00 20.00    -0.047 C 
HETATM    7  C3  UNL     1     -33.136   8.420   1.901  1.00 20.00     0.015 C 
HETATM    8  C4  UNL     1     -32.459   6.098   2.540  1.00 20.00     0.015 C 
HETATM    9  C5  UNL     1     -31.588   8.035   3.826  1.00 20.00     0.015 C 
ENDBRANCH   4   6
ENDBRANCH   2   4
TORSDOF 2
ENDMDL
MODEL 7
REMARK VINA RESULT:      -4.4      2.367      4.031
REMARK  2 active torsions:
REMARK  status: ('A' for Active; 'I' for Inactive)
REMARK    1  A    between atoms: C6_6  and  C7_7 
REMARK    2  A    between atoms: C7_7  and  C8_8 
ROOT
HETATM    1  C1  UNL     1     -34.661   4.955   4.355  1.00 20.00     0.059 C 
HETATM    2  C6  UNL     1     -35.023   6.230   3.710  1.00 20.00     0.129 C 
HETATM    3  N9  UNL     1     -34.378   3.950   4.859  1.00 20.00    -0.197 NA
ENDROOT
BRANCH   2   4
HETATM    4  C7  UNL     1     -34.052   7.374   4.091  1.00 20.00     0.002 C 
HETATM    5  C2  UNL     1     -33.644   7.224   5.571  1.00 20.00     0.011 C 
BRANCH   4   6
HETATM    6  C8  UNL     1     -32.819   7.486   3.116  1.00 20.00    -0.047 C 
HETATM    7  C3  UNL     1     -31.568   8.051   3.816  1.00 20.00     0.015 C 
HETATM    8  C4  UNL     1     -33.162   8.407   1.922  1.00 20.00     0.015 C 
HETATM    9  C5  UNL     1     -32.460   6.104   2.526  1.00 20.00     0.015 C 
ENDBRANCH   4   6
ENDBRANCH   2   4
TORSDOF 2
ENDMDL
MODEL 8
REMARK VINA RESULT:      -4.4      2.361      4.033
REMARK  2 active torsions:
REMARK  status: ('A' for Active; 'I' for Inactive)
REMARK    1  A    between atoms: C6_6  and  C7_7 
REMARK    2  A    between atoms: C7_7  and  C8_8 
ROOT
HETATM    1  C1  UNL     1     -34.661   4.959   4.366  1.00 20.00     0.059 C 
HETATM    2  C6  UNL     1     -35.047   6.248   3.766  1.00 20.00     0.129 C 
HETATM    3  N9  UNL     1     -34.360   3.942   4.836  1.00 20.00    -0.197 NA
ENDROOT
BRANCH   2   4
HETATM    4  C7  UNL     1     -34.045   7.377   4.113  1.00 20.00     0.002 C 
HETATM    5  C2  UNL     1     -33.606   7.234   5.584  1.00 20.00     0.011 C 
BRANCH   4   6
HETATM    6  C8  UNL     1     -32.833   7.455   3.108  1.00 20.00    -0.047 C 
HETATM    7  C3  UNL     1     -32.456   6.075   2.536  1.00 20.00     0.015 C 
HETATM    8  C4  UNL     1     -31.589   8.042   3.815  1.00 20.00     0.015 C 
HETATM    9  C5  UNL     1     -33.161   8.395   1.926  1.00 20.00     0.015 C 
ENDBRANCH   4   6
ENDBRANCH   2   4
TORSDOF 2
ENDMDL
MODEL 9
REMARK VINA RESULT:      -4.2     11.400     12.080
REMARK  2 active torsions:
REMARK  status: ('A' for Active; 'I' for Inactive)
REMARK    1  A    between atoms: C6_6  and  C7_7 
REMARK    2  A    between atoms: C7_7  and  C8_8 
ROOT
HETATM    1  C1  UNL     1     -35.849  13.951  -4.852  1.00 20.00     0.059 C 
HETATM    2  C6  UNL     1     -35.806  15.316  -4.299  1.00 20.00     0.129 C 
HETATM    3  N9  UNL     1     -35.885  12.878  -5.290  1.00 20.00    -0.197 NA
ENDROOT
BRANCH   2   4
HETATM    4  C7  UNL     1     -34.570  15.541  -3.393  1.00 20.00     0.002 C 
HETATM    5  C2  UNL     1     -33.287  15.319  -4.218  1.00 20.00     0.011 C 
BRANCH   4   6
HETATM    6  C8  UNL     1     -34.596  16.931  -2.649  1.00 20.00    -0.047 C 
HETATM    7  C3  UNL     1     -33.195  17.375  -2.187  1.00 20.00     0.015 C 
HETATM    8  C4  UNL     1     -35.514  16.855  -1.407  1.00 20.00     0.015 C 
HETATM    9  C5  UNL     1     -35.174  18.032  -3.566  1.00 20.00     0.015 C 
ENDBRANCH   4   6
ENDBRANCH   2   4
TORSDOF 2
ENDMDL
