MODEL 1
REMARK VINA RESULT:      -4.9      0.000      0.000
REMARK  2 active torsions:
REMARK  status: ('A' for Active; 'I' for Inactive)
REMARK    1  A    between atoms: C3_3  and  C4_4 
REMARK    2  A    between atoms: C5_5  and  C6_6 
ROOT
HETATM    1  C1  UNL     1     -34.443   5.521   4.585  1.00 20.00     0.087 C 
HETATM    2  C2  UNL     1     -34.019   6.130   3.373  1.00 20.00     0.093 C 
HETATM    3  C3  UNL     1     -32.994   6.994   3.346  1.00 20.00     0.011 C 
HETATM    4  N7  UNL     1     -34.793   5.021   5.573  1.00 20.00    -0.192 NA
ENDROOT
BRANCH   3   5
HETATM    5  C4  UNL     1     -32.536   7.632   2.132  1.00 20.00    -0.002 C 
HETATM    6  C5  UNL     1     -32.539   8.963   1.956  1.00 20.00    -0.012 C 
BRANCH   6   7
HETATM    7  C6  UNL     1     -32.058   9.629   0.709  1.00 20.00     0.141 C 
HETATM    8 CL8  UNL     1     -33.293   9.500  -0.562  1.00 20.00    -0.126 Cl
ENDBRANCH   6   7
ENDBRANCH   3   5
TORSDOF 2
ENDMDL
MODEL 2
REMARK VINA RESULT:      -4.7      4.024      5.400
REMARK  2 active torsions:
REMARK  status: ('A' for Active; 'I' for Inactive)
REMARK    1  A    between atoms: C3_3  and  C4_4 
REMARK    2  A    between atoms: C5_5  and  C6_6 
ROOT
HETATM    1  C1  UNL     1     -32.184   9.375   1.288  1.00 20.00     0.087 C 
HETATM    2  C2  UNL     1     -32.146   8.250   2.156  1.00 20.00     0.093 C 
HETATM    3  C3  UNL     1     -33.244   7.526   2.410  1.00 20.00     0.011 C 
HETATM    4  N7  UNL     1     -32.210  10.295   0.580  1.00 20.00    -0.192 NA
ENDROOT
BRANCH   3   5
HETATM    5  C4  UNL     1     -33.243   6.376   3.287  1.00 20.00    -0.002 C 
HETATM    6  C5  UNL     1     -34.296   5.555   3.424  1.00 20.00    -0.012 C 
BRANCH   6   7
HETATM    7  C6  UNL     1     -34.297   4.360   4.320  1.00 20.00     0.141 C 
HETATM    8 CL8  UNL     1     -34.590   4.863   5.999  1.00 20.00    -0.126 Cl
ENDBRANCH   6   7
ENDBRANCH   3   5
TORSDOF 2
ENDMDL
MODEL 3
REMARK VINA RESULT:      -4.1     10.413     10.756
REMARK  2 active torsions:
REMARK  status: ('A' for Active; 'I' for Inactive)
REMARK    1  A    between atoms: C3_3  and  C4_4 
REMARK    2  A    between atoms: C5_5  and  C6_6 
ROOT
HETATM    1  C1  UNL     1     -35.313  13.646  -4.793  1.00 20.00     0.087 C 
HETATM    2  C2  UNL     1     -34.575  14.562  -3.995  1.00 20.00     0.093 C 
HETATM    3  C3  UNL     1     -35.172  15.589  -3.375  1.00 20.00     0.011 C 
HETATM    4  N7  UNL     1     -35.913  12.895  -5.444  1.00 20.00    -0.192 NA
ENDROOT
BRANCH   3   5
HETATM    5  C4  UNL     1     -34.453  16.540  -2.558  1.00 20.00    -0.002 C 
HETATM    6  C5  UNL     1     -34.895  16.964  -1.364  1.00 20.00    -0.012 C 
BRANCH   6   7
HETATM    7  C6  UNL     1     -34.152  17.938  -0.509  1.00 20.00     0.141 C 
HETATM    8 CL8  UNL     1     -32.511  18.174  -1.146  1.00 20.00    -0.126 Cl
ENDBRANCH   6   7
ENDBRANCH   3   5
TORSDOF 2
ENDMDL
MODEL 4
REMARK VINA RESULT:      -3.8     10.753     11.138
REMARK  2 active torsions:
REMARK  status: ('A' for Active; 'I' for Inactive)
REMARK    1  A    between atoms: C3_3  and  C4_4 
REMARK    2  A    between atoms: C5_5  and  C6_6 
ROOT
HETATM    1  C1  UNL     1     -32.930  17.823  -1.432  1.00 20.00     0.087 C 
HETATM    2  C2  UNL     1     -33.986  17.028  -1.951  1.00 20.00     0.093 C 
HETATM    3  C3  UNL     1     -33.837  16.314  -3.076  1.00 20.00     0.011 C 
HETATM    4  N7  UNL     1     -32.069  18.474  -1.004  1.00 20.00    -0.192 NA
ENDROOT
BRANCH   3   5
HETATM    5  C4  UNL     1     -34.890  15.495  -3.633  1.00 20.00    -0.002 C 
HETATM    6  C5  UNL     1     -34.660  14.472  -4.471  1.00 20.00    -0.012 C 
BRANCH   6   7
HETATM    7  C6  UNL     1     -35.743  13.616  -5.042  1.00 20.00     0.141 C 
HETATM    8 CL8  UNL     1     -35.350  13.183  -6.720  1.00 20.00    -0.126 Cl
ENDBRANCH   6   7
ENDBRANCH   3   5
TORSDOF 2
ENDMDL
MODEL 5
REMARK VINA RESULT:      -3.7     10.755     11.150
REMARK  2 active torsions:
REMARK  status: ('A' for Active; 'I' for Inactive)
REMARK    1  A    between atoms: C3_3  and  C4_4 
REMARK    2  A    between atoms: C5_5  and  C6_6 
ROOT
HETATM    1  C1  UNL     1     -33.005  17.806  -1.530  1.00 20.00     0.087 C 
HETATM    2  C2  UNL     1     -34.067  17.013  -2.043  1.00 20.00     0.093 C 
HETATM    3  C3  UNL     1     -33.890  16.202  -3.095  1.00 20.00     0.011 C 
HETATM    4  N7  UNL     1     -32.140  18.455  -1.109  1.00 20.00    -0.192 NA
ENDROOT
BRANCH   3   5
HETATM    5  C4  UNL     1     -34.948  15.382  -3.643  1.00 20.00    -0.002 C 
HETATM    6  C5  UNL     1     -34.726  14.374  -4.500  1.00 20.00    -0.012 C 
BRANCH   6   7
HETATM    7  C6  UNL     1     -35.813  13.517  -5.062  1.00 20.00     0.141 C 
HETATM    8 CL8  UNL     1     -37.369  14.366  -4.958  1.00 20.00    -0.126 Cl
ENDBRANCH   6   7
ENDBRANCH   3   5
TORSDOF 2
ENDMDL
MODEL 6
REMARK VINA RESULT:      -3.7     10.965     11.160
REMARK  2 active torsions:
REMARK  status: ('A' for Active; 'I' for Inactive)
REMARK    1  A    between atoms: C3_3  and  C4_4 
REMARK    2  A    between atoms: C5_5  and  C6_6 
ROOT
HETATM    1  C1  UNL     1     -33.960  14.389  -5.157  1.00 20.00     0.087 C 
HETATM    2  C2  UNL     1     -33.428  15.271  -4.178  1.00 20.00     0.093 C 
HETATM    3  C3  UNL     1     -34.224  15.937  -3.330  1.00 20.00     0.011 C 
HETATM    4  N7  UNL     1     -34.391  13.668  -5.958  1.00 20.00    -0.192 NA
ENDROOT
BRANCH   3   5
HETATM    5  C4  UNL     1     -33.717  16.841  -2.322  1.00 20.00    -0.002 C 
HETATM    6  C5  UNL     1     -34.441  17.245  -1.266  1.00 20.00    -0.012 C 
BRANCH   6   7
HETATM    7  C6  UNL     1     -33.921  18.171  -0.216  1.00 20.00     0.141 C 
HETATM    8 CL8  UNL     1     -32.191  18.477  -0.482  1.00 20.00    -0.126 Cl
ENDBRANCH   6   7
ENDBRANCH   3   5
TORSDOF 2
ENDMDL
MODEL 7
REMARK VINA RESULT:      -3.7     10.859     11.264
REMARK  2 active torsions:
REMARK  status: ('A' for Active; 'I' for Inactive)
REMARK    1  A    between atoms: C3_3  and  C4_4 
REMARK    2  A    between atoms: C5_5  and  C6_6 
ROOT
HETATM    1  C1  UNL     1     -32.154  18.221  -0.840  1.00 20.00     0.087 C 
HETATM    2  C2  UNL     1     -33.141  17.817  -1.780  1.00 20.00     0.093 C 
HETATM    3  C3  UNL     1     -34.193  17.072  -1.413  1.00 20.00     0.011 C 
HETATM    4  N7  UNL     1     -31.346  18.554  -0.076  1.00 20.00    -0.192 NA
ENDROOT
BRANCH   3   5
HETATM    5  C4  UNL     1     -35.214  16.643  -2.341  1.00 20.00    -0.002 C 
HETATM    6  C5  UNL     1     -34.989  15.755  -3.322  1.00 20.00    -0.012 C 
BRANCH   6   7
HETATM    7  C6  UNL     1     -36.042  15.299  -4.278  1.00 20.00     0.141 C 
HETATM    8 CL8  UNL     1     -35.673  13.657  -4.848  1.00 20.00    -0.126 Cl
ENDBRANCH   6   7
ENDBRANCH   3   5
TORSDOF 2
ENDMDL
MODEL 8
REMARK VINA RESULT:      -3.4     10.684     10.792
REMARK  2 active torsions:
REMARK  status: ('A' for Active; 'I' for Inactive)
REMARK    1  A    between atoms: C3_3  and  C4_4 
REMARK    2  A    between atoms: C5_5  and  C6_6 
ROOT
HETATM    1  C1  UNL     1     -34.776  17.912  -0.070  1.00 20.00     0.087 C 
HETATM    2  C2  UNL     1     -35.153  17.079  -1.158  1.00 20.00     0.093 C 
HETATM    3  C3  UNL     1     -34.269  16.708  -2.094  1.00 20.00     0.011 C 
HETATM    4  N7  UNL     1     -34.471  18.591   0.821  1.00 20.00    -0.192 NA
ENDROOT
BRANCH   3   5
HETATM    5  C4  UNL     1     -34.617  15.863  -3.215  1.00 20.00    -0.002 C 
HETATM    6  C5  UNL     1     -33.709  15.348  -4.057  1.00 20.00    -0.012 C 
BRANCH   6   7
HETATM    7  C6  UNL     1     -34.061  14.467  -5.211  1.00 20.00     0.141 C 
HETATM    8 CL8  UNL     1     -35.584  13.615  -4.879  1.00 20.00    -0.126 Cl
ENDBRANCH   6   7
ENDBRANCH   3   5
TORSDOF 2
ENDMDL
MODEL 9
REMARK VINA RESULT:      -3.4     10.717     10.869
REMARK  2 active torsions:
REMARK  status: ('A' for Active; 'I' for Inactive)
REMARK    1  A    between atoms: C3_3  and  C4_4 
REMARK    2  A    between atoms: C5_5  and  C6_6 
ROOT
HETATM    1  C1  UNL     1     -34.461  18.422   1.117  1.00 20.00     0.087 C 
HETATM    2  C2  UNL     1     -34.290  17.871  -0.182  1.00 20.00     0.093 C 
HETATM    3  C3  UNL     1     -35.279  17.207  -0.796  1.00 20.00     0.011 C 
HETATM    4  N7  UNL     1     -34.597  18.875   2.177  1.00 20.00    -0.192 NA
ENDROOT
BRANCH   3   5
HETATM    5  C4  UNL     1     -35.139  16.633  -2.115  1.00 20.00    -0.002 C 
HETATM    6  C5  UNL     1     -33.953  16.458  -2.719  1.00 20.00    -0.012 C 
BRANCH   6   7
HETATM    7  C6  UNL     1     -33.801  15.856  -4.077  1.00 20.00     0.141 C 
HETATM    8 CL8  UNL     1     -34.383  14.178  -4.065  1.00 20.00    -0.126 Cl
ENDBRANCH   6   7
ENDBRANCH   3   5
TORSDOF 2
ENDMDL
