MODEL 1
REMARK VINA RESULT:      -4.7      0.000      0.000
REMARK  2 active torsions:
REMARK  status: ('A' for Active; 'I' for Inactive)
REMARK    1  A    between atoms: C1_1  and  C7_7 
REMARK    2  A    between atoms: C2_2  and  C3_3 
ROOT
HETATM    1  C1  UNL     1     -33.143   6.676   2.924  1.00 20.00    -0.013 C 
HETATM    2  C3  UNL     1     -33.857   6.165   3.941  1.00 20.00    -0.028 C 
HETATM    3  C4  UNL     1     -34.362   4.765   4.095  1.00 20.00     0.051 C 
ENDROOT
BRANCH   1   4
HETATM    4  C7  UNL     1     -32.644   8.095   2.778  1.00 20.00     0.000 C 
HETATM    5  C5  UNL     1     -31.304   8.255   3.496  1.00 20.00     0.013 C 
HETATM    6  C6  UNL     1     -32.504   8.450   1.297  1.00 20.00     0.013 C 
ENDBRANCH   1   4
BRANCH   2   7
HETATM    7  C2  UNL     1     -34.186   7.114   5.041  1.00 20.00     0.265 C 
HETATM    8  O8  UNL     1     -33.528   7.195   6.073  1.00 20.00    -0.302 OA
ENDBRANCH   2   7
TORSDOF 2
ENDMDL
MODEL 2
REMARK VINA RESULT:      -4.4      1.383      3.549
REMARK  2 active torsions:
REMARK  status: ('A' for Active; 'I' for Inactive)
REMARK    1  A    between atoms: C1_1  and  C7_7 
REMARK    2  A    between atoms: C2_2  and  C3_3 
ROOT
HETATM    1  C1  UNL     1     -33.357   7.185   2.258  1.00 20.00    -0.013 C 
HETATM    2  C3  UNL     1     -32.447   8.174   2.231  1.00 20.00    -0.028 C 
HETATM    3  C4  UNL     1     -32.317   9.274   1.226  1.00 20.00     0.051 C 
ENDROOT
BRANCH   1   4
HETATM    4  C7  UNL     1     -33.472   6.075   3.277  1.00 20.00     0.000 C 
HETATM    5  C5  UNL     1     -34.907   5.991   3.798  1.00 20.00     0.013 C 
HETATM    6  C6  UNL     1     -33.051   4.746   2.650  1.00 20.00     0.013 C 
ENDBRANCH   1   4
BRANCH   2   7
HETATM    7  C2  UNL     1     -31.447   8.163   3.336  1.00 20.00     0.265 C 
HETATM    8  O8  UNL     1     -31.700   8.559   4.469  1.00 20.00    -0.302 OA
ENDBRANCH   2   7
TORSDOF 2
ENDMDL
MODEL 3
REMARK VINA RESULT:      -4.3      1.964      2.486
REMARK  2 active torsions:
REMARK  status: ('A' for Active; 'I' for Inactive)
REMARK    1  A    between atoms: C1_1  and  C7_7 
REMARK    2  A    between atoms: C2_2  and  C3_3 
ROOT
HETATM    1  C1  UNL     1     -33.520   7.394   3.185  1.00 20.00    -0.013 C 
HETATM    2  C3  UNL     1     -33.880   6.125   3.444  1.00 20.00    -0.028 C 
HETATM    3  C4  UNL     1     -35.144   5.642   4.080  1.00 20.00     0.051 C 
ENDROOT
BRANCH   1   4
HETATM    4  C7  UNL     1     -32.235   7.869   2.547  1.00 20.00     0.000 C 
HETATM    5  C5  UNL     1     -32.531   8.980   1.539  1.00 20.00     0.013 C 
HETATM    6  C6  UNL     1     -31.270   8.366   3.624  1.00 20.00     0.013 C 
ENDBRANCH   1   4
BRANCH   2   7
HETATM    7  C2  UNL     1     -32.893   5.081   3.051  1.00 20.00     0.265 C 
HETATM    8  O8  UNL     1     -33.059   4.329   2.097  1.00 20.00    -0.302 OA
ENDBRANCH   2   7
TORSDOF 2
ENDMDL
MODEL 4
REMARK VINA RESULT:      -4.3      1.677      2.333
REMARK  2 active torsions:
REMARK  status: ('A' for Active; 'I' for Inactive)
REMARK    1  A    between atoms: C1_1  and  C7_7 
REMARK    2  A    between atoms: C2_2  and  C3_3 
ROOT
HETATM    1  C1  UNL     1     -33.378   7.200   4.365  1.00 20.00    -0.013 C 
HETATM    2  C3  UNL     1     -34.048   6.096   4.738  1.00 20.00    -0.028 C 
HETATM    3  C4  UNL     1     -34.867   5.894   5.973  1.00 20.00     0.051 C 
ENDROOT
BRANCH   1   4
HETATM    4  C7  UNL     1     -32.548   7.389   3.117  1.00 20.00     0.000 C 
HETATM    5  C5  UNL     1     -33.375   8.091   2.040  1.00 20.00     0.013 C 
HETATM    6  C6  UNL     1     -31.293   8.200   3.442  1.00 20.00     0.013 C 
ENDBRANCH   1   4
BRANCH   2   7
HETATM    7  C2  UNL     1     -33.954   4.937   3.806  1.00 20.00     0.265 C 
HETATM    8  O8  UNL     1     -34.283   3.799   4.121  1.00 20.00    -0.302 OA
ENDBRANCH   2   7
TORSDOF 2
ENDMDL
MODEL 5
REMARK VINA RESULT:      -4.2      1.176      1.689
REMARK  2 active torsions:
REMARK  status: ('A' for Active; 'I' for Inactive)
REMARK    1  A    between atoms: C1_1  and  C7_7 
REMARK    2  A    between atoms: C2_2  and  C3_3 
ROOT
HETATM    1  C1  UNL     1     -32.997   7.718   1.985  1.00 20.00    -0.013 C 
HETATM    2  C3  UNL     1     -33.280   7.108   3.149  1.00 20.00    -0.028 C 
HETATM    3  C4  UNL     1     -34.119   5.888   3.365  1.00 20.00     0.051 C 
ENDROOT
BRANCH   1   4
HETATM    4  C7  UNL     1     -32.153   8.955   1.782  1.00 20.00     0.000 C 
HETATM    5  C5  UNL     1     -31.137   8.718   0.665  1.00 20.00     0.013 C 
HETATM    6  C6  UNL     1     -33.048  10.149   1.449  1.00 20.00     0.013 C 
ENDBRANCH   1   4
BRANCH   2   7
HETATM    7  C2  UNL     1     -32.689   7.732   4.366  1.00 20.00     0.265 C 
HETATM    8  O8  UNL     1     -33.142   7.557   5.493  1.00 20.00    -0.302 OA
ENDBRANCH   2   7
TORSDOF 2
ENDMDL
MODEL 6
REMARK VINA RESULT:      -4.2      1.335      3.519
REMARK  2 active torsions:
REMARK  status: ('A' for Active; 'I' for Inactive)
REMARK    1  A    between atoms: C1_1  and  C7_7 
REMARK    2  A    between atoms: C2_2  and  C3_3 
ROOT
HETATM    1  C1  UNL     1     -33.775   7.224   3.147  1.00 20.00    -0.013 C 
HETATM    2  C3  UNL     1     -32.771   7.942   2.614  1.00 20.00    -0.028 C 
HETATM    3  C4  UNL     1     -32.803   8.788   1.381  1.00 20.00     0.051 C 
ENDROOT
BRANCH   1   4
HETATM    4  C7  UNL     1     -33.727   6.368   4.391  1.00 20.00     0.000 C 
HETATM    5  C5  UNL     1     -33.912   7.238   5.634  1.00 20.00     0.013 C 
HETATM    6  C6  UNL     1     -34.811   5.290   4.325  1.00 20.00     0.013 C 
ENDBRANCH   1   4
BRANCH   2   7
HETATM    7  C2  UNL     1     -31.472   7.876   3.341  1.00 20.00     0.265 C 
HETATM    8  O8  UNL     1     -31.120   8.722   4.157  1.00 20.00    -0.302 OA
ENDBRANCH   2   7
TORSDOF 2
ENDMDL
MODEL 7
REMARK VINA RESULT:      -4.1      2.224      3.934
REMARK  2 active torsions:
REMARK  status: ('A' for Active; 'I' for Inactive)
REMARK    1  A    between atoms: C1_1  and  C7_7 
REMARK    2  A    between atoms: C2_2  and  C3_3 
ROOT
HETATM    1  C1  UNL     1     -32.942   6.894   3.685  1.00 20.00    -0.013 C 
HETATM    2  C3  UNL     1     -32.241   7.921   3.172  1.00 20.00    -0.028 C 
HETATM    3  C4  UNL     1     -31.257   8.801   3.875  1.00 20.00     0.051 C 
ENDROOT
BRANCH   1   4
HETATM    4  C7  UNL     1     -33.939   6.017   2.964  1.00 20.00     0.000 C 
HETATM    5  C5  UNL     1     -33.299   4.674   2.617  1.00 20.00     0.013 C 
HETATM    6  C6  UNL     1     -35.178   5.810   3.836  1.00 20.00     0.013 C 
ENDBRANCH   1   4
BRANCH   2   7
HETATM    7  C2  UNL     1     -32.484   8.214   1.732  1.00 20.00     0.265 C 
HETATM    8  O8  UNL     1     -31.633   8.704   0.998  1.00 20.00    -0.302 OA
ENDBRANCH   2   7
TORSDOF 2
ENDMDL
MODEL 8
REMARK VINA RESULT:      -4.0      2.340      4.080
REMARK  2 active torsions:
REMARK  status: ('A' for Active; 'I' for Inactive)
REMARK    1  A    between atoms: C1_1  and  C7_7 
REMARK    2  A    between atoms: C2_2  and  C3_3 
ROOT
HETATM    1  C1  UNL     1     -32.610   7.400   2.627  1.00 20.00    -0.013 C 
HETATM    2  C3  UNL     1     -32.306   8.421   1.807  1.00 20.00    -0.028 C 
HETATM    3  C4  UNL     1     -31.186   8.502   0.820  1.00 20.00     0.051 C 
ENDROOT
BRANCH   1   4
HETATM    4  C7  UNL     1     -33.742   7.334   3.626  1.00 20.00     0.000 C 
HETATM    5  C5  UNL     1     -34.500   6.015   3.473  1.00 20.00     0.013 C 
HETATM    6  C6  UNL     1     -33.193   7.475   5.046  1.00 20.00     0.013 C 
ENDBRANCH   1   4
BRANCH   2   7
HETATM    7  C2  UNL     1     -33.193   9.614   1.906  1.00 20.00     0.265 C 
HETATM    8  O8  UNL     1     -32.990  10.650   1.281  1.00 20.00    -0.302 OA
ENDBRANCH   2   7
TORSDOF 2
ENDMDL
MODEL 9
REMARK VINA RESULT:      -3.8     10.884     11.947
REMARK  2 active torsions:
REMARK  status: ('A' for Active; 'I' for Inactive)
REMARK    1  A    between atoms: C1_1  and  C7_7 
REMARK    2  A    between atoms: C2_2  and  C3_3 
ROOT
HETATM    1  C1  UNL     1     -33.671  16.781  -3.859  1.00 20.00    -0.013 C 
HETATM    2  C3  UNL     1     -33.486  15.783  -4.742  1.00 20.00    -0.028 C 
HETATM    3  C4  UNL     1     -33.333  15.889  -6.226  1.00 20.00     0.051 C 
ENDROOT
BRANCH   1   4
HETATM    4  C7  UNL     1     -33.831  16.659  -2.362  1.00 20.00     0.000 C 
HETATM    5  C5  UNL     1     -33.060  17.777  -1.661  1.00 20.00     0.013 C 
HETATM    6  C6  UNL     1     -35.313  16.715  -1.989  1.00 20.00     0.013 C 
ENDBRANCH   1   4
BRANCH   2   7
HETATM    7  C2  UNL     1     -33.434  14.411  -4.164  1.00 20.00     0.265 C 
HETATM    8  O8  UNL     1     -34.399  13.655  -4.150  1.00 20.00    -0.302 OA
ENDBRANCH   2   7
TORSDOF 2
ENDMDL
