MODEL 1
REMARK VINA RESULT:      -5.2      0.000      0.000
REMARK  3 active torsions:
REMARK  status: ('A' for Active; 'I' for Inactive)
REMARK    1  A    between atoms: C6_6  and  C7_7 
REMARK    2  A    between atoms: C7_7  and  C8_8 
REMARK    3  A    between atoms: C8_8  and  C9_9 
ROOT
HETATM    1  C1  UNL     1     -33.437   7.181   4.919  1.00 20.00     0.069 C 
HETATM    2  C2  UNL     1     -33.827   4.242   4.125  1.00 20.00     0.002 C 
HETATM    3  C3  UNL     1     -35.246   4.775   4.321  1.00 20.00     0.002 C 
HETATM    4  C4  UNL     1     -33.076   5.310   3.330  1.00 20.00     0.024 C 
HETATM    5  C5  UNL     1     -35.287   6.141   3.636  1.00 20.00     0.024 C 
HETATM    6  C6  UNL     1     -33.831   6.617   3.609  1.00 20.00     0.049 C 
HETATM    7  N10 UNL     1     -33.129   7.624   5.946  1.00 20.00    -0.196 NA
ENDROOT
BRANCH   6   8
HETATM    8  C7  UNL     1     -33.589   7.659   2.518  1.00 20.00     0.026 C 
BRANCH   8   9
HETATM    9  C8  UNL     1     -32.121   8.071   2.460  1.00 20.00     0.017 C 
BRANCH   9  10
HETATM   10  C9  UNL     1     -31.826   8.848   1.185  1.00 20.00     0.114 C 
HETATM   11 CL11 UNL     1     -32.764  10.358   1.148  1.00 20.00    -0.130 Cl
ENDBRANCH   9  10
ENDBRANCH   8   9
ENDBRANCH   6   8
TORSDOF 3
ENDMDL
MODEL 2
REMARK VINA RESULT:      -4.8      1.589      2.160
REMARK  3 active torsions:
REMARK  status: ('A' for Active; 'I' for Inactive)
REMARK    1  A    between atoms: C6_6  and  C7_7 
REMARK    2  A    between atoms: C7_7  and  C8_8 
REMARK    3  A    between atoms: C8_8  and  C9_9 
ROOT
HETATM    1  C1  UNL     1     -33.032   5.351   2.858  1.00 20.00     0.069 C 
HETATM    2  C2  UNL     1     -35.276   5.492   4.947  1.00 20.00     0.002 C 
HETATM    3  C3  UNL     1     -34.024   5.938   5.703  1.00 20.00     0.002 C 
HETATM    4  C4  UNL     1     -35.238   6.209   3.598  1.00 20.00     0.024 C 
HETATM    5  C5  UNL     1     -33.288   6.905   4.774  1.00 20.00     0.024 C 
HETATM    6  C6  UNL     1     -33.758   6.537   3.362  1.00 20.00     0.049 C 
HETATM    7  N10 UNL     1     -32.462   4.421   2.462  1.00 20.00    -0.196 NA
ENDROOT
BRANCH   6   8
HETATM    8  C7  UNL     1     -33.579   7.693   2.380  1.00 20.00     0.026 C 
BRANCH   8   9
HETATM    9  C8  UNL     1     -32.144   8.210   2.388  1.00 20.00     0.017 C 
BRANCH   9  10
HETATM   10  C9  UNL     1     -31.802   8.882   1.066  1.00 20.00     0.114 C 
HETATM   11 CL11 UNL     1     -32.647  10.441   0.926  1.00 20.00    -0.130 Cl
ENDBRANCH   9  10
ENDBRANCH   8   9
ENDBRANCH   6   8
TORSDOF 3
ENDMDL
MODEL 3
REMARK VINA RESULT:      -4.5     11.243     12.356
REMARK  3 active torsions:
REMARK  status: ('A' for Active; 'I' for Inactive)
REMARK    1  A    between atoms: C6_6  and  C7_7 
REMARK    2  A    between atoms: C7_7  and  C8_8 
REMARK    3  A    between atoms: C8_8  and  C9_9 
ROOT
HETATM    1  C1  UNL     1     -35.366  13.933  -5.043  1.00 20.00     0.069 C 
HETATM    2  C2  UNL     1     -33.688  15.581  -7.014  1.00 20.00     0.002 C 
HETATM    3  C3  UNL     1     -35.073  16.225  -7.064  1.00 20.00     0.002 C 
HETATM    4  C4  UNL     1     -33.382  15.338  -5.537  1.00 20.00     0.024 C 
HETATM    5  C5  UNL     1     -35.541  16.341  -5.613  1.00 20.00     0.024 C 
HETATM    6  C6  UNL     1     -34.754  15.267  -4.853  1.00 20.00     0.049 C 
HETATM    7  N10 UNL     1     -35.847  12.888  -5.191  1.00 20.00    -0.196 NA
ENDROOT
BRANCH   6   8
HETATM    8  C7  UNL     1     -34.664  15.572  -3.359  1.00 20.00     0.026 C 
BRANCH   8   9
HETATM    9  C8  UNL     1     -33.639  16.666  -3.078  1.00 20.00     0.017 C 
BRANCH   9  10
HETATM   10  C9  UNL     1     -33.796  17.206  -1.663  1.00 20.00     0.114 C 
HETATM   11 CL11 UNL     1     -35.445  16.911  -1.066  1.00 20.00    -0.130 Cl
ENDBRANCH   9  10
ENDBRANCH   8   9
ENDBRANCH   6   8
TORSDOF 3
ENDMDL
MODEL 4
REMARK VINA RESULT:      -4.5      2.913      4.509
REMARK  3 active torsions:
REMARK  status: ('A' for Active; 'I' for Inactive)
REMARK    1  A    between atoms: C6_6  and  C7_7 
REMARK    2  A    between atoms: C7_7  and  C8_8 
REMARK    3  A    between atoms: C8_8  and  C9_9 
ROOT
HETATM    1  C1  UNL     1     -32.938   5.960   2.775  1.00 20.00     0.069 C 
HETATM    2  C2  UNL     1     -31.065   8.389   2.679  1.00 20.00     0.002 C 
HETATM    3  C3  UNL     1     -32.042   8.616   1.525  1.00 20.00     0.002 C 
HETATM    4  C4  UNL     1     -31.910   7.934   3.869  1.00 20.00     0.024 C 
HETATM    5  C5  UNL     1     -33.431   8.287   2.071  1.00 20.00     0.024 C 
HETATM    6  C6  UNL     1     -33.182   7.340   3.251  1.00 20.00     0.049 C 
HETATM    7  N10 UNL     1     -32.748   4.878   2.402  1.00 20.00    -0.196 NA
ENDROOT
BRANCH   6   8
HETATM    8  C7  UNL     1     -34.348   7.335   4.238  1.00 20.00     0.026 C 
BRANCH   8   9
HETATM    9  C8  UNL     1     -33.911   6.830   5.609  1.00 20.00     0.017 C 
BRANCH   9  10
HETATM   10  C9  UNL     1     -34.799   5.684   6.073  1.00 20.00     0.114 C 
HETATM   11 CL11 UNL     1     -34.498   4.231   5.093  1.00 20.00    -0.130 Cl
ENDBRANCH   9  10
ENDBRANCH   8   9
ENDBRANCH   6   8
TORSDOF 3
ENDMDL
MODEL 5
REMARK VINA RESULT:      -4.4     11.230     12.153
REMARK  3 active torsions:
REMARK  status: ('A' for Active; 'I' for Inactive)
REMARK    1  A    between atoms: C6_6  and  C7_7 
REMARK    2  A    between atoms: C7_7  and  C8_8 
REMARK    3  A    between atoms: C8_8  and  C9_9 
ROOT
HETATM    1  C1  UNL     1     -35.564  13.918  -4.936  1.00 20.00     0.069 C 
HETATM    2  C2  UNL     1     -32.876  15.369  -5.225  1.00 20.00     0.002 C 
HETATM    3  C3  UNL     1     -33.746  15.956  -6.336  1.00 20.00     0.002 C 
HETATM    4  C4  UNL     1     -33.756  15.317  -3.976  1.00 20.00     0.024 C 
HETATM    5  C5  UNL     1     -35.112  16.231  -5.706  1.00 20.00     0.024 C 
HETATM    6  C6  UNL     1     -35.195  15.284  -4.504  1.00 20.00     0.049 C 
HETATM    7  N10 UNL     1     -35.854  12.847  -5.274  1.00 20.00    -0.196 NA
ENDROOT
BRANCH   6   8
HETATM    8  C7  UNL     1     -36.198  15.771  -3.460  1.00 20.00     0.026 C 
BRANCH   8   9
HETATM    9  C8  UNL     1     -35.808  17.141  -2.914  1.00 20.00     0.017 C 
BRANCH   9  10
HETATM   10  C9  UNL     1     -35.592  17.083  -1.408  1.00 20.00     0.114 C 
HETATM   11 CL11 UNL     1     -33.902  17.463  -1.009  1.00 20.00    -0.130 Cl
ENDBRANCH   9  10
ENDBRANCH   8   9
ENDBRANCH   6   8
TORSDOF 3
ENDMDL
MODEL 6
REMARK VINA RESULT:      -4.3     11.133     11.981
REMARK  3 active torsions:
REMARK  status: ('A' for Active; 'I' for Inactive)
REMARK    1  A    between atoms: C6_6  and  C7_7 
REMARK    2  A    between atoms: C7_7  and  C8_8 
REMARK    3  A    between atoms: C8_8  and  C9_9 
ROOT
HETATM    1  C1  UNL     1     -34.167  16.212  -5.395  1.00 20.00     0.069 C 
HETATM    2  C2  UNL     1     -36.734  14.604  -4.899  1.00 20.00     0.002 C 
HETATM    3  C3  UNL     1     -35.628  13.550  -4.946  1.00 20.00     0.002 C 
HETATM    4  C4  UNL     1     -36.195  15.750  -4.043  1.00 20.00     0.024 C 
HETATM    5  C5  UNL     1     -34.472  14.109  -4.116  1.00 20.00     0.024 C 
HETATM    6  C6  UNL     1     -34.668  15.629  -4.131  1.00 20.00     0.049 C 
HETATM    7  N10 UNL     1     -33.774  16.669  -6.386  1.00 20.00    -0.196 NA
ENDROOT
BRANCH   6   8
HETATM    8  C7  UNL     1     -33.973  16.308  -2.952  1.00 20.00     0.026 C 
BRANCH   8   9
HETATM    9  C8  UNL     1     -34.977  16.723  -1.881  1.00 20.00     0.017 C 
BRANCH   9  10
HETATM   10  C9  UNL     1     -34.305  17.566  -0.806  1.00 20.00     0.114 C 
HETATM   11 CL11 UNL     1     -32.644  17.978  -1.289  1.00 20.00    -0.130 Cl
ENDBRANCH   9  10
ENDBRANCH   8   9
ENDBRANCH   6   8
TORSDOF 3
ENDMDL
MODEL 7
REMARK VINA RESULT:      -4.2      1.701      2.195
REMARK  3 active torsions:
REMARK  status: ('A' for Active; 'I' for Inactive)
REMARK    1  A    between atoms: C6_6  and  C7_7 
REMARK    2  A    between atoms: C7_7  and  C8_8 
REMARK    3  A    between atoms: C8_8  and  C9_9 
ROOT
HETATM    1  C1  UNL     1     -35.502   6.312   3.254  1.00 20.00     0.069 C 
HETATM    2  C2  UNL     1     -34.402   6.026   6.105  1.00 20.00     0.002 C 
HETATM    3  C3  UNL     1     -34.430   4.597   5.563  1.00 20.00     0.002 C 
HETATM    4  C4  UNL     1     -33.826   6.895   4.988  1.00 20.00     0.024 C 
HETATM    5  C5  UNL     1     -33.870   4.669   4.142  1.00 20.00     0.024 C 
HETATM    6  C6  UNL     1     -34.103   6.116   3.695  1.00 20.00     0.049 C 
HETATM    7  N10 UNL     1     -36.598   6.465   2.908  1.00 20.00    -0.196 NA
ENDROOT
BRANCH   6   8
HETATM    8  C7  UNL     1     -33.157   6.526   2.568  1.00 20.00     0.026 C 
BRANCH   8   9
HETATM    9  C8  UNL     1     -32.438   7.831   2.895  1.00 20.00     0.017 C 
BRANCH   9  10
HETATM   10  C9  UNL     1     -31.885   8.477   1.632  1.00 20.00     0.114 C 
HETATM   11 CL11 UNL     1     -32.764   9.980   1.267  1.00 20.00    -0.130 Cl
ENDBRANCH   9  10
ENDBRANCH   8   9
ENDBRANCH   6   8
TORSDOF 3
ENDMDL
MODEL 8
REMARK VINA RESULT:      -4.2     11.529     12.216
REMARK  3 active torsions:
REMARK  status: ('A' for Active; 'I' for Inactive)
REMARK    1  A    between atoms: C6_6  and  C7_7 
REMARK    2  A    between atoms: C7_7  and  C8_8 
REMARK    3  A    between atoms: C8_8  and  C9_9 
ROOT
HETATM    1  C1  UNL     1     -34.688  18.372  -3.260  1.00 20.00     0.069 C 
HETATM    2  C2  UNL     1     -33.698  18.329  -0.356  1.00 20.00     0.002 C 
HETATM    3  C3  UNL     1     -35.099  17.720  -0.289  1.00 20.00     0.002 C 
HETATM    4  C4  UNL     1     -33.012  17.690  -1.563  1.00 20.00     0.024 C 
HETATM    5  C5  UNL     1     -35.194  16.742  -1.461  1.00 20.00     0.024 C 
HETATM    6  C6  UNL     1     -34.158  17.235  -2.476  1.00 20.00     0.049 C 
HETATM    7  N10 UNL     1     -35.104  19.263  -3.875  1.00 20.00    -0.196 NA
ENDROOT
BRANCH   6   8
HETATM    8  C7  UNL     1     -33.719  16.125  -3.431  1.00 20.00     0.026 C 
BRANCH   8   9
HETATM    9  C8  UNL     1     -34.859  15.148  -3.706  1.00 20.00     0.017 C 
BRANCH   9  10
HETATM   10  C9  UNL     1     -34.589  14.342  -4.968  1.00 20.00     0.114 C 
HETATM   11 CL11 UNL     1     -35.965  13.276  -5.330  1.00 20.00    -0.130 Cl
ENDBRANCH   9  10
ENDBRANCH   8   9
ENDBRANCH   6   8
TORSDOF 3
ENDMDL
MODEL 9
REMARK VINA RESULT:      -4.1     11.273     12.457
REMARK  3 active torsions:
REMARK  status: ('A' for Active; 'I' for Inactive)
REMARK    1  A    between atoms: C6_6  and  C7_7 
REMARK    2  A    between atoms: C7_7  and  C8_8 
REMARK    3  A    between atoms: C8_8  and  C9_9 
ROOT
HETATM    1  C1  UNL     1     -34.587  14.807  -4.102  1.00 20.00     0.069 C 
HETATM    2  C2  UNL     1     -35.119  16.690  -1.737  1.00 20.00     0.002 C 
HETATM    3  C3  UNL     1     -33.667  16.967  -2.125  1.00 20.00     0.002 C 
HETATM    4  C4  UNL     1     -35.905  16.625  -3.047  1.00 20.00     0.024 C 
HETATM    5  C5  UNL     1     -33.642  17.056  -3.651  1.00 20.00     0.024 C 
HETATM    6  C6  UNL     1     -34.867  16.260  -4.116  1.00 20.00     0.049 C 
HETATM    7  N10 UNL     1     -34.367  13.668  -4.092  1.00 20.00    -0.196 NA
ENDROOT
BRANCH   6   8
HETATM    8  C7  UNL     1     -35.320  16.673  -5.516  1.00 20.00     0.026 C 
BRANCH   8   9
HETATM    9  C8  UNL     1     -34.213  16.456  -6.543  1.00 20.00     0.017 C 
BRANCH   9  10
HETATM   10  C9  UNL     1     -34.745  15.719  -7.765  1.00 20.00     0.114 C 
HETATM   11 CL11 UNL     1     -33.970  14.126  -7.914  1.00 20.00    -0.130 Cl
ENDBRANCH   9  10
ENDBRANCH   8   9
ENDBRANCH   6   8
TORSDOF 3
ENDMDL
