MODEL 1
REMARK VINA RESULT:      -4.5      0.000      0.000
REMARK  0 active torsions:
REMARK  status: ('A' for Active; 'I' for Inactive)
ROOT
HETATM    1  C1  UNL     1     -33.853   7.114   5.093  1.00 20.00     0.095 C 
HETATM    2  C2  UNL     1     -33.032   5.031   2.748  1.00 20.00    -0.026 C 
HETATM    3  C3  UNL     1     -33.401   4.067   3.601  1.00 20.00    -0.001 C 
HETATM    4  C4  UNL     1     -33.724   6.363   2.716  1.00 20.00     0.077 C 
HETATM    5  C5  UNL     1     -34.547   4.241   4.553  1.00 20.00     0.298 C 
HETATM    6  C6  UNL     1     -34.626   6.612   3.940  1.00 20.00     0.329 C 
HETATM    7  N7  UNL     1     -33.245   7.508   6.000  1.00 20.00    -0.195 NA
HETATM    8  N8  UNL     1     -35.399   5.410   4.289  1.00 20.00     0.105 N 
HETATM    9  H16 UNL     1     -36.046   5.180   3.527  1.00 20.00     0.318 HD
ENDROOT
TORSDOF 0
ENDMDL
MODEL 2
REMARK VINA RESULT:      -4.2      1.636      3.147
REMARK  0 active torsions:
REMARK  status: ('A' for Active; 'I' for Inactive)
ROOT
HETATM    1  C1  UNL     1     -34.309   4.277   4.434  1.00 20.00     0.095 C 
HETATM    2  C2  UNL     1     -33.415   7.137   5.671  1.00 20.00    -0.026 C 
HETATM    3  C3  UNL     1     -32.945   7.415   4.449  1.00 20.00    -0.001 C 
HETATM    4  C4  UNL     1     -34.639   6.292   5.871  1.00 20.00     0.077 C 
HETATM    5  C5  UNL     1     -33.625   6.930   3.203  1.00 20.00     0.298 C 
HETATM    6  C6  UNL     1     -35.069   5.531   4.602  1.00 20.00     0.329 C 
HETATM    7  N7  UNL     1     -33.711   3.291   4.302  1.00 20.00    -0.195 NA
HETATM    8  N8  UNL     1     -34.975   6.384   3.407  1.00 20.00     0.105 N 
HETATM    9  H16 UNL     1     -35.636   7.165   3.485  1.00 20.00     0.318 HD
ENDROOT
TORSDOF 0
ENDMDL
MODEL 3
REMARK VINA RESULT:      -4.2      1.799      3.227
REMARK  0 active torsions:
REMARK  status: ('A' for Active; 'I' for Inactive)
ROOT
HETATM    1  C1  UNL     1     -33.396   5.147   2.843  1.00 20.00     0.095 C 
HETATM    2  C2  UNL     1     -34.520   5.966   5.771  1.00 20.00    -0.026 C 
HETATM    3  C3  UNL     1     -33.518   6.854   5.806  1.00 20.00    -0.001 C 
HETATM    4  C4  UNL     1     -35.214   5.612   4.488  1.00 20.00     0.077 C 
HETATM    5  C5  UNL     1     -33.047   7.574   4.577  1.00 20.00     0.298 C 
HETATM    6  C6  UNL     1     -34.460   6.091   3.232  1.00 20.00     0.329 C 
HETATM    7  N7  UNL     1     -32.558   4.403   2.536  1.00 20.00    -0.195 NA
HETATM    8  N8  UNL     1     -33.934   7.454   3.411  1.00 20.00     0.105 N 
HETATM    9  H16 UNL     1     -34.712   8.114   3.521  1.00 20.00     0.318 HD
ENDROOT
TORSDOF 0
ENDMDL
MODEL 4
REMARK VINA RESULT:      -4.0      1.346      1.855
REMARK  0 active torsions:
REMARK  status: ('A' for Active; 'I' for Inactive)
ROOT
HETATM    1  C1  UNL     1     -32.813   7.035   3.230  1.00 20.00     0.095 C 
HETATM    2  C2  UNL     1     -33.540   3.973   4.005  1.00 20.00    -0.026 C 
HETATM    3  C3  UNL     1     -34.391   4.497   4.896  1.00 20.00    -0.001 C 
HETATM    4  C4  UNL     1     -33.267   4.642   2.689  1.00 20.00     0.077 C 
HETATM    5  C5  UNL     1     -35.149   5.763   4.626  1.00 20.00     0.298 C 
HETATM    6  C6  UNL     1     -33.775   6.095   2.625  1.00 20.00     0.329 C 
HETATM    7  N7  UNL     1     -32.056   7.776   3.707  1.00 20.00    -0.195 NA
HETATM    8  N8  UNL     1     -35.110   6.222   3.230  1.00 20.00     0.105 N 
HETATM    9  H16 UNL     1     -35.791   5.680   2.687  1.00 20.00     0.318 HD
ENDROOT
TORSDOF 0
ENDMDL
MODEL 5
REMARK VINA RESULT:      -3.9      2.402      3.199
REMARK  0 active torsions:
REMARK  status: ('A' for Active; 'I' for Inactive)
ROOT
HETATM    1  C1  UNL     1     -32.588   8.370   2.225  1.00 20.00     0.095 C 
HETATM    2  C2  UNL     1     -34.189   7.161   4.772  1.00 20.00    -0.026 C 
HETATM    3  C3  UNL     1     -34.737   6.302   3.903  1.00 20.00    -0.001 C 
HETATM    4  C4  UNL     1     -32.781   7.655   4.608  1.00 20.00     0.077 C 
HETATM    5  C5  UNL     1     -33.974   5.753   2.734  1.00 20.00     0.298 C 
HETATM    6  C6  UNL     1     -32.186   7.356   3.219  1.00 20.00     0.329 C 
HETATM    7  N7  UNL     1     -32.905   9.166   1.442  1.00 20.00    -0.195 NA
HETATM    8  N8  UNL     1     -32.525   5.996   2.772  1.00 20.00     0.105 N 
HETATM    9  H16 UNL     1     -32.093   5.307   3.399  1.00 20.00     0.318 HD
ENDROOT
TORSDOF 0
ENDMDL
MODEL 6
REMARK VINA RESULT:      -3.8     12.342     13.424
REMARK  0 active torsions:
REMARK  status: ('A' for Active; 'I' for Inactive)
ROOT
HETATM    1  C1  UNL     1     -35.853  13.877  -5.009  1.00 20.00     0.095 C 
HETATM    2  C2  UNL     1     -33.411  15.734  -3.961  1.00 20.00    -0.026 C 
HETATM    3  C3  UNL     1     -33.125  15.929  -5.255  1.00 20.00    -0.001 C 
HETATM    4  C4  UNL     1     -34.823  15.563  -3.483  1.00 20.00     0.077 C 
HETATM    5  C5  UNL     1     -34.196  16.023  -6.302  1.00 20.00     0.298 C 
HETATM    6  C6  UNL     1     -35.827  15.301  -4.623  1.00 20.00     0.329 C 
HETATM    7  N7  UNL     1     -35.873  12.757  -5.313  1.00 20.00    -0.195 NA
HETATM    8  N8  UNL     1     -35.562  16.170  -5.780  1.00 20.00     0.105 N 
HETATM    9  H16 UNL     1     -35.709  17.151  -5.518  1.00 20.00     0.318 HD
ENDROOT
TORSDOF 0
ENDMDL
MODEL 7
REMARK VINA RESULT:      -3.8     12.443     13.292
REMARK  0 active torsions:
REMARK  status: ('A' for Active; 'I' for Inactive)
ROOT
HETATM    1  C1  UNL     1     -35.880  13.980  -5.190  1.00 20.00     0.095 C 
HETATM    2  C2  UNL     1     -34.793  16.059  -2.952  1.00 20.00    -0.026 C 
HETATM    3  C3  UNL     1     -33.612  15.973  -3.578  1.00 20.00    -0.001 C 
HETATM    4  C4  UNL     1     -36.090  15.973  -3.702  1.00 20.00     0.077 C 
HETATM    5  C5  UNL     1     -33.508  15.820  -5.067  1.00 20.00     0.298 C 
HETATM    6  C6  UNL     1     -35.929  15.454  -5.144  1.00 20.00     0.329 C 
HETATM    7  N7  UNL     1     -35.840  12.821  -5.226  1.00 20.00    -0.195 NA
HETATM    8  N8  UNL     1     -34.759  16.055  -5.802  1.00 20.00     0.105 N 
HETATM    9  H16 UNL     1     -34.897  17.067  -5.900  1.00 20.00     0.318 HD
ENDROOT
TORSDOF 0
ENDMDL
MODEL 8
REMARK VINA RESULT:      -3.7     12.558     13.393
REMARK  0 active torsions:
REMARK  status: ('A' for Active; 'I' for Inactive)
ROOT
HETATM    1  C1  UNL     1     -35.416  13.779  -5.663  1.00 20.00     0.095 C 
HETATM    2  C2  UNL     1     -34.790  16.523  -4.055  1.00 20.00    -0.026 C 
HETATM    3  C3  UNL     1     -33.691  15.903  -3.608  1.00 20.00    -0.001 C 
HETATM    4  C4  UNL     1     -35.339  16.263  -5.427  1.00 20.00     0.077 C 
HETATM    5  C5  UNL     1     -32.920  14.936  -4.457  1.00 20.00     0.298 C 
HETATM    6  C6  UNL     1     -34.736  15.014  -6.099  1.00 20.00     0.329 C 
HETATM    7  N7  UNL     1     -35.951  12.808  -5.320  1.00 20.00    -0.195 NA
HETATM    8  N8  UNL     1     -33.283  14.937  -5.881  1.00 20.00     0.105 N 
HETATM    9  H16 UNL     1     -32.821  15.732  -6.338  1.00 20.00     0.318 HD
ENDROOT
TORSDOF 0
ENDMDL
MODEL 9
REMARK VINA RESULT:      -3.7     12.664     13.601
REMARK  0 active torsions:
REMARK  status: ('A' for Active; 'I' for Inactive)
ROOT
HETATM    1  C1  UNL     1     -35.762  13.775  -5.737  1.00 20.00     0.095 C 
HETATM    2  C2  UNL     1     -33.898  16.327  -6.459  1.00 20.00    -0.026 C 
HETATM    3  C3  UNL     1     -33.491  16.274  -5.184  1.00 20.00    -0.001 C 
HETATM    4  C4  UNL     1     -34.247  15.085  -7.226  1.00 20.00     0.077 C 
HETATM    5  C5  UNL     1     -33.326  14.974  -4.453  1.00 20.00     0.298 C 
HETATM    6  C6  UNL     1     -34.414  13.841  -6.333  1.00 20.00     0.329 C 
HETATM    7  N7  UNL     1     -36.823  13.723  -5.268  1.00 20.00    -0.195 NA
HETATM    8  N8  UNL     1     -33.364  13.776  -5.303  1.00 20.00     0.105 N 
HETATM    9  H16 UNL     1     -32.447  13.661  -5.750  1.00 20.00     0.318 HD
ENDROOT
TORSDOF 0
ENDMDL
