MODEL 1
REMARK VINA RESULT:      -5.2      0.000      0.000
REMARK  0 active torsions:
REMARK  status: ('A' for Active; 'I' for Inactive)
ROOT
HETATM    1  C1  UNL     1     -32.924   7.256   3.017  1.00 20.00     0.069 C 
HETATM    2  C2  UNL     1     -34.246   4.058   4.547  1.00 20.00     0.002 C 
HETATM    3  C3  UNL     1     -34.632   5.090   5.606  1.00 20.00     0.002 C 
HETATM    4  C4  UNL     1     -33.473   4.821   3.471  1.00 20.00     0.024 C 
HETATM    5  C5  UNL     1     -34.075   6.429   5.121  1.00 20.00     0.024 C 
HETATM    6  C6  UNL     1     -33.940   6.275   3.602  1.00 20.00     0.045 C 
HETATM    7  C7  UNL     1     -35.245   6.471   2.935  1.00 20.00     0.031 C 
HETATM    8  N8  UNL     1     -32.152   8.001   2.573  1.00 20.00    -0.196 NA
ENDROOT
TORSDOF 0
ENDMDL
MODEL 2
REMARK VINA RESULT:      -4.6      1.049      1.893
REMARK  0 active torsions:
REMARK  status: ('A' for Active; 'I' for Inactive)
ROOT
HETATM    1  C1  UNL     1     -32.879   7.784   2.432  1.00 20.00     0.069 C 
HETATM    2  C2  UNL     1     -34.383   5.977   5.396  1.00 20.00     0.002 C 
HETATM    3  C3  UNL     1     -35.357   5.601   4.279  1.00 20.00     0.002 C 
HETATM    4  C4  UNL     1     -33.366   6.930   4.772  1.00 20.00     0.024 C 
HETATM    5  C5  UNL     1     -34.882   6.346   3.031  1.00 20.00     0.024 C 
HETATM    6  C6  UNL     1     -33.392   6.614   3.272  1.00 20.00     0.045 C 
HETATM    7  C7  UNL     1     -32.586   5.411   2.974  1.00 20.00     0.031 C 
HETATM    8  N8  UNL     1     -32.490   8.672   1.794  1.00 20.00    -0.196 NA
ENDROOT
TORSDOF 0
ENDMDL
MODEL 3
REMARK VINA RESULT:      -4.4      1.594      2.210
REMARK  0 active torsions:
REMARK  status: ('A' for Active; 'I' for Inactive)
ROOT
HETATM    1  C1  UNL     1     -33.353   4.946   2.900  1.00 20.00     0.069 C 
HETATM    2  C2  UNL     1     -34.612   6.142   6.261  1.00 20.00     0.002 C 
HETATM    3  C3  UNL     1     -33.898   7.388   5.738  1.00 20.00     0.002 C 
HETATM    4  C4  UNL     1     -34.391   5.052   5.213  1.00 20.00     0.024 C 
HETATM    5  C5  UNL     1     -33.278   6.993   4.397  1.00 20.00     0.024 C 
HETATM    6  C6  UNL     1     -34.116   5.806   3.907  1.00 20.00     0.045 C 
HETATM    7  C7  UNL     1     -35.377   6.272   3.292  1.00 20.00     0.031 C 
HETATM    8  N8  UNL     1     -32.773   4.292   2.136  1.00 20.00    -0.196 NA
ENDROOT
TORSDOF 0
ENDMDL
MODEL 4
REMARK VINA RESULT:      -4.2      1.692      2.322
REMARK  0 active torsions:
REMARK  status: ('A' for Active; 'I' for Inactive)
ROOT
HETATM    1  C1  UNL     1     -34.018   6.907   5.432  1.00 20.00     0.069 C 
HETATM    2  C2  UNL     1     -33.172   4.574   2.576  1.00 20.00     0.002 C 
HETATM    3  C3  UNL     1     -33.814   3.615   3.578  1.00 20.00     0.002 C 
HETATM    4  C4  UNL     1     -33.134   5.941   3.258  1.00 20.00     0.024 C 
HETATM    5  C5  UNL     1     -34.134   4.447   4.820  1.00 20.00     0.024 C 
HETATM    6  C6  UNL     1     -34.245   5.890   4.314  1.00 20.00     0.045 C 
HETATM    7  C7  UNL     1     -35.568   6.131   3.698  1.00 20.00     0.031 C 
HETATM    8  N8  UNL     1     -33.845   7.679   6.281  1.00 20.00    -0.196 NA
ENDROOT
TORSDOF 0
ENDMDL
MODEL 5
REMARK VINA RESULT:      -4.1      2.159      3.192
REMARK  0 active torsions:
REMARK  status: ('A' for Active; 'I' for Inactive)
ROOT
HETATM    1  C1  UNL     1     -34.145   4.212   4.182  1.00 20.00     0.069 C 
HETATM    2  C2  UNL     1     -33.663   7.676   5.625  1.00 20.00     0.002 C 
HETATM    3  C3  UNL     1     -32.997   7.816   4.256  1.00 20.00     0.002 C 
HETATM    4  C4  UNL     1     -34.106   6.218   5.736  1.00 20.00     0.024 C 
HETATM    5  C5  UNL     1     -33.068   6.436   3.603  1.00 20.00     0.024 C 
HETATM    6  C6  UNL     1     -34.247   5.734   4.288  1.00 20.00     0.045 C 
HETATM    7  C7  UNL     1     -35.533   6.177   3.707  1.00 20.00     0.031 C 
HETATM    8  N8  UNL     1     -34.068   3.057   4.102  1.00 20.00    -0.196 NA
ENDROOT
TORSDOF 0
ENDMDL
MODEL 6
REMARK VINA RESULT:      -4.0     12.367     12.916
REMARK  0 active torsions:
REMARK  status: ('A' for Active; 'I' for Inactive)
ROOT
HETATM    1  C1  UNL     1     -32.145  18.205  -0.749  1.00 20.00     0.069 C 
HETATM    2  C2  UNL     1     -34.941  16.426  -2.575  1.00 20.00     0.002 C 
HETATM    3  C3  UNL     1     -35.661  16.934  -1.326  1.00 20.00     0.002 C 
HETATM    4  C4  UNL     1     -33.475  16.824  -2.412  1.00 20.00     0.024 C 
HETATM    5  C5  UNL     1     -34.597  17.616  -0.467  1.00 20.00     0.024 C 
HETATM    6  C6  UNL     1     -33.490  18.017  -1.450  1.00 20.00     0.045 C 
HETATM    7  C7  UNL     1     -33.846  19.263  -2.162  1.00 20.00     0.031 C 
HETATM    8  N8  UNL     1     -31.123  18.346  -0.218  1.00 20.00    -0.196 NA
ENDROOT
TORSDOF 0
ENDMDL
MODEL 7
REMARK VINA RESULT:      -3.9     12.020     12.662
REMARK  0 active torsions:
REMARK  status: ('A' for Active; 'I' for Inactive)
ROOT
HETATM    1  C1  UNL     1     -35.558  13.912  -4.926  1.00 20.00     0.069 C 
HETATM    2  C2  UNL     1     -35.168  16.878  -2.609  1.00 20.00     0.002 C 
HETATM    3  C3  UNL     1     -33.711  16.538  -2.925  1.00 20.00     0.002 C 
HETATM    4  C4  UNL     1     -36.014  15.821  -3.317  1.00 20.00     0.024 C 
HETATM    5  C5  UNL     1     -33.745  15.291  -3.808  1.00 20.00     0.024 C 
HETATM    6  C6  UNL     1     -35.133  15.304  -4.460  1.00 20.00     0.045 C 
HETATM    7  C7  UNL     1     -35.165  16.233  -5.610  1.00 20.00     0.031 C 
HETATM    8  N8  UNL     1     -35.881  12.855  -5.279  1.00 20.00    -0.196 NA
ENDROOT
TORSDOF 0
ENDMDL
MODEL 8
REMARK VINA RESULT:      -3.9     11.791     12.833
REMARK  0 active torsions:
REMARK  status: ('A' for Active; 'I' for Inactive)
ROOT
HETATM    1  C1  UNL     1     -35.188  13.788  -4.917  1.00 20.00     0.069 C 
HETATM    2  C2  UNL     1     -33.529  17.188  -4.869  1.00 20.00     0.002 C 
HETATM    3  C3  UNL     1     -33.899  17.004  -3.398  1.00 20.00     0.002 C 
HETATM    4  C4  UNL     1     -34.075  15.964  -5.602  1.00 20.00     0.024 C 
HETATM    5  C5  UNL     1     -34.651  15.677  -3.309  1.00 20.00     0.024 C 
HETATM    6  C6  UNL     1     -34.184  14.874  -4.529  1.00 20.00     0.045 C 
HETATM    7  C7  UNL     1     -32.867  14.251  -4.275  1.00 20.00     0.031 C 
HETATM    8  N8  UNL     1     -35.950  12.964  -5.211  1.00 20.00    -0.196 NA
ENDROOT
TORSDOF 0
ENDMDL
MODEL 9
REMARK VINA RESULT:      -3.9      2.253      3.866
REMARK  0 active torsions:
REMARK  status: ('A' for Active; 'I' for Inactive)
ROOT
HETATM    1  C1  UNL     1     -33.547   7.199   4.876  1.00 20.00     0.069 C 
HETATM    2  C2  UNL     1     -32.816   8.746   1.502  1.00 20.00     0.002 C 
HETATM    3  C3  UNL     1     -31.408   8.543   2.060  1.00 20.00     0.002 C 
HETATM    4  C4  UNL     1     -33.779   8.299   2.601  1.00 20.00     0.024 C 
HETATM    5  C5  UNL     1     -31.585   7.982   3.471  1.00 20.00     0.024 C 
HETATM    6  C6  UNL     1     -32.970   7.325   3.466  1.00 20.00     0.045 C 
HETATM    7  C7  UNL     1     -32.915   5.986   2.841  1.00 20.00     0.031 C 
HETATM    8  N8  UNL     1     -33.985   7.103   5.946  1.00 20.00    -0.196 NA
ENDROOT
TORSDOF 0
ENDMDL
