MODEL 1
REMARK VINA RESULT:      -4.7      0.000      0.000
REMARK  3 active torsions:
REMARK  status: ('A' for Active; 'I' for Inactive)
REMARK    1  A    between atoms: C1_1  and  C5_5 
REMARK    2  A    between atoms: C3_3  and  C4_4 
REMARK    3  A    between atoms: C3_3  and  C5_5 
ROOT
HETATM    1  C2  UNL     1     -33.881   7.082   5.718  1.00 20.00     0.017 C 
HETATM    2  C5  UNL     1     -34.506   6.260   4.593  1.00 20.00     0.044 C 
ENDROOT
BRANCH   2   3
HETATM    3  C1  UNL     1     -34.598   4.821   5.068  1.00 20.00     0.235 C 
HETATM    4  O6  UNL     1     -34.428   3.834   4.359  1.00 20.00    -0.306 OA
ENDBRANCH   2   3
BRANCH   2   5
HETATM    5  C3  UNL     1     -33.700   6.413   3.295  1.00 20.00     0.026 C 
BRANCH   5   6
HETATM    6  C4  UNL     1     -32.585   7.446   3.427  1.00 20.00     0.115 C 
HETATM    7 CL7  UNL     1     -32.494   8.449   1.959  1.00 20.00    -0.130 Cl
ENDBRANCH   5   6
ENDBRANCH   2   5
TORSDOF 3
ENDMDL
MODEL 2
REMARK VINA RESULT:      -4.4      2.768      3.618
REMARK  3 active torsions:
REMARK  status: ('A' for Active; 'I' for Inactive)
REMARK    1  A    between atoms: C1_1  and  C5_5 
REMARK    2  A    between atoms: C3_3  and  C4_4 
REMARK    3  A    between atoms: C3_3  and  C5_5 
ROOT
HETATM    1  C2  UNL     1     -33.037   4.751   2.765  1.00 20.00     0.017 C 
HETATM    2  C5  UNL     1     -33.836   6.051   2.710  1.00 20.00     0.044 C 
ENDROOT
BRANCH   2   3
HETATM    3  C1  UNL     1     -32.865   7.201   2.911  1.00 20.00     0.235 C 
HETATM    4  O6  UNL     1     -32.665   8.103   2.104  1.00 20.00    -0.306 OA
ENDBRANCH   2   3
BRANCH   2   5
HETATM    5  C3  UNL     1     -34.970   6.038   3.746  1.00 20.00     0.026 C 
BRANCH   5   6
HETATM    6  C4  UNL     1     -34.481   5.618   5.130  1.00 20.00     0.115 C 
HETATM    7 CL7  UNL     1     -34.005   7.049   6.077  1.00 20.00    -0.130 Cl
ENDBRANCH   5   6
ENDBRANCH   2   5
TORSDOF 3
ENDMDL
MODEL 3
REMARK VINA RESULT:      -4.2      3.216      3.888
REMARK  3 active torsions:
REMARK  status: ('A' for Active; 'I' for Inactive)
REMARK    1  A    between atoms: C1_1  and  C5_5 
REMARK    2  A    between atoms: C3_3  and  C4_4 
REMARK    3  A    between atoms: C3_3  and  C5_5 
ROOT
HETATM    1  C2  UNL     1     -33.029   7.578   4.586  1.00 20.00     0.017 C 
HETATM    2  C5  UNL     1     -32.709   7.017   3.202  1.00 20.00     0.044 C 
ENDROOT
BRANCH   2   3
HETATM    3  C1  UNL     1     -32.583   8.190   2.246  1.00 20.00     0.235 C 
HETATM    4  O6  UNL     1     -31.609   8.418   1.536  1.00 20.00    -0.306 OA
ENDBRANCH   2   3
BRANCH   2   5
HETATM    5  C3  UNL     1     -33.775   6.001   2.767  1.00 20.00     0.026 C 
BRANCH   5   6
HETATM    6  C4  UNL     1     -34.846   5.797   3.834  1.00 20.00     0.115 C 
HETATM    7 CL7  UNL     1     -34.516   4.315   4.766  1.00 20.00    -0.130 Cl
ENDBRANCH   5   6
ENDBRANCH   2   5
TORSDOF 3
ENDMDL
MODEL 4
REMARK VINA RESULT:      -4.1      1.738      2.138
REMARK  3 active torsions:
REMARK  status: ('A' for Active; 'I' for Inactive)
REMARK    1  A    between atoms: C1_1  and  C5_5 
REMARK    2  A    between atoms: C3_3  and  C4_4 
REMARK    3  A    between atoms: C3_3  and  C5_5 
ROOT
HETATM    1  C2  UNL     1     -35.122   5.803   3.901  1.00 20.00     0.017 C 
HETATM    2  C5  UNL     1     -33.676   6.280   4.016  1.00 20.00     0.044 C 
ENDROOT
BRANCH   2   3
HETATM    3  C1  UNL     1     -33.614   7.305   5.135  1.00 20.00     0.235 C 
HETATM    4  O6  UNL     1     -34.085   7.151   6.257  1.00 20.00    -0.306 OA
ENDBRANCH   2   3
BRANCH   2   5
HETATM    5  C3  UNL     1     -33.175   6.829   2.673  1.00 20.00     0.026 C 
BRANCH   5   6
HETATM    6  C4  UNL     1     -32.118   7.915   2.851  1.00 20.00     0.115 C 
HETATM    7 CL7  UNL     1     -31.779   8.710   1.295  1.00 20.00    -0.130 Cl
ENDBRANCH   5   6
ENDBRANCH   2   5
TORSDOF 3
ENDMDL
MODEL 5
REMARK VINA RESULT:      -4.1      2.692      3.192
REMARK  3 active torsions:
REMARK  status: ('A' for Active; 'I' for Inactive)
REMARK    1  A    between atoms: C1_1  and  C5_5 
REMARK    2  A    between atoms: C3_3  and  C4_4 
REMARK    3  A    between atoms: C3_3  and  C5_5 
ROOT
HETATM    1  C2  UNL     1     -32.327   7.563   3.065  1.00 20.00     0.017 C 
HETATM    2  C5  UNL     1     -33.666   7.435   3.787  1.00 20.00     0.044 C 
ENDROOT
BRANCH   2   3
HETATM    3  C1  UNL     1     -33.382   7.336   5.275  1.00 20.00     0.235 C 
HETATM    4  O6  UNL     1     -34.178   6.937   6.120  1.00 20.00    -0.306 OA
ENDBRANCH   2   3
BRANCH   2   5
HETATM    5  C3  UNL     1     -34.464   6.239   3.249  1.00 20.00     0.026 C 
BRANCH   5   6
HETATM    6  C4  UNL     1     -33.628   4.963   3.202  1.00 20.00     0.115 C 
HETATM    7 CL7  UNL     1     -34.145   3.837   4.481  1.00 20.00    -0.130 Cl
ENDBRANCH   5   6
ENDBRANCH   2   5
TORSDOF 3
ENDMDL
MODEL 6
REMARK VINA RESULT:      -4.0      1.470      1.905
REMARK  3 active torsions:
REMARK  status: ('A' for Active; 'I' for Inactive)
REMARK    1  A    between atoms: C1_1  and  C5_5 
REMARK    2  A    between atoms: C3_3  and  C4_4 
REMARK    3  A    between atoms: C3_3  and  C5_5 
ROOT
HETATM    1  C2  UNL     1     -33.614   7.208   5.020  1.00 20.00     0.017 C 
HETATM    2  C5  UNL     1     -33.380   7.297   3.514  1.00 20.00     0.044 C 
ENDROOT
BRANCH   2   3
HETATM    3  C1  UNL     1     -33.416   5.885   2.956  1.00 20.00     0.235 C 
HETATM    4  O6  UNL     1     -33.889   4.912   3.534  1.00 20.00    -0.306 OA
ENDBRANCH   2   3
BRANCH   2   5
HETATM    5  C3  UNL     1     -32.065   8.028   3.209  1.00 20.00     0.026 C 
BRANCH   5   6
HETATM    6  C4  UNL     1     -31.924   8.369   1.728  1.00 20.00     0.115 C 
HETATM    7 CL7  UNL     1     -32.542  10.008   1.409  1.00 20.00    -0.130 Cl
ENDBRANCH   5   6
ENDBRANCH   2   5
TORSDOF 3
ENDMDL
MODEL 7
REMARK VINA RESULT:      -3.8      1.277      1.815
REMARK  3 active torsions:
REMARK  status: ('A' for Active; 'I' for Inactive)
REMARK    1  A    between atoms: C1_1  and  C5_5 
REMARK    2  A    between atoms: C3_3  and  C4_4 
REMARK    3  A    between atoms: C3_3  and  C5_5 
ROOT
HETATM    1  C2  UNL     1     -33.211   5.002   2.652  1.00 20.00     0.017 C 
HETATM    2  C5  UNL     1     -33.438   5.979   3.803  1.00 20.00     0.044 C 
ENDROOT
BRANCH   2   3
HETATM    3  C1  UNL     1     -34.745   5.604   4.478  1.00 20.00     0.235 C 
HETATM    4  O6  UNL     1     -34.847   5.153   5.615  1.00 20.00    -0.306 OA
ENDBRANCH   2   3
BRANCH   2   5
HETATM    5  C3  UNL     1     -33.419   7.429   3.298  1.00 20.00     0.026 C 
BRANCH   5   6
HETATM    6  C4  UNL     1     -32.000   7.947   3.084  1.00 20.00     0.115 C 
HETATM    7 CL7  UNL     1     -31.827   8.619   1.444  1.00 20.00    -0.130 Cl
ENDBRANCH   5   6
ENDBRANCH   2   5
TORSDOF 3
ENDMDL
MODEL 8
REMARK VINA RESULT:      -3.8      1.907      2.315
REMARK  3 active torsions:
REMARK  status: ('A' for Active; 'I' for Inactive)
REMARK    1  A    between atoms: C1_1  and  C5_5 
REMARK    2  A    between atoms: C3_3  and  C4_4 
REMARK    3  A    between atoms: C3_3  and  C5_5 
ROOT
HETATM    1  C2  UNL     1     -34.860   4.578   5.419  1.00 20.00     0.017 C 
HETATM    2  C5  UNL     1     -34.009   5.732   4.891  1.00 20.00     0.044 C 
ENDROOT
BRANCH   2   3
HETATM    3  C1  UNL     1     -34.077   6.858   5.907  1.00 20.00     0.235 C 
HETATM    4  O6  UNL     1     -33.241   7.748   6.028  1.00 20.00    -0.306 OA
ENDBRANCH   2   3
BRANCH   2   5
HETATM    5  C3  UNL     1     -34.478   6.158   3.493  1.00 20.00     0.026 C 
BRANCH   5   6
HETATM    6  C4  UNL     1     -33.332   6.187   2.485  1.00 20.00     0.115 C 
HETATM    7 CL7  UNL     1     -32.351   7.656   2.706  1.00 20.00    -0.130 Cl
ENDBRANCH   5   6
ENDBRANCH   2   5
TORSDOF 3
ENDMDL
MODEL 9
REMARK VINA RESULT:      -3.7      2.511      3.225
REMARK  3 active torsions:
REMARK  status: ('A' for Active; 'I' for Inactive)
REMARK    1  A    between atoms: C1_1  and  C5_5 
REMARK    2  A    between atoms: C3_3  and  C4_4 
REMARK    3  A    between atoms: C3_3  and  C5_5 
ROOT
HETATM    1  C2  UNL     1     -32.413   8.244   2.426  1.00 20.00     0.017 C 
HETATM    2  C5  UNL     1     -32.763   7.163   3.446  1.00 20.00     0.044 C 
ENDROOT
BRANCH   2   3
HETATM    3  C1  UNL     1     -33.069   5.887   2.682  1.00 20.00     0.235 C 
HETATM    4  O6  UNL     1     -34.185   5.396   2.550  1.00 20.00    -0.306 OA
ENDBRANCH   2   3
BRANCH   2   5
HETATM    5  C3  UNL     1     -33.924   7.617   4.342  1.00 20.00     0.026 C 
BRANCH   5   6
HETATM    6  C4  UNL     1     -33.795   7.086   5.767  1.00 20.00     0.115 C 
HETATM    7 CL7  UNL     1     -34.583   5.495   5.908  1.00 20.00    -0.130 Cl
ENDBRANCH   5   6
ENDBRANCH   2   5
TORSDOF 3
ENDMDL
