MODEL 1
REMARK VINA RESULT:      -4.0      0.000      0.000
REMARK  2 active torsions:
REMARK  status: ('A' for Active; 'I' for Inactive)
REMARK    1  A    between atoms: C3_3  and  C4_4 
REMARK    2  A    between atoms: C3_3  and  O6_6 
ROOT
HETATM    1  C1  UNL     1     -34.101   6.683   5.166  1.00 20.00     0.081 C 
HETATM    2  C4  UNL     1     -34.504   5.862   4.018  1.00 20.00     0.212 C 
HETATM    3  N5  UNL     1     -33.785   7.335   6.072  1.00 20.00    -0.196 NA
HETATM    4 CL7  UNL     1     -34.377   4.145   4.489  1.00 20.00    -0.107 Cl
ENDROOT
BRANCH   2   5
HETATM    5  C3  UNL     1     -33.660   6.148   2.780  1.00 20.00     0.202 C 
BRANCH   5   6
HETATM    6  O6  UNL     1     -32.503   6.906   3.114  1.00 20.00    -0.394 OA
HETATM    7  C2  UNL     1     -32.358   8.034   2.262  1.00 20.00     0.201 C 
ENDBRANCH   5   6
ENDBRANCH   2   5
TORSDOF 2
ENDMDL
MODEL 2
REMARK VINA RESULT:      -3.8      1.569      1.854
REMARK  2 active torsions:
REMARK  status: ('A' for Active; 'I' for Inactive)
REMARK    1  A    between atoms: C3_3  and  C4_4 
REMARK    2  A    between atoms: C3_3  and  O6_6 
ROOT
HETATM    1  C1  UNL     1     -33.606   7.234   4.831  1.00 20.00     0.081 C 
HETATM    2  C4  UNL     1     -33.268   7.272   3.404  1.00 20.00     0.212 C 
HETATM    3  N5  UNL     1     -33.875   7.208   5.960  1.00 20.00    -0.196 NA
HETATM    4 CL7  UNL     1     -33.251   5.596   2.790  1.00 20.00    -0.107 Cl
ENDROOT
BRANCH   2   5
HETATM    5  C3  UNL     1     -31.928   7.955   3.146  1.00 20.00     0.202 C 
BRANCH   5   6
HETATM    6  O6  UNL     1     -31.751   8.230   1.762  1.00 20.00    -0.394 OA
HETATM    7  C2  UNL     1     -32.458   9.399   1.369  1.00 20.00     0.201 C 
ENDBRANCH   5   6
ENDBRANCH   2   5
TORSDOF 2
ENDMDL
MODEL 3
REMARK VINA RESULT:      -3.7      1.557      1.624
REMARK  2 active torsions:
REMARK  status: ('A' for Active; 'I' for Inactive)
REMARK    1  A    between atoms: C3_3  and  C4_4 
REMARK    2  A    between atoms: C3_3  and  O6_6 
ROOT
HETATM    1  C1  UNL     1     -34.466   5.426   4.656  1.00 20.00     0.081 C 
HETATM    2  C4  UNL     1     -34.059   5.981   3.360  1.00 20.00     0.212 C 
HETATM    3  N5  UNL     1     -34.791   4.988   5.680  1.00 20.00    -0.196 NA
HETATM    4 CL7  UNL     1     -32.997   4.795   2.553  1.00 20.00    -0.107 Cl
ENDROOT
BRANCH   2   5
HETATM    5  C3  UNL     1     -33.355   7.327   3.505  1.00 20.00     0.202 C 
BRANCH   5   6
HETATM    6  O6  UNL     1     -32.241   7.420   2.626  1.00 20.00    -0.394 OA
HETATM    7  C2  UNL     1     -32.231   8.657   1.928  1.00 20.00     0.201 C 
ENDBRANCH   5   6
ENDBRANCH   2   5
TORSDOF 2
ENDMDL
MODEL 4
REMARK VINA RESULT:      -3.7      2.531      3.200
REMARK  2 active torsions:
REMARK  status: ('A' for Active; 'I' for Inactive)
REMARK    1  A    between atoms: C3_3  and  C4_4 
REMARK    2  A    between atoms: C3_3  and  O6_6 
ROOT
HETATM    1  C1  UNL     1     -32.727   7.587   3.452  1.00 20.00     0.081 C 
HETATM    2  C4  UNL     1     -34.006   7.327   4.122  1.00 20.00     0.212 C 
HETATM    3  N5  UNL     1     -31.717   7.794   2.919  1.00 20.00    -0.196 NA
HETATM    4 CL7  UNL     1     -33.701   7.196   5.876  1.00 20.00    -0.107 Cl
ENDROOT
BRANCH   2   5
HETATM    5  C3  UNL     1     -34.687   6.067   3.596  1.00 20.00     0.202 C 
BRANCH   5   6
HETATM    6  O6  UNL     1     -34.884   5.118   4.637  1.00 20.00    -0.394 OA
HETATM    7  C2  UNL     1     -34.137   3.931   4.406  1.00 20.00     0.201 C 
ENDBRANCH   5   6
ENDBRANCH   2   5
TORSDOF 2
ENDMDL
MODEL 5
REMARK VINA RESULT:      -3.5      2.496      3.378
REMARK  2 active torsions:
REMARK  status: ('A' for Active; 'I' for Inactive)
REMARK    1  A    between atoms: C3_3  and  C4_4 
REMARK    2  A    between atoms: C3_3  and  O6_6 
ROOT
HETATM    1  C1  UNL     1     -32.538   7.680   2.493  1.00 20.00     0.081 C 
HETATM    2  C4  UNL     1     -32.910   6.605   3.420  1.00 20.00     0.212 C 
HETATM    3  N5  UNL     1     -32.242   8.532   1.762  1.00 20.00    -0.196 NA
HETATM    4 CL7  UNL     1     -32.996   5.079   2.500  1.00 20.00    -0.107 Cl
ENDROOT
BRANCH   2   5
HETATM    5  C3  UNL     1     -34.232   6.886   4.127  1.00 20.00     0.202 C 
BRANCH   5   6
HETATM    6  O6  UNL     1     -34.948   5.682   4.373  1.00 20.00    -0.394 OA
HETATM    7  C2  UNL     1     -34.619   5.130   5.640  1.00 20.00     0.201 C 
ENDBRANCH   5   6
ENDBRANCH   2   5
TORSDOF 2
ENDMDL
MODEL 6
REMARK VINA RESULT:      -3.5      2.145      2.234
REMARK  2 active torsions:
REMARK  status: ('A' for Active; 'I' for Inactive)
REMARK    1  A    between atoms: C3_3  and  C4_4 
REMARK    2  A    between atoms: C3_3  and  O6_6 
ROOT
HETATM    1  C1  UNL     1     -34.183   5.218   4.467  1.00 20.00     0.081 C 
HETATM    2  C4  UNL     1     -33.503   6.518   4.495  1.00 20.00     0.212 C 
HETATM    3  N5  UNL     1     -34.718   4.188   4.443  1.00 20.00    -0.196 NA
HETATM    4 CL7  UNL     1     -33.922   7.334   6.026  1.00 20.00    -0.107 Cl
ENDROOT
BRANCH   2   5
HETATM    5  C3  UNL     1     -33.874   7.388   3.299  1.00 20.00     0.202 C 
BRANCH   5   6
HETATM    6  O6  UNL     1     -32.731   7.682   2.505  1.00 20.00    -0.394 OA
HETATM    7  C2  UNL     1     -31.652   8.153   3.301  1.00 20.00     0.201 C 
ENDBRANCH   5   6
ENDBRANCH   2   5
TORSDOF 2
ENDMDL
MODEL 7
REMARK VINA RESULT:      -3.4      2.939      3.708
REMARK  2 active torsions:
REMARK  status: ('A' for Active; 'I' for Inactive)
REMARK    1  A    between atoms: C3_3  and  C4_4 
REMARK    2  A    between atoms: C3_3  and  O6_6 
ROOT
HETATM    1  C1  UNL     1     -33.078   5.825   2.837  1.00 20.00     0.081 C 
HETATM    2  C4  UNL     1     -33.295   7.158   3.411  1.00 20.00     0.212 C 
HETATM    3  N5  UNL     1     -32.911   4.770   2.382  1.00 20.00    -0.196 NA
HETATM    4 CL7  UNL     1     -31.751   8.051   3.346  1.00 20.00    -0.107 Cl
ENDROOT
BRANCH   2   5
HETATM    5  C3  UNL     1     -33.821   7.091   4.842  1.00 20.00     0.202 C 
BRANCH   5   6
HETATM    6  O6  UNL     1     -34.888   6.156   4.951  1.00 20.00    -0.394 OA
HETATM    7  C2  UNL     1     -34.566   5.102   5.848  1.00 20.00     0.201 C 
ENDBRANCH   5   6
ENDBRANCH   2   5
TORSDOF 2
ENDMDL
MODEL 8
REMARK VINA RESULT:      -3.3      2.351      2.956
REMARK  2 active torsions:
REMARK  status: ('A' for Active; 'I' for Inactive)
REMARK    1  A    between atoms: C3_3  and  C4_4 
REMARK    2  A    between atoms: C3_3  and  O6_6 
ROOT
HETATM    1  C1  UNL     1     -33.286   7.277   4.798  1.00 20.00     0.081 C 
HETATM    2  C4  UNL     1     -32.908   6.829   3.452  1.00 20.00     0.212 C 
HETATM    3  N5  UNL     1     -33.583   7.628   5.863  1.00 20.00    -0.196 NA
HETATM    4 CL7  UNL     1     -32.698   8.272   2.423  1.00 20.00    -0.107 Cl
ENDROOT
BRANCH   2   5
HETATM    5  C3  UNL     1     -33.940   5.880   2.850  1.00 20.00     0.202 C 
BRANCH   5   6
HETATM    6  O6  UNL     1     -34.794   5.348   3.855  1.00 20.00    -0.394 OA
HETATM    7  C2  UNL     1     -34.302   4.113   4.357  1.00 20.00     0.201 C 
ENDBRANCH   5   6
ENDBRANCH   2   5
TORSDOF 2
ENDMDL
MODEL 9
REMARK VINA RESULT:      -3.2      2.549      2.866
REMARK  2 active torsions:
REMARK  status: ('A' for Active; 'I' for Inactive)
REMARK    1  A    between atoms: C3_3  and  C4_4 
REMARK    2  A    between atoms: C3_3  and  O6_6 
ROOT
HETATM    1  C1  UNL     1     -32.960   5.755   2.975  1.00 20.00     0.081 C 
HETATM    2  C4  UNL     1     -32.669   7.105   3.472  1.00 20.00     0.212 C 
HETATM    3  N5  UNL     1     -33.187   4.687   2.580  1.00 20.00    -0.196 NA
HETATM    4 CL7  UNL     1     -33.701   7.409   4.896  1.00 20.00    -0.107 Cl
ENDROOT
BRANCH   2   5
HETATM    5  C3  UNL     1     -32.891   8.172   2.404  1.00 20.00     0.202 C 
BRANCH   5   6
HETATM    6  O6  UNL     1     -31.686   8.452   1.702  1.00 20.00    -0.394 OA
HETATM    7  C2  UNL     1     -31.928   9.257   0.556  1.00 20.00     0.201 C 
ENDBRANCH   5   6
ENDBRANCH   2   5
TORSDOF 2
ENDMDL
