MODEL 1
REMARK VINA RESULT:      -3.8      0.000      0.000
REMARK  1 active torsions:
REMARK  status: ('A' for Active; 'I' for Inactive)
REMARK    1  A    between atoms: C1_1  and  C5_5 
ROOT
HETATM    1  C2  UNL     1     -32.724   7.589   4.709  1.00 20.00     0.029 C 
HETATM    2  C3  UNL     1     -33.623   7.236   3.548  1.00 20.00     0.047 C 
HETATM    3  C4  UNL     1     -33.635   7.355   5.894  1.00 20.00     0.169 C 
HETATM    4  C5  UNL     1     -34.447   6.086   4.115  1.00 20.00     0.110 C 
HETATM    5  C6  UNL     1     -35.857   6.021   3.549  1.00 20.00     0.053 C 
HETATM    6  O8  UNL     1     -34.501   6.270   5.536  1.00 20.00    -0.373 OA
ENDROOT
BRANCH   4   7
HETATM    7  C1  UNL     1     -33.775   4.761   3.900  1.00 20.00     0.268 C 
HETATM    8  O7  UNL     1     -34.270   3.688   4.231  1.00 20.00    -0.304 OA
ENDBRANCH   4   7
TORSDOF 1
ENDMDL
MODEL 2
REMARK VINA RESULT:      -3.8     12.320     13.268
REMARK  1 active torsions:
REMARK  status: ('A' for Active; 'I' for Inactive)
REMARK    1  A    between atoms: C1_1  and  C5_5 
ROOT
HETATM    1  C2  UNL     1     -35.415  14.274  -7.673  1.00 20.00     0.029 C 
HETATM    2  C3  UNL     1     -34.953  15.041  -6.457  1.00 20.00     0.047 C 
HETATM    3  C4  UNL     1     -35.250  12.840  -7.220  1.00 20.00     0.169 C 
HETATM    4  C5  UNL     1     -35.449  14.165  -5.313  1.00 20.00     0.110 C 
HETATM    5  C6  UNL     1     -34.555  14.218  -4.084  1.00 20.00     0.053 C 
HETATM    6  O8  UNL     1     -35.514  12.822  -5.810  1.00 20.00    -0.373 OA
ENDROOT
BRANCH   4   7
HETATM    7  C1  UNL     1     -36.852  14.519  -4.910  1.00 20.00     0.268 C 
HETATM    8  O7  UNL     1     -37.795  13.738  -4.983  1.00 20.00    -0.304 OA
ENDBRANCH   4   7
TORSDOF 1
ENDMDL
MODEL 3
REMARK VINA RESULT:      -3.7      0.884      1.068
REMARK  1 active torsions:
REMARK  status: ('A' for Active; 'I' for Inactive)
REMARK    1  A    between atoms: C1_1  and  C5_5 
ROOT
HETATM    1  C2  UNL     1     -32.272   7.316   3.069  1.00 20.00     0.029 C 
HETATM    2  C3  UNL     1     -33.527   6.702   2.496  1.00 20.00     0.047 C 
HETATM    3  C4  UNL     1     -32.734   7.752   4.441  1.00 20.00     0.169 C 
HETATM    4  C5  UNL     1     -34.159   6.053   3.721  1.00 20.00     0.110 C 
HETATM    5  C6  UNL     1     -35.678   6.033   3.674  1.00 20.00     0.053 C 
HETATM    6  O8  UNL     1     -33.718   6.798   4.864  1.00 20.00    -0.373 OA
ENDROOT
BRANCH   4   7
HETATM    7  C1  UNL     1     -33.659   4.652   3.928  1.00 20.00     0.268 C 
HETATM    8  O7  UNL     1     -34.369   3.732   4.321  1.00 20.00    -0.304 OA
ENDBRANCH   4   7
TORSDOF 1
ENDMDL
MODEL 4
REMARK VINA RESULT:      -3.7      1.872      2.991
REMARK  1 active torsions:
REMARK  status: ('A' for Active; 'I' for Inactive)
REMARK    1  A    between atoms: C1_1  and  C5_5 
ROOT
HETATM    1  C2  UNL     1     -34.728   5.057   5.193  1.00 20.00     0.029 C 
HETATM    2  C3  UNL     1     -35.148   6.048   4.133  1.00 20.00     0.047 C 
HETATM    3  C4  UNL     1     -34.043   3.989   4.371  1.00 20.00     0.169 C 
HETATM    4  C5  UNL     1     -33.994   5.968   3.140  1.00 20.00     0.110 C 
HETATM    5  C6  UNL     1     -34.421   6.213   1.702  1.00 20.00     0.053 C 
HETATM    6  O8  UNL     1     -33.425   4.658   3.263  1.00 20.00    -0.373 OA
ENDROOT
BRANCH   4   7
HETATM    7  C1  UNL     1     -32.892   6.926   3.491  1.00 20.00     0.268 C 
HETATM    8  O7  UNL     1     -32.318   7.629   2.666  1.00 20.00    -0.304 OA
ENDBRANCH   4   7
TORSDOF 1
ENDMDL
MODEL 5
REMARK VINA RESULT:      -3.7     12.654     13.591
REMARK  1 active torsions:
REMARK  status: ('A' for Active; 'I' for Inactive)
REMARK    1  A    between atoms: C1_1  and  C5_5 
ROOT
HETATM    1  C2  UNL     1     -34.823  15.325  -7.746  1.00 20.00     0.029 C 
HETATM    2  C3  UNL     1     -34.425  15.753  -6.353  1.00 20.00     0.047 C 
HETATM    3  C4  UNL     1     -34.038  14.045  -7.918  1.00 20.00     0.169 C 
HETATM    4  C5  UNL     1     -34.290  14.418  -5.631  1.00 20.00     0.110 C 
HETATM    5  C6  UNL     1     -33.232  14.430  -4.539  1.00 20.00     0.053 C 
HETATM    6  O8  UNL     1     -33.956  13.437  -6.621  1.00 20.00    -0.373 OA
ENDROOT
BRANCH   4   7
HETATM    7  C1  UNL     1     -35.596  13.972  -5.038  1.00 20.00     0.268 C 
HETATM    8  O7  UNL     1     -36.071  12.854  -5.211  1.00 20.00    -0.304 OA
ENDBRANCH   4   7
TORSDOF 1
ENDMDL
MODEL 6
REMARK VINA RESULT:      -3.6     12.314     12.960
REMARK  1 active torsions:
REMARK  status: ('A' for Active; 'I' for Inactive)
REMARK    1  A    between atoms: C1_1  and  C5_5 
ROOT
HETATM    1  C2  UNL     1     -33.162  15.703  -5.562  1.00 20.00     0.029 C 
HETATM    2  C3  UNL     1     -34.647  15.751  -5.832  1.00 20.00     0.047 C 
HETATM    3  C4  UNL     1     -33.081  14.709  -4.425  1.00 20.00     0.169 C 
HETATM    4  C5  UNL     1     -35.070  14.309  -5.574  1.00 20.00     0.110 C 
HETATM    5  C6  UNL     1     -36.483  14.187  -5.029  1.00 20.00     0.053 C 
HETATM    6  O8  UNL     1     -34.136  13.760  -4.634  1.00 20.00    -0.373 OA
ENDROOT
BRANCH   4   7
HETATM    7  C1  UNL     1     -34.949  13.465  -6.810  1.00 20.00     0.268 C 
HETATM    8  O7  UNL     1     -35.073  12.245  -6.811  1.00 20.00    -0.304 OA
ENDBRANCH   4   7
TORSDOF 1
ENDMDL
MODEL 7
REMARK VINA RESULT:      -3.6     12.255     13.056
REMARK  1 active torsions:
REMARK  status: ('A' for Active; 'I' for Inactive)
REMARK    1  A    between atoms: C1_1  and  C5_5 
ROOT
HETATM    1  C2  UNL     1     -34.406  15.615  -3.421  1.00 20.00     0.029 C 
HETATM    2  C3  UNL     1     -33.848  14.615  -4.406  1.00 20.00     0.047 C 
HETATM    3  C4  UNL     1     -34.901  16.714  -4.335  1.00 20.00     0.169 C 
HETATM    4  C5  UNL     1     -34.813  14.744  -5.579  1.00 20.00     0.110 C 
HETATM    5  C6  UNL     1     -34.156  14.490  -6.927  1.00 20.00     0.053 C 
HETATM    6  O8  UNL     1     -35.345  16.075  -5.540  1.00 20.00    -0.373 OA
ENDROOT
BRANCH   4   7
HETATM    7  C1  UNL     1     -35.993  13.827  -5.431  1.00 20.00     0.268 C 
HETATM    8  O7  UNL     1     -35.892  12.625  -5.207  1.00 20.00    -0.304 OA
ENDBRANCH   4   7
TORSDOF 1
ENDMDL
MODEL 8
REMARK VINA RESULT:      -3.5      2.478      3.743
REMARK  1 active torsions:
REMARK  status: ('A' for Active; 'I' for Inactive)
REMARK    1  A    between atoms: C1_1  and  C5_5 
ROOT
HETATM    1  C2  UNL     1     -33.960   5.577   2.932  1.00 20.00     0.029 C 
HETATM    2  C3  UNL     1     -32.547   6.079   2.748  1.00 20.00     0.047 C 
HETATM    3  C4  UNL     1     -34.438   6.408   4.101  1.00 20.00     0.169 C 
HETATM    4  C5  UNL     1     -32.683   7.559   3.087  1.00 20.00     0.110 C 
HETATM    5  C6  UNL     1     -31.431   8.147   3.718  1.00 20.00     0.053 C 
HETATM    6  O8  UNL     1     -33.788   7.682   3.992  1.00 20.00    -0.373 OA
ENDROOT
BRANCH   4   7
HETATM    7  C1  UNL     1     -33.049   8.374   1.880  1.00 20.00     0.268 C 
HETATM    8  O7  UNL     1     -32.301   9.202   1.370  1.00 20.00    -0.304 OA
ENDBRANCH   4   7
TORSDOF 1
ENDMDL
MODEL 9
REMARK VINA RESULT:      -3.4      1.856      2.461
REMARK  1 active torsions:
REMARK  status: ('A' for Active; 'I' for Inactive)
REMARK    1  A    between atoms: C1_1  and  C5_5 
ROOT
HETATM    1  C2  UNL     1     -32.107   6.815   2.755  1.00 20.00     0.029 C 
HETATM    2  C3  UNL     1     -33.084   5.706   3.065  1.00 20.00     0.047 C 
HETATM    3  C4  UNL     1     -33.022   8.013   2.631  1.00 20.00     0.169 C 
HETATM    4  C5  UNL     1     -34.119   6.417   3.928  1.00 20.00     0.110 C 
HETATM    5  C6  UNL     1     -35.522   5.854   3.771  1.00 20.00     0.053 C 
HETATM    6  O8  UNL     1     -34.104   7.799   3.548  1.00 20.00    -0.373 OA
ENDROOT
BRANCH   4   7
HETATM    7  C1  UNL     1     -33.743   6.389   5.382  1.00 20.00     0.268 C 
HETATM    8  O7  UNL     1     -33.549   7.399   6.051  1.00 20.00    -0.304 OA
ENDBRANCH   4   7
TORSDOF 1
ENDMDL
