MODEL 1
REMARK VINA RESULT:      -5.7      0.000      0.000
REMARK  0 active torsions:
REMARK  status: ('A' for Active; 'I' for Inactive)
ROOT
HETATM    1  C1  UNL     1     -34.323   4.609   4.148  1.00 20.00     0.068 C 
HETATM    2  C2  UNL     1     -31.937   8.429   4.507  1.00 20.00     0.009 A 
HETATM    3  C3  UNL     1     -31.677   8.753   3.173  1.00 20.00     0.019 A 
HETATM    4  C4  UNL     1     -33.457   7.276   2.420  1.00 20.00     0.028 A 
HETATM    5  C5  UNL     1     -32.962   7.540   4.779  1.00 20.00    -0.050 A 
HETATM    6  C6  UNL     1     -33.714   6.963   3.746  1.00 20.00    -0.033 A 
HETATM    7  C7  UNL     1     -32.433   8.181   2.138  1.00 20.00     0.011 A 
HETATM    8  C8  UNL     1     -33.399   7.021   6.112  1.00 20.00     0.041 C 
HETATM    9  C9  UNL     1     -34.785   6.447   5.769  1.00 20.00     0.028 C 
HETATM   10  C10 UNL     1     -34.739   6.009   4.289  1.00 20.00     0.126 C 
HETATM   11  N11 UNL     1     -33.994   3.502   4.038  1.00 20.00    -0.197 NA
HETATM   12 BR12 UNL     1     -32.051   8.635   0.342  1.00 20.00    -0.051 Br
ENDROOT
TORSDOF 0
ENDMDL
MODEL 2
REMARK VINA RESULT:      -5.2     11.527     12.071
REMARK  0 active torsions:
REMARK  status: ('A' for Active; 'I' for Inactive)
ROOT
HETATM    1  C1  UNL     1     -33.199  14.918  -4.265  1.00 20.00     0.068 C 
HETATM    2  C2  UNL     1     -35.664  17.059  -1.142  1.00 20.00     0.009 A 
HETATM    3  C3  UNL     1     -34.691  17.703  -0.374  1.00 20.00     0.019 A 
HETATM    4  C4  UNL     1     -33.049  17.438  -2.150  1.00 20.00     0.028 A 
HETATM    5  C5  UNL     1     -35.317  16.623  -2.409  1.00 20.00    -0.050 A 
HETATM    6  C6  UNL     1     -34.020  16.805  -2.908  1.00 20.00    -0.033 A 
HETATM    7  C7  UNL     1     -33.393  17.892  -0.875  1.00 20.00     0.011 A 
HETATM    8  C8  UNL     1     -36.171  15.885  -3.392  1.00 20.00     0.041 C 
HETATM    9  C9  UNL     1     -35.365  16.078  -4.689  1.00 20.00     0.028 C 
HETATM   10  C10 UNL     1     -33.882  16.217  -4.284  1.00 20.00     0.126 C 
HETATM   11  N11 UNL     1     -32.660  13.891  -4.251  1.00 20.00    -0.197 NA
HETATM   12 BR12 UNL     1     -32.096  18.762   0.193  1.00 20.00    -0.051 Br
ENDROOT
TORSDOF 0
ENDMDL
MODEL 3
REMARK VINA RESULT:      -5.1     11.677     12.672
REMARK  0 active torsions:
REMARK  status: ('A' for Active; 'I' for Inactive)
ROOT
HETATM    1  C1  UNL     1     -37.009  13.924  -5.104  1.00 20.00     0.068 C 
HETATM    2  C2  UNL     1     -33.653  16.841  -5.907  1.00 20.00     0.009 A 
HETATM    3  C3  UNL     1     -33.402  17.373  -4.640  1.00 20.00     0.019 A 
HETATM    4  C4  UNL     1     -34.561  15.516  -3.580  1.00 20.00     0.028 A 
HETATM    5  C5  UNL     1     -34.348  15.646  -5.991  1.00 20.00    -0.050 A 
HETATM    6  C6  UNL     1     -34.803  14.991  -4.840  1.00 20.00    -0.033 A 
HETATM    7  C7  UNL     1     -33.851  16.714  -3.485  1.00 20.00     0.011 A 
HETATM    8  C8  UNL     1     -34.761  14.909  -7.226  1.00 20.00     0.041 C 
HETATM    9  C9  UNL     1     -35.093  13.523  -6.647  1.00 20.00     0.028 C 
HETATM   10  C10 UNL     1     -35.556  13.739  -5.191  1.00 20.00     0.126 C 
HETATM   11  N11 UNL     1     -38.158  14.071  -5.036  1.00 20.00    -0.197 NA
HETATM   12 BR12 UNL     1     -33.500  17.464  -1.785  1.00 20.00    -0.051 Br
ENDROOT
TORSDOF 0
ENDMDL
MODEL 4
REMARK VINA RESULT:      -5.1     11.938     12.377
REMARK  0 active torsions:
REMARK  status: ('A' for Active; 'I' for Inactive)
ROOT
HETATM    1  C1  UNL     1     -36.684  17.052  -3.299  1.00 20.00     0.068 C 
HETATM    2  C2  UNL     1     -32.779  18.005  -1.235  1.00 20.00     0.009 A 
HETATM    3  C3  UNL     1     -33.198  18.451   0.021  1.00 20.00     0.019 A 
HETATM    4  C4  UNL     1     -35.384  17.431  -0.296  1.00 20.00     0.028 A 
HETATM    5  C5  UNL     1     -33.667  17.268  -2.000  1.00 20.00    -0.050 A 
HETATM    6  C6  UNL     1     -34.959  16.987  -1.539  1.00 20.00    -0.033 A 
HETATM    7  C7  UNL     1     -34.491  18.165   0.487  1.00 20.00     0.011 A 
HETATM    8  C8  UNL     1     -33.457  16.718  -3.375  1.00 20.00     0.041 C 
HETATM    9  C9  UNL     1     -34.601  15.692  -3.463  1.00 20.00     0.028 C 
HETATM   10  C10 UNL     1     -35.740  16.207  -2.558  1.00 20.00     0.126 C 
HETATM   11  N11 UNL     1     -37.428  17.721  -3.885  1.00 20.00    -0.197 NA
HETATM   12 BR12 UNL     1     -35.031  18.790   2.189  1.00 20.00    -0.051 Br
ENDROOT
TORSDOF 0
ENDMDL
MODEL 5
REMARK VINA RESULT:      -4.9     11.960     12.504
REMARK  0 active torsions:
REMARK  status: ('A' for Active; 'I' for Inactive)
ROOT
HETATM    1  C1  UNL     1     -33.050  18.293  -2.342  1.00 20.00     0.068 C 
HETATM    2  C2  UNL     1     -36.807  16.131  -3.616  1.00 20.00     0.009 A 
HETATM    3  C3  UNL     1     -36.359  15.341  -4.677  1.00 20.00     0.019 A 
HETATM    4  C4  UNL     1     -34.050  15.603  -3.958  1.00 20.00     0.028 A 
HETATM    5  C5  UNL     1     -35.869  16.638  -2.734  1.00 20.00    -0.050 A 
HETATM    6  C6  UNL     1     -34.502  16.382  -2.904  1.00 20.00    -0.033 A 
HETATM    7  C7  UNL     1     -34.991  15.078  -4.846  1.00 20.00     0.011 A 
HETATM    8  C8  UNL     1     -36.104  17.528  -1.555  1.00 20.00     0.041 C 
HETATM    9  C9  UNL     1     -34.775  17.372  -0.795  1.00 20.00     0.028 C 
HETATM   10  C10 UNL     1     -33.686  17.067  -1.845  1.00 20.00     0.126 C 
HETATM   11  N11 UNL     1     -32.549  19.263  -2.734  1.00 20.00    -0.197 NA
HETATM   12 BR12 UNL     1     -34.416  14.010  -6.298  1.00 20.00    -0.051 Br
ENDROOT
TORSDOF 0
ENDMDL
MODEL 6
REMARK VINA RESULT:      -4.7     11.324     12.570
REMARK  0 active torsions:
REMARK  status: ('A' for Active; 'I' for Inactive)
ROOT
HETATM    1  C1  UNL     1     -34.745  13.983  -4.588  1.00 20.00     0.068 C 
HETATM    2  C2  UNL     1     -34.695  18.466  -4.022  1.00 20.00     0.009 A 
HETATM    3  C3  UNL     1     -35.189  18.615  -2.724  1.00 20.00     0.019 A 
HETATM    4  C4  UNL     1     -34.718  16.280  -2.228  1.00 20.00     0.028 A 
HETATM    5  C5  UNL     1     -34.210  17.226  -4.401  1.00 20.00    -0.050 A 
HETATM    6  C6  UNL     1     -34.224  16.141  -3.515  1.00 20.00    -0.033 A 
HETATM    7  C7  UNL     1     -35.199  17.530  -1.834  1.00 20.00     0.011 A 
HETATM    8  C8  UNL     1     -33.668  16.821  -5.736  1.00 20.00     0.041 C 
HETATM    9  C9  UNL     1     -32.941  15.513  -5.377  1.00 20.00     0.028 C 
HETATM   10  C10 UNL     1     -33.680  14.901  -4.168  1.00 20.00     0.126 C 
HETATM   11  N11 UNL     1     -35.587  13.258  -4.922  1.00 20.00    -0.197 NA
HETATM   12 BR12 UNL     1     -35.880  17.764  -0.084  1.00 20.00    -0.051 Br
ENDROOT
TORSDOF 0
ENDMDL
MODEL 7
REMARK VINA RESULT:      -4.6     11.999     12.529
REMARK  0 active torsions:
REMARK  status: ('A' for Active; 'I' for Inactive)
ROOT
HETATM    1  C1  UNL     1     -37.467  14.889  -6.241  1.00 20.00     0.068 C 
HETATM    2  C2  UNL     1     -33.348  15.598  -4.522  1.00 20.00     0.009 A 
HETATM    3  C3  UNL     1     -33.626  16.283  -3.337  1.00 20.00     0.019 A 
HETATM    4  C4  UNL     1     -35.941  15.537  -3.395  1.00 20.00     0.028 A 
HETATM    5  C5  UNL     1     -34.371  14.882  -5.122  1.00 20.00    -0.050 A 
HETATM    6  C6  UNL     1     -35.657  14.855  -4.567  1.00 20.00    -0.033 A 
HETATM    7  C7  UNL     1     -34.913  16.252  -2.777  1.00 20.00     0.011 A 
HETATM    8  C8  UNL     1     -34.321  14.106  -6.400  1.00 20.00     0.041 C 
HETATM    9  C9  UNL     1     -35.592  13.246  -6.274  1.00 20.00     0.028 C 
HETATM   10  C10 UNL     1     -36.596  14.044  -5.416  1.00 20.00     0.126 C 
HETATM   11  N11 UNL     1     -38.154  15.557  -6.895  1.00 20.00    -0.197 NA
HETATM   12 BR12 UNL     1     -35.258  17.196  -1.175  1.00 20.00    -0.051 Br
ENDROOT
TORSDOF 0
ENDMDL
MODEL 8
REMARK VINA RESULT:      -4.5     11.699     12.223
REMARK  0 active torsions:
REMARK  status: ('A' for Active; 'I' for Inactive)
ROOT
HETATM    1  C1  UNL     1     -35.658  17.796   0.024  1.00 20.00     0.068 C 
HETATM    2  C2  UNL     1     -33.582  15.849  -3.486  1.00 20.00     0.009 A 
HETATM    3  C3  UNL     1     -34.637  15.225  -4.156  1.00 20.00     0.019 A 
HETATM    4  C4  UNL     1     -36.259  16.613  -2.991  1.00 20.00     0.028 A 
HETATM    5  C5  UNL     1     -33.882  16.855  -2.584  1.00 20.00    -0.050 A 
HETATM    6  C6  UNL     1     -35.208  17.232  -2.333  1.00 20.00    -0.033 A 
HETATM    7  C7  UNL     1     -35.965  15.605  -3.911  1.00 20.00     0.011 A 
HETATM    8  C8  UNL     1     -32.933  17.637  -1.731  1.00 20.00     0.041 C 
HETATM    9  C9  UNL     1     -33.819  18.823  -1.310  1.00 20.00     0.028 C 
HETATM   10  C10 UNL     1     -35.277  18.316  -1.295  1.00 20.00     0.126 C 
HETATM   11  N11 UNL     1     -35.958  17.384   1.066  1.00 20.00    -0.197 NA
HETATM   12 BR12 UNL     1     -37.371  14.735  -4.830  1.00 20.00    -0.051 Br
ENDROOT
TORSDOF 0
ENDMDL
MODEL 9
REMARK VINA RESULT:      -4.3     11.642     12.471
REMARK  0 active torsions:
REMARK  status: ('A' for Active; 'I' for Inactive)
ROOT
HETATM    1  C1  UNL     1     -35.303  17.069  -1.661  1.00 20.00     0.068 C 
HETATM    2  C2  UNL     1     -35.637  13.916  -4.881  1.00 20.00     0.009 A 
HETATM    3  C3  UNL     1     -36.987  13.981  -5.232  1.00 20.00     0.019 A 
HETATM    4  C4  UNL     1     -37.198  16.175  -4.202  1.00 20.00     0.028 A 
HETATM    5  C5  UNL     1     -35.083  14.990  -4.203  1.00 20.00    -0.050 A 
HETATM    6  C6  UNL     1     -35.856  16.107  -3.862  1.00 20.00    -0.033 A 
HETATM    7  C7  UNL     1     -37.761  15.102  -4.896  1.00 20.00     0.011 A 
HETATM    8  C8  UNL     1     -33.682  15.133  -3.698  1.00 20.00     0.041 C 
HETATM    9  C9  UNL     1     -33.611  16.649  -3.443  1.00 20.00     0.028 C 
HETATM   10  C10 UNL     1     -35.042  17.118  -3.104  1.00 20.00     0.126 C 
HETATM   11  N11 UNL     1     -35.509  17.029  -0.520  1.00 20.00    -0.197 NA
HETATM   12 BR12 UNL     1     -39.589  15.155  -5.380  1.00 20.00    -0.051 Br
ENDROOT
TORSDOF 0
ENDMDL
