MODEL 1
REMARK VINA RESULT:      -5.6      0.000      0.000
REMARK  3 active torsions:
REMARK  status: ('A' for Active; 'I' for Inactive)
REMARK    1  A    between atoms: C4_4  and  C7_7 
REMARK    2  A    between atoms: C7_7  and  C8_8 
REMARK    3  A    between atoms: C8_8  and  C9_9 
ROOT
HETATM    1  C1  UNL     1     -33.562   7.166   4.987  1.00 20.00     0.141 C 
HETATM    2  C2  UNL     1     -34.349   5.942   5.380  1.00 20.00     0.152 C 
HETATM    3  C3  UNL     1     -33.290   5.883   2.944  1.00 20.00     0.086 C 
HETATM    4  C4  UNL     1     -33.299   7.302   3.497  1.00 20.00     0.065 C 
HETATM    5  O10 UNL     1     -33.211   8.004   5.814  1.00 20.00    -0.297 OA
HETATM    6  S11 UNL     1     -34.599   5.023   3.844  1.00 20.00    -0.161 SA
ENDROOT
BRANCH   4   7
HETATM    7  C7  UNL     1     -31.994   8.027   3.207  1.00 20.00     0.013 C 
BRANCH   7   8
HETATM    8  C8  UNL     1     -31.849   8.338   1.714  1.00 20.00     0.005 C 
BRANCH   8   9
HETATM    9  C9  UNL     1     -32.877   9.361   1.198  1.00 20.00    -0.023 C 
HETATM   10  C5  UNL     1     -33.012   9.239  -0.323  1.00 20.00     0.009 C 
HETATM   11  C6  UNL     1     -32.508  10.798   1.568  1.00 20.00     0.009 C 
ENDBRANCH   8   9
ENDBRANCH   7   8
ENDBRANCH   4   7
TORSDOF 3
ENDMDL
MODEL 2
REMARK VINA RESULT:      -5.3      1.840      2.344
REMARK  3 active torsions:
REMARK  status: ('A' for Active; 'I' for Inactive)
REMARK    1  A    between atoms: C4_4  and  C7_7 
REMARK    2  A    between atoms: C7_7  and  C8_8 
REMARK    3  A    between atoms: C8_8  and  C9_9 
ROOT
HETATM    1  C1  UNL     1     -33.399   5.198   3.108  1.00 20.00     0.141 C 
HETATM    2  C2  UNL     1     -34.146   4.585   4.265  1.00 20.00     0.152 C 
HETATM    3  C3  UNL     1     -34.131   7.242   4.196  1.00 20.00     0.086 C 
HETATM    4  C4  UNL     1     -33.058   6.669   3.278  1.00 20.00     0.065 C 
HETATM    5  O10 UNL     1     -33.055   4.534   2.133  1.00 20.00    -0.297 OA
HETATM    6  S11 UNL     1     -34.438   5.946   5.417  1.00 20.00    -0.161 SA
ENDROOT
BRANCH   4   7
HETATM    7  C7  UNL     1     -33.007   7.405   1.948  1.00 20.00     0.013 C 
BRANCH   7   8
HETATM    8  C8  UNL     1     -31.888   8.450   1.932  1.00 20.00     0.005 C 
BRANCH   8   9
HETATM    9  C9  UNL     1     -32.101   9.561   0.888  1.00 20.00    -0.023 C 
HETATM   10  C5  UNL     1     -32.788  10.764   1.541  1.00 20.00     0.009 C 
HETATM   11  C6  UNL     1     -32.924   9.086  -0.311  1.00 20.00     0.009 C 
ENDBRANCH   8   9
ENDBRANCH   7   8
ENDBRANCH   4   7
TORSDOF 3
ENDMDL
MODEL 3
REMARK VINA RESULT:      -4.9      1.847      2.089
REMARK  3 active torsions:
REMARK  status: ('A' for Active; 'I' for Inactive)
REMARK    1  A    between atoms: C4_4  and  C7_7 
REMARK    2  A    between atoms: C7_7  and  C8_8 
REMARK    3  A    between atoms: C8_8  and  C9_9 
ROOT
HETATM    1  C1  UNL     1     -33.411   5.075   3.218  1.00 20.00     0.141 C 
HETATM    2  C2  UNL     1     -34.239   4.574   4.373  1.00 20.00     0.152 C 
HETATM    3  C3  UNL     1     -33.986   7.214   4.213  1.00 20.00     0.086 C 
HETATM    4  C4  UNL     1     -32.945   6.516   3.347  1.00 20.00     0.065 C 
HETATM    5  O10 UNL     1     -33.102   4.347   2.278  1.00 20.00    -0.297 OA
HETATM    6  S11 UNL     1     -34.439   5.997   5.469  1.00 20.00    -0.161 SA
ENDROOT
BRANCH   4   7
HETATM    7  C7  UNL     1     -32.793   7.194   1.994  1.00 20.00     0.013 C 
BRANCH   7   8
HETATM    8  C8  UNL     1     -32.190   8.594   2.137  1.00 20.00     0.005 C 
BRANCH   8   9
HETATM    9  C9  UNL     1     -32.923   9.665   1.310  1.00 20.00    -0.023 C 
HETATM   10  C5  UNL     1     -32.782   9.355  -0.183  1.00 20.00     0.009 C 
HETATM   11  C6  UNL     1     -32.408  11.077   1.594  1.00 20.00     0.009 C 
ENDBRANCH   8   9
ENDBRANCH   7   8
ENDBRANCH   4   7
TORSDOF 3
ENDMDL
MODEL 4
REMARK VINA RESULT:      -4.7     10.830     11.562
REMARK  3 active torsions:
REMARK  status: ('A' for Active; 'I' for Inactive)
REMARK    1  A    between atoms: C4_4  and  C7_7 
REMARK    2  A    between atoms: C7_7  and  C8_8 
REMARK    3  A    between atoms: C8_8  and  C9_9 
ROOT
HETATM    1  C1  UNL     1     -35.299  13.575  -5.875  1.00 20.00     0.141 C 
HETATM    2  C2  UNL     1     -34.954  13.247  -7.305  1.00 20.00     0.152 C 
HETATM    3  C3  UNL     1     -33.675  15.336  -6.273  1.00 20.00     0.086 C 
HETATM    4  C4  UNL     1     -34.883  14.964  -5.422  1.00 20.00     0.065 C 
HETATM    5  O10 UNL     1     -35.914  12.788  -5.159  1.00 20.00    -0.297 OA
HETATM    6  S11 UNL     1     -34.047  14.685  -7.918  1.00 20.00    -0.161 SA
ENDROOT
BRANCH   4   7
HETATM    7  C7  UNL     1     -34.560  15.013  -3.937  1.00 20.00     0.013 C 
BRANCH   7   8
HETATM    8  C8  UNL     1     -33.932  16.353  -3.547  1.00 20.00     0.005 C 
BRANCH   8   9
HETATM    9  C9  UNL     1     -34.039  16.667  -2.043  1.00 20.00    -0.023 C 
HETATM   10  C5  UNL     1     -35.497  16.960  -1.677  1.00 20.00     0.009 C 
HETATM   11  C6  UNL     1     -33.157  17.845  -1.627  1.00 20.00     0.009 C 
ENDBRANCH   8   9
ENDBRANCH   7   8
ENDBRANCH   4   7
TORSDOF 3
ENDMDL
MODEL 5
REMARK VINA RESULT:      -4.3     10.705     11.297
REMARK  3 active torsions:
REMARK  status: ('A' for Active; 'I' for Inactive)
REMARK    1  A    between atoms: C4_4  and  C7_7 
REMARK    2  A    between atoms: C7_7  and  C8_8 
REMARK    3  A    between atoms: C8_8  and  C9_9 
ROOT
HETATM    1  C1  UNL     1     -35.143  14.020  -5.664  1.00 20.00     0.141 C 
HETATM    2  C2  UNL     1     -36.482  13.925  -6.351  1.00 20.00     0.152 C 
HETATM    3  C3  UNL     1     -36.426  15.430  -4.161  1.00 20.00     0.086 C 
HETATM    4  C4  UNL     1     -35.194  14.537  -4.237  1.00 20.00     0.065 C 
HETATM    5  O10 UNL     1     -34.106  13.656  -6.214  1.00 20.00    -0.297 OA
HETATM    6  S11 UNL     1     -37.672  14.591  -5.165  1.00 20.00    -0.161 SA
ENDROOT
BRANCH   4   7
HETATM    7  C7  UNL     1     -33.930  15.290  -3.852  1.00 20.00     0.013 C 
BRANCH   7   8
HETATM    8  C8  UNL     1     -34.251  16.706  -3.367  1.00 20.00     0.005 C 
BRANCH   8   9
HETATM    9  C9  UNL     1     -33.890  16.946  -1.890  1.00 20.00    -0.023 C 
HETATM   10  C5  UNL     1     -35.168  17.082  -1.058  1.00 20.00     0.009 C 
HETATM   11  C6  UNL     1     -33.015  18.185  -1.696  1.00 20.00     0.009 C 
ENDBRANCH   8   9
ENDBRANCH   7   8
ENDBRANCH   4   7
TORSDOF 3
ENDMDL
MODEL 6
REMARK VINA RESULT:      -4.2     10.359     10.971
REMARK  3 active torsions:
REMARK  status: ('A' for Active; 'I' for Inactive)
REMARK    1  A    between atoms: C4_4  and  C7_7 
REMARK    2  A    between atoms: C7_7  and  C8_8 
REMARK    3  A    between atoms: C8_8  and  C9_9 
ROOT
HETATM    1  C1  UNL     1     -33.151  18.201  -0.779  1.00 20.00     0.141 C 
HETATM    2  C2  UNL     1     -33.629  18.585   0.599  1.00 20.00     0.152 C 
HETATM    3  C3  UNL     1     -35.305  17.081  -0.813  1.00 20.00     0.086 C 
HETATM    4  C4  UNL     1     -34.238  17.694  -1.711  1.00 20.00     0.065 C 
HETATM    5  O10 UNL     1     -31.979  18.342  -1.121  1.00 20.00    -0.297 OA
HETATM    6  S11 UNL     1     -35.389  18.175   0.623  1.00 20.00    -0.161 SA
ENDROOT
BRANCH   4   7
HETATM    7  C7  UNL     1     -33.706  16.687  -2.719  1.00 20.00     0.013 C 
BRANCH   7   8
HETATM    8  C8  UNL     1     -34.844  15.893  -3.367  1.00 20.00     0.005 C 
BRANCH   8   9
HETATM    9  C9  UNL     1     -34.412  14.507  -3.879  1.00 20.00    -0.023 C 
HETATM   10  C5  UNL     1     -33.031  14.603  -4.533  1.00 20.00     0.009 C 
HETATM   11  C6  UNL     1     -35.412  13.913  -4.872  1.00 20.00     0.009 C 
ENDBRANCH   8   9
ENDBRANCH   7   8
ENDBRANCH   4   7
TORSDOF 3
ENDMDL
MODEL 7
REMARK VINA RESULT:      -4.2     10.468     11.099
REMARK  3 active torsions:
REMARK  status: ('A' for Active; 'I' for Inactive)
REMARK    1  A    between atoms: C4_4  and  C7_7 
REMARK    2  A    between atoms: C7_7  and  C8_8 
REMARK    3  A    between atoms: C8_8  and  C9_9 
ROOT
HETATM    1  C1  UNL     1     -34.995  14.133  -4.464  1.00 20.00     0.141 C 
HETATM    2  C2  UNL     1     -35.795  13.571  -5.612  1.00 20.00     0.152 C 
HETATM    3  C3  UNL     1     -36.613  15.928  -4.696  1.00 20.00     0.086 C 
HETATM    4  C4  UNL     1     -35.678  15.253  -3.699  1.00 20.00     0.065 C 
HETATM    5  O10 UNL     1     -33.898  13.674  -4.153  1.00 20.00    -0.297 OA
HETATM    6  S11 UNL     1     -37.294  14.576  -5.683  1.00 20.00    -0.161 SA
ENDROOT
BRANCH   4   7
HETATM    7  C7  UNL     1     -34.682  16.238  -3.109  1.00 20.00     0.013 C 
BRANCH   7   8
HETATM    8  C8  UNL     1     -35.104  16.685  -1.706  1.00 20.00     0.005 C 
BRANCH   8   9
HETATM    9  C9  UNL     1     -34.344  17.925  -1.202  1.00 20.00    -0.023 C 
HETATM   10  C5  UNL     1     -32.870  17.831  -1.607  1.00 20.00     0.009 C 
HETATM   11  C6  UNL     1     -34.451  18.100   0.313  1.00 20.00     0.009 C 
ENDBRANCH   8   9
ENDBRANCH   7   8
ENDBRANCH   4   7
TORSDOF 3
ENDMDL
MODEL 8
REMARK VINA RESULT:      -4.1     10.816     11.313
REMARK  3 active torsions:
REMARK  status: ('A' for Active; 'I' for Inactive)
REMARK    1  A    between atoms: C4_4  and  C7_7 
REMARK    2  A    between atoms: C7_7  and  C8_8 
REMARK    3  A    between atoms: C8_8  and  C9_9 
ROOT
HETATM    1  C1  UNL     1     -32.127  18.533   0.129  1.00 20.00     0.141 C 
HETATM    2  C2  UNL     1     -32.249  18.944   1.575  1.00 20.00     0.152 C 
HETATM    3  C3  UNL     1     -34.518  18.208   0.403  1.00 20.00     0.086 C 
HETATM    4  C4  UNL     1     -33.440  18.496  -0.634  1.00 20.00     0.065 C 
HETATM    5  O10 UNL     1     -31.038  18.299  -0.389  1.00 20.00    -0.297 OA
HETATM    6  S11 UNL     1     -34.021  19.149   1.864  1.00 20.00    -0.161 SA
ENDROOT
BRANCH   4   7
HETATM    7  C7  UNL     1     -33.432  17.453  -1.741  1.00 20.00     0.013 C 
BRANCH   7   8
HETATM    8  C8  UNL     1     -34.768  16.708  -1.814  1.00 20.00     0.005 C 
BRANCH   8   9
HETATM    9  C9  UNL     1     -35.024  16.038  -3.176  1.00 20.00    -0.023 C 
HETATM   10  C5  UNL     1     -33.691  15.659  -3.827  1.00 20.00     0.009 C 
HETATM   11  C6  UNL     1     -35.824  16.932  -4.125  1.00 20.00     0.009 C 
ENDBRANCH   8   9
ENDBRANCH   7   8
ENDBRANCH   4   7
TORSDOF 3
ENDMDL
MODEL 9
REMARK VINA RESULT:      -4.1     10.908     11.390
REMARK  3 active torsions:
REMARK  status: ('A' for Active; 'I' for Inactive)
REMARK    1  A    between atoms: C4_4  and  C7_7 
REMARK    2  A    between atoms: C7_7  and  C8_8 
REMARK    3  A    between atoms: C8_8  and  C9_9 
ROOT
HETATM    1  C1  UNL     1     -31.496  19.117   1.772  1.00 20.00     0.141 C 
HETATM    2  C2  UNL     1     -31.949  19.150   3.209  1.00 20.00     0.152 C 
HETATM    3  C3  UNL     1     -33.827  18.531   1.433  1.00 20.00     0.086 C 
HETATM    4  C4  UNL     1     -32.618  19.156   0.749  1.00 20.00     0.065 C 
HETATM    5  O10 UNL     1     -30.305  19.112   1.468  1.00 20.00    -0.297 OA
HETATM    6  S11 UNL     1     -33.755  19.124   3.139  1.00 20.00    -0.161 SA
ENDROOT
BRANCH   4   7
HETATM    7  C7  UNL     1     -32.255  18.420  -0.532  1.00 20.00     0.013 C 
BRANCH   7   8
HETATM    8  C8  UNL     1     -33.428  18.399  -1.514  1.00 20.00     0.005 C 
BRANCH   8   9
HETATM    9  C9  UNL     1     -33.962  16.984  -1.803  1.00 20.00    -0.023 C 
HETATM   10  C5  UNL     1     -33.676  16.607  -3.259  1.00 20.00     0.009 C 
HETATM   11  C6  UNL     1     -35.461  16.857  -1.523  1.00 20.00     0.009 C 
ENDBRANCH   8   9
ENDBRANCH   7   8
ENDBRANCH   4   7
TORSDOF 3
ENDMDL
