MODEL 1
REMARK VINA RESULT:      -6.5      0.000      0.000
REMARK  2 active torsions:
REMARK  status: ('A' for Active; 'I' for Inactive)
REMARK    1  A    between atoms: C5_5  and  C6_6 
REMARK    2  A    between atoms: C6_6  and  C7_7 
ROOT
HETATM    1  C1  UNL     1     -33.702   7.040   5.086  1.00 20.00     0.131 C 
HETATM    2  C2  UNL     1     -34.521   5.811   5.394  1.00 20.00     0.079 C 
HETATM    3  C3  UNL     1     -35.068   5.444   4.021  1.00 20.00     0.008 C 
HETATM    4  C4  UNL     1     -33.989   5.901   3.047  1.00 20.00     0.013 C 
HETATM    5  C5  UNL     1     -33.541   7.256   3.596  1.00 20.00     0.064 C 
HETATM    6  O8  UNL     1     -33.228   7.770   5.947  1.00 20.00    -0.298 OA
ENDROOT
BRANCH   5   7
HETATM    7  C6  UNL     1     -32.123   7.616   3.199  1.00 20.00     0.129 C 
BRANCH   7   8
HETATM    8  C7  UNL     1     -32.099   8.591   2.052  1.00 20.00     0.388 C 
HETATM    9  F9  UNL     1     -31.162   8.264   1.137  1.00 20.00    -0.171 F 
HETATM   10  F10 UNL     1     -31.807   9.828   2.511  1.00 20.00    -0.171 F 
HETATM   11  F11 UNL     1     -33.292   8.658   1.426  1.00 20.00    -0.171 F 
ENDBRANCH   7   8
ENDBRANCH   5   7
TORSDOF 2
ENDMDL
MODEL 2
REMARK VINA RESULT:      -6.5      0.150      1.109
REMARK  2 active torsions:
REMARK  status: ('A' for Active; 'I' for Inactive)
REMARK    1  A    between atoms: C5_5  and  C6_6 
REMARK    2  A    between atoms: C6_6  and  C7_7 
ROOT
HETATM    1  C1  UNL     1     -33.639   7.089   5.013  1.00 20.00     0.131 C 
HETATM    2  C2  UNL     1     -34.472   5.886   5.380  1.00 20.00     0.079 C 
HETATM    3  C3  UNL     1     -35.077   5.499   4.037  1.00 20.00     0.008 C 
HETATM    4  C4  UNL     1     -34.024   5.907   3.014  1.00 20.00     0.013 C 
HETATM    5  C5  UNL     1     -33.527   7.265   3.513  1.00 20.00     0.064 C 
HETATM    6  O8  UNL     1     -33.118   7.829   5.838  1.00 20.00    -0.298 OA
ENDROOT
BRANCH   5   7
HETATM    7  C6  UNL     1     -32.116   7.583   3.057  1.00 20.00     0.129 C 
BRANCH   7   8
HETATM    8  C7  UNL     1     -32.112   8.558   1.909  1.00 20.00     0.388 C 
HETATM    9  F9  UNL     1     -33.255   8.494   1.195  1.00 20.00    -0.171 F 
HETATM   10  F10 UNL     1     -31.090   8.270   1.073  1.00 20.00    -0.171 F 
HETATM   11  F11 UNL     1     -31.950   9.829   2.331  1.00 20.00    -0.171 F 
ENDBRANCH   7   8
ENDBRANCH   5   7
TORSDOF 2
ENDMDL
MODEL 3
REMARK VINA RESULT:      -6.4      0.088      1.151
REMARK  2 active torsions:
REMARK  status: ('A' for Active; 'I' for Inactive)
REMARK    1  A    between atoms: C5_5  and  C6_6 
REMARK    2  A    between atoms: C6_6  and  C7_7 
ROOT
HETATM    1  C1  UNL     1     -33.736   7.021   5.114  1.00 20.00     0.131 C 
HETATM    2  C2  UNL     1     -34.501   5.756   5.416  1.00 20.00     0.079 C 
HETATM    3  C3  UNL     1     -34.987   5.342   4.033  1.00 20.00     0.008 C 
HETATM    4  C4  UNL     1     -33.903   5.840   3.084  1.00 20.00     0.013 C 
HETATM    5  C5  UNL     1     -33.541   7.224   3.625  1.00 20.00     0.064 C 
HETATM    6  O8  UNL     1     -33.326   7.786   5.977  1.00 20.00    -0.298 OA
ENDROOT
BRANCH   5   7
HETATM    7  C6  UNL     1     -32.131   7.650   3.266  1.00 20.00     0.129 C 
BRANCH   7   8
HETATM    8  C7  UNL     1     -32.118   8.578   2.080  1.00 20.00     0.388 C 
HETATM    9  F9  UNL     1     -31.887   9.856   2.448  1.00 20.00    -0.171 F 
HETATM   10  F10 UNL     1     -33.319   8.542   1.461  1.00 20.00    -0.171 F 
HETATM   11  F11 UNL     1     -31.181   8.225   1.177  1.00 20.00    -0.171 F 
ENDBRANCH   7   8
ENDBRANCH   5   7
TORSDOF 2
ENDMDL
MODEL 4
REMARK VINA RESULT:      -6.4      1.666      2.062
REMARK  2 active torsions:
REMARK  status: ('A' for Active; 'I' for Inactive)
REMARK    1  A    between atoms: C5_5  and  C6_6 
REMARK    2  A    between atoms: C6_6  and  C7_7 
ROOT
HETATM    1  C1  UNL     1     -33.526   5.326   3.352  1.00 20.00     0.131 C 
HETATM    2  C2  UNL     1     -34.491   4.830   4.400  1.00 20.00     0.079 C 
HETATM    3  C3  UNL     1     -34.409   5.929   5.451  1.00 20.00     0.008 C 
HETATM    4  C4  UNL     1     -34.117   7.195   4.655  1.00 20.00     0.013 C 
HETATM    5  C5  UNL     1     -33.088   6.752   3.614  1.00 20.00     0.064 C 
HETATM    6  O8  UNL     1     -33.149   4.649   2.404  1.00 20.00    -0.298 OA
ENDROOT
BRANCH   5   7
HETATM    7  C6  UNL     1     -33.098   7.614   2.367  1.00 20.00     0.129 C 
BRANCH   7   8
HETATM    8  C7  UNL     1     -31.853   8.455   2.265  1.00 20.00     0.388 C 
HETATM    9  F9  UNL     1     -31.174   8.207   1.125  1.00 20.00    -0.171 F 
HETATM   10  F10 UNL     1     -31.029   8.177   3.300  1.00 20.00    -0.171 F 
HETATM   11  F11 UNL     1     -32.133   9.774   2.309  1.00 20.00    -0.171 F 
ENDBRANCH   7   8
ENDBRANCH   5   7
TORSDOF 2
ENDMDL
MODEL 5
REMARK VINA RESULT:      -6.4      1.663      2.113
REMARK  2 active torsions:
REMARK  status: ('A' for Active; 'I' for Inactive)
REMARK    1  A    between atoms: C5_5  and  C6_6 
REMARK    2  A    between atoms: C6_6  and  C7_7 
ROOT
HETATM    1  C1  UNL     1     -33.533   5.322   3.364  1.00 20.00     0.131 C 
HETATM    2  C2  UNL     1     -34.501   4.825   4.409  1.00 20.00     0.079 C 
HETATM    3  C3  UNL     1     -34.417   5.921   5.464  1.00 20.00     0.008 C 
HETATM    4  C4  UNL     1     -34.120   7.189   4.673  1.00 20.00     0.013 C 
HETATM    5  C5  UNL     1     -33.090   6.746   3.632  1.00 20.00     0.064 C 
HETATM    6  O8  UNL     1     -33.156   4.647   2.415  1.00 20.00    -0.298 OA
ENDROOT
BRANCH   5   7
HETATM    7  C6  UNL     1     -33.095   7.612   2.389  1.00 20.00     0.129 C 
BRANCH   7   8
HETATM    8  C7  UNL     1     -31.842   8.443   2.287  1.00 20.00     0.388 C 
HETATM    9  F9  UNL     1     -31.003   8.209   3.318  1.00 20.00    -0.171 F 
HETATM   10  F10 UNL     1     -32.164   9.755   2.311  1.00 20.00    -0.171 F 
HETATM   11  F11 UNL     1     -31.175   8.205   1.139  1.00 20.00    -0.171 F 
ENDBRANCH   7   8
ENDBRANCH   5   7
TORSDOF 2
ENDMDL
MODEL 6
REMARK VINA RESULT:      -5.0      2.936      4.170
REMARK  2 active torsions:
REMARK  status: ('A' for Active; 'I' for Inactive)
REMARK    1  A    between atoms: C5_5  and  C6_6 
REMARK    2  A    between atoms: C6_6  and  C7_7 
ROOT
HETATM    1  C1  UNL     1     -31.944   8.194   3.454  1.00 20.00     0.131 C 
HETATM    2  C2  UNL     1     -31.828   8.899   2.125  1.00 20.00     0.079 C 
HETATM    3  C3  UNL     1     -32.535   7.928   1.188  1.00 20.00     0.008 C 
HETATM    4  C4  UNL     1     -33.597   7.267   2.058  1.00 20.00     0.013 C 
HETATM    5  C5  UNL     1     -32.884   7.008   3.386  1.00 20.00     0.064 C 
HETATM    6  O8  UNL     1     -31.345   8.547   4.462  1.00 20.00    -0.298 OA
ENDROOT
BRANCH   5   7
HETATM    7  C6  UNL     1     -33.835   6.938   4.565  1.00 20.00     0.129 C 
BRANCH   7   8
HETATM    8  C7  UNL     1     -34.621   5.654   4.567  1.00 20.00     0.388 C 
HETATM    9  F9  UNL     1     -35.804   5.791   3.932  1.00 20.00    -0.171 F 
HETATM   10  F10 UNL     1     -34.881   5.282   5.840  1.00 20.00    -0.171 F 
HETATM   11  F11 UNL     1     -33.941   4.649   3.977  1.00 20.00    -0.171 F 
ENDBRANCH   7   8
ENDBRANCH   5   7
TORSDOF 2
ENDMDL
MODEL 7
REMARK VINA RESULT:      -5.0      2.923      4.162
REMARK  2 active torsions:
REMARK  status: ('A' for Active; 'I' for Inactive)
REMARK    1  A    between atoms: C5_5  and  C6_6 
REMARK    2  A    between atoms: C6_6  and  C7_7 
ROOT
HETATM    1  C1  UNL     1     -31.942   8.184   3.445  1.00 20.00     0.131 C 
HETATM    2  C2  UNL     1     -31.829   8.878   2.110  1.00 20.00     0.079 C 
HETATM    3  C3  UNL     1     -32.543   7.901   1.185  1.00 20.00     0.008 C 
HETATM    4  C4  UNL     1     -33.604   7.251   2.064  1.00 20.00     0.013 C 
HETATM    5  C5  UNL     1     -32.887   7.001   3.392  1.00 20.00     0.064 C 
HETATM    6  O8  UNL     1     -31.338   8.543   4.448  1.00 20.00    -0.298 OA
ENDROOT
BRANCH   5   7
HETATM    7  C6  UNL     1     -33.833   6.945   4.575  1.00 20.00     0.129 C 
BRANCH   7   8
HETATM    8  C7  UNL     1     -34.626   5.665   4.589  1.00 20.00     0.388 C 
HETATM    9  F9  UNL     1     -34.899   5.260   5.848  1.00 20.00    -0.171 F 
HETATM   10  F10 UNL     1     -33.917   4.683   3.989  1.00 20.00    -0.171 F 
HETATM   11  F11 UNL     1     -35.794   5.791   3.926  1.00 20.00    -0.171 F 
ENDBRANCH   7   8
ENDBRANCH   5   7
TORSDOF 2
ENDMDL
MODEL 8
REMARK VINA RESULT:      -4.6      3.338      4.583
REMARK  2 active torsions:
REMARK  status: ('A' for Active; 'I' for Inactive)
REMARK    1  A    between atoms: C5_5  and  C6_6 
REMARK    2  A    between atoms: C6_6  and  C7_7 
ROOT
HETATM    1  C1  UNL     1     -32.905   6.543   2.855  1.00 20.00     0.131 C 
HETATM    2  C2  UNL     1     -31.886   7.461   2.228  1.00 20.00     0.079 C 
HETATM    3  C3  UNL     1     -32.034   8.721   3.070  1.00 20.00     0.008 C 
HETATM    4  C4  UNL     1     -32.439   8.213   4.448  1.00 20.00     0.013 C 
HETATM    5  C5  UNL     1     -33.450   7.102   4.153  1.00 20.00     0.064 C 
HETATM    6  O8  UNL     1     -33.245   5.473   2.365  1.00 20.00    -0.298 OA
ENDROOT
BRANCH   5   7
HETATM    7  C6  UNL     1     -33.530   6.067   5.257  1.00 20.00     0.129 C 
BRANCH   7   8
HETATM    8  C7  UNL     1     -34.738   5.181   5.099  1.00 20.00     0.388 C 
HETATM    9  F9  UNL     1     -35.662   5.736   4.287  1.00 20.00    -0.171 F 
HETATM   10  F10 UNL     1     -35.318   4.984   6.304  1.00 20.00    -0.171 F 
HETATM   11  F11 UNL     1     -34.411   3.972   4.599  1.00 20.00    -0.171 F 
ENDBRANCH   7   8
ENDBRANCH   5   7
TORSDOF 2
ENDMDL
MODEL 9
REMARK VINA RESULT:      -4.6      2.724      3.489
REMARK  2 active torsions:
REMARK  status: ('A' for Active; 'I' for Inactive)
REMARK    1  A    between atoms: C5_5  and  C6_6 
REMARK    2  A    between atoms: C6_6  and  C7_7 
ROOT
HETATM    1  C1  UNL     1     -33.367   7.570   3.831  1.00 20.00     0.131 C 
HETATM    2  C2  UNL     1     -32.966   7.688   5.280  1.00 20.00     0.079 C 
HETATM    3  C3  UNL     1     -34.098   6.950   5.983  1.00 20.00     0.008 C 
HETATM    4  C4  UNL     1     -34.531   5.882   4.986  1.00 20.00     0.013 C 
HETATM    5  C5  UNL     1     -34.516   6.602   3.637  1.00 20.00     0.064 C 
HETATM    6  O8  UNL     1     -32.820   8.188   2.925  1.00 20.00    -0.298 OA
ENDROOT
BRANCH   5   7
HETATM    7  C6  UNL     1     -34.308   5.663   2.466  1.00 20.00     0.129 C 
BRANCH   7   8
HETATM    8  C7  UNL     1     -33.252   4.632   2.763  1.00 20.00     0.388 C 
HETATM    9  F9  UNL     1     -33.621   3.815   3.772  1.00 20.00    -0.171 F 
HETATM   10  F10 UNL     1     -32.106   5.247   3.133  1.00 20.00    -0.171 F 
HETATM   11  F11 UNL     1     -32.977   3.870   1.685  1.00 20.00    -0.171 F 
ENDBRANCH   7   8
ENDBRANCH   5   7
TORSDOF 2
ENDMDL
