MODEL 1
REMARK VINA RESULT:      -5.8      0.000      0.000
REMARK  1 active torsions:
REMARK  status: ('A' for Active; 'I' for Inactive)
REMARK    1  A    between atoms: C4_4  and  O6_6 
ROOT
HETATM    1  C1  UNL     1     -33.592   7.300   3.776  1.00 20.00     0.038 C 
HETATM    2  C2  UNL     1     -33.650   5.837   3.349  1.00 20.00     0.081 C 
HETATM    3  C3  UNL     1     -34.425   5.886   5.604  1.00 20.00     0.110 C 
HETATM    4  C4  UNL     1     -33.956   7.304   5.267  1.00 20.00     0.124 C 
HETATM    5  C5  UNL     1     -34.718   5.267   4.254  1.00 20.00     0.246 C 
HETATM    6  F7  UNL     1     -34.687   3.924   4.295  1.00 20.00    -0.206 F 
HETATM    7  F8  UNL     1     -35.945   5.642   3.824  1.00 20.00    -0.206 F 
ENDROOT
BRANCH   4   8
HETATM    8  O6  UNL     1     -32.814   7.639   6.042  1.00 20.00    -0.395 OA
HETATM    9  H16 UNL     1     -32.904   7.169   6.885  1.00 20.00     0.210 HD
ENDBRANCH   4   8
TORSDOF 1
ENDMDL
MODEL 2
REMARK VINA RESULT:      -5.3      2.430      3.129
REMARK  1 active torsions:
REMARK  status: ('A' for Active; 'I' for Inactive)
REMARK    1  A    between atoms: C4_4  and  O6_6 
ROOT
HETATM    1  C1  UNL     1     -34.709   5.919   5.507  1.00 20.00     0.038 C 
HETATM    2  C2  UNL     1     -33.511   6.861   5.462  1.00 20.00     0.081 C 
HETATM    3  C3  UNL     1     -33.589   5.809   3.324  1.00 20.00     0.110 C 
HETATM    4  C4  UNL     1     -34.668   5.144   4.183  1.00 20.00     0.124 C 
HETATM    5  C5  UNL     1     -33.370   7.152   3.986  1.00 20.00     0.246 C 
HETATM    6  F7  UNL     1     -32.169   7.676   3.682  1.00 20.00    -0.206 F 
HETATM    7  F8  UNL     1     -34.319   8.030   3.589  1.00 20.00    -0.206 F 
ENDROOT
BRANCH   4   8
HETATM    8  O6  UNL     1     -34.332   3.786   4.429  1.00 20.00    -0.395 OA
HETATM    9  H16 UNL     1     -34.216   3.369   3.561  1.00 20.00     0.210 HD
ENDBRANCH   4   8
TORSDOF 1
ENDMDL
MODEL 3
REMARK VINA RESULT:      -5.0      1.294      2.201
REMARK  1 active torsions:
REMARK  status: ('A' for Active; 'I' for Inactive)
REMARK    1  A    between atoms: C4_4  and  O6_6 
ROOT
HETATM    1  C1  UNL     1     -34.561   5.500   5.498  1.00 20.00     0.038 C 
HETATM    2  C2  UNL     1     -35.167   5.406   4.102  1.00 20.00     0.081 C 
HETATM    3  C3  UNL     1     -33.397   6.996   3.935  1.00 20.00     0.110 C 
HETATM    4  C4  UNL     1     -33.520   6.625   5.416  1.00 20.00     0.124 C 
HETATM    5  C5  UNL     1     -34.019   5.821   3.211  1.00 20.00     0.246 C 
HETATM    6  F7  UNL     1     -34.428   6.148   1.972  1.00 20.00    -0.206 F 
HETATM    7  F8  UNL     1     -33.124   4.813   3.100  1.00 20.00    -0.206 F 
ENDROOT
BRANCH   4   8
HETATM    8  O6  UNL     1     -33.961   7.747   6.167  1.00 20.00    -0.395 OA
HETATM    9  H16 UNL     1     -33.237   7.978   6.769  1.00 20.00     0.210 HD
ENDBRANCH   4   8
TORSDOF 1
ENDMDL
MODEL 4
REMARK VINA RESULT:      -4.9      1.657      1.900
REMARK  1 active torsions:
REMARK  status: ('A' for Active; 'I' for Inactive)
REMARK    1  A    between atoms: C4_4  and  O6_6 
ROOT
HETATM    1  C1  UNL     1     -33.711   7.382   4.140  1.00 20.00     0.038 C 
HETATM    2  C2  UNL     1     -32.744   6.653   3.212  1.00 20.00     0.081 C 
HETATM    3  C3  UNL     1     -34.231   4.983   4.040  1.00 20.00     0.110 C 
HETATM    4  C4  UNL     1     -34.571   6.282   4.776  1.00 20.00     0.124 C 
HETATM    5  C5  UNL     1     -33.545   5.448   2.774  1.00 20.00     0.246 C 
HETATM    6  F7  UNL     1     -32.770   4.490   2.236  1.00 20.00    -0.206 F 
HETATM    7  F8  UNL     1     -34.463   5.809   1.849  1.00 20.00    -0.206 F 
ENDROOT
BRANCH   4   8
HETATM    8  O6  UNL     1     -34.257   6.160   6.156  1.00 20.00    -0.395 OA
HETATM    9  H16 UNL     1     -34.386   5.228   6.388  1.00 20.00     0.210 HD
ENDBRANCH   4   8
TORSDOF 1
ENDMDL
MODEL 5
REMARK VINA RESULT:      -4.8      1.640      2.421
REMARK  1 active torsions:
REMARK  status: ('A' for Active; 'I' for Inactive)
REMARK    1  A    between atoms: C4_4  and  O6_6 
ROOT
HETATM    1  C1  UNL     1     -32.811   7.400   4.443  1.00 20.00     0.038 C 
HETATM    2  C2  UNL     1     -34.259   7.113   4.829  1.00 20.00     0.081 C 
HETATM    3  C3  UNL     1     -33.970   6.178   2.654  1.00 20.00     0.110 C 
HETATM    4  C4  UNL     1     -32.675   6.924   2.990  1.00 20.00     0.124 C 
HETATM    5  C5  UNL     1     -34.587   5.889   4.005  1.00 20.00     0.246 C 
HETATM    6  F7  UNL     1     -35.912   5.672   3.921  1.00 20.00    -0.206 F 
HETATM    7  F8  UNL     1     -34.020   4.790   4.553  1.00 20.00    -0.206 F 
ENDROOT
BRANCH   4   8
HETATM    8  O6  UNL     1     -32.514   8.040   2.128  1.00 20.00    -0.395 OA
HETATM    9  H16 UNL     1     -31.569   8.093   1.917  1.00 20.00     0.210 HD
ENDBRANCH   4   8
TORSDOF 1
ENDMDL
MODEL 6
REMARK VINA RESULT:      -4.7      2.437      3.139
REMARK  1 active torsions:
REMARK  status: ('A' for Active; 'I' for Inactive)
REMARK    1  A    between atoms: C4_4  and  O6_6 
ROOT
HETATM    1  C1  UNL     1     -34.792   5.218   4.134  1.00 20.00     0.038 C 
HETATM    2  C2  UNL     1     -34.320   5.868   5.431  1.00 20.00     0.081 C 
HETATM    3  C3  UNL     1     -32.959   6.797   3.707  1.00 20.00     0.110 C 
HETATM    4  C4  UNL     1     -33.821   5.713   3.054  1.00 20.00     0.124 C 
HETATM    5  C5  UNL     1     -33.728   7.175   4.954  1.00 20.00     0.246 C 
HETATM    6  F7  UNL     1     -32.941   7.746   5.882  1.00 20.00    -0.206 F 
HETATM    7  F8  UNL     1     -34.714   8.050   4.649  1.00 20.00    -0.206 F 
ENDROOT
BRANCH   4   8
HETATM    8  O6  UNL     1     -33.005   4.639   2.610  1.00 20.00    -0.395 OA
HETATM    9  H16 UNL     1     -33.100   3.930   3.266  1.00 20.00     0.210 HD
ENDBRANCH   4   8
TORSDOF 1
ENDMDL
MODEL 7
REMARK VINA RESULT:      -4.5      2.517      3.068
REMARK  1 active torsions:
REMARK  status: ('A' for Active; 'I' for Inactive)
REMARK    1  A    between atoms: C4_4  and  O6_6 
ROOT
HETATM    1  C1  UNL     1     -33.541   4.780   3.203  1.00 20.00     0.038 C 
HETATM    2  C2  UNL     1     -33.732   6.131   2.521  1.00 20.00     0.081 C 
HETATM    3  C3  UNL     1     -34.354   6.460   4.800  1.00 20.00     0.110 C 
HETATM    4  C4  UNL     1     -34.077   4.964   4.629  1.00 20.00     0.124 C 
HETATM    5  C5  UNL     1     -33.587   7.106   3.667  1.00 20.00     0.246 C 
HETATM    6  F7  UNL     1     -34.065   8.325   3.362  1.00 20.00    -0.206 F 
HETATM    7  F8  UNL     1     -32.284   7.243   4.002  1.00 20.00    -0.206 F 
ENDROOT
BRANCH   4   8
HETATM    8  O6  UNL     1     -35.275   4.221   4.795  1.00 20.00    -0.395 OA
HETATM    9  H16 UNL     1     -36.005   4.857   4.737  1.00 20.00     0.210 HD
ENDBRANCH   4   8
TORSDOF 1
ENDMDL
MODEL 8
REMARK VINA RESULT:      -3.9     12.216     12.923
REMARK  1 active torsions:
REMARK  status: ('A' for Active; 'I' for Inactive)
REMARK    1  A    between atoms: C4_4  and  O6_6 
ROOT
HETATM    1  C1  UNL     1     -36.662  14.929  -5.045  1.00 20.00     0.038 C 
HETATM    2  C2  UNL     1     -36.390  15.688  -3.750  1.00 20.00     0.081 C 
HETATM    3  C3  UNL     1     -34.472  14.318  -4.114  1.00 20.00     0.110 C 
HETATM    4  C4  UNL     1     -35.492  13.949  -5.196  1.00 20.00     0.124 C 
HETATM    5  C5  UNL     1     -34.880  15.712  -3.688  1.00 20.00     0.246 C 
HETATM    6  F7  UNL     1     -34.425  16.020  -2.461  1.00 20.00    -0.206 F 
HETATM    7  F8  UNL     1     -34.391  16.628  -4.554  1.00 20.00    -0.206 F 
ENDROOT
BRANCH   4   8
HETATM    8  O6  UNL     1     -35.948  12.618  -5.005  1.00 20.00    -0.395 OA
HETATM    9  H16 UNL     1     -36.335  12.583  -4.117  1.00 20.00     0.210 HD
ENDBRANCH   4   8
TORSDOF 1
ENDMDL
MODEL 9
REMARK VINA RESULT:      -3.9      2.112      2.730
REMARK  1 active torsions:
REMARK  status: ('A' for Active; 'I' for Inactive)
REMARK    1  A    between atoms: C4_4  and  O6_6 
ROOT
HETATM    1  C1  UNL     1     -33.032   6.829   3.811  1.00 20.00     0.038 C 
HETATM    2  C2  UNL     1     -33.703   7.224   5.122  1.00 20.00     0.081 C 
HETATM    3  C3  UNL     1     -34.960   5.380   4.280  1.00 20.00     0.110 C 
HETATM    4  C4  UNL     1     -33.928   5.739   3.207  1.00 20.00     0.124 C 
HETATM    5  C5  UNL     1     -34.369   5.938   5.557  1.00 20.00     0.246 C 
HETATM    6  F7  UNL     1     -35.305   6.143   6.501  1.00 20.00    -0.206 F 
HETATM    7  F8  UNL     1     -33.451   5.083   6.061  1.00 20.00    -0.206 F 
ENDROOT
BRANCH   4   8
HETATM    8  O6  UNL     1     -34.580   6.236   2.047  1.00 20.00    -0.395 OA
HETATM    9  H16 UNL     1     -35.267   5.592   1.819  1.00 20.00     0.210 HD
ENDBRANCH   4   8
TORSDOF 1
ENDMDL
