MODEL 1
REMARK VINA RESULT:      -6.4      0.000      0.000
REMARK  2 active torsions:
REMARK  status: ('A' for Active; 'I' for Inactive)
REMARK    1  A    between atoms: C5_5  and  C6_6 
REMARK    2  A    between atoms: C6_6  and  C7_7 
ROOT
HETATM    1  C1  UNL     1     -33.853   6.716   5.032  1.00 20.00     0.131 C 
HETATM    2  C2  UNL     1     -34.683   5.495   5.339  1.00 20.00     0.079 C 
HETATM    3  C3  UNL     1     -34.270   4.545   4.221  1.00 20.00     0.008 C 
HETATM    4  C4  UNL     1     -33.949   5.458   3.046  1.00 20.00     0.013 C 
HETATM    5  C5  UNL     1     -33.183   6.623   3.677  1.00 20.00     0.064 C 
HETATM    6  O8  UNL     1     -33.741   7.667   5.796  1.00 20.00    -0.298 OA
ENDROOT
BRANCH   5   7
HETATM    7  C6  UNL     1     -33.290   7.904   2.875  1.00 20.00     0.129 C 
BRANCH   7   8
HETATM    8  C7  UNL     1     -31.933   8.448   2.515  1.00 20.00     0.388 C 
HETATM    9  F9  UNL     1     -31.469   7.917   1.363  1.00 20.00    -0.171 F 
HETATM   10  F10 UNL     1     -31.046   8.146   3.489  1.00 20.00    -0.171 F 
HETATM   11  F11 UNL     1     -31.950   9.791   2.380  1.00 20.00    -0.171 F 
ENDBRANCH   7   8
ENDBRANCH   5   7
TORSDOF 2
ENDMDL
MODEL 2
REMARK VINA RESULT:      -6.3      0.067      1.149
REMARK  2 active torsions:
REMARK  status: ('A' for Active; 'I' for Inactive)
REMARK    1  A    between atoms: C5_5  and  C6_6 
REMARK    2  A    between atoms: C6_6  and  C7_7 
ROOT
HETATM    1  C1  UNL     1     -33.824   6.724   5.098  1.00 20.00     0.131 C 
HETATM    2  C2  UNL     1     -34.666   5.516   5.423  1.00 20.00     0.079 C 
HETATM    3  C3  UNL     1     -34.291   4.559   4.299  1.00 20.00     0.008 C 
HETATM    4  C4  UNL     1     -33.980   5.466   3.116  1.00 20.00     0.013 C 
HETATM    5  C5  UNL     1     -33.184   6.620   3.730  1.00 20.00     0.064 C 
HETATM    6  O8  UNL     1     -33.681   7.674   5.858  1.00 20.00    -0.298 OA
ENDROOT
BRANCH   5   7
HETATM    7  C6  UNL     1     -33.288   7.901   2.928  1.00 20.00     0.129 C 
BRANCH   7   8
HETATM    8  C7  UNL     1     -31.931   8.422   2.536  1.00 20.00     0.388 C 
HETATM    9  F9  UNL     1     -31.006   8.180   3.490  1.00 20.00    -0.171 F 
HETATM   10  F10 UNL     1     -31.988   9.760   2.354  1.00 20.00    -0.171 F 
HETATM   11  F11 UNL     1     -31.496   7.871   1.382  1.00 20.00    -0.171 F 
ENDBRANCH   7   8
ENDBRANCH   5   7
TORSDOF 2
ENDMDL
MODEL 3
REMARK VINA RESULT:      -6.3      0.103      1.117
REMARK  2 active torsions:
REMARK  status: ('A' for Active; 'I' for Inactive)
REMARK    1  A    between atoms: C5_5  and  C6_6 
REMARK    2  A    between atoms: C6_6  and  C7_7 
ROOT
HETATM    1  C1  UNL     1     -33.825   6.705   5.119  1.00 20.00     0.131 C 
HETATM    2  C2  UNL     1     -34.667   5.499   5.452  1.00 20.00     0.079 C 
HETATM    3  C3  UNL     1     -34.308   4.542   4.323  1.00 20.00     0.008 C 
HETATM    4  C4  UNL     1     -34.007   5.448   3.137  1.00 20.00     0.013 C 
HETATM    5  C5  UNL     1     -33.200   6.599   3.743  1.00 20.00     0.064 C 
HETATM    6  O8  UNL     1     -33.670   7.653   5.877  1.00 20.00    -0.298 OA
ENDROOT
BRANCH   5   7
HETATM    7  C6  UNL     1     -33.308   7.882   2.943  1.00 20.00     0.129 C 
BRANCH   7   8
HETATM    8  C7  UNL     1     -31.952   8.409   2.555  1.00 20.00     0.388 C 
HETATM    9  F9  UNL     1     -31.986   9.733   2.288  1.00 20.00    -0.171 F 
HETATM   10  F10 UNL     1     -31.518   7.780   1.440  1.00 20.00    -0.171 F 
HETATM   11  F11 UNL     1     -31.036   8.202   3.524  1.00 20.00    -0.171 F 
ENDBRANCH   7   8
ENDBRANCH   5   7
TORSDOF 2
ENDMDL
MODEL 4
REMARK VINA RESULT:      -6.1      1.558      2.064
REMARK  2 active torsions:
REMARK  status: ('A' for Active; 'I' for Inactive)
REMARK    1  A    between atoms: C5_5  and  C6_6 
REMARK    2  A    between atoms: C6_6  and  C7_7 
ROOT
HETATM    1  C1  UNL     1     -33.791   5.956   3.524  1.00 20.00     0.131 C 
HETATM    2  C2  UNL     1     -34.363   5.263   4.735  1.00 20.00     0.079 C 
HETATM    3  C3  UNL     1     -34.494   6.413   5.725  1.00 20.00     0.008 C 
HETATM    4  C4  UNL     1     -33.353   7.356   5.365  1.00 20.00     0.013 C 
HETATM    5  C5  UNL     1     -33.352   7.372   3.834  1.00 20.00     0.064 C 
HETATM    6  O8  UNL     1     -33.696   5.428   2.424  1.00 20.00    -0.298 OA
ENDROOT
BRANCH   5   7
HETATM    7  C6  UNL     1     -31.997   7.714   3.248  1.00 20.00     0.129 C 
BRANCH   7   8
HETATM    8  C7  UNL     1     -32.125   8.575   2.020  1.00 20.00     0.388 C 
HETATM    9  F9  UNL     1     -33.312   8.393   1.402  1.00 20.00    -0.171 F 
HETATM   10  F10 UNL     1     -31.152   8.259   1.136  1.00 20.00    -0.171 F 
HETATM   11  F11 UNL     1     -32.002   9.887   2.312  1.00 20.00    -0.171 F 
ENDBRANCH   7   8
ENDBRANCH   5   7
TORSDOF 2
ENDMDL
MODEL 5
REMARK VINA RESULT:      -6.1      1.564      2.267
REMARK  2 active torsions:
REMARK  status: ('A' for Active; 'I' for Inactive)
REMARK    1  A    between atoms: C5_5  and  C6_6 
REMARK    2  A    between atoms: C6_6  and  C7_7 
ROOT
HETATM    1  C1  UNL     1     -33.630   5.727   3.444  1.00 20.00     0.131 C 
HETATM    2  C2  UNL     1     -34.256   5.016   4.617  1.00 20.00     0.079 C 
HETATM    3  C3  UNL     1     -34.635   6.180   5.524  1.00 20.00     0.008 C 
HETATM    4  C4  UNL     1     -33.577   7.239   5.246  1.00 20.00     0.013 C 
HETATM    5  C5  UNL     1     -33.397   7.196   3.727  1.00 20.00     0.064 C 
HETATM    6  O8  UNL     1     -33.345   5.172   2.390  1.00 20.00    -0.298 OA
ENDROOT
BRANCH   5   7
HETATM    7  C6  UNL     1     -32.031   7.677   3.280  1.00 20.00     0.129 C 
BRANCH   7   8
HETATM    8  C7  UNL     1     -32.120   8.529   2.042  1.00 20.00     0.388 C 
HETATM    9  F9  UNL     1     -32.021   9.845   2.331  1.00 20.00    -0.171 F 
HETATM   10  F10 UNL     1     -33.313   8.334   1.437  1.00 20.00    -0.171 F 
HETATM   11  F11 UNL     1     -31.155   8.222   1.150  1.00 20.00    -0.171 F 
ENDBRANCH   7   8
ENDBRANCH   5   7
TORSDOF 2
ENDMDL
MODEL 6
REMARK VINA RESULT:      -5.5      2.980      4.164
REMARK  2 active torsions:
REMARK  status: ('A' for Active; 'I' for Inactive)
REMARK    1  A    between atoms: C5_5  and  C6_6 
REMARK    2  A    between atoms: C6_6  and  C7_7 
ROOT
HETATM    1  C1  UNL     1     -32.635   7.771   4.238  1.00 20.00     0.131 C 
HETATM    2  C2  UNL     1     -31.637   8.664   3.545  1.00 20.00     0.079 C 
HETATM    3  C3  UNL     1     -32.074   8.555   2.089  1.00 20.00     0.008 C 
HETATM    4  C4  UNL     1     -32.645   7.148   1.968  1.00 20.00     0.013 C 
HETATM    5  C5  UNL     1     -33.454   6.962   3.254  1.00 20.00     0.064 C 
HETATM    6  O8  UNL     1     -32.760   7.713   5.454  1.00 20.00    -0.298 OA
ENDROOT
BRANCH   5   7
HETATM    7  C6  UNL     1     -33.599   5.509   3.657  1.00 20.00     0.129 C 
BRANCH   7   8
HETATM    8  C7  UNL     1     -34.890   5.262   4.391  1.00 20.00     0.388 C 
HETATM    9  F9  UNL     1     -34.835   5.707   5.665  1.00 20.00    -0.171 F 
HETATM   10  F10 UNL     1     -35.146   3.936   4.433  1.00 20.00    -0.171 F 
HETATM   11  F11 UNL     1     -35.936   5.861   3.782  1.00 20.00    -0.171 F 
ENDBRANCH   7   8
ENDBRANCH   5   7
TORSDOF 2
ENDMDL
MODEL 7
REMARK VINA RESULT:      -5.1      1.634      2.317
REMARK  2 active torsions:
REMARK  status: ('A' for Active; 'I' for Inactive)
REMARK    1  A    between atoms: C5_5  and  C6_6 
REMARK    2  A    between atoms: C6_6  and  C7_7 
ROOT
HETATM    1  C1  UNL     1     -34.227   4.889   3.995  1.00 20.00     0.131 C 
HETATM    2  C2  UNL     1     -34.723   4.640   5.397  1.00 20.00     0.079 C 
HETATM    3  C3  UNL     1     -34.809   6.054   5.957  1.00 20.00     0.008 C 
HETATM    4  C4  UNL     1     -33.700   6.814   5.242  1.00 20.00     0.013 C 
HETATM    5  C5  UNL     1     -33.785   6.323   3.795  1.00 20.00     0.064 C 
HETATM    6  O8  UNL     1     -34.189   4.026   3.127  1.00 20.00    -0.298 OA
ENDROOT
BRANCH   5   7
HETATM    7  C6  UNL     1     -32.468   6.439   3.053  1.00 20.00     0.129 C 
BRANCH   7   8
HETATM    8  C7  UNL     1     -32.153   7.869   2.704  1.00 20.00     0.388 C 
HETATM    9  F9  UNL     1     -31.697   8.558   3.773  1.00 20.00    -0.171 F 
HETATM   10  F10 UNL     1     -33.270   8.491   2.265  1.00 20.00    -0.171 F 
HETATM   11  F11 UNL     1     -31.227   7.955   1.725  1.00 20.00    -0.171 F 
ENDBRANCH   7   8
ENDBRANCH   5   7
TORSDOF 2
ENDMDL
MODEL 8
REMARK VINA RESULT:      -5.0      3.135      4.449
REMARK  2 active torsions:
REMARK  status: ('A' for Active; 'I' for Inactive)
REMARK    1  A    between atoms: C5_5  and  C6_6 
REMARK    2  A    between atoms: C6_6  and  C7_7 
ROOT
HETATM    1  C1  UNL     1     -33.225   7.054   2.602  1.00 20.00     0.131 C 
HETATM    2  C2  UNL     1     -32.391   8.123   1.942  1.00 20.00     0.079 C 
HETATM    3  C3  UNL     1     -31.373   8.444   3.029  1.00 20.00     0.008 C 
HETATM    4  C4  UNL     1     -32.121   8.203   4.334  1.00 20.00     0.013 C 
HETATM    5  C5  UNL     1     -32.913   6.918   4.078  1.00 20.00     0.064 C 
HETATM    6  O8  UNL     1     -34.056   6.381   2.006  1.00 20.00    -0.298 OA
ENDROOT
BRANCH   5   7
HETATM    7  C6  UNL     1     -34.155   6.808   4.938  1.00 20.00     0.129 C 
BRANCH   7   8
HETATM    8  C7  UNL     1     -34.705   5.407   4.942  1.00 20.00     0.388 C 
HETATM    9  F9  UNL     1     -33.815   4.518   4.451  1.00 20.00    -0.171 F 
HETATM   10  F10 UNL     1     -35.811   5.347   4.166  1.00 20.00    -0.171 F 
HETATM   11  F11 UNL     1     -35.055   5.008   6.183  1.00 20.00    -0.171 F 
ENDBRANCH   7   8
ENDBRANCH   5   7
TORSDOF 2
ENDMDL
MODEL 9
REMARK VINA RESULT:      -4.5     11.248     11.897
REMARK  2 active torsions:
REMARK  status: ('A' for Active; 'I' for Inactive)
REMARK    1  A    between atoms: C5_5  and  C6_6 
REMARK    2  A    between atoms: C6_6  and  C7_7 
ROOT
HETATM    1  C1  UNL     1     -33.324  17.848  -1.325  1.00 20.00     0.131 C 
HETATM    2  C2  UNL     1     -34.308  18.266  -0.262  1.00 20.00     0.079 C 
HETATM    3  C3  UNL     1     -35.397  17.212  -0.408  1.00 20.00     0.008 C 
HETATM    4  C4  UNL     1     -35.380  16.849  -1.887  1.00 20.00     0.013 C 
HETATM    5  C5  UNL     1     -33.891  16.778  -2.236  1.00 20.00     0.064 C 
HETATM    6  O8  UNL     1     -32.201  18.323  -1.433  1.00 20.00    -0.298 OA
ENDROOT
BRANCH   5   7
HETATM    7  C6  UNL     1     -33.614  17.041  -3.702  1.00 20.00     0.129 C 
BRANCH   7   8
HETATM    8  C7  UNL     1     -33.650  15.771  -4.510  1.00 20.00     0.388 C 
HETATM    9  F9  UNL     1     -32.529  15.612  -5.245  1.00 20.00    -0.171 F 
HETATM   10  F10 UNL     1     -34.697  15.801  -5.364  1.00 20.00    -0.171 F 
HETATM   11  F11 UNL     1     -33.794  14.681  -3.726  1.00 20.00    -0.171 F 
ENDBRANCH   7   8
ENDBRANCH   5   7
TORSDOF 2
ENDMDL
