MODEL 1
REMARK VINA RESULT:      -5.5      0.000      0.000
REMARK  4 active torsions:
REMARK  status: ('A' for Active; 'I' for Inactive)
REMARK    1  A    between atoms: C1_1  and  C6_6 
REMARK    2  A    between atoms: C1_1  and  C8_8 
REMARK    3  A    between atoms: C7_7  and  C8_8 
REMARK    4  A    between atoms: C7_7  and  C9_9 
ROOT
HETATM    1  C3  UNL     1     -31.541   8.173   3.671  1.00 20.00     0.018 C 
HETATM    2  C8  UNL     1     -32.338   7.471   2.574  1.00 20.00     0.051 C 
ENDROOT
BRANCH   2   3
HETATM    3  C1  UNL     1     -33.177   6.368   3.218  1.00 20.00     0.130 C 
HETATM    4  O10 UNL     1     -33.190   5.222   2.770  1.00 20.00    -0.298 OA
BRANCH   3   5
HETATM    5  C6  UNL     1     -34.018   6.780   4.414  1.00 20.00     0.074 C 
HETATM    6  C2  UNL     1     -34.557   5.591   5.188  1.00 20.00     0.013 C 
ENDBRANCH   3   5
ENDBRANCH   2   3
BRANCH   2   7
HETATM    7  C7  UNL     1     -33.213   8.477   1.808  1.00 20.00     0.015 C 
BRANCH   7   8
HETATM    8  C9  UNL     1     -32.444   9.402   0.840  1.00 20.00    -0.022 C 
HETATM    9  C4  UNL     1     -32.411  10.854   1.318  1.00 20.00     0.009 C 
HETATM   10  C5  UNL     1     -33.081   9.332  -0.552  1.00 20.00     0.009 C 
ENDBRANCH   7   8
ENDBRANCH   2   7
TORSDOF 4
ENDMDL
MODEL 2
REMARK VINA RESULT:      -5.5      1.431      2.053
REMARK  4 active torsions:
REMARK  status: ('A' for Active; 'I' for Inactive)
REMARK    1  A    between atoms: C1_1  and  C6_6 
REMARK    2  A    between atoms: C1_1  and  C8_8 
REMARK    3  A    between atoms: C7_7  and  C8_8 
REMARK    4  A    between atoms: C7_7  and  C9_9 
ROOT
HETATM    1  C3  UNL     1     -32.932   5.607   2.402  1.00 20.00     0.018 C 
HETATM    2  C8  UNL     1     -33.455   6.959   2.881  1.00 20.00     0.051 C 
ENDROOT
BRANCH   2   3
HETATM    3  C1  UNL     1     -33.846   6.830   4.352  1.00 20.00     0.130 C 
HETATM    4  O10 UNL     1     -33.295   7.498   5.227  1.00 20.00    -0.298 OA
BRANCH   3   5
HETATM    5  C6  UNL     1     -34.922   5.807   4.672  1.00 20.00     0.074 C 
HETATM    6  C2  UNL     1     -34.536   4.889   5.817  1.00 20.00     0.013 C 
ENDBRANCH   3   5
ENDBRANCH   2   3
BRANCH   2   7
HETATM    7  C7  UNL     1     -32.401   8.058   2.666  1.00 20.00     0.015 C 
BRANCH   7   8
HETATM    8  C9  UNL     1     -32.485   8.782   1.305  1.00 20.00    -0.022 C 
HETATM    9  C4  UNL     1     -31.202   8.641   0.486  1.00 20.00     0.009 C 
HETATM   10  C5  UNL     1     -32.793  10.265   1.530  1.00 20.00     0.009 C 
ENDBRANCH   7   8
ENDBRANCH   2   7
TORSDOF 4
ENDMDL
MODEL 3
REMARK VINA RESULT:      -5.4      1.164      1.177
REMARK  4 active torsions:
REMARK  status: ('A' for Active; 'I' for Inactive)
REMARK    1  A    between atoms: C1_1  and  C6_6 
REMARK    2  A    between atoms: C1_1  and  C8_8 
REMARK    3  A    between atoms: C7_7  and  C8_8 
REMARK    4  A    between atoms: C7_7  and  C9_9 
ROOT
HETATM    1  C3  UNL     1     -31.384   8.252   3.478  1.00 20.00     0.018 C 
HETATM    2  C8  UNL     1     -32.541   7.491   2.834  1.00 20.00     0.051 C 
ENDROOT
BRANCH   2   3
HETATM    3  C1  UNL     1     -33.429   6.934   3.944  1.00 20.00     0.130 C 
HETATM    4  O10 UNL     1     -33.363   7.359   5.097  1.00 20.00    -0.298 OA
BRANCH   3   5
HETATM    5  C6  UNL     1     -34.366   5.805   3.549  1.00 20.00     0.074 C 
HETATM    6  C2  UNL     1     -34.661   4.859   4.699  1.00 20.00     0.013 C 
ENDBRANCH   3   5
ENDBRANCH   2   3
BRANCH   2   7
HETATM    7  C7  UNL     1     -33.328   8.404   1.878  1.00 20.00     0.015 C 
BRANCH   7   8
HETATM    8  C9  UNL     1     -32.458   9.287   0.959  1.00 20.00    -0.022 C 
HETATM    9  C4  UNL     1     -32.517  10.767   1.340  1.00 20.00     0.009 C 
HETATM   10  C5  UNL     1     -32.905   9.111  -0.496  1.00 20.00     0.009 C 
ENDBRANCH   7   8
ENDBRANCH   2   7
TORSDOF 4
ENDMDL
MODEL 4
REMARK VINA RESULT:      -5.4      1.490      4.651
REMARK  4 active torsions:
REMARK  status: ('A' for Active; 'I' for Inactive)
REMARK    1  A    between atoms: C1_1  and  C6_6 
REMARK    2  A    between atoms: C1_1  and  C8_8 
REMARK    3  A    between atoms: C7_7  and  C8_8 
REMARK    4  A    between atoms: C7_7  and  C9_9 
ROOT
HETATM    1  C3  UNL     1     -32.924   5.453   2.127  1.00 20.00     0.018 C 
HETATM    2  C8  UNL     1     -32.925   6.450   3.284  1.00 20.00     0.051 C 
ENDROOT
BRANCH   2   3
HETATM    3  C1  UNL     1     -32.215   7.722   2.824  1.00 20.00     0.130 C 
HETATM    4  O10 UNL     1     -31.426   8.320   3.555  1.00 20.00    -0.298 OA
BRANCH   3   5
HETATM    5  C6  UNL     1     -32.568   8.220   1.433  1.00 20.00     0.074 C 
HETATM    6  C2  UNL     1     -32.495   9.731   1.316  1.00 20.00     0.013 C 
ENDBRANCH   3   5
ENDBRANCH   2   3
BRANCH   2   7
HETATM    7  C7  UNL     1     -34.362   6.739   3.753  1.00 20.00     0.015 C 
BRANCH   7   8
HETATM    8  C9  UNL     1     -34.621   6.473   5.251  1.00 20.00    -0.022 C 
HETATM    9  C4  UNL     1     -33.659   7.241   6.158  1.00 20.00     0.009 C 
HETATM   10  C5  UNL     1     -34.508   4.971   5.533  1.00 20.00     0.009 C 
ENDBRANCH   7   8
ENDBRANCH   2   7
TORSDOF 4
ENDMDL
MODEL 5
REMARK VINA RESULT:      -5.3      1.551      4.439
REMARK  4 active torsions:
REMARK  status: ('A' for Active; 'I' for Inactive)
REMARK    1  A    between atoms: C1_1  and  C6_6 
REMARK    2  A    between atoms: C1_1  and  C8_8 
REMARK    3  A    between atoms: C7_7  and  C8_8 
REMARK    4  A    between atoms: C7_7  and  C9_9 
ROOT
HETATM    1  C3  UNL     1     -31.142   8.305   3.748  1.00 20.00     0.018 C 
HETATM    2  C8  UNL     1     -32.427   8.288   2.923  1.00 20.00     0.051 C 
ENDROOT
BRANCH   2   3
HETATM    3  C1  UNL     1     -32.099   8.769   1.510  1.00 20.00     0.130 C 
HETATM    4  O10 UNL     1     -31.147   8.312   0.878  1.00 20.00    -0.298 OA
BRANCH   3   5
HETATM    5  C6  UNL     1     -32.990   9.866   0.953  1.00 20.00     0.074 C 
HETATM    6  C2  UNL     1     -33.320   9.664  -0.515  1.00 20.00     0.013 C 
ENDBRANCH   3   5
ENDBRANCH   2   3
BRANCH   2   7
HETATM    7  C7  UNL     1     -33.051   6.882   2.914  1.00 20.00     0.015 C 
BRANCH   7   8
HETATM    8  C9  UNL     1     -34.185   6.668   3.939  1.00 20.00    -0.022 C 
HETATM    9  C4  UNL     1     -33.813   7.164   5.337  1.00 20.00     0.009 C 
HETATM   10  C5  UNL     1     -34.550   5.182   4.000  1.00 20.00     0.009 C 
ENDBRANCH   7   8
ENDBRANCH   2   7
TORSDOF 4
ENDMDL
MODEL 6
REMARK VINA RESULT:      -5.3      1.445      2.532
REMARK  4 active torsions:
REMARK  status: ('A' for Active; 'I' for Inactive)
REMARK    1  A    between atoms: C1_1  and  C6_6 
REMARK    2  A    between atoms: C1_1  and  C8_8 
REMARK    3  A    between atoms: C7_7  and  C8_8 
REMARK    4  A    between atoms: C7_7  and  C9_9 
ROOT
HETATM    1  C3  UNL     1     -32.861   4.953   2.417  1.00 20.00     0.018 C 
HETATM    2  C8  UNL     1     -34.047   5.717   3.004  1.00 20.00     0.051 C 
ENDROOT
BRANCH   2   3
HETATM    3  C1  UNL     1     -34.413   5.082   4.344  1.00 20.00     0.130 C 
HETATM    4  O10 UNL     1     -34.322   3.869   4.530  1.00 20.00    -0.298 OA
BRANCH   3   5
HETATM    5  C6  UNL     1     -34.928   6.030   5.414  1.00 20.00     0.074 C 
HETATM    6  C2  UNL     1     -33.816   6.818   6.083  1.00 20.00     0.013 C 
ENDBRANCH   3   5
ENDBRANCH   2   3
BRANCH   2   7
HETATM    7  C7  UNL     1     -33.712   7.211   3.153  1.00 20.00     0.015 C 
BRANCH   7   8
HETATM    8  C9  UNL     1     -32.333   7.626   2.598  1.00 20.00    -0.022 C 
HETATM    9  C4  UNL     1     -31.417   8.207   3.676  1.00 20.00     0.009 C 
HETATM   10  C5  UNL     1     -32.518   8.649   1.474  1.00 20.00     0.009 C 
ENDBRANCH   7   8
ENDBRANCH   2   7
TORSDOF 4
ENDMDL
MODEL 7
REMARK VINA RESULT:      -5.2      1.698      4.548
REMARK  4 active torsions:
REMARK  status: ('A' for Active; 'I' for Inactive)
REMARK    1  A    between atoms: C1_1  and  C6_6 
REMARK    2  A    between atoms: C1_1  and  C8_8 
REMARK    3  A    between atoms: C7_7  and  C8_8 
REMARK    4  A    between atoms: C7_7  and  C9_9 
ROOT
HETATM    1  C3  UNL     1     -33.294   7.514   5.383  1.00 20.00     0.018 C 
HETATM    2  C8  UNL     1     -33.596   7.689   3.896  1.00 20.00     0.051 C 
ENDROOT
BRANCH   2   3
HETATM    3  C1  UNL     1     -32.293   8.036   3.178  1.00 20.00     0.130 C 
HETATM    4  O10 UNL     1     -31.235   8.172   3.791  1.00 20.00    -0.298 OA
BRANCH   3   5
HETATM    5  C6  UNL     1     -32.391   8.240   1.675  1.00 20.00     0.074 C 
HETATM    6  C2  UNL     1     -32.490   9.704   1.288  1.00 20.00     0.013 C 
ENDBRANCH   3   5
ENDBRANCH   2   3
BRANCH   2   7
HETATM    7  C7  UNL     1     -34.244   6.420   3.318  1.00 20.00     0.015 C 
BRANCH   7   8
HETATM    8  C9  UNL     1     -33.498   5.107   3.636  1.00 20.00    -0.022 C 
HETATM    9  C4  UNL     1     -32.989   4.402   2.378  1.00 20.00     0.009 C 
HETATM   10  C5  UNL     1     -34.422   4.166   4.416  1.00 20.00     0.009 C 
ENDBRANCH   7   8
ENDBRANCH   2   7
TORSDOF 4
ENDMDL
MODEL 8
REMARK VINA RESULT:      -4.8      1.565      2.605
REMARK  4 active torsions:
REMARK  status: ('A' for Active; 'I' for Inactive)
REMARK    1  A    between atoms: C1_1  and  C6_6 
REMARK    2  A    between atoms: C1_1  and  C8_8 
REMARK    3  A    between atoms: C7_7  and  C8_8 
REMARK    4  A    between atoms: C7_7  and  C9_9 
ROOT
HETATM    1  C3  UNL     1     -33.867   7.325   5.681  1.00 20.00     0.018 C 
HETATM    2  C8  UNL     1     -33.545   6.768   4.296  1.00 20.00     0.051 C 
ENDROOT
BRANCH   2   3
HETATM    3  C1  UNL     1     -34.499   5.609   4.010  1.00 20.00     0.130 C 
HETATM    4  O10 UNL     1     -35.720   5.745   4.085  1.00 20.00    -0.298 OA
BRANCH   3   5
HETATM    5  C6  UNL     1     -33.851   4.279   3.666  1.00 20.00     0.074 C 
HETATM    6  C2  UNL     1     -32.857   4.390   2.524  1.00 20.00     0.013 C 
ENDBRANCH   3   5
ENDBRANCH   2   3
BRANCH   2   7
HETATM    7  C7  UNL     1     -33.651   7.870   3.228  1.00 20.00     0.015 C 
BRANCH   7   8
HETATM    8  C9  UNL     1     -32.367   8.098   2.402  1.00 20.00    -0.022 C 
HETATM    9  C4  UNL     1     -31.133   8.305   3.280  1.00 20.00     0.009 C 
HETATM   10  C5  UNL     1     -32.556   9.310   1.484  1.00 20.00     0.009 C 
ENDBRANCH   7   8
ENDBRANCH   2   7
TORSDOF 4
ENDMDL
MODEL 9
REMARK VINA RESULT:      -4.7      1.480      2.775
REMARK  4 active torsions:
REMARK  status: ('A' for Active; 'I' for Inactive)
REMARK    1  A    between atoms: C1_1  and  C6_6 
REMARK    2  A    between atoms: C1_1  and  C8_8 
REMARK    3  A    between atoms: C7_7  and  C8_8 
REMARK    4  A    between atoms: C7_7  and  C9_9 
ROOT
HETATM    1  C3  UNL     1     -35.154   6.133   2.229  1.00 20.00     0.018 C 
HETATM    2  C8  UNL     1     -34.174   6.461   3.352  1.00 20.00     0.051 C 
ENDROOT
BRANCH   2   3
HETATM    3  C1  UNL     1     -34.230   5.336   4.384  1.00 20.00     0.130 C 
HETATM    4  O10 UNL     1     -34.179   4.152   4.051  1.00 20.00    -0.298 OA
BRANCH   3   5
HETATM    5  C6  UNL     1     -34.390   5.764   5.833  1.00 20.00     0.074 C 
HETATM    6  C2  UNL     1     -33.916   7.185   6.080  1.00 20.00     0.013 C 
ENDBRANCH   3   5
ENDBRANCH   2   3
BRANCH   2   7
HETATM    7  C7  UNL     1     -32.752   6.653   2.796  1.00 20.00     0.015 C 
BRANCH   7   8
HETATM    8  C9  UNL     1     -32.291   8.122   2.686  1.00 20.00    -0.022 C 
HETATM    9  C4  UNL     1     -31.754   8.465   1.296  1.00 20.00     0.009 C 
HETATM   10  C5  UNL     1     -31.214   8.402   3.739  1.00 20.00     0.009 C 
ENDBRANCH   7   8
ENDBRANCH   2   7
TORSDOF 4
ENDMDL
