MODEL 1
REMARK VINA RESULT:      -6.4      0.000      0.000
REMARK  2 active torsions:
REMARK  status: ('A' for Active; 'I' for Inactive)
REMARK    1  A    between atoms: C6_6  and  C7_7 
REMARK    2  A    between atoms: C7_7  and  C8_8 
ROOT
HETATM    1  C1  UNL     1     -33.332   5.732   3.073  1.00 20.00     0.131 C 
HETATM    2  C2  UNL     1     -34.599   5.576   3.887  1.00 20.00     0.079 C 
HETATM    3  C3  UNL     1     -34.404   6.099   5.302  1.00 20.00     0.007 C 
HETATM    4  C4  UNL     1     -33.856   7.522   5.309  1.00 20.00     0.001 C 
HETATM    5  C5  UNL     1     -32.537   7.601   4.541  1.00 20.00     0.012 C 
HETATM    6  C6  UNL     1     -32.646   7.089   3.101  1.00 20.00     0.064 C 
HETATM    7  O9  UNL     1     -32.929   4.828   2.341  1.00 20.00    -0.298 OA
ENDROOT
BRANCH   6   8
HETATM    8  C7  UNL     1     -33.381   8.059   2.182  1.00 20.00     0.129 C 
BRANCH   8   9
HETATM    9  C8  UNL     1     -32.418   8.863   1.357  1.00 20.00     0.388 C 
HETATM   10  F10 UNL     1     -32.224  10.098   1.866  1.00 20.00    -0.171 F 
HETATM   11  F11 UNL     1     -32.911   9.009   0.106  1.00 20.00    -0.171 F 
HETATM   12  F12 UNL     1     -31.215   8.258   1.253  1.00 20.00    -0.171 F 
ENDBRANCH   8   9
ENDBRANCH   6   8
TORSDOF 2
ENDMDL
MODEL 2
REMARK VINA RESULT:      -5.9      1.843      2.754
REMARK  2 active torsions:
REMARK  status: ('A' for Active; 'I' for Inactive)
REMARK    1  A    between atoms: C6_6  and  C7_7 
REMARK    2  A    between atoms: C7_7  and  C8_8 
ROOT
HETATM    1  C1  UNL     1     -33.799   7.134   5.247  1.00 20.00     0.131 C 
HETATM    2  C2  UNL     1     -33.570   5.842   6.002  1.00 20.00     0.079 C 
HETATM    3  C3  UNL     1     -34.614   4.801   5.629  1.00 20.00     0.007 C 
HETATM    4  C4  UNL     1     -34.708   4.608   4.118  1.00 20.00     0.001 C 
HETATM    5  C5  UNL     1     -35.020   5.931   3.419  1.00 20.00     0.012 C 
HETATM    6  C6  UNL     1     -34.012   7.038   3.745  1.00 20.00     0.064 C 
HETATM    7  O9  UNL     1     -33.718   8.226   5.812  1.00 20.00    -0.298 OA
ENDROOT
BRANCH   6   8
HETATM    8  C7  UNL     1     -32.671   6.842   3.043  1.00 20.00     0.129 C 
BRANCH   8   9
HETATM    9  C8  UNL     1     -32.124   8.148   2.542  1.00 20.00     0.388 C 
HETATM   10  F10 UNL     1     -31.362   7.987   1.440  1.00 20.00    -0.171 F 
HETATM   11  F11 UNL     1     -31.346   8.705   3.498  1.00 20.00    -0.171 F 
HETATM   12  F12 UNL     1     -33.105   9.028   2.251  1.00 20.00    -0.171 F 
ENDBRANCH   8   9
ENDBRANCH   6   8
TORSDOF 2
ENDMDL
MODEL 3
REMARK VINA RESULT:      -4.9      3.460      4.320
REMARK  2 active torsions:
REMARK  status: ('A' for Active; 'I' for Inactive)
REMARK    1  A    between atoms: C6_6  and  C7_7 
REMARK    2  A    between atoms: C7_7  and  C8_8 
ROOT
HETATM    1  C1  UNL     1     -32.770   7.632   2.777  1.00 20.00     0.131 C 
HETATM    2  C2  UNL     1     -31.622   8.043   3.675  1.00 20.00     0.079 C 
HETATM    3  C3  UNL     1     -32.135   8.605   4.992  1.00 20.00     0.007 C 
HETATM    4  C4  UNL     1     -33.119   7.656   5.668  1.00 20.00     0.001 C 
HETATM    5  C5  UNL     1     -34.295   7.343   4.745  1.00 20.00     0.012 C 
HETATM    6  C6  UNL     1     -33.863   6.772   3.390  1.00 20.00     0.064 C 
HETATM    7  O9  UNL     1     -32.768   7.903   1.576  1.00 20.00    -0.298 OA
ENDROOT
BRANCH   6   8
HETATM    8  C7  UNL     1     -33.391   5.324   3.482  1.00 20.00     0.129 C 
BRANCH   8   9
HETATM    9  C8  UNL     1     -34.352   4.488   4.278  1.00 20.00     0.388 C 
HETATM   10  F10 UNL     1     -34.065   4.507   5.597  1.00 20.00    -0.171 F 
HETATM   11  F11 UNL     1     -34.280   3.203   3.862  1.00 20.00    -0.171 F 
HETATM   12  F12 UNL     1     -35.628   4.897   4.119  1.00 20.00    -0.171 F 
ENDBRANCH   8   9
ENDBRANCH   6   8
TORSDOF 2
ENDMDL
MODEL 4
REMARK VINA RESULT:      -4.5     10.707     11.498
REMARK  2 active torsions:
REMARK  status: ('A' for Active; 'I' for Inactive)
REMARK    1  A    between atoms: C6_6  and  C7_7 
REMARK    2  A    between atoms: C7_7  and  C8_8 
ROOT
HETATM    1  C1  UNL     1     -36.423  14.708  -4.688  1.00 20.00     0.131 C 
HETATM    2  C2  UNL     1     -36.002  13.386  -5.294  1.00 20.00     0.079 C 
HETATM    3  C3  UNL     1     -35.297  13.597  -6.625  1.00 20.00     0.007 C 
HETATM    4  C4  UNL     1     -34.152  14.598  -6.507  1.00 20.00     0.001 C 
HETATM    5  C5  UNL     1     -34.653  15.937  -5.967  1.00 20.00     0.012 C 
HETATM    6  C6  UNL     1     -35.379  15.811  -4.624  1.00 20.00     0.064 C 
HETATM    7  O9  UNL     1     -37.535  14.851  -4.179  1.00 20.00    -0.298 OA
ENDROOT
BRANCH   6   8
HETATM    8  C7  UNL     1     -34.428  15.557  -3.458  1.00 20.00     0.129 C 
BRANCH   8   9
HETATM    9  C8  UNL     1     -34.535  16.639  -2.422  1.00 20.00     0.388 C 
HETATM   10  F10 UNL     1     -35.485  16.366  -1.503  1.00 20.00    -0.171 F 
HETATM   11  F11 UNL     1     -34.870  17.804  -3.022  1.00 20.00    -0.171 F 
HETATM   12  F12 UNL     1     -33.367  16.835  -1.775  1.00 20.00    -0.171 F 
ENDBRANCH   8   9
ENDBRANCH   6   8
TORSDOF 2
ENDMDL
MODEL 5
REMARK VINA RESULT:      -4.5      1.639      2.619
REMARK  2 active torsions:
REMARK  status: ('A' for Active; 'I' for Inactive)
REMARK    1  A    between atoms: C6_6  and  C7_7 
REMARK    2  A    between atoms: C7_7  and  C8_8 
ROOT
HETATM    1  C1  UNL     1     -34.960   5.935   3.678  1.00 20.00     0.131 C 
HETATM    2  C2  UNL     1     -34.737   4.971   4.824  1.00 20.00     0.079 C 
HETATM    3  C3  UNL     1     -34.004   3.725   4.352  1.00 20.00     0.007 C 
HETATM    4  C4  UNL     1     -32.723   4.072   3.600  1.00 20.00     0.001 C 
HETATM    5  C5  UNL     1     -33.022   4.981   2.408  1.00 20.00     0.012 C 
HETATM    6  C6  UNL     1     -33.764   6.264   2.799  1.00 20.00     0.064 C 
HETATM    7  O9  UNL     1     -36.041   6.505   3.525  1.00 20.00    -0.298 OA
ENDROOT
BRANCH   6   8
HETATM    8  C7  UNL     1     -32.866   7.276   3.503  1.00 20.00     0.129 C 
BRANCH   8   9
HETATM    9  C8  UNL     1     -32.300   8.271   2.530  1.00 20.00     0.388 C 
HETATM   10  F10 UNL     1     -31.607   7.670   1.541  1.00 20.00    -0.171 F 
HETATM   11  F11 UNL     1     -31.452   9.101   3.179  1.00 20.00    -0.171 F 
HETATM   12  F12 UNL     1     -33.264   9.031   1.967  1.00 20.00    -0.171 F 
ENDBRANCH   8   9
ENDBRANCH   6   8
TORSDOF 2
ENDMDL
MODEL 6
REMARK VINA RESULT:      -4.5     10.638     11.527
REMARK  2 active torsions:
REMARK  status: ('A' for Active; 'I' for Inactive)
REMARK    1  A    between atoms: C6_6  and  C7_7 
REMARK    2  A    between atoms: C7_7  and  C8_8 
ROOT
HETATM    1  C1  UNL     1     -35.498  15.628  -3.944  1.00 20.00     0.131 C 
HETATM    2  C2  UNL     1     -34.921  14.296  -4.371  1.00 20.00     0.079 C 
HETATM    3  C3  UNL     1     -33.998  14.461  -5.569  1.00 20.00     0.007 C 
HETATM    4  C4  UNL     1     -32.935  15.526  -5.322  1.00 20.00     0.001 C 
HETATM    5  C5  UNL     1     -33.579  16.868  -4.975  1.00 20.00     0.012 C 
HETATM    6  C6  UNL     1     -34.529  16.788  -3.775  1.00 20.00     0.064 C 
HETATM    7  O9  UNL     1     -36.689  15.743  -3.651  1.00 20.00    -0.298 OA
ENDROOT
BRANCH   6   8
HETATM    8  C7  UNL     1     -33.794  16.658  -2.445  1.00 20.00     0.129 C 
BRANCH   8   9
HETATM    9  C8  UNL     1     -34.526  17.373  -1.346  1.00 20.00     0.388 C 
HETATM   10  F10 UNL     1     -35.132  18.494  -1.789  1.00 20.00    -0.171 F 
HETATM   11  F11 UNL     1     -33.648  17.735  -0.384  1.00 20.00    -0.171 F 
HETATM   12  F12 UNL     1     -35.462  16.589  -0.770  1.00 20.00    -0.171 F 
ENDBRANCH   8   9
ENDBRANCH   6   8
TORSDOF 2
ENDMDL
MODEL 7
REMARK VINA RESULT:      -4.5     10.526     11.617
REMARK  2 active torsions:
REMARK  status: ('A' for Active; 'I' for Inactive)
REMARK    1  A    between atoms: C6_6  and  C7_7 
REMARK    2  A    between atoms: C7_7  and  C8_8 
ROOT
HETATM    1  C1  UNL     1     -34.173  16.384  -5.025  1.00 20.00     0.131 C 
HETATM    2  C2  UNL     1     -35.333  16.170  -5.974  1.00 20.00     0.079 C 
HETATM    3  C3  UNL     1     -35.545  14.689  -6.250  1.00 20.00     0.007 C 
HETATM    4  C4  UNL     1     -35.666  13.884  -4.960  1.00 20.00     0.001 C 
HETATM    5  C5  UNL     1     -34.432  14.077  -4.081  1.00 20.00     0.012 C 
HETATM    6  C6  UNL     1     -34.145  15.547  -3.756  1.00 20.00     0.064 C 
HETATM    7  O9  UNL     1     -33.340  17.268  -5.225  1.00 20.00    -0.298 OA
ENDROOT
BRANCH   6   8
HETATM    8  C7  UNL     1     -35.116  16.127  -2.732  1.00 20.00     0.129 C 
BRANCH   8   9
HETATM    9  C8  UNL     1     -34.428  17.103  -1.822  1.00 20.00     0.388 C 
HETATM   10  F10 UNL     1     -34.849  16.986  -0.545  1.00 20.00    -0.171 F 
HETATM   11  F11 UNL     1     -34.700  18.364  -2.228  1.00 20.00    -0.171 F 
HETATM   12  F12 UNL     1     -33.087  16.949  -1.839  1.00 20.00    -0.171 F 
ENDBRANCH   8   9
ENDBRANCH   6   8
TORSDOF 2
ENDMDL
MODEL 8
REMARK VINA RESULT:      -4.5     10.649     11.745
REMARK  2 active torsions:
REMARK  status: ('A' for Active; 'I' for Inactive)
REMARK    1  A    between atoms: C6_6  and  C7_7 
REMARK    2  A    between atoms: C7_7  and  C8_8 
ROOT
HETATM    1  C1  UNL     1     -33.909  14.920  -4.360  1.00 20.00     0.131 C 
HETATM    2  C2  UNL     1     -32.979  15.352  -5.475  1.00 20.00     0.079 C 
HETATM    3  C3  UNL     1     -33.672  16.327  -6.414  1.00 20.00     0.007 C 
HETATM    4  C4  UNL     1     -34.291  17.499  -5.659  1.00 20.00     0.001 C 
HETATM    5  C5  UNL     1     -35.280  17.004  -4.604  1.00 20.00     0.012 C 
HETATM    6  C6  UNL     1     -34.659  16.012  -3.614  1.00 20.00     0.064 C 
HETATM    7  O9  UNL     1     -33.978  13.742  -4.008  1.00 20.00    -0.298 OA
ENDROOT
BRANCH   6   8
HETATM    8  C7  UNL     1     -33.731  16.683  -2.607  1.00 20.00     0.129 C 
BRANCH   8   9
HETATM    9  C8  UNL     1     -34.506  17.299  -1.478  1.00 20.00     0.388 C 
HETATM   10  F10 UNL     1     -35.040  18.490  -1.823  1.00 20.00    -0.171 F 
HETATM   11  F11 UNL     1     -33.680  17.511  -0.429  1.00 20.00    -0.171 F 
HETATM   12  F12 UNL     1     -35.506  16.496  -1.055  1.00 20.00    -0.171 F 
ENDBRANCH   8   9
ENDBRANCH   6   8
TORSDOF 2
ENDMDL
MODEL 9
REMARK VINA RESULT:      -4.4     10.566     11.399
REMARK  2 active torsions:
REMARK  status: ('A' for Active; 'I' for Inactive)
REMARK    1  A    between atoms: C6_6  and  C7_7 
REMARK    2  A    between atoms: C7_7  and  C8_8 
ROOT
HETATM    1  C1  UNL     1     -36.334  13.866  -5.340  1.00 20.00     0.131 C 
HETATM    2  C2  UNL     1     -37.207  14.354  -6.477  1.00 20.00     0.079 C 
HETATM    3  C3  UNL     1     -38.325  15.245  -5.960  1.00 20.00     0.007 C 
HETATM    4  C4  UNL     1     -37.791  16.374  -5.085  1.00 20.00     0.001 C 
HETATM    5  C5  UNL     1     -36.988  15.818  -3.910  1.00 20.00     0.012 C 
HETATM    6  C6  UNL     1     -35.838  14.903  -4.345  1.00 20.00     0.064 C 
HETATM    7  O9  UNL     1     -35.962  12.694  -5.279  1.00 20.00    -0.298 OA
ENDROOT
BRANCH   6   8
HETATM    8  C7  UNL     1     -34.664  15.673  -4.943  1.00 20.00     0.129 C 
BRANCH   8   9
HETATM    9  C8  UNL     1     -33.364  15.257  -4.315  1.00 20.00     0.388 C 
HETATM   10  F10 UNL     1     -33.102  15.953  -3.189  1.00 20.00    -0.171 F 
HETATM   11  F11 UNL     1     -32.353  15.488  -5.183  1.00 20.00    -0.171 F 
HETATM   12  F12 UNL     1     -33.349  13.942  -4.010  1.00 20.00    -0.171 F 
ENDBRANCH   8   9
ENDBRANCH   6   8
TORSDOF 2
ENDMDL
