MODEL 1
REMARK VINA RESULT:      -6.6      0.000      0.000
REMARK  2 active torsions:
REMARK  status: ('A' for Active; 'I' for Inactive)
REMARK    1  A    between atoms: C1_1  and  C3_3 
REMARK    2  A    between atoms: C2_2  and  C4_4 
ROOT
HETATM    1  C1  UNL     1     -33.018   7.228   4.188  1.00 20.00     0.223 C 
HETATM    2  C2  UNL     1     -33.798   6.669   5.128  1.00 20.00     0.223 C 
HETATM    3  F5  UNL     1     -32.180   8.225   4.559  1.00 20.00    -0.200 F 
HETATM    4  F6  UNL     1     -33.735   7.156   6.390  1.00 20.00    -0.200 F 
ENDROOT
BRANCH   1   5
HETATM    5  C3  UNL     1     -32.985   6.820   2.752  1.00 20.00     0.377 C 
HETATM    6  F7  UNL     1     -34.227   6.627   2.229  1.00 20.00    -0.180 F 
HETATM    7  F8  UNL     1     -32.335   5.632   2.614  1.00 20.00    -0.180 F 
HETATM    8 CL11 UNL     1     -32.143   8.051   1.791  1.00 20.00    -0.040 Cl
ENDBRANCH   1   5
BRANCH   2   9
HETATM    9  C4  UNL     1     -34.757   5.551   4.884  1.00 20.00     0.377 C 
HETATM   10  F9  UNL     1     -35.366   5.189   6.046  1.00 20.00    -0.180 F 
HETATM   11  F10 UNL     1     -35.758   5.889   4.028  1.00 20.00    -0.180 F 
HETATM   12 CL12 UNL     1     -33.893   4.146   4.227  1.00 20.00    -0.040 Cl
ENDBRANCH   2   9
TORSDOF 2
ENDMDL
MODEL 2
REMARK VINA RESULT:      -6.6      0.003      3.405
REMARK  2 active torsions:
REMARK  status: ('A' for Active; 'I' for Inactive)
REMARK    1  A    between atoms: C1_1  and  C3_3 
REMARK    2  A    between atoms: C2_2  and  C4_4 
ROOT
HETATM    1  C1  UNL     1     -33.797   6.668   5.130  1.00 20.00     0.223 C 
HETATM    2  C2  UNL     1     -33.017   7.228   4.192  1.00 20.00     0.223 C 
HETATM    3  F5  UNL     1     -33.734   7.154   6.393  1.00 20.00    -0.200 F 
HETATM    4  F6  UNL     1     -32.179   8.225   4.563  1.00 20.00    -0.200 F 
ENDROOT
BRANCH   1   5
HETATM    5  C3  UNL     1     -34.757   5.549   4.886  1.00 20.00     0.377 C 
HETATM    6  F7  UNL     1     -35.759   5.889   4.032  1.00 20.00    -0.180 F 
HETATM    7  F8  UNL     1     -35.365   5.187   6.049  1.00 20.00    -0.180 F 
HETATM    8 CL11 UNL     1     -33.894   4.145   4.228  1.00 20.00    -0.040 Cl
ENDBRANCH   1   5
BRANCH   2   9
HETATM    9  C4  UNL     1     -32.985   6.820   2.755  1.00 20.00     0.377 C 
HETATM   10  F9  UNL     1     -32.335   5.633   2.615  1.00 20.00    -0.180 F 
HETATM   11  F10 UNL     1     -34.226   6.630   2.232  1.00 20.00    -0.180 F 
HETATM   12 CL12 UNL     1     -32.143   8.053   1.795  1.00 20.00    -0.040 Cl
ENDBRANCH   2   9
TORSDOF 2
ENDMDL
MODEL 3
REMARK VINA RESULT:      -6.2      0.923      1.544
REMARK  2 active torsions:
REMARK  status: ('A' for Active; 'I' for Inactive)
REMARK    1  A    between atoms: C1_1  and  C3_3 
REMARK    2  A    between atoms: C2_2  and  C4_4 
ROOT
HETATM    1  C1  UNL     1     -32.977   7.463   4.513  1.00 20.00     0.223 C 
HETATM    2  C2  UNL     1     -34.044   6.692   4.780  1.00 20.00     0.223 C 
HETATM    3  F5  UNL     1     -32.500   8.263   5.496  1.00 20.00    -0.200 F 
HETATM    4  F6  UNL     1     -34.611   6.781   6.006  1.00 20.00    -0.200 F 
ENDROOT
BRANCH   1   5
HETATM    5  C3  UNL     1     -32.252   7.496   3.207  1.00 20.00     0.377 C 
HETATM    6  F7  UNL     1     -32.089   6.260   2.662  1.00 20.00    -0.180 F 
HETATM    7  F8  UNL     1     -30.998   7.998   3.376  1.00 20.00    -0.180 F 
HETATM    8 CL11 UNL     1     -33.130   8.519   2.053  1.00 20.00    -0.040 Cl
ENDBRANCH   1   5
BRANCH   2   9
HETATM    9  C4  UNL     1     -34.674   5.745   3.812  1.00 20.00     0.377 C 
HETATM   10  F9  UNL     1     -36.030   5.807   3.906  1.00 20.00    -0.180 F 
HETATM   11  F10 UNL     1     -34.376   6.035   2.517  1.00 20.00    -0.180 F 
HETATM   12 CL12 UNL     1     -34.150   4.085   4.161  1.00 20.00    -0.040 Cl
ENDBRANCH   2   9
TORSDOF 2
ENDMDL
MODEL 4
REMARK VINA RESULT:      -6.2      0.964      3.571
REMARK  2 active torsions:
REMARK  status: ('A' for Active; 'I' for Inactive)
REMARK    1  A    between atoms: C1_1  and  C3_3 
REMARK    2  A    between atoms: C2_2  and  C4_4 
ROOT
HETATM    1  C1  UNL     1     -33.655   6.798   4.972  1.00 20.00     0.223 C 
HETATM    2  C2  UNL     1     -32.873   7.447   4.094  1.00 20.00     0.223 C 
HETATM    3  F5  UNL     1     -33.693   7.245   6.250  1.00 20.00    -0.200 F 
HETATM    4  F6  UNL     1     -32.134   8.492   4.538  1.00 20.00    -0.200 F 
ENDROOT
BRANCH   1   5
HETATM    5  C3  UNL     1     -34.511   5.620   4.644  1.00 20.00     0.377 C 
HETATM    6  F7  UNL     1     -33.905   4.746   3.795  1.00 20.00    -0.180 F 
HETATM    7  F8  UNL     1     -35.648   6.024   4.015  1.00 20.00    -0.180 F 
HETATM    8 CL11 UNL     1     -34.953   4.760   6.132  1.00 20.00    -0.040 Cl
ENDBRANCH   1   5
BRANCH   2   9
HETATM    9  C4  UNL     1     -32.737   7.092   2.649  1.00 20.00     0.377 C 
HETATM   10  F9  UNL     1     -32.121   5.886   2.516  1.00 20.00    -0.180 F 
HETATM   11  F10 UNL     1     -33.935   6.971   2.019  1.00 20.00    -0.180 F 
HETATM   12 CL12 UNL     1     -31.772   8.324   1.811  1.00 20.00    -0.040 Cl
ENDBRANCH   2   9
TORSDOF 2
ENDMDL
MODEL 5
REMARK VINA RESULT:      -5.4      1.710      2.472
REMARK  2 active torsions:
REMARK  status: ('A' for Active; 'I' for Inactive)
REMARK    1  A    between atoms: C1_1  and  C3_3 
REMARK    2  A    between atoms: C2_2  and  C4_4 
ROOT
HETATM    1  C1  UNL     1     -33.165   5.652   3.033  1.00 20.00     0.223 C 
HETATM    2  C2  UNL     1     -33.855   4.997   3.981  1.00 20.00     0.223 C 
HETATM    3  F5  UNL     1     -32.436   4.925   2.152  1.00 20.00    -0.200 F 
HETATM    4  F6  UNL     1     -33.758   3.648   4.032  1.00 20.00    -0.200 F 
ENDROOT
BRANCH   1   5
HETATM    5  C3  UNL     1     -33.152   7.135   2.857  1.00 20.00     0.377 C 
HETATM    6  F7  UNL     1     -34.241   7.742   3.402  1.00 20.00    -0.180 F 
HETATM    7  F8  UNL     1     -33.170   7.453   1.534  1.00 20.00    -0.180 F 
HETATM    8 CL11 UNL     1     -31.688   7.818   3.592  1.00 20.00    -0.040 Cl
ENDBRANCH   1   5
BRANCH   2   9
HETATM    9  C4  UNL     1     -34.719   5.650   5.011  1.00 20.00     0.377 C 
HETATM   10  F9  UNL     1     -35.798   6.233   4.421  1.00 20.00    -0.180 F 
HETATM   11  F10 UNL     1     -35.220   4.770   5.917  1.00 20.00    -0.180 F 
HETATM   12 CL12 UNL     1     -33.794   6.896   5.874  1.00 20.00    -0.040 Cl
ENDBRANCH   2   9
TORSDOF 2
ENDMDL
MODEL 6
REMARK VINA RESULT:      -5.4      1.714      3.959
REMARK  2 active torsions:
REMARK  status: ('A' for Active; 'I' for Inactive)
REMARK    1  A    between atoms: C1_1  and  C3_3 
REMARK    2  A    between atoms: C2_2  and  C4_4 
ROOT
HETATM    1  C1  UNL     1     -33.845   5.011   3.966  1.00 20.00     0.223 C 
HETATM    2  C2  UNL     1     -33.156   5.674   3.023  1.00 20.00     0.223 C 
HETATM    3  F5  UNL     1     -33.742   3.661   4.008  1.00 20.00    -0.200 F 
HETATM    4  F6  UNL     1     -32.424   4.957   2.138  1.00 20.00    -0.200 F 
ENDROOT
BRANCH   1   5
HETATM    5  C3  UNL     1     -34.711   5.654   5.000  1.00 20.00     0.377 C 
HETATM    6  F7  UNL     1     -35.208   4.764   5.901  1.00 20.00    -0.180 F 
HETATM    7  F8  UNL     1     -35.793   6.234   4.413  1.00 20.00    -0.180 F 
HETATM    8 CL11 UNL     1     -33.793   6.898   5.870  1.00 20.00    -0.040 Cl
ENDBRANCH   1   5
BRANCH   2   9
HETATM    9  C4  UNL     1     -33.148   7.159   2.858  1.00 20.00     0.377 C 
HETATM   10  F9  UNL     1     -33.150   7.487   1.538  1.00 20.00    -0.180 F 
HETATM   11  F10 UNL     1     -34.245   7.756   3.394  1.00 20.00    -0.180 F 
HETATM   12 CL12 UNL     1     -31.696   7.843   3.617  1.00 20.00    -0.040 Cl
ENDBRANCH   2   9
TORSDOF 2
ENDMDL
MODEL 7
REMARK VINA RESULT:      -5.1      1.279      2.439
REMARK  2 active torsions:
REMARK  status: ('A' for Active; 'I' for Inactive)
REMARK    1  A    between atoms: C1_1  and  C3_3 
REMARK    2  A    between atoms: C2_2  and  C4_4 
ROOT
HETATM    1  C1  UNL     1     -32.839   6.248   2.869  1.00 20.00     0.223 C 
HETATM    2  C2  UNL     1     -33.606   5.483   3.663  1.00 20.00     0.223 C 
HETATM    3  F5  UNL     1     -32.196   5.658   1.833  1.00 20.00    -0.200 F 
HETATM    4  F6  UNL     1     -33.668   4.154   3.410  1.00 20.00    -0.200 F 
ENDROOT
BRANCH   1   5
HETATM    5  C3  UNL     1     -32.650   7.721   3.028  1.00 20.00     0.377 C 
HETATM    6  F7  UNL     1     -31.951   8.047   4.149  1.00 20.00    -0.180 F 
HETATM    7  F8  UNL     1     -33.856   8.342   3.147  1.00 20.00    -0.180 F 
HETATM    8 CL11 UNL     1     -31.803   8.379   1.614  1.00 20.00    -0.040 Cl
ENDBRANCH   1   5
BRANCH   2   9
HETATM    9  C4  UNL     1     -34.391   5.985   4.830  1.00 20.00     0.377 C 
HETATM   10  F9  UNL     1     -33.670   6.908   5.523  1.00 20.00    -0.180 F 
HETATM   11  F10 UNL     1     -35.542   6.610   4.464  1.00 20.00    -0.180 F 
HETATM   12 CL12 UNL     1     -34.792   4.637   5.914  1.00 20.00    -0.040 Cl
ENDBRANCH   2   9
TORSDOF 2
ENDMDL
MODEL 8
REMARK VINA RESULT:      -5.1      1.280      4.065
REMARK  2 active torsions:
REMARK  status: ('A' for Active; 'I' for Inactive)
REMARK    1  A    between atoms: C1_1  and  C3_3 
REMARK    2  A    between atoms: C2_2  and  C4_4 
ROOT
HETATM    1  C1  UNL     1     -33.625   5.483   3.650  1.00 20.00     0.223 C 
HETATM    2  C2  UNL     1     -32.856   6.238   2.849  1.00 20.00     0.223 C 
HETATM    3  F5  UNL     1     -33.693   4.152   3.407  1.00 20.00    -0.200 F 
HETATM    4  F6  UNL     1     -32.217   5.637   1.817  1.00 20.00    -0.200 F 
ENDROOT
BRANCH   1   5
HETATM    5  C3  UNL     1     -34.407   5.997   4.815  1.00 20.00     0.377 C 
HETATM    6  F7  UNL     1     -35.552   6.631   4.444  1.00 20.00    -0.180 F 
HETATM    7  F8  UNL     1     -33.677   6.916   5.504  1.00 20.00    -0.180 F 
HETATM    8 CL11 UNL     1     -34.820   4.658   5.904  1.00 20.00    -0.040 Cl
ENDBRANCH   1   5
BRANCH   2   9
HETATM    9  C4  UNL     1     -32.660   7.712   2.997  1.00 20.00     0.377 C 
HETATM   10  F9  UNL     1     -33.863   8.339   3.104  1.00 20.00    -0.180 F 
HETATM   11  F10 UNL     1     -31.965   8.044   4.117  1.00 20.00    -0.180 F 
HETATM   12 CL12 UNL     1     -31.803   8.353   1.581  1.00 20.00    -0.040 Cl
ENDBRANCH   2   9
TORSDOF 2
ENDMDL
MODEL 9
REMARK VINA RESULT:      -5.1      1.648      3.858
REMARK  2 active torsions:
REMARK  status: ('A' for Active; 'I' for Inactive)
REMARK    1  A    between atoms: C1_1  and  C3_3 
REMARK    2  A    between atoms: C2_2  and  C4_4 
ROOT
HETATM    1  C1  UNL     1     -33.358   5.359   3.104  1.00 20.00     0.223 C 
HETATM    2  C2  UNL     1     -32.709   6.511   2.865  1.00 20.00     0.223 C 
HETATM    3  F5  UNL     1     -33.074   4.288   2.325  1.00 20.00    -0.200 F 
HETATM    4  F6  UNL     1     -31.832   6.553   1.835  1.00 20.00    -0.200 F 
ENDROOT
BRANCH   1   5
HETATM    5  C3  UNL     1     -34.367   5.157   4.186  1.00 20.00     0.377 C 
HETATM    6  F7  UNL     1     -33.964   5.657   5.386  1.00 20.00    -0.180 F 
HETATM    7  F8  UNL     1     -34.582   3.828   4.389  1.00 20.00    -0.180 F 
HETATM    8 CL11 UNL     1     -35.902   5.924   3.733  1.00 20.00    -0.040 Cl
ENDBRANCH   1   5
BRANCH   2   9
HETATM    9  C4  UNL     1     -32.895   7.771   3.645  1.00 20.00     0.377 C 
HETATM   10  F9  UNL     1     -34.202   8.148   3.629  1.00 20.00    -0.180 F 
HETATM   11  F10 UNL     1     -32.560   7.637   4.956  1.00 20.00    -0.180 F 
HETATM   12 CL12 UNL     1     -31.915   9.071   2.935  1.00 20.00    -0.040 Cl
ENDBRANCH   2   9
TORSDOF 2
ENDMDL
