MODEL 1
REMARK VINA RESULT:      -4.1      0.000      0.000
REMARK  1 active torsions:
REMARK  status: ('A' for Active; 'I' for Inactive)
REMARK    1  A    between atoms: C4_4  and  C6_6 
ROOT
HETATM    1  C1  UNL     1     -36.584  15.665  -4.025  1.00 20.00     0.039 A 
HETATM    2  C2  UNL     1     -34.445  14.626  -4.037  1.00 20.00     0.129 A 
HETATM    3  C3  UNL     1     -36.179  13.605  -5.145  1.00 20.00     0.140 A 
HETATM    4  C4  UNL     1     -35.250  15.679  -3.634  1.00 20.00    -0.000 A 
HETATM    5  C5  UNL     1     -37.066  14.611  -4.794  1.00 20.00     0.052 A 
HETATM    6  N8  UNL     1     -34.877  13.586  -4.784  1.00 20.00    -0.271 NA
HETATM    7 CL10 UNL     1     -38.706  14.558  -5.294  1.00 20.00    -0.083 Cl
ENDROOT
BRANCH   4   8
HETATM    8  C6  UNL     1     -34.716  16.765  -2.831  1.00 20.00     0.017 C 
HETATM    9  C7  UNL     1     -35.149  16.881  -1.368  1.00 20.00     0.062 C 
HETATM   10  S9  UNL     1     -33.587  17.903  -3.402  1.00 20.00    -0.084 SA
ENDBRANCH   4   8
TORSDOF 1
ENDMDL
MODEL 2
REMARK VINA RESULT:      -4.0      1.889      2.173
REMARK  1 active torsions:
REMARK  status: ('A' for Active; 'I' for Inactive)
REMARK    1  A    between atoms: C4_4  and  C6_6 
ROOT
HETATM    1  C1  UNL     1     -34.980  15.298  -3.610  1.00 20.00     0.039 A 
HETATM    2  C2  UNL     1     -33.352  16.832  -4.417  1.00 20.00     0.129 A 
HETATM    3  C3  UNL     1     -34.090  15.163  -5.812  1.00 20.00     0.140 A 
HETATM    4  C4  UNL     1     -34.171  16.406  -3.385  1.00 20.00    -0.000 A 
HETATM    5  C5  UNL     1     -34.944  14.659  -4.844  1.00 20.00     0.052 A 
HETATM    6  N8  UNL     1     -33.290  16.236  -5.629  1.00 20.00    -0.271 NA
HETATM    7 CL10 UNL     1     -35.927  13.289  -5.160  1.00 20.00    -0.083 Cl
ENDROOT
BRANCH   4   8
HETATM    8  C6  UNL     1     -34.185  17.096  -2.106  1.00 20.00     0.017 C 
HETATM    9  C7  UNL     1     -35.402  16.932  -1.195  1.00 20.00     0.062 C 
HETATM   10  S9  UNL     1     -32.898  18.046  -1.526  1.00 20.00    -0.084 SA
ENDBRANCH   4   8
TORSDOF 1
ENDMDL
MODEL 3
REMARK VINA RESULT:      -4.0      3.731      4.946
REMARK  1 active torsions:
REMARK  status: ('A' for Active; 'I' for Inactive)
REMARK    1  A    between atoms: C4_4  and  C6_6 
ROOT
HETATM    1  C1  UNL     1     -33.203  17.133  -2.229  1.00 20.00     0.039 A 
HETATM    2  C2  UNL     1     -35.497  16.511  -2.168  1.00 20.00     0.129 A 
HETATM    3  C3  UNL     1     -34.656  17.815  -0.474  1.00 20.00     0.140 A 
HETATM    4  C4  UNL     1     -34.272  16.460  -2.811  1.00 20.00    -0.000 A 
HETATM    5  C5  UNL     1     -33.390  17.825  -1.038  1.00 20.00     0.052 A 
HETATM    6  N8  UNL     1     -35.718  17.173  -1.010  1.00 20.00    -0.271 NA
HETATM    7 CL10 UNL     1     -32.096  18.666  -0.290  1.00 20.00    -0.083 Cl
ENDROOT
BRANCH   4   8
HETATM    8  C6  UNL     1     -34.108  15.728  -4.055  1.00 20.00     0.017 C 
HETATM    9  C7  UNL     1     -34.555  14.266  -4.113  1.00 20.00     0.062 C 
HETATM   10  S9  UNL     1     -33.491  16.413  -5.485  1.00 20.00    -0.084 SA
ENDBRANCH   4   8
TORSDOF 1
ENDMDL
MODEL 4
REMARK VINA RESULT:      -3.9      3.692      5.002
REMARK  1 active torsions:
REMARK  status: ('A' for Active; 'I' for Inactive)
REMARK    1  A    between atoms: C4_4  and  C6_6 
ROOT
HETATM    1  C1  UNL     1     -35.169  17.014  -1.086  1.00 20.00     0.039 A 
HETATM    2  C2  UNL     1     -33.292  17.450  -2.479  1.00 20.00     0.129 A 
HETATM    3  C3  UNL     1     -33.367  18.403  -0.390  1.00 20.00     0.140 A 
HETATM    4  C4  UNL     1     -34.513  16.822  -2.297  1.00 20.00    -0.000 A 
HETATM    5  C5  UNL     1     -34.592  17.818  -0.110  1.00 20.00     0.052 A 
HETATM    6  N8  UNL     1     -32.701  18.239  -1.554  1.00 20.00    -0.271 NA
HETATM    7 CL10 UNL     1     -35.372  18.079   1.396  1.00 20.00    -0.083 Cl
ENDROOT
BRANCH   4   8
HETATM    8  C6  UNL     1     -35.088  15.987  -3.336  1.00 20.00     0.017 C 
HETATM    9  C7  UNL     1     -34.240  14.861  -3.931  1.00 20.00     0.062 C 
HETATM   10  S9  UNL     1     -36.683  16.148  -3.909  1.00 20.00    -0.084 SA
ENDBRANCH   4   8
TORSDOF 1
ENDMDL
MODEL 5
REMARK VINA RESULT:      -3.9     10.543     11.158
REMARK  1 active torsions:
REMARK  status: ('A' for Active; 'I' for Inactive)
REMARK    1  A    between atoms: C4_4  and  C6_6 
ROOT
HETATM    1  C1  UNL     1     -33.299   7.595   1.552  1.00 20.00     0.039 A 
HETATM    2  C2  UNL     1     -32.093   7.657   3.601  1.00 20.00     0.129 A 
HETATM    3  C3  UNL     1     -31.796   9.359   2.088  1.00 20.00     0.140 A 
HETATM    4  C4  UNL     1     -32.999   7.010   2.778  1.00 20.00    -0.000 A 
HETATM    5  C5  UNL     1     -32.690   8.792   1.193  1.00 20.00     0.052 A 
HETATM    6  N8  UNL     1     -31.481   8.820   3.286  1.00 20.00    -0.271 NA
HETATM    7 CL10 UNL     1     -33.032   9.543  -0.310  1.00 20.00    -0.083 Cl
ENDROOT
BRANCH   4   8
HETATM    8  C6  UNL     1     -33.619   5.760   3.182  1.00 20.00     0.017 C 
HETATM    9  C7  UNL     1     -33.082   4.450   2.602  1.00 20.00     0.062 C 
HETATM   10  S9  UNL     1     -34.887   5.651   4.312  1.00 20.00    -0.084 SA
ENDBRANCH   4   8
TORSDOF 1
ENDMDL
MODEL 6
REMARK VINA RESULT:      -3.8     11.640     12.014
REMARK  1 active torsions:
REMARK  status: ('A' for Active; 'I' for Inactive)
REMARK    1  A    between atoms: C4_4  and  C6_6 
ROOT
HETATM    1  C1  UNL     1     -33.598   6.956   4.402  1.00 20.00     0.039 A 
HETATM    2  C2  UNL     1     -32.983   5.739   2.454  1.00 20.00     0.129 A 
HETATM    3  C3  UNL     1     -34.243   4.691   4.063  1.00 20.00     0.140 A 
HETATM    4  C4  UNL     1     -32.943   6.920   3.176  1.00 20.00    -0.000 A 
HETATM    5  C5  UNL     1     -34.263   5.825   4.862  1.00 20.00     0.052 A 
HETATM    6  N8  UNL     1     -33.618   4.620   2.868  1.00 20.00    -0.271 NA
HETATM    7 CL10 UNL     1     -35.081   5.830   6.369  1.00 20.00    -0.083 Cl
ENDROOT
BRANCH   4   8
HETATM    8  C6  UNL     1     -32.240   8.085   2.668  1.00 20.00     0.017 C 
HETATM    9  C7  UNL     1     -31.075   8.654   3.481  1.00 20.00     0.062 C 
HETATM   10  S9  UNL     1     -32.598   8.838   1.185  1.00 20.00    -0.084 SA
ENDBRANCH   4   8
TORSDOF 1
ENDMDL
MODEL 7
REMARK VINA RESULT:      -3.8      4.297      5.319
REMARK  1 active torsions:
REMARK  status: ('A' for Active; 'I' for Inactive)
REMARK    1  A    between atoms: C4_4  and  C6_6 
ROOT
HETATM    1  C1  UNL     1     -34.885  17.321  -0.533  1.00 20.00     0.039 A 
HETATM    2  C2  UNL     1     -33.020  18.674   0.055  1.00 20.00     0.129 A 
HETATM    3  C3  UNL     1     -33.064  17.686  -2.019  1.00 20.00     0.140 A 
HETATM    4  C4  UNL     1     -34.244  18.126   0.402  1.00 20.00    -0.000 A 
HETATM    5  C5  UNL     1     -34.291  17.091  -1.768  1.00 20.00     0.052 A 
HETATM    6  N8  UNL     1     -32.412  18.474  -1.135  1.00 20.00    -0.271 NA
HETATM    7 CL10 UNL     1     -35.050  16.103  -2.947  1.00 20.00    -0.083 Cl
ENDROOT
BRANCH   4   8
HETATM    8  C6  UNL     1     -34.839  18.385   1.701  1.00 20.00     0.017 C 
HETATM    9  C7  UNL     1     -33.941  18.368   2.939  1.00 20.00     0.062 C 
HETATM   10  S9  UNL     1     -36.483  18.761   1.934  1.00 20.00    -0.084 SA
ENDBRANCH   4   8
TORSDOF 1
ENDMDL
MODEL 8
REMARK VINA RESULT:      -3.8      6.318      8.027
REMARK  1 active torsions:
REMARK  status: ('A' for Active; 'I' for Inactive)
REMARK    1  A    between atoms: C4_4  and  C6_6 
ROOT
HETATM    1  C1  UNL     1     -33.216  18.644   2.239  1.00 20.00     0.039 A 
HETATM    2  C2  UNL     1     -31.562  18.756   0.533  1.00 20.00     0.129 A 
HETATM    3  C3  UNL     1     -30.944  19.177   2.705  1.00 20.00     0.140 A 
HETATM    4  C4  UNL     1     -32.880  18.533   0.894  1.00 20.00    -0.000 A 
HETATM    5  C5  UNL     1     -32.235  18.972   3.168  1.00 20.00     0.052 A 
HETATM    6  N8  UNL     1     -30.582  19.077   1.407  1.00 20.00    -0.271 NA
HETATM    7 CL10 UNL     1     -32.609  19.120   4.835  1.00 20.00    -0.083 Cl
ENDROOT
BRANCH   4   8
HETATM    8  C6  UNL     1     -33.882  18.191  -0.101  1.00 20.00     0.017 C 
HETATM    9  C7  UNL     1     -33.421  17.814  -1.511  1.00 20.00     0.062 C 
HETATM   10  S9  UNL     1     -35.553  18.132   0.215  1.00 20.00    -0.084 SA
ENDBRANCH   4   8
TORSDOF 1
ENDMDL
MODEL 9
REMARK VINA RESULT:      -3.7      3.086      4.190
REMARK  1 active torsions:
REMARK  status: ('A' for Active; 'I' for Inactive)
REMARK    1  A    between atoms: C4_4  and  C6_6 
ROOT
HETATM    1  C1  UNL     1     -35.003  15.563  -3.665  1.00 20.00     0.039 A 
HETATM    2  C2  UNL     1     -33.724  16.450  -5.462  1.00 20.00     0.129 A 
HETATM    3  C3  UNL     1     -33.771  17.588  -3.467  1.00 20.00     0.140 A 
HETATM    4  C4  UNL     1     -34.558  15.457  -4.978  1.00 20.00    -0.000 A 
HETATM    5  C5  UNL     1     -34.607  16.647  -2.889  1.00 20.00     0.052 A 
HETATM    6  N8  UNL     1     -33.318  17.517  -4.739  1.00 20.00    -0.271 NA
HETATM    7 CL10 UNL     1     -35.136  16.813  -1.266  1.00 20.00    -0.083 Cl
ENDROOT
BRANCH   4   8
HETATM    8  C6  UNL     1     -34.954  14.337  -5.814  1.00 20.00     0.017 C 
HETATM    9  C7  UNL     1     -36.013  13.365  -5.291  1.00 20.00     0.062 C 
HETATM   10  S9  UNL     1     -34.346  14.060  -7.379  1.00 20.00    -0.084 SA
ENDBRANCH   4   8
TORSDOF 1
ENDMDL
