MODEL 1
REMARK VINA RESULT:      -5.0      0.000      0.000
REMARK  1 active torsions:
REMARK  status: ('A' for Active; 'I' for Inactive)
REMARK    1  A    between atoms: C3_3  and  C9_9 
ROOT
HETATM    1  C1  UNL     1     -33.310  17.037  -2.759  1.00 20.00     0.017 A 
HETATM    2  C2  UNL     1     -33.089  17.718  -1.526  1.00 20.00     0.032 A 
HETATM    3  C3  UNL     1     -34.597  16.553  -2.859  1.00 20.00    -0.011 A 
HETATM    4  C4  UNL     1     -34.215  17.728  -0.732  1.00 20.00     0.075 A 
HETATM    5  S11 UNL     1     -35.531  16.920  -1.473  1.00 20.00    -0.082 SA
HETATM    6 CL12 UNL     1     -34.399  18.430   0.820  1.00 20.00    -0.076 Cl
ENDROOT
BRANCH   3   7
HETATM    7  C9  UNL     1     -35.224  15.782  -3.997  1.00 20.00     0.033 C 
HETATM    8  C7  UNL     1     -36.737  15.582  -3.853  1.00 20.00     0.088 C 
HETATM    9  C5  UNL     1     -36.964  14.362  -4.710  1.00 20.00     0.127 C 
HETATM   10  C6  UNL     1     -35.675  13.681  -5.095  1.00 20.00     0.079 C 
HETATM   11  O10 UNL     1     -38.072  13.969  -5.056  1.00 20.00    -0.298 OA
HETATM   12  C8  UNL     1     -34.671  14.364  -4.172  1.00 20.00     0.018 C 
ENDBRANCH   3   7
TORSDOF 1
ENDMDL
MODEL 2
REMARK VINA RESULT:      -4.9      3.825      5.098
REMARK  1 active torsions:
REMARK  status: ('A' for Active; 'I' for Inactive)
REMARK    1  A    between atoms: C3_3  and  C9_9 
ROOT
HETATM    1  C1  UNL     1     -33.368  16.593  -4.957  1.00 20.00     0.017 A 
HETATM    2  C2  UNL     1     -33.428  15.897  -6.198  1.00 20.00     0.032 A 
HETATM    3  C3  UNL     1     -33.984  15.895  -3.941  1.00 20.00    -0.011 A 
HETATM    4  C4  UNL     1     -34.088  14.693  -6.085  1.00 20.00     0.075 A 
HETATM    5  S11 UNL     1     -34.631  14.407  -4.486  1.00 20.00    -0.082 SA
HETATM    6 CL12 UNL     1     -34.390  13.540  -7.316  1.00 20.00    -0.076 Cl
ENDROOT
BRANCH   3   7
HETATM    7  C9  UNL     1     -34.135  16.285  -2.489  1.00 20.00     0.033 C 
HETATM    8  C7  UNL     1     -35.575  16.621  -2.082  1.00 20.00     0.088 C 
HETATM    9  C5  UNL     1     -35.352  17.500  -0.877  1.00 20.00     0.127 C 
HETATM   10  C6  UNL     1     -33.914  17.928  -0.736  1.00 20.00     0.079 C 
HETATM   11  O10 UNL     1     -36.240  17.827  -0.100  1.00 20.00    -0.298 OA
HETATM   12  C8  UNL     1     -33.331  17.526  -2.087  1.00 20.00     0.018 C 
ENDBRANCH   3   7
TORSDOF 1
ENDMDL
MODEL 3
REMARK VINA RESULT:      -4.8      1.896      2.386
REMARK  1 active torsions:
REMARK  status: ('A' for Active; 'I' for Inactive)
REMARK    1  A    between atoms: C3_3  and  C9_9 
ROOT
HETATM    1  C1  UNL     1     -35.518  16.694  -1.702  1.00 20.00     0.017 A 
HETATM    2  C2  UNL     1     -35.134  17.345  -0.494  1.00 20.00     0.032 A 
HETATM    3  C3  UNL     1     -34.556  16.812  -2.682  1.00 20.00    -0.011 A 
HETATM    4  C4  UNL     1     -33.893  17.936  -0.597  1.00 20.00     0.075 A 
HETATM    5  S11 UNL     1     -33.198  17.705  -2.145  1.00 20.00    -0.082 SA
HETATM    6 CL12 UNL     1     -33.048  18.818   0.604  1.00 20.00    -0.076 Cl
ENDROOT
BRANCH   3   7
HETATM    7  C9  UNL     1     -34.578  16.268  -4.092  1.00 20.00     0.033 C 
HETATM    8  C7  UNL     1     -34.707  14.743  -4.168  1.00 20.00     0.088 C 
HETATM    9  C5  UNL     1     -34.120  14.457  -5.528  1.00 20.00     0.127 C 
HETATM   10  C6  UNL     1     -33.407  15.651  -6.109  1.00 20.00     0.079 C 
HETATM   11  O10 UNL     1     -34.215  13.377  -6.097  1.00 20.00    -0.298 OA
HETATM   12  C8  UNL     1     -33.317  16.582  -4.904  1.00 20.00     0.018 C 
ENDBRANCH   3   7
TORSDOF 1
ENDMDL
MODEL 4
REMARK VINA RESULT:      -4.8     10.891     11.428
REMARK  1 active torsions:
REMARK  status: ('A' for Active; 'I' for Inactive)
REMARK    1  A    between atoms: C3_3  and  C9_9 
ROOT
HETATM    1  C1  UNL     1     -31.721   8.683   2.791  1.00 20.00     0.017 A 
HETATM    2  C2  UNL     1     -31.744   9.471   1.604  1.00 20.00     0.032 A 
HETATM    3  C3  UNL     1     -32.694   7.707   2.784  1.00 20.00    -0.011 A 
HETATM    4  C4  UNL     1     -32.735   9.068   0.735  1.00 20.00     0.075 A 
HETATM    5  S11 UNL     1     -33.630   7.744   1.351  1.00 20.00    -0.082 SA
HETATM    6 CL12 UNL     1     -33.120   9.728  -0.798  1.00 20.00    -0.076 Cl
ENDROOT
BRANCH   3   7
HETATM    7  C9  UNL     1     -32.998   6.675   3.845  1.00 20.00     0.033 C 
HETATM    8  C7  UNL     1     -33.747   5.445   3.320  1.00 20.00     0.088 C 
HETATM    9  C5  UNL     1     -34.410   4.936   4.575  1.00 20.00     0.127 C 
HETATM   10  C6  UNL     1     -34.339   5.929   5.706  1.00 20.00     0.079 C 
HETATM   11  O10 UNL     1     -34.945   3.837   4.665  1.00 20.00    -0.298 OA
HETATM   12  C8  UNL     1     -33.877   7.193   4.988  1.00 20.00     0.018 C 
ENDBRANCH   3   7
TORSDOF 1
ENDMDL
MODEL 5
REMARK VINA RESULT:      -4.8      3.825      5.444
REMARK  1 active torsions:
REMARK  status: ('A' for Active; 'I' for Inactive)
REMARK    1  A    between atoms: C3_3  and  C9_9 
ROOT
HETATM    1  C1  UNL     1     -33.442  15.497  -3.747  1.00 20.00     0.017 A 
HETATM    2  C2  UNL     1     -33.866  14.477  -4.648  1.00 20.00     0.032 A 
HETATM    3  C3  UNL     1     -34.507  16.172  -3.190  1.00 20.00    -0.011 A 
HETATM    4  C4  UNL     1     -35.239  14.412  -4.746  1.00 20.00     0.075 A 
HETATM    5  S11 UNL     1     -36.010  15.576  -3.754  1.00 20.00    -0.082 SA
HETATM    6 CL12 UNL     1     -36.173  13.343  -5.704  1.00 20.00    -0.076 Cl
ENDROOT
BRANCH   3   7
HETATM    7  C9  UNL     1     -34.484  17.311  -2.198  1.00 20.00     0.033 C 
HETATM    8  C7  UNL     1     -33.085  17.642  -1.664  1.00 20.00     0.088 C 
HETATM    9  C5  UNL     1     -33.412  18.315  -0.355  1.00 20.00     0.127 C 
HETATM   10  C6  UNL     1     -34.856  18.137   0.038  1.00 20.00     0.079 C 
HETATM   11  O10 UNL     1     -32.596  18.937   0.313  1.00 20.00    -0.298 OA
HETATM   12  C8  UNL     1     -35.318  17.059  -0.938  1.00 20.00     0.018 C 
ENDBRANCH   3   7
TORSDOF 1
ENDMDL
MODEL 6
REMARK VINA RESULT:      -4.7      3.903      5.579
REMARK  1 active torsions:
REMARK  status: ('A' for Active; 'I' for Inactive)
REMARK    1  A    between atoms: C3_3  and  C9_9 
ROOT
HETATM    1  C1  UNL     1     -36.524  15.220  -4.111  1.00 20.00     0.017 A 
HETATM    2  C2  UNL     1     -36.562  14.254  -5.157  1.00 20.00     0.032 A 
HETATM    3  C3  UNL     1     -35.302  15.853  -4.034  1.00 20.00    -0.011 A 
HETATM    4  C4  UNL     1     -35.367  14.184  -5.840  1.00 20.00     0.075 A 
HETATM    5  S11 UNL     1     -34.208  15.281  -5.220  1.00 20.00    -0.082 SA
HETATM    6 CL12 UNL     1     -34.971  13.168  -7.161  1.00 20.00    -0.076 Cl
ENDROOT
BRANCH   3   7
HETATM    7  C9  UNL     1     -34.860  16.930  -3.072  1.00 20.00     0.033 C 
HETATM    8  C7  UNL     1     -33.338  17.090  -2.973  1.00 20.00     0.088 C 
HETATM    9  C5  UNL     1     -33.189  17.724  -1.612  1.00 20.00     0.127 C 
HETATM   10  C6  UNL     1     -34.464  17.673  -0.811  1.00 20.00     0.079 C 
HETATM   11  O10 UNL     1     -32.148  18.224  -1.205  1.00 20.00    -0.298 OA
HETATM   12  C8  UNL     1     -35.311  16.700  -1.625  1.00 20.00     0.018 C 
ENDBRANCH   3   7
TORSDOF 1
ENDMDL
MODEL 7
REMARK VINA RESULT:      -4.7      1.813      2.068
REMARK  1 active torsions:
REMARK  status: ('A' for Active; 'I' for Inactive)
REMARK    1  A    between atoms: C3_3  and  C9_9 
ROOT
HETATM    1  C1  UNL     1     -33.552  16.428  -3.144  1.00 20.00     0.017 A 
HETATM    2  C2  UNL     1     -33.721  17.055  -1.875  1.00 20.00     0.032 A 
HETATM    3  C3  UNL     1     -34.759  16.130  -3.739  1.00 20.00    -0.011 A 
HETATM    4  C4  UNL     1     -35.051  17.212  -1.550  1.00 20.00     0.075 A 
HETATM    5  S11 UNL     1     -36.087  16.605  -2.770  1.00 20.00    -0.082 SA
HETATM    6 CL12 UNL     1     -35.709  17.912  -0.131  1.00 20.00    -0.076 Cl
ENDROOT
BRANCH   3   7
HETATM    7  C9  UNL     1     -35.010  15.469  -5.074  1.00 20.00     0.033 C 
HETATM    8  C7  UNL     1     -35.277  13.962  -4.982  1.00 20.00     0.088 C 
HETATM    9  C5  UNL     1     -34.898  13.502  -6.367  1.00 20.00     0.127 C 
HETATM   10  C6  UNL     1     -34.168  14.565  -7.147  1.00 20.00     0.079 C 
HETATM   11  O10 UNL     1     -35.157  12.389  -6.809  1.00 20.00    -0.298 OA
HETATM   12  C8  UNL     1     -33.843  15.586  -6.060  1.00 20.00     0.018 C 
ENDBRANCH   3   7
TORSDOF 1
ENDMDL
MODEL 8
REMARK VINA RESULT:      -4.6     10.466     10.970
REMARK  1 active torsions:
REMARK  status: ('A' for Active; 'I' for Inactive)
REMARK    1  A    between atoms: C3_3  and  C9_9 
ROOT
HETATM    1  C1  UNL     1     -33.135   8.003   5.089  1.00 20.00     0.017 A 
HETATM    2  C2  UNL     1     -33.775   6.945   5.797  1.00 20.00     0.032 A 
HETATM    3  C3  UNL     1     -33.054   7.746   3.737  1.00 20.00    -0.011 A 
HETATM    4  C4  UNL     1     -34.160   5.920   4.960  1.00 20.00     0.075 A 
HETATM    5  S11 UNL     1     -33.748   6.236   3.328  1.00 20.00    -0.082 SA
HETATM    6 CL12 UNL     1     -34.956   4.463   5.381  1.00 20.00    -0.076 Cl
ENDROOT
BRANCH   3   7
HETATM    7  C9  UNL     1     -32.453   8.608   2.651  1.00 20.00     0.033 C 
HETATM    8  C7  UNL     1     -33.484   9.188   1.676  1.00 20.00     0.088 C 
HETATM    9  C5  UNL     1     -32.634   9.449   0.457  1.00 20.00     0.127 C 
HETATM   10  C6  UNL     1     -31.276   8.802   0.554  1.00 20.00     0.079 C 
HETATM   11  O10 UNL     1     -33.006  10.114  -0.502  1.00 20.00    -0.298 OA
HETATM   12  C8  UNL     1     -31.454   7.874   1.751  1.00 20.00     0.018 C 
ENDBRANCH   3   7
TORSDOF 1
ENDMDL
MODEL 9
REMARK VINA RESULT:      -4.5     11.232     11.702
REMARK  1 active torsions:
REMARK  status: ('A' for Active; 'I' for Inactive)
REMARK    1  A    between atoms: C3_3  and  C9_9 
ROOT
HETATM    1  C1  UNL     1     -31.878   7.876   3.328  1.00 20.00     0.017 A 
HETATM    2  C2  UNL     1     -31.351   8.897   2.485  1.00 20.00     0.032 A 
HETATM    3  C3  UNL     1     -33.110   7.434   2.896  1.00 20.00    -0.011 A 
HETATM    4  C4  UNL     1     -32.200   9.197   1.443  1.00 20.00     0.075 A 
HETATM    5  S11 UNL     1     -33.626   8.249   1.482  1.00 20.00    -0.082 SA
HETATM    6 CL12 UNL     1     -31.969  10.353   0.200  1.00 20.00    -0.076 Cl
ENDROOT
BRANCH   3   7
HETATM    7  C9  UNL     1     -33.994   6.371   3.507  1.00 20.00     0.033 C 
HETATM    8  C7  UNL     1     -34.164   6.500   5.025  1.00 20.00     0.088 C 
HETATM    9  C5  UNL     1     -34.531   5.088   5.409  1.00 20.00     0.127 C 
HETATM   10  C6  UNL     1     -34.302   4.109   4.287  1.00 20.00     0.079 C 
HETATM   11  O10 UNL     1     -34.967   4.775   6.510  1.00 20.00    -0.298 OA
HETATM   12  C8  UNL     1     -33.483   4.940   3.304  1.00 20.00     0.018 C 
ENDBRANCH   3   7
TORSDOF 1
ENDMDL
