MODEL 1
REMARK VINA RESULT:      -4.8      0.000      0.000
REMARK  0 active torsions:
REMARK  status: ('A' for Active; 'I' for Inactive)
ROOT
HETATM    1  C1  UNL     1     -33.683   7.441   5.932  1.00 20.00     0.017 C 
HETATM    2  C2  UNL     1     -34.122   6.341   5.733  1.00 20.00    -0.090 C 
HETATM    3  C3  UNL     1     -34.645   5.040   5.504  1.00 20.00     0.059 C 
HETATM    4  C4  UNL     1     -34.441   4.392   4.350  1.00 20.00    -0.022 C 
HETATM    5  C5  UNL     1     -33.661   4.959   3.209  1.00 20.00     0.036 C 
ENDROOT
TORSDOF 0
ENDMDL
MODEL 2
REMARK VINA RESULT:      -4.7      1.491      2.330
REMARK  0 active torsions:
REMARK  status: ('A' for Active; 'I' for Inactive)
ROOT
HETATM    1  C1  UNL     1     -32.910   7.286   2.907  1.00 20.00     0.017 C 
HETATM    2  C2  UNL     1     -33.349   7.185   4.020  1.00 20.00    -0.090 C 
HETATM    3  C3  UNL     1     -33.866   7.072   5.338  1.00 20.00     0.059 C 
HETATM    4  C4  UNL     1     -34.440   5.943   5.776  1.00 20.00    -0.022 C 
HETATM    5  C5  UNL     1     -34.593   4.715   4.940  1.00 20.00     0.036 C 
ENDROOT
TORSDOF 0
ENDMDL
MODEL 3
REMARK VINA RESULT:      -4.6      0.720      2.745
REMARK  0 active torsions:
REMARK  status: ('A' for Active; 'I' for Inactive)
ROOT
HETATM    1  C1  UNL     1     -33.572   5.771   2.514  1.00 20.00     0.017 C 
HETATM    2  C2  UNL     1     -34.069   5.505   3.574  1.00 20.00    -0.090 C 
HETATM    3  C3  UNL     1     -34.660   5.184   4.826  1.00 20.00     0.059 C 
HETATM    4  C4  UNL     1     -34.520   5.978   5.895  1.00 20.00    -0.022 C 
HETATM    5  C5  UNL     1     -33.745   7.255   5.883  1.00 20.00     0.036 C 
ENDROOT
TORSDOF 0
ENDMDL
MODEL 4
REMARK VINA RESULT:      -4.5      1.753      2.824
REMARK  0 active torsions:
REMARK  status: ('A' for Active; 'I' for Inactive)
ROOT
HETATM    1  C1  UNL     1     -32.463   7.631   2.578  1.00 20.00     0.017 C 
HETATM    2  C2  UNL     1     -33.244   6.862   3.069  1.00 20.00    -0.090 C 
HETATM    3  C3  UNL     1     -34.169   5.950   3.644  1.00 20.00     0.059 C 
HETATM    4  C4  UNL     1     -34.498   6.003   4.942  1.00 20.00    -0.022 C 
HETATM    5  C5  UNL     1     -33.936   7.005   5.897  1.00 20.00     0.036 C 
ENDROOT
TORSDOF 0
ENDMDL
MODEL 5
REMARK VINA RESULT:      -4.5      0.856      2.715
REMARK  0 active torsions:
REMARK  status: ('A' for Active; 'I' for Inactive)
ROOT
HETATM    1  C1  UNL     1     -34.481   4.197   4.444  1.00 20.00     0.017 C 
HETATM    2  C2  UNL     1     -34.434   5.178   5.135  1.00 20.00    -0.090 C 
HETATM    3  C3  UNL     1     -34.384   6.336   5.957  1.00 20.00     0.059 C 
HETATM    4  C4  UNL     1     -33.702   7.430   5.593  1.00 20.00    -0.022 C 
HETATM    5  C5  UNL     1     -32.940   7.542   4.313  1.00 20.00     0.036 C 
ENDROOT
TORSDOF 0
ENDMDL
MODEL 6
REMARK VINA RESULT:      -4.4      1.305      1.596
REMARK  0 active torsions:
REMARK  status: ('A' for Active; 'I' for Inactive)
ROOT
HETATM    1  C1  UNL     1     -33.812   7.327   6.102  1.00 20.00     0.017 C 
HETATM    2  C2  UNL     1     -34.140   6.647   5.169  1.00 20.00    -0.090 C 
HETATM    3  C3  UNL     1     -34.531   5.839   4.067  1.00 20.00     0.059 C 
HETATM    4  C4  UNL     1     -33.922   5.926   2.878  1.00 20.00    -0.022 C 
HETATM    5  C5  UNL     1     -32.793   6.861   2.592  1.00 20.00     0.036 C 
ENDROOT
TORSDOF 0
ENDMDL
MODEL 7
REMARK VINA RESULT:      -4.2      1.181      3.179
REMARK  0 active torsions:
REMARK  status: ('A' for Active; 'I' for Inactive)
ROOT
HETATM    1  C1  UNL     1     -33.181   5.060   2.474  1.00 20.00     0.017 C 
HETATM    2  C2  UNL     1     -33.264   6.027   3.181  1.00 20.00    -0.090 C 
HETATM    3  C3  UNL     1     -33.359   7.175   4.013  1.00 20.00     0.059 C 
HETATM    4  C4  UNL     1     -33.902   7.117   5.236  1.00 20.00    -0.022 C 
HETATM    5  C5  UNL     1     -34.452   5.865   5.838  1.00 20.00     0.036 C 
ENDROOT
TORSDOF 0
ENDMDL
MODEL 8
REMARK VINA RESULT:      -4.0      1.725      2.871
REMARK  0 active torsions:
REMARK  status: ('A' for Active; 'I' for Inactive)
ROOT
HETATM    1  C1  UNL     1     -34.863   5.368   5.017  1.00 20.00     0.017 C 
HETATM    2  C2  UNL     1     -34.378   5.635   3.952  1.00 20.00    -0.090 C 
HETATM    3  C3  UNL     1     -33.807   5.946   2.688  1.00 20.00     0.059 C 
HETATM    4  C4  UNL     1     -32.875   6.898   2.551  1.00 20.00    -0.022 C 
HETATM    5  C5  UNL     1     -32.352   7.713   3.688  1.00 20.00     0.036 C 
ENDROOT
TORSDOF 0
ENDMDL
MODEL 9
REMARK VINA RESULT:      -3.9      4.052      4.912
REMARK  0 active torsions:
REMARK  status: ('A' for Active; 'I' for Inactive)
ROOT
HETATM    1  C1  UNL     1     -32.773   9.336   0.126  1.00 20.00     0.017 C 
HETATM    2  C2  UNL     1     -32.307   9.029   1.189  1.00 20.00    -0.090 C 
HETATM    3  C3  UNL     1     -31.751   8.670   2.447  1.00 20.00     0.059 C 
HETATM    4  C4  UNL     1     -32.203   7.619   3.143  1.00 20.00    -0.022 C 
HETATM    5  C5  UNL     1     -33.315   6.735   2.679  1.00 20.00     0.036 C 
ENDROOT
TORSDOF 0
ENDMDL
