MODEL 1
REMARK VINA RESULT:      -5.5      0.000      0.000
REMARK  2 active torsions:
REMARK  status: ('A' for Active; 'I' for Inactive)
REMARK    1  A    between atoms: C1_1  and  C3_3 
REMARK    2  A    between atoms: C2_2  and  C8_8 
ROOT
HETATM    1  C4  UNL     1     -34.096   6.774   6.128  1.00 20.00     0.011 C 
HETATM    2  C5  UNL     1     -33.545   7.616   4.972  1.00 20.00     0.010 C 
HETATM    3  C6  UNL     1     -34.413   5.321   5.790  1.00 20.00     0.074 C 
HETATM    4  C7  UNL     1     -33.965   5.921   3.119  1.00 20.00     0.082 C 
HETATM    5  C8  UNL     1     -32.922   6.773   3.857  1.00 20.00     0.017 C 
HETATM    6  S11 UNL     1     -35.232   5.152   4.183  1.00 20.00    -0.168 SA
ENDROOT
BRANCH   5   7
HETATM    7  C2  UNL     1     -32.193   7.655   2.886  1.00 20.00    -0.018 C 
HETATM    8  C1  UNL     1     -32.806   8.339   1.910  1.00 20.00     0.046 C 
BRANCH   8   9
HETATM    9  C3  UNL     1     -32.024   9.197   0.979  1.00 20.00     0.145 C 
HETATM   10  C9  UNL     1     -32.466  10.631   0.842  1.00 20.00     0.096 C 
HETATM   11  O10 UNL     1     -31.070   8.765   0.335  1.00 20.00    -0.294 OA
ENDBRANCH   8   9
ENDBRANCH   5   7
TORSDOF 2
ENDMDL
MODEL 2
REMARK VINA RESULT:      -5.4      1.152      1.782
REMARK  2 active torsions:
REMARK  status: ('A' for Active; 'I' for Inactive)
REMARK    1  A    between atoms: C1_1  and  C3_3 
REMARK    2  A    between atoms: C2_2  and  C8_8 
ROOT
HETATM    1  C4  UNL     1     -34.087   4.081   4.167  1.00 20.00     0.011 C 
HETATM    2  C5  UNL     1     -33.320   5.021   3.230  1.00 20.00     0.010 C 
HETATM    3  C6  UNL     1     -34.962   4.763   5.213  1.00 20.00     0.074 C 
HETATM    4  C7  UNL     1     -33.829   7.185   4.472  1.00 20.00     0.082 C 
HETATM    5  C8  UNL     1     -33.936   6.419   3.145  1.00 20.00     0.017 C 
HETATM    6  S11 UNL     1     -34.141   6.190   5.969  1.00 20.00    -0.168 SA
ENDROOT
BRANCH   5   7
HETATM    7  C2  UNL     1     -33.290   7.204   2.041  1.00 20.00    -0.018 C 
HETATM    8  C1  UNL     1     -32.557   8.305   2.252  1.00 20.00     0.046 C 
BRANCH   8   9
HETATM    9  C3  UNL     1     -31.943   9.038   1.112  1.00 20.00     0.145 C 
HETATM   10  C9  UNL     1     -32.534  10.380   0.769  1.00 20.00     0.096 C 
HETATM   11  O10 UNL     1     -31.006   8.575   0.464  1.00 20.00    -0.294 OA
ENDBRANCH   8   9
ENDBRANCH   5   7
TORSDOF 2
ENDMDL
MODEL 3
REMARK VINA RESULT:      -4.6     10.853     11.466
REMARK  2 active torsions:
REMARK  status: ('A' for Active; 'I' for Inactive)
REMARK    1  A    between atoms: C1_1  and  C3_3 
REMARK    2  A    between atoms: C2_2  and  C8_8 
ROOT
HETATM    1  C4  UNL     1     -33.044  17.758  -1.542  1.00 20.00     0.011 C 
HETATM    2  C5  UNL     1     -33.635  17.087  -2.787  1.00 20.00     0.010 C 
HETATM    3  C6  UNL     1     -34.034  18.053  -0.421  1.00 20.00     0.074 C 
HETATM    4  C7  UNL     1     -36.087  17.337  -2.144  1.00 20.00     0.082 C 
HETATM    5  C8  UNL     1     -34.956  16.364  -2.511  1.00 20.00     0.017 C 
HETATM    6  S11 UNL     1     -35.603  18.710  -1.044  1.00 20.00    -0.168 SA
ENDROOT
BRANCH   5   7
HETATM    7  C2  UNL     1     -35.351  15.535  -3.697  1.00 20.00    -0.018 C 
HETATM    8  C1  UNL     1     -34.652  14.472  -4.118  1.00 20.00     0.046 C 
BRANCH   8   9
HETATM    9  C3  UNL     1     -35.098  13.691  -5.303  1.00 20.00     0.145 C 
HETATM   10  C9  UNL     1     -34.454  14.030  -6.623  1.00 20.00     0.096 C 
HETATM   11  O10 UNL     1     -35.961  12.818  -5.225  1.00 20.00    -0.294 OA
ENDBRANCH   8   9
ENDBRANCH   5   7
TORSDOF 2
ENDMDL
MODEL 4
REMARK VINA RESULT:      -4.5     11.127     11.524
REMARK  2 active torsions:
REMARK  status: ('A' for Active; 'I' for Inactive)
REMARK    1  A    between atoms: C1_1  and  C3_3 
REMARK    2  A    between atoms: C2_2  and  C8_8 
ROOT
HETATM    1  C4  UNL     1     -36.692  14.741  -4.588  1.00 20.00     0.011 C 
HETATM    2  C5  UNL     1     -35.809  15.863  -4.030  1.00 20.00     0.010 C 
HETATM    3  C6  UNL     1     -35.948  13.585  -5.248  1.00 20.00     0.074 C 
HETATM    4  C7  UNL     1     -33.613  15.069  -5.045  1.00 20.00     0.082 C 
HETATM    5  C8  UNL     1     -34.371  15.417  -3.755  1.00 20.00     0.017 C 
HETATM    6  S11 UNL     1     -34.581  14.155  -6.292  1.00 20.00    -0.168 SA
ENDROOT
BRANCH   5   7
HETATM    7  C2  UNL     1     -33.635  16.479  -2.993  1.00 20.00    -0.018 C 
HETATM    8  C1  UNL     1     -34.060  16.973  -1.823  1.00 20.00     0.046 C 
BRANCH   8   9
HETATM    9  C3  UNL     1     -33.283  18.028  -1.117  1.00 20.00     0.145 C 
HETATM   10  C9  UNL     1     -33.761  18.420   0.257  1.00 20.00     0.096 C 
HETATM   11  O10 UNL     1     -32.304  18.570  -1.625  1.00 20.00    -0.294 OA
ENDBRANCH   8   9
ENDBRANCH   5   7
TORSDOF 2
ENDMDL
MODEL 5
REMARK VINA RESULT:      -4.4     11.276     11.910
REMARK  2 active torsions:
REMARK  status: ('A' for Active; 'I' for Inactive)
REMARK    1  A    between atoms: C1_1  and  C3_3 
REMARK    2  A    between atoms: C2_2  and  C8_8 
ROOT
HETATM    1  C4  UNL     1     -35.562  13.446  -6.058  1.00 20.00     0.011 C 
HETATM    2  C5  UNL     1     -35.351  14.442  -4.913  1.00 20.00     0.010 C 
HETATM    3  C6  UNL     1     -34.536  13.510  -7.184  1.00 20.00     0.074 C 
HETATM    4  C7  UNL     1     -33.520  15.817  -6.026  1.00 20.00     0.082 C 
HETATM    5  C8  UNL     1     -33.912  14.954  -4.818  1.00 20.00     0.017 C 
HETATM    6  S11 UNL     1     -34.121  15.214  -7.639  1.00 20.00    -0.168 SA
ENDROOT
BRANCH   5   7
HETATM    7  C2  UNL     1     -33.719  15.725  -3.546  1.00 20.00    -0.018 C 
HETATM    8  C1  UNL     1     -34.730  16.256  -2.846  1.00 20.00     0.046 C 
BRANCH   8   9
HETATM    9  C3  UNL     1     -34.471  17.011  -1.590  1.00 20.00     0.145 C 
HETATM   10  C9  UNL     1     -33.155  17.739  -1.494  1.00 20.00     0.096 C 
HETATM   11  O10 UNL     1     -35.278  17.036  -0.663  1.00 20.00    -0.294 OA
ENDBRANCH   8   9
ENDBRANCH   5   7
TORSDOF 2
ENDMDL
MODEL 6
REMARK VINA RESULT:      -4.4     10.861     11.634
REMARK  2 active torsions:
REMARK  status: ('A' for Active; 'I' for Inactive)
REMARK    1  A    between atoms: C1_1  and  C3_3 
REMARK    2  A    between atoms: C2_2  and  C8_8 
ROOT
HETATM    1  C4  UNL     1     -34.365  14.587  -5.156  1.00 20.00     0.011 C 
HETATM    2  C5  UNL     1     -33.995  15.055  -3.744  1.00 20.00     0.010 C 
HETATM    3  C6  UNL     1     -35.654  15.168  -5.726  1.00 20.00     0.074 C 
HETATM    4  C7  UNL     1     -36.184  16.250  -3.226  1.00 20.00     0.082 C 
HETATM    5  C8  UNL     1     -34.659  16.379  -3.356  1.00 20.00     0.017 C 
HETATM    6  S11 UNL     1     -36.986  15.218  -4.499  1.00 20.00    -0.168 SA
ENDROOT
BRANCH   5   7
HETATM    7  C2  UNL     1     -34.073  16.897  -2.075  1.00 20.00    -0.018 C 
HETATM    8  C1  UNL     1     -33.036  17.743  -2.030  1.00 20.00     0.046 C 
BRANCH   8   9
HETATM    9  C3  UNL     1     -32.501  18.220  -0.726  1.00 20.00     0.145 C 
HETATM   10  C9  UNL     1     -33.510  18.561   0.339  1.00 20.00     0.096 C 
HETATM   11  O10 UNL     1     -31.295  18.346  -0.519  1.00 20.00    -0.294 OA
ENDBRANCH   8   9
ENDBRANCH   5   7
TORSDOF 2
ENDMDL
MODEL 7
REMARK VINA RESULT:      -4.4     10.810     11.344
REMARK  2 active torsions:
REMARK  status: ('A' for Active; 'I' for Inactive)
REMARK    1  A    between atoms: C1_1  and  C3_3 
REMARK    2  A    between atoms: C2_2  and  C8_8 
ROOT
HETATM    1  C4  UNL     1     -35.972  17.989   0.195  1.00 20.00     0.011 C 
HETATM    2  C5  UNL     1     -35.274  17.016  -0.762  1.00 20.00     0.010 C 
HETATM    3  C6  UNL     1     -35.199  19.263   0.519  1.00 20.00     0.074 C 
HETATM    4  C7  UNL     1     -33.007  18.177  -0.790  1.00 20.00     0.082 C 
HETATM    5  C8  UNL     1     -34.201  17.686  -1.623  1.00 20.00     0.017 C 
HETATM    6  S11 UNL     1     -33.440  18.944   0.808  1.00 20.00    -0.168 SA
ENDROOT
BRANCH   5   7
HETATM    7  C2  UNL     1     -33.733  16.745  -2.694  1.00 20.00    -0.018 C 
HETATM    8  C1  UNL     1     -34.502  15.777  -3.210  1.00 20.00     0.046 C 
BRANCH   8   9
HETATM    9  C3  UNL     1     -33.976  14.875  -4.271  1.00 20.00     0.145 C 
HETATM   10  C9  UNL     1     -33.025  15.481  -5.270  1.00 20.00     0.096 C 
HETATM   11  O10 UNL     1     -34.306  13.693  -4.347  1.00 20.00    -0.294 OA
ENDBRANCH   8   9
ENDBRANCH   5   7
TORSDOF 2
ENDMDL
MODEL 8
REMARK VINA RESULT:      -4.2     10.866     11.269
REMARK  2 active torsions:
REMARK  status: ('A' for Active; 'I' for Inactive)
REMARK    1  A    between atoms: C1_1  and  C3_3 
REMARK    2  A    between atoms: C2_2  and  C8_8 
ROOT
HETATM    1  C4  UNL     1     -34.845  18.311   1.343  1.00 20.00     0.011 C 
HETATM    2  C5  UNL     1     -34.137  18.128  -0.004  1.00 20.00     0.010 C 
HETATM    3  C6  UNL     1     -36.338  18.001   1.350  1.00 20.00     0.074 C 
HETATM    4  C7  UNL     1     -36.229  17.783  -1.414  1.00 20.00     0.082 C 
HETATM    5  C8  UNL     1     -34.887  17.193  -0.955  1.00 20.00     0.017 C 
HETATM    6  S11 UNL     1     -37.180  18.647  -0.118  1.00 20.00    -0.168 SA
ENDROOT
BRANCH   5   7
HETATM    7  C2  UNL     1     -34.031  16.868  -2.144  1.00 20.00    -0.018 C 
HETATM    8  C1  UNL     1     -34.435  16.078  -3.148  1.00 20.00     0.046 C 
BRANCH   8   9
HETATM    9  C3  UNL     1     -33.536  15.794  -4.300  1.00 20.00     0.145 C 
HETATM   10  C9  UNL     1     -32.999  14.391  -4.414  1.00 20.00     0.096 C 
HETATM   11  O10 UNL     1     -33.228  16.659  -5.118  1.00 20.00    -0.294 OA
ENDBRANCH   8   9
ENDBRANCH   5   7
TORSDOF 2
ENDMDL
MODEL 9
REMARK VINA RESULT:      -4.1     11.018     11.985
REMARK  2 active torsions:
REMARK  status: ('A' for Active; 'I' for Inactive)
REMARK    1  A    between atoms: C1_1  and  C3_3 
REMARK    2  A    between atoms: C2_2  and  C8_8 
ROOT
HETATM    1  C4  UNL     1     -33.830  15.215  -6.772  1.00 20.00     0.011 C 
HETATM    2  C5  UNL     1     -33.208  15.819  -5.508  1.00 20.00     0.010 C 
HETATM    3  C6  UNL     1     -35.270  14.734  -6.632  1.00 20.00     0.074 C 
HETATM    4  C7  UNL     1     -35.071  15.165  -3.899  1.00 20.00     0.082 C 
HETATM    5  C8  UNL     1     -34.251  16.315  -4.503  1.00 20.00     0.017 C 
HETATM    6  S11 UNL     1     -35.553  13.856  -5.074  1.00 20.00    -0.168 SA
ENDROOT
BRANCH   5   7
HETATM    7  C2  UNL     1     -33.587  17.105  -3.414  1.00 20.00    -0.018 C 
HETATM    8  C1  UNL     1     -33.986  17.077  -2.136  1.00 20.00     0.046 C 
BRANCH   8   9
HETATM    9  C3  UNL     1     -33.283  17.885  -1.102  1.00 20.00     0.145 C 
HETATM   10  C9  UNL     1     -34.059  18.216   0.146  1.00 20.00     0.096 C 
HETATM   11  O10 UNL     1     -32.129  18.282  -1.255  1.00 20.00    -0.294 OA
ENDBRANCH   8   9
ENDBRANCH   5   7
TORSDOF 2
ENDMDL
