MODEL 1
REMARK VINA RESULT:      -4.5      0.000      0.000
REMARK  2 active torsions:
REMARK  status: ('A' for Active; 'I' for Inactive)
REMARK    1  A    between atoms: C6_6  and  C8_8 
REMARK    2  A    between atoms: C7_7  and  C9_9 
ROOT
HETATM    1  C1  UNL     1     -32.729  10.116   1.345  1.00 20.00     0.132 C 
HETATM    2  C2  UNL     1     -32.831   9.523  -0.207  1.00 20.00     0.084 C 
HETATM    3  C6  UNL     1     -32.596   8.644   1.755  1.00 20.00     0.064 C 
HETATM    4  C7  UNL     1     -31.756   8.553   0.404  1.00 20.00     0.008 C 
HETATM    5  O10 UNL     1     -32.742  11.180   1.911  1.00 20.00    -0.298 OA
ENDROOT
BRANCH   3   6
HETATM    6  C8  UNL     1     -31.723   7.797   2.681  1.00 20.00    -0.003 C 
HETATM    7  C3  UNL     1     -32.208   8.208   4.097  1.00 20.00     0.006 C 
HETATM    8  C4  UNL     1     -33.682   7.727   4.076  1.00 20.00     0.005 C 
HETATM    9  C9  UNL     1     -33.756   6.847   2.817  1.00 20.00    -0.009 C 
HETATM   10  C5  UNL     1     -32.290   6.372   2.668  1.00 20.00     0.010 C 
ENDBRANCH   3   6
TORSDOF 2
ENDMDL
MODEL 2
REMARK VINA RESULT:      -4.4      1.934      3.888
REMARK  2 active torsions:
REMARK  status: ('A' for Active; 'I' for Inactive)
REMARK    1  A    between atoms: C6_6  and  C8_8 
REMARK    2  A    between atoms: C7_7  and  C9_9 
ROOT
HETATM    1  C1  UNL     1     -33.091   6.554   2.823  1.00 20.00     0.132 C 
HETATM    2  C2  UNL     1     -33.747   7.088   4.257  1.00 20.00     0.084 C 
HETATM    3  C6  UNL     1     -32.791   8.035   2.563  1.00 20.00     0.064 C 
HETATM    4  C7  UNL     1     -32.506   8.045   4.131  1.00 20.00     0.008 C 
HETATM    5  O10 UNL     1     -32.913   5.514   2.241  1.00 20.00    -0.298 OA
ENDROOT
BRANCH   3   6
HETATM    6  C8  UNL     1     -31.625   8.888   2.065  1.00 20.00    -0.003 C 
HETATM    7  C3  UNL     1     -31.503   8.482   0.572  1.00 20.00     0.006 C 
HETATM    8  C4  UNL     1     -32.864   8.960   0.004  1.00 20.00     0.005 C 
HETATM    9  C9  UNL     1     -33.438   9.834   1.132  1.00 20.00    -0.009 C 
HETATM   10  C5  UNL     1     -32.155  10.311   1.855  1.00 20.00     0.010 C 
ENDBRANCH   3   6
TORSDOF 2
ENDMDL
MODEL 3
REMARK VINA RESULT:      -4.4      9.183     10.276
REMARK  2 active torsions:
REMARK  status: ('A' for Active; 'I' for Inactive)
REMARK    1  A    between atoms: C6_6  and  C8_8 
REMARK    2  A    between atoms: C7_7  and  C9_9 
ROOT
HETATM    1  C1  UNL     1     -33.491  17.842  -2.814  1.00 20.00     0.132 C 
HETATM    2  C2  UNL     1     -33.708  17.462  -1.207  1.00 20.00     0.084 C 
HETATM    3  C6  UNL     1     -33.990  16.417  -3.080  1.00 20.00     0.064 C 
HETATM    4  C7  UNL     1     -34.947  16.737  -1.847  1.00 20.00     0.008 C 
HETATM    5  O10 UNL     1     -33.128  18.777  -3.481  1.00 20.00    -0.298 OA
ENDROOT
BRANCH   3   6
HETATM    6  C8  UNL     1     -34.971  15.712  -4.016  1.00 20.00    -0.003 C 
HETATM    7  C3  UNL     1     -34.531  16.201  -5.422  1.00 20.00     0.006 C 
HETATM    8  C4  UNL     1     -33.098  15.616  -5.524  1.00 20.00     0.005 C 
HETATM    9  C9  UNL     1     -33.026  14.634  -4.343  1.00 20.00    -0.009 C 
HETATM   10  C5  UNL     1     -34.514  14.255  -4.147  1.00 20.00     0.010 C 
ENDBRANCH   3   6
TORSDOF 2
ENDMDL
MODEL 4
REMARK VINA RESULT:      -4.3      9.313     10.542
REMARK  2 active torsions:
REMARK  status: ('A' for Active; 'I' for Inactive)
REMARK    1  A    between atoms: C6_6  and  C8_8 
REMARK    2  A    between atoms: C7_7  and  C9_9 
ROOT
HETATM    1  C1  UNL     1     -36.236  13.735  -5.229  1.00 20.00     0.132 C 
HETATM    2  C2  UNL     1     -37.658  14.574  -5.444  1.00 20.00     0.084 C 
HETATM    3  C6  UNL     1     -35.648  15.096  -4.839  1.00 20.00     0.064 C 
HETATM    4  C7  UNL     1     -37.082  15.300  -4.174  1.00 20.00     0.008 C 
HETATM    5  O10 UNL     1     -35.830  12.604  -5.318  1.00 20.00    -0.298 OA
ENDROOT
BRANCH   3   6
HETATM    6  C8  UNL     1     -34.752  15.676  -3.745  1.00 20.00    -0.003 C 
HETATM    7  C3  UNL     1     -33.377  15.013  -4.027  1.00 20.00     0.006 C 
HETATM    8  C4  UNL     1     -33.035  15.582  -5.428  1.00 20.00     0.005 C 
HETATM    9  C9  UNL     1     -34.068  16.706  -5.622  1.00 20.00    -0.009 C 
HETATM   10  C5  UNL     1     -34.387  17.106  -4.161  1.00 20.00     0.010 C 
ENDBRANCH   3   6
TORSDOF 2
ENDMDL
MODEL 5
REMARK VINA RESULT:      -4.3      2.184      3.636
REMARK  2 active torsions:
REMARK  status: ('A' for Active; 'I' for Inactive)
REMARK    1  A    between atoms: C6_6  and  C8_8 
REMARK    2  A    between atoms: C7_7  and  C9_9 
ROOT
HETATM    1  C1  UNL     1     -32.617   7.603   2.752  1.00 20.00     0.132 C 
HETATM    2  C2  UNL     1     -31.378   8.060   3.766  1.00 20.00     0.084 C 
HETATM    3  C6  UNL     1     -33.221   6.953   4.002  1.00 20.00     0.064 C 
HETATM    4  C7  UNL     1     -32.615   8.240   4.719  1.00 20.00     0.008 C 
HETATM    5  O10 UNL     1     -32.927   7.717   1.593  1.00 20.00    -0.298 OA
ENDROOT
BRANCH   3   6
HETATM    6  C8  UNL     1     -34.582   6.866   4.694  1.00 20.00    -0.003 C 
HETATM    7  C3  UNL     1     -35.364   5.859   3.809  1.00 20.00     0.006 C 
HETATM    8  C4  UNL     1     -34.529   4.565   3.992  1.00 20.00     0.005 C 
HETATM    9  C9  UNL     1     -33.596   4.903   5.168  1.00 20.00    -0.009 C 
HETATM   10  C5  UNL     1     -34.412   5.975   5.929  1.00 20.00     0.010 C 
ENDBRANCH   3   6
TORSDOF 2
ENDMDL
MODEL 6
REMARK VINA RESULT:      -4.2      9.463     10.849
REMARK  2 active torsions:
REMARK  status: ('A' for Active; 'I' for Inactive)
REMARK    1  A    between atoms: C6_6  and  C8_8 
REMARK    2  A    between atoms: C7_7  and  C9_9 
ROOT
HETATM    1  C1  UNL     1     -35.681  13.463  -6.101  1.00 20.00     0.132 C 
HETATM    2  C2  UNL     1     -35.842  13.665  -7.746  1.00 20.00     0.084 C 
HETATM    3  C6  UNL     1     -35.078  14.873  -6.122  1.00 20.00     0.064 C 
HETATM    4  C7  UNL     1     -36.187  15.113  -7.240  1.00 20.00     0.008 C 
HETATM    5  O10 UNL     1     -35.920  12.630  -5.263  1.00 20.00    -0.298 OA
ENDROOT
BRANCH   3   6
HETATM    6  C8  UNL     1     -35.200  16.173  -5.328  1.00 20.00    -0.003 C 
HETATM    7  C3  UNL     1     -34.884  15.731  -3.874  1.00 20.00     0.006 C 
HETATM    8  C4  UNL     1     -33.413  15.257  -4.002  1.00 20.00     0.005 C 
HETATM    9  C9  UNL     1     -32.990  15.771  -5.389  1.00 20.00    -0.009 C 
HETATM   10  C5  UNL     1     -33.927  16.988  -5.583  1.00 20.00     0.010 C 
ENDBRANCH   3   6
TORSDOF 2
ENDMDL
MODEL 7
REMARK VINA RESULT:      -4.2      8.951      9.978
REMARK  2 active torsions:
REMARK  status: ('A' for Active; 'I' for Inactive)
REMARK    1  A    between atoms: C6_6  and  C8_8 
REMARK    2  A    between atoms: C7_7  and  C9_9 
ROOT
HETATM    1  C1  UNL     1     -34.256  14.228  -4.223  1.00 20.00     0.132 C 
HETATM    2  C2  UNL     1     -32.618  14.278  -4.520  1.00 20.00     0.084 C 
HETATM    3  C6  UNL     1     -34.074  15.669  -3.728  1.00 20.00     0.064 C 
HETATM    4  C7  UNL     1     -33.033  15.737  -4.932  1.00 20.00     0.008 C 
HETATM    5  O10 UNL     1     -35.174  13.455  -4.336  1.00 20.00    -0.298 OA
ENDROOT
BRANCH   3   6
HETATM    6  C8  UNL     1     -34.769  17.021  -3.887  1.00 20.00    -0.003 C 
HETATM    7  C3  UNL     1     -36.021  16.883  -2.980  1.00 20.00     0.006 C 
HETATM    8  C4  UNL     1     -35.377  16.714  -1.579  1.00 20.00     0.005 C 
HETATM    9  C9  UNL     1     -33.903  17.085  -1.813  1.00 20.00    -0.009 C 
HETATM   10  C5  UNL     1     -33.999  18.034  -3.032  1.00 20.00     0.010 C 
ENDBRANCH   3   6
TORSDOF 2
ENDMDL
MODEL 8
REMARK VINA RESULT:      -4.0      9.215     11.018
REMARK  2 active torsions:
REMARK  status: ('A' for Active; 'I' for Inactive)
REMARK    1  A    between atoms: C6_6  and  C8_8 
REMARK    2  A    between atoms: C7_7  and  C9_9 
ROOT
HETATM    1  C1  UNL     1     -33.337  14.606  -4.465  1.00 20.00     0.132 C 
HETATM    2  C2  UNL     1     -33.662  16.022  -3.653  1.00 20.00     0.084 C 
HETATM    3  C6  UNL     1     -34.146  15.231  -5.607  1.00 20.00     0.064 C 
HETATM    4  C7  UNL     1     -33.436  16.568  -5.110  1.00 20.00     0.008 C 
HETATM    5  O10 UNL     1     -32.748  13.571  -4.279  1.00 20.00    -0.298 OA
ENDROOT
BRANCH   3   6
HETATM    6  C8  UNL     1     -34.029  15.403  -7.121  1.00 20.00    -0.003 C 
HETATM    7  C3  UNL     1     -34.041  13.942  -7.645  1.00 20.00     0.006 C 
HETATM    8  C4  UNL     1     -35.453  13.466  -7.215  1.00 20.00     0.005 C 
HETATM    9  C9  UNL     1     -36.161  14.767  -6.802  1.00 20.00    -0.009 C 
HETATM   10  C5  UNL     1     -35.408  15.826  -7.643  1.00 20.00     0.010 C 
ENDBRANCH   3   6
TORSDOF 2
ENDMDL
MODEL 9
REMARK VINA RESULT:      -3.8      2.621      4.551
REMARK  2 active torsions:
REMARK  status: ('A' for Active; 'I' for Inactive)
REMARK    1  A    between atoms: C6_6  and  C8_8 
REMARK    2  A    between atoms: C7_7  and  C9_9 
ROOT
HETATM    1  C1  UNL     1     -34.139   6.556   5.795  1.00 20.00     0.132 C 
HETATM    2  C2  UNL     1     -34.537   4.947   5.957  1.00 20.00     0.084 C 
HETATM    3  C6  UNL     1     -33.960   6.224   4.309  1.00 20.00     0.064 C 
HETATM    4  C7  UNL     1     -35.212   5.276   4.576  1.00 20.00     0.008 C 
HETATM    5  O10 UNL     1     -34.039   7.537   6.487  1.00 20.00    -0.298 OA
ENDROOT
BRANCH   3   6
HETATM    6  C8  UNL     1     -34.349   6.820   2.956  1.00 20.00    -0.003 C 
HETATM    7  C3  UNL     1     -33.499   8.118   2.885  1.00 20.00     0.006 C 
HETATM    8  C4  UNL     1     -32.056   7.549   2.884  1.00 20.00     0.005 C 
HETATM    9  C9  UNL     1     -32.263   6.045   2.638  1.00 20.00    -0.009 C 
HETATM   10  C5  UNL     1     -33.609   6.024   1.875  1.00 20.00     0.010 C 
ENDBRANCH   3   6
TORSDOF 2
ENDMDL
