MODEL 1
REMARK VINA RESULT:      -4.3      0.000      0.000
REMARK  2 active torsions:
REMARK  status: ('A' for Active; 'I' for Inactive)
REMARK    1  A    between atoms: C6_6  and  O11_11 
REMARK    2  A    between atoms: C9_9  and  O11_11 
ROOT
HETATM    1  C1  UNL     1     -33.711   4.581   2.267  1.00 20.00     0.002 C 
HETATM    2  C2  UNL     1     -32.682   5.111   3.298  1.00 20.00     0.015 C 
HETATM    3  C3  UNL     1     -34.430   5.951   2.354  1.00 20.00     0.015 C 
HETATM    4  C4  UNL     1     -33.667   7.153   5.532  1.00 20.00     0.069 C 
HETATM    5  C5  UNL     1     -34.570   6.030   4.951  1.00 20.00     0.173 C 
HETATM    6  C6  UNL     1     -33.294   7.540   4.072  1.00 20.00     0.135 C 
HETATM    7  C7  UNL     1     -33.732   6.138   3.687  1.00 20.00     0.015 C 
HETATM    8  O10 UNL     1     -34.476   4.833   5.673  1.00 20.00    -0.234 OA
ENDROOT
BRANCH   6   9
HETATM    9  O11 UNL     1     -31.920   7.901   3.848  1.00 20.00    -0.385 OA
BRANCH   9  10
HETATM   10  C9  UNL     1     -31.824   8.982   2.941  1.00 20.00     0.163 C 
HETATM   11  C8  UNL     1     -31.818   8.440   1.527  1.00 20.00     0.033 C 
ENDBRANCH   9  10
ENDBRANCH   6   9
TORSDOF 2
ENDMDL
MODEL 2
REMARK VINA RESULT:      -4.0     11.159     12.394
REMARK  2 active torsions:
REMARK  status: ('A' for Active; 'I' for Inactive)
REMARK    1  A    between atoms: C6_6  and  O11_11 
REMARK    2  A    between atoms: C9_9  and  O11_11 
ROOT
HETATM    1  C1  UNL     1     -32.924  14.436  -4.542  1.00 20.00     0.002 C 
HETATM    2  C2  UNL     1     -34.305  13.988  -3.997  1.00 20.00     0.015 C 
HETATM    3  C3  UNL     1     -33.660  15.509  -5.384  1.00 20.00     0.015 C 
HETATM    4  C4  UNL     1     -36.844  14.198  -5.905  1.00 20.00     0.069 C 
HETATM    5  C5  UNL     1     -35.413  13.893  -6.427  1.00 20.00     0.173 C 
HETATM    6  C6  UNL     1     -36.241  15.378  -5.089  1.00 20.00     0.135 C 
HETATM    7  C7  UNL     1     -34.907  14.663  -5.218  1.00 20.00     0.015 C 
HETATM    8  O10 UNL     1     -35.132  12.521  -6.467  1.00 20.00    -0.234 OA
ENDROOT
BRANCH   6   9
HETATM    9  O11 UNL     1     -36.777  15.569  -3.769  1.00 20.00    -0.385 OA
BRANCH   9  10
HETATM   10  C9  UNL     1     -36.539  16.887  -3.313  1.00 20.00     0.163 C 
HETATM   11  C8  UNL     1     -35.621  16.835  -2.111  1.00 20.00     0.033 C 
ENDBRANCH   9  10
ENDBRANCH   6   9
TORSDOF 2
ENDMDL
MODEL 3
REMARK VINA RESULT:      -3.9     11.129     12.695
REMARK  2 active torsions:
REMARK  status: ('A' for Active; 'I' for Inactive)
REMARK    1  A    between atoms: C6_6  and  O11_11 
REMARK    2  A    between atoms: C9_9  and  O11_11 
ROOT
HETATM    1  C1  UNL     1     -34.218  16.565  -7.292  1.00 20.00     0.002 C 
HETATM    2  C2  UNL     1     -33.295  15.873  -6.257  1.00 20.00     0.015 C 
HETATM    3  C3  UNL     1     -35.328  16.591  -6.211  1.00 20.00     0.015 C 
HETATM    4  C4  UNL     1     -34.594  13.902  -4.122  1.00 20.00     0.069 C 
HETATM    5  C5  UNL     1     -35.148  14.077  -5.563  1.00 20.00     0.173 C 
HETATM    6  C6  UNL     1     -34.561  15.453  -4.001  1.00 20.00     0.135 C 
HETATM    7  C7  UNL     1     -34.562  15.479  -5.519  1.00 20.00     0.015 C 
HETATM    8  O10 UNL     1     -34.575  13.180  -6.475  1.00 20.00    -0.234 OA
ENDROOT
BRANCH   6   9
HETATM    9  O11 UNL     1     -33.422  16.007  -3.320  1.00 20.00    -0.385 OA
BRANCH   9  10
HETATM   10  C9  UNL     1     -33.818  17.015  -2.409  1.00 20.00     0.163 C 
HETATM   11  C8  UNL     1     -35.211  16.703  -1.904  1.00 20.00     0.033 C 
ENDBRANCH   9  10
ENDBRANCH   6   9
TORSDOF 2
ENDMDL
MODEL 4
REMARK VINA RESULT:      -3.8     11.279     12.409
REMARK  2 active torsions:
REMARK  status: ('A' for Active; 'I' for Inactive)
REMARK    1  A    between atoms: C6_6  and  O11_11 
REMARK    2  A    between atoms: C9_9  and  O11_11 
ROOT
HETATM    1  C1  UNL     1     -37.372  15.834  -5.635  1.00 20.00     0.002 C 
HETATM    2  C2  UNL     1     -35.871  15.874  -6.020  1.00 20.00     0.015 C 
HETATM    3  C3  UNL     1     -36.938  15.682  -4.156  1.00 20.00     0.015 C 
HETATM    4  C4  UNL     1     -33.804  14.169  -4.302  1.00 20.00     0.069 C 
HETATM    5  C5  UNL     1     -35.271  13.723  -4.552  1.00 20.00     0.173 C 
HETATM    6  C6  UNL     1     -34.351  15.571  -3.906  1.00 20.00     0.135 C 
HETATM    7  C7  UNL     1     -35.601  15.201  -4.685  1.00 20.00     0.015 C 
HETATM    8  O10 UNL     1     -35.409  12.937  -5.705  1.00 20.00    -0.234 OA
ENDROOT
BRANCH   6   9
HETATM    9  O11 UNL     1     -33.583  16.697  -4.362  1.00 20.00    -0.385 OA
BRANCH   9  10
HETATM   10  C9  UNL     1     -33.561  17.722  -3.387  1.00 20.00     0.163 C 
HETATM   11  C8  UNL     1     -33.730  17.102  -2.016  1.00 20.00     0.033 C 
ENDBRANCH   9  10
ENDBRANCH   6   9
TORSDOF 2
ENDMDL
MODEL 5
REMARK VINA RESULT:      -3.8     11.446     12.933
REMARK  2 active torsions:
REMARK  status: ('A' for Active; 'I' for Inactive)
REMARK    1  A    between atoms: C6_6  and  O11_11 
REMARK    2  A    between atoms: C9_9  and  O11_11 
ROOT
HETATM    1  C1  UNL     1     -33.084  14.641  -4.470  1.00 20.00     0.002 C 
HETATM    2  C2  UNL     1     -34.482  14.925  -3.865  1.00 20.00     0.015 C 
HETATM    3  C3  UNL     1     -33.592  15.242  -5.804  1.00 20.00     0.015 C 
HETATM    4  C4  UNL     1     -37.036  14.726  -5.755  1.00 20.00     0.069 C 
HETATM    5  C5  UNL     1     -35.776  13.834  -5.933  1.00 20.00     0.173 C 
HETATM    6  C6  UNL     1     -36.089  15.957  -5.661  1.00 20.00     0.135 C 
HETATM    7  C7  UNL     1     -34.995  14.971  -5.295  1.00 20.00     0.015 C 
HETATM    8  O10 UNL     1     -35.855  12.635  -5.210  1.00 20.00    -0.234 OA
ENDROOT
BRANCH   6   9
HETATM    9  O11 UNL     1     -36.448  16.954  -4.690  1.00 20.00    -0.385 OA
BRANCH   9  10
HETATM   10  C9  UNL     1     -36.137  18.252  -5.160  1.00 20.00     0.163 C 
HETATM   11  C8  UNL     1     -34.794  18.670  -4.602  1.00 20.00     0.033 C 
ENDBRANCH   9  10
ENDBRANCH   6   9
TORSDOF 2
ENDMDL
MODEL 6
REMARK VINA RESULT:      -3.7     11.633     12.778
REMARK  2 active torsions:
REMARK  status: ('A' for Active; 'I' for Inactive)
REMARK    1  A    between atoms: C6_6  and  O11_11 
REMARK    2  A    between atoms: C9_9  and  O11_11 
ROOT
HETATM    1  C1  UNL     1     -37.017  16.673  -4.558  1.00 20.00     0.002 C 
HETATM    2  C2  UNL     1     -36.461  15.285  -4.149  1.00 20.00     0.015 C 
HETATM    3  C3  UNL     1     -35.880  16.766  -5.605  1.00 20.00     0.015 C 
HETATM    4  C4  UNL     1     -33.322  14.785  -4.315  1.00 20.00     0.069 C 
HETATM    5  C5  UNL     1     -33.945  16.167  -3.972  1.00 20.00     0.173 C 
HETATM    6  C6  UNL     1     -34.304  14.698  -5.519  1.00 20.00     0.135 C 
HETATM    7  C7  UNL     1     -35.151  15.721  -4.782  1.00 20.00     0.015 C 
HETATM    8  O10 UNL     1     -34.138  16.346  -2.595  1.00 20.00    -0.234 OA
ENDROOT
BRANCH   6   9
HETATM    9  O11 UNL     1     -34.879  13.404  -5.768  1.00 20.00    -0.385 OA
BRANCH   9  10
HETATM   10  C9  UNL     1     -35.053  13.189  -7.156  1.00 20.00     0.163 C 
HETATM   11  C8  UNL     1     -34.092  14.076  -7.918  1.00 20.00     0.033 C 
ENDBRANCH   9  10
ENDBRANCH   6   9
TORSDOF 2
ENDMDL
MODEL 7
REMARK VINA RESULT:      -3.7      9.238     10.836
REMARK  2 active torsions:
REMARK  status: ('A' for Active; 'I' for Inactive)
REMARK    1  A    between atoms: C6_6  and  O11_11 
REMARK    2  A    between atoms: C9_9  and  O11_11 
ROOT
HETATM    1  C1  UNL     1     -41.303   7.957  -0.558  1.00 20.00     0.002 C 
HETATM    2  C2  UNL     1     -42.713   7.386  -0.856  1.00 20.00     0.015 C 
HETATM    3  C3  UNL     1     -40.744   6.520  -0.703  1.00 20.00     0.015 C 
HETATM    4  C4  UNL     1     -43.412   4.442   0.132  1.00 20.00     0.069 C 
HETATM    5  C5  UNL     1     -42.453   5.391   0.903  1.00 20.00     0.173 C 
HETATM    6  C6  UNL     1     -42.626   4.784  -1.166  1.00 20.00     0.135 C 
HETATM    7  C7  UNL     1     -42.157   6.034  -0.442  1.00 20.00     0.015 C 
HETATM    8  O10 UNL     1     -43.119   6.181   1.850  1.00 20.00    -0.234 OA
ENDROOT
BRANCH   6   9
HETATM    9  O11 UNL     1     -43.417   4.953  -2.354  1.00 20.00    -0.385 OA
BRANCH   9  10
HETATM   10  C9  UNL     1     -43.389   3.782  -3.149  1.00 20.00     0.163 C 
HETATM   11  C8  UNL     1     -42.024   3.139  -3.032  1.00 20.00     0.033 C 
ENDBRANCH   9  10
ENDBRANCH   6   9
TORSDOF 2
ENDMDL
MODEL 8
REMARK VINA RESULT:      -3.7     11.289     13.075
REMARK  2 active torsions:
REMARK  status: ('A' for Active; 'I' for Inactive)
REMARK    1  A    between atoms: C6_6  and  O11_11 
REMARK    2  A    between atoms: C9_9  and  O11_11 
ROOT
HETATM    1  C1  UNL     1     -35.038  16.390  -2.248  1.00 20.00     0.002 C 
HETATM    2  C2  UNL     1     -35.648  16.145  -3.652  1.00 20.00     0.015 C 
HETATM    3  C3  UNL     1     -33.677  16.653  -2.939  1.00 20.00     0.015 C 
HETATM    4  C4  UNL     1     -33.822  14.835  -5.906  1.00 20.00     0.069 C 
HETATM    5  C5  UNL     1     -33.680  14.498  -4.396  1.00 20.00     0.173 C 
HETATM    6  C6  UNL     1     -33.817  16.342  -5.518  1.00 20.00     0.135 C 
HETATM    7  C7  UNL     1     -34.228  15.890  -4.128  1.00 20.00     0.015 C 
HETATM    8  O10 UNL     1     -34.481  13.415  -4.006  1.00 20.00    -0.234 OA
ENDROOT
BRANCH   6   9
HETATM    9  O11 UNL     1     -34.727  17.182  -6.248  1.00 20.00    -0.385 OA
BRANCH   9  10
HETATM   10  C9  UNL     1     -34.066  18.331  -6.743  1.00 20.00     0.163 C 
HETATM   11  C8  UNL     1     -33.760  19.261  -5.588  1.00 20.00     0.033 C 
ENDBRANCH   9  10
ENDBRANCH   6   9
TORSDOF 2
ENDMDL
MODEL 9
REMARK VINA RESULT:      -3.6     11.663     13.252
REMARK  2 active torsions:
REMARK  status: ('A' for Active; 'I' for Inactive)
REMARK    1  A    between atoms: C6_6  and  O11_11 
REMARK    2  A    between atoms: C9_9  and  O11_11 
ROOT
HETATM    1  C1  UNL     1     -34.475  14.038  -4.183  1.00 20.00     0.002 C 
HETATM    2  C2  UNL     1     -35.210  15.390  -4.368  1.00 20.00     0.015 C 
HETATM    3  C3  UNL     1     -33.138  14.793  -4.391  1.00 20.00     0.015 C 
HETATM    4  C4  UNL     1     -33.971  17.548  -6.352  1.00 20.00     0.069 C 
HETATM    5  C5  UNL     1     -33.844  16.016  -6.577  1.00 20.00     0.173 C 
HETATM    6  C6  UNL     1     -33.512  17.320  -4.883  1.00 20.00     0.135 C 
HETATM    7  C7  UNL     1     -33.953  15.878  -5.067  1.00 20.00     0.015 C 
HETATM    8  O10 UNL     1     -34.897  15.491  -7.339  1.00 20.00    -0.234 OA
ENDROOT
BRANCH   6   9
HETATM    9  O11 UNL     1     -34.185  18.106  -3.885  1.00 20.00    -0.385 OA
BRANCH   9  10
HETATM   10  C9  UNL     1     -33.285  18.512  -2.871  1.00 20.00     0.163 C 
HETATM   11  C8  UNL     1     -33.331  17.507  -1.740  1.00 20.00     0.033 C 
ENDBRANCH   9  10
ENDBRANCH   6   9
TORSDOF 2
ENDMDL
