MODEL 1
REMARK VINA RESULT:      -4.7      0.000      0.000
REMARK  2 active torsions:
REMARK  status: ('A' for Active; 'I' for Inactive)
REMARK    1  A    between atoms: C6_6  and  O11_11 
REMARK    2  A    between atoms: C9_9  and  O11_11 
ROOT
HETATM    1  C1  UNL     1     -34.146   4.730   3.369  1.00 20.00     0.002 C 
HETATM    2  C2  UNL     1     -32.841   5.458   2.959  1.00 20.00     0.015 C 
HETATM    3  C3  UNL     1     -34.840   6.114   3.404  1.00 20.00     0.015 C 
HETATM    4  C4  UNL     1     -32.184   8.287   4.163  1.00 20.00     0.069 C 
HETATM    5  C5  UNL     1     -32.905   7.135   4.923  1.00 20.00     0.173 C 
HETATM    6  C6  UNL     1     -33.137   8.057   2.953  1.00 20.00     0.135 C 
HETATM    7  C7  UNL     1     -33.460   6.712   3.572  1.00 20.00     0.015 C 
HETATM    8  O10 UNL     1     -33.857   7.628   5.836  1.00 20.00    -0.234 OA
ENDROOT
BRANCH   6   9
HETATM    9  O11 UNL     1     -32.514   8.076   1.657  1.00 20.00    -0.385 OA
BRANCH   9  10
HETATM   10  C9  UNL     1     -32.488   9.389   1.128  1.00 20.00     0.163 C 
HETATM   11  C8  UNL     1     -33.025   9.361  -0.288  1.00 20.00     0.033 C 
ENDBRANCH   9  10
ENDBRANCH   6   9
TORSDOF 2
ENDMDL
MODEL 2
REMARK VINA RESULT:      -4.4     10.631     11.618
REMARK  2 active torsions:
REMARK  status: ('A' for Active; 'I' for Inactive)
REMARK    1  A    between atoms: C6_6  and  O11_11 
REMARK    2  A    between atoms: C9_9  and  O11_11 
ROOT
HETATM    1  C1  UNL     1     -37.334  16.191  -5.632  1.00 20.00     0.002 C 
HETATM    2  C2  UNL     1     -35.832  16.572  -5.625  1.00 20.00     0.015 C 
HETATM    3  C3  UNL     1     -37.087  15.422  -4.311  1.00 20.00     0.015 C 
HETATM    4  C4  UNL     1     -33.701  14.515  -4.573  1.00 20.00     0.069 C 
HETATM    5  C5  UNL     1     -34.996  14.144  -5.355  1.00 20.00     0.173 C 
HETATM    6  C6  UNL     1     -34.549  15.438  -3.648  1.00 20.00     0.135 C 
HETATM    7  C7  UNL     1     -35.628  15.368  -4.710  1.00 20.00     0.015 C 
HETATM    8  O10 UNL     1     -35.520  12.906  -4.936  1.00 20.00    -0.234 OA
ENDROOT
BRANCH   6   9
HETATM    9  O11 UNL     1     -33.972  16.721  -3.350  1.00 20.00    -0.385 OA
BRANCH   9  10
HETATM   10  C9  UNL     1     -33.903  16.932  -1.953  1.00 20.00     0.163 C 
HETATM   11  C8  UNL     1     -35.303  16.892  -1.377  1.00 20.00     0.033 C 
ENDBRANCH   9  10
ENDBRANCH   6   9
TORSDOF 2
ENDMDL
MODEL 3
REMARK VINA RESULT:      -4.3     11.151     12.260
REMARK  2 active torsions:
REMARK  status: ('A' for Active; 'I' for Inactive)
REMARK    1  A    between atoms: C6_6  and  O11_11 
REMARK    2  A    between atoms: C9_9  and  O11_11 
ROOT
HETATM    1  C1  UNL     1     -37.844  14.451  -5.668  1.00 20.00     0.002 C 
HETATM    2  C2  UNL     1     -36.944  15.337  -6.566  1.00 20.00     0.015 C 
HETATM    3  C3  UNL     1     -36.555  13.945  -4.974  1.00 20.00     0.015 C 
HETATM    4  C4  UNL     1     -34.140  14.272  -7.506  1.00 20.00     0.069 C 
HETATM    5  C5  UNL     1     -35.414  13.396  -7.318  1.00 20.00     0.173 C 
HETATM    6  C6  UNL     1     -34.402  14.917  -6.113  1.00 20.00     0.135 C 
HETATM    7  C7  UNL     1     -35.812  14.372  -6.221  1.00 20.00     0.015 C 
HETATM    8  O10 UNL     1     -35.094  12.098  -6.879  1.00 20.00    -0.234 OA
ENDROOT
BRANCH   6   9
HETATM    9  O11 UNL     1     -34.228  16.343  -6.044  1.00 20.00    -0.385 OA
BRANCH   9  10
HETATM   10  C9  UNL     1     -33.315  16.692  -5.021  1.00 20.00     0.163 C 
HETATM   11  C8  UNL     1     -33.714  15.988  -3.741  1.00 20.00     0.033 C 
ENDBRANCH   9  10
ENDBRANCH   6   9
TORSDOF 2
ENDMDL
MODEL 4
REMARK VINA RESULT:      -4.3     10.754     11.855
REMARK  2 active torsions:
REMARK  status: ('A' for Active; 'I' for Inactive)
REMARK    1  A    between atoms: C6_6  and  O11_11 
REMARK    2  A    between atoms: C9_9  and  O11_11 
ROOT
HETATM    1  C1  UNL     1     -33.996  14.563  -7.734  1.00 20.00     0.002 C 
HETATM    2  C2  UNL     1     -34.339  15.785  -6.844  1.00 20.00     0.015 C 
HETATM    3  C3  UNL     1     -34.621  13.663  -6.640  1.00 20.00     0.015 C 
HETATM    4  C4  UNL     1     -34.127  15.551  -3.717  1.00 20.00     0.069 C 
HETATM    5  C5  UNL     1     -33.183  14.845  -4.734  1.00 20.00     0.173 C 
HETATM    6  C6  UNL     1     -35.352  15.060  -4.544  1.00 20.00     0.135 C 
HETATM    7  C7  UNL     1     -34.377  14.804  -5.676  1.00 20.00     0.015 C 
HETATM    8  O10 UNL     1     -32.749  13.592  -4.260  1.00 20.00    -0.234 OA
ENDROOT
BRANCH   6   9
HETATM    9  O11 UNL     1     -36.393  16.032  -4.752  1.00 20.00    -0.385 OA
BRANCH   9  10
HETATM   10  C9  UNL     1     -37.648  15.521  -4.347  1.00 20.00     0.163 C 
HETATM   11  C8  UNL     1     -38.100  14.473  -5.342  1.00 20.00     0.033 C 
ENDBRANCH   9  10
ENDBRANCH   6   9
TORSDOF 2
ENDMDL
MODEL 5
REMARK VINA RESULT:      -4.2     10.528     12.150
REMARK  2 active torsions:
REMARK  status: ('A' for Active; 'I' for Inactive)
REMARK    1  A    between atoms: C6_6  and  O11_11 
REMARK    2  A    between atoms: C9_9  and  O11_11 
ROOT
HETATM    1  C1  UNL     1     -33.771  15.526  -4.006  1.00 20.00     0.002 C 
HETATM    2  C2  UNL     1     -34.551  14.195  -4.153  1.00 20.00     0.015 C 
HETATM    3  C3  UNL     1     -34.662  16.106  -5.131  1.00 20.00     0.015 C 
HETATM    4  C4  UNL     1     -35.506  13.247  -6.993  1.00 20.00     0.069 C 
HETATM    5  C5  UNL     1     -34.179  14.010  -6.702  1.00 20.00     0.173 C 
HETATM    6  C6  UNL     1     -36.270  14.286  -6.121  1.00 20.00     0.135 C 
HETATM    7  C7  UNL     1     -34.921  14.676  -5.553  1.00 20.00     0.015 C 
HETATM    8  O10 UNL     1     -33.825  14.864  -7.764  1.00 20.00    -0.234 OA
ENDROOT
BRANCH   6   9
HETATM    9  O11 UNL     1     -37.253  13.742  -5.223  1.00 20.00    -0.385 OA
BRANCH   9  10
HETATM   10  C9  UNL     1     -38.450  14.496  -5.267  1.00 20.00     0.163 C 
HETATM   11  C8  UNL     1     -38.319  15.686  -4.341  1.00 20.00     0.033 C 
ENDBRANCH   9  10
ENDBRANCH   6   9
TORSDOF 2
ENDMDL
MODEL 6
REMARK VINA RESULT:      -4.1     10.137     11.926
REMARK  2 active torsions:
REMARK  status: ('A' for Active; 'I' for Inactive)
REMARK    1  A    between atoms: C6_6  and  O11_11 
REMARK    2  A    between atoms: C9_9  and  O11_11 
ROOT
HETATM    1  C1  UNL     1     -34.632  16.571  -2.318  1.00 20.00     0.002 C 
HETATM    2  C2  UNL     1     -35.755  16.090  -3.270  1.00 20.00     0.015 C 
HETATM    3  C3  UNL     1     -33.667  16.532  -3.529  1.00 20.00     0.015 C 
HETATM    4  C4  UNL     1     -35.094  14.049  -5.566  1.00 20.00     0.069 C 
HETATM    5  C5  UNL     1     -34.431  14.059  -4.157  1.00 20.00     0.173 C 
HETATM    6  C6  UNL     1     -34.848  15.583  -5.670  1.00 20.00     0.135 C 
HETATM    7  C7  UNL     1     -34.640  15.565  -4.169  1.00 20.00     0.015 C 
HETATM    8  O10 UNL     1     -33.088  13.638  -4.210  1.00 20.00    -0.234 OA
ENDROOT
BRANCH   6   9
HETATM    9  O11 UNL     1     -35.943  16.355  -6.194  1.00 20.00    -0.385 OA
BRANCH   9  10
HETATM   10  C9  UNL     1     -35.482  17.320  -7.121  1.00 20.00     0.163 C 
HETATM   11  C8  UNL     1     -34.042  17.015  -7.477  1.00 20.00     0.033 C 
ENDBRANCH   9  10
ENDBRANCH   6   9
TORSDOF 2
ENDMDL
MODEL 7
REMARK VINA RESULT:      -4.1     10.720     12.094
REMARK  2 active torsions:
REMARK  status: ('A' for Active; 'I' for Inactive)
REMARK    1  A    between atoms: C6_6  and  O11_11 
REMARK    2  A    between atoms: C9_9  and  O11_11 
ROOT
HETATM    1  C1  UNL     1     -33.116  14.854  -4.269  1.00 20.00     0.002 C 
HETATM    2  C2  UNL     1     -34.524  15.215  -3.733  1.00 20.00     0.015 C 
HETATM    3  C3  UNL     1     -33.691  14.984  -5.702  1.00 20.00     0.015 C 
HETATM    4  C4  UNL     1     -37.084  14.191  -5.242  1.00 20.00     0.069 C 
HETATM    5  C5  UNL     1     -35.749  13.401  -5.105  1.00 20.00     0.173 C 
HETATM    6  C6  UNL     1     -36.271  15.451  -5.665  1.00 20.00     0.135 C 
HETATM    7  C7  UNL     1     -35.055  14.755  -5.088  1.00 20.00     0.015 C 
HETATM    8  O10 UNL     1     -35.492  12.609  -6.239  1.00 20.00    -0.234 OA
ENDROOT
BRANCH   6   9
HETATM    9  O11 UNL     1     -36.691  16.691  -5.069  1.00 20.00    -0.385 OA
BRANCH   9  10
HETATM   10  C9  UNL     1     -36.559  17.761  -5.985  1.00 20.00     0.163 C 
HETATM   11  C8  UNL     1     -35.243  18.467  -5.732  1.00 20.00     0.033 C 
ENDBRANCH   9  10
ENDBRANCH   6   9
TORSDOF 2
ENDMDL
MODEL 8
REMARK VINA RESULT:      -4.0     10.543     11.790
REMARK  2 active torsions:
REMARK  status: ('A' for Active; 'I' for Inactive)
REMARK    1  A    between atoms: C6_6  and  O11_11 
REMARK    2  A    between atoms: C9_9  and  O11_11 
ROOT
HETATM    1  C1  UNL     1     -37.067  16.588  -4.468  1.00 20.00     0.002 C 
HETATM    2  C2  UNL     1     -36.617  15.136  -4.169  1.00 20.00     0.015 C 
HETATM    3  C3  UNL     1     -35.904  16.677  -5.487  1.00 20.00     0.015 C 
HETATM    4  C4  UNL     1     -33.558  14.412  -4.177  1.00 20.00     0.069 C 
HETATM    5  C5  UNL     1     -34.158  15.766  -3.694  1.00 20.00     0.173 C 
HETATM    6  C6  UNL     1     -34.432  14.507  -5.462  1.00 20.00     0.135 C 
HETATM    7  C7  UNL     1     -35.255  15.543  -4.724  1.00 20.00     0.015 C 
HETATM    8  O10 UNL     1     -33.293  16.844  -3.961  1.00 20.00    -0.234 OA
ENDROOT
BRANCH   6   9
HETATM    9  O11 UNL     1     -35.080  13.288  -5.866  1.00 20.00    -0.385 OA
BRANCH   9  10
HETATM   10  C9  UNL     1     -35.168  13.206  -7.276  1.00 20.00     0.163 C 
HETATM   11  C8  UNL     1     -34.063  14.040  -7.890  1.00 20.00     0.033 C 
ENDBRANCH   9  10
ENDBRANCH   6   9
TORSDOF 2
ENDMDL
MODEL 9
REMARK VINA RESULT:      -4.0     10.548     11.455
REMARK  2 active torsions:
REMARK  status: ('A' for Active; 'I' for Inactive)
REMARK    1  A    between atoms: C6_6  and  O11_11 
REMARK    2  A    between atoms: C9_9  and  O11_11 
ROOT
HETATM    1  C1  UNL     1     -36.063  13.945  -6.451  1.00 20.00     0.002 C 
HETATM    2  C2  UNL     1     -35.575  15.396  -6.208  1.00 20.00     0.015 C 
HETATM    3  C3  UNL     1     -35.900  13.697  -4.931  1.00 20.00     0.015 C 
HETATM    4  C4  UNL     1     -33.361  15.962  -4.051  1.00 20.00     0.069 C 
HETATM    5  C5  UNL     1     -33.430  14.695  -4.953  1.00 20.00     0.173 C 
HETATM    6  C6  UNL     1     -34.872  15.784  -3.719  1.00 20.00     0.135 C 
HETATM    7  C7  UNL     1     -34.941  14.868  -4.925  1.00 20.00     0.015 C 
HETATM    8  O10 UNL     1     -32.944  13.554  -4.287  1.00 20.00    -0.234 OA
ENDROOT
BRANCH   6   9
HETATM    9  O11 UNL     1     -35.659  16.987  -3.735  1.00 20.00    -0.385 OA
BRANCH   9  10
HETATM   10  C9  UNL     1     -36.349  17.156  -2.511  1.00 20.00     0.163 C 
HETATM   11  C8  UNL     1     -35.388  16.916  -1.366  1.00 20.00     0.033 C 
ENDBRANCH   9  10
ENDBRANCH   6   9
TORSDOF 2
ENDMDL
