MODEL 1
REMARK VINA RESULT:      -5.5      0.000      0.000
REMARK  2 active torsions:
REMARK  status: ('A' for Active; 'I' for Inactive)
REMARK    1  A    between atoms: C3_3  and  C6_6 
REMARK    2  A    between atoms: C6_6  and  C7_7 
ROOT
HETATM    1  C1  UNL     1     -32.348   8.178   2.254  1.00 20.00    -0.176 C 
HETATM    2  C2  UNL     1     -32.174   9.027   1.288  1.00 20.00     0.091 C 
HETATM    3  C3  UNL     1     -32.519   7.327   3.225  1.00 20.00     0.067 C 
ENDROOT
BRANCH   3   4
HETATM    4  C6  UNL     1     -33.641   6.332   3.305  1.00 20.00     0.021 C 
BRANCH   4   5
HETATM    5  C7  UNL     1     -34.408   6.390   4.639  1.00 20.00    -0.021 C 
HETATM    6  C4  UNL     1     -33.691   7.253   5.680  1.00 20.00     0.009 C 
HETATM    7  C5  UNL     1     -34.605   4.976   5.188  1.00 20.00     0.009 C 
ENDBRANCH   4   5
ENDBRANCH   3   4
TORSDOF 2
ENDMDL
MODEL 2
REMARK VINA RESULT:      -5.5      1.120      1.354
REMARK  2 active torsions:
REMARK  status: ('A' for Active; 'I' for Inactive)
REMARK    1  A    between atoms: C3_3  and  C6_6 
REMARK    2  A    between atoms: C6_6  and  C7_7 
ROOT
HETATM    1  C1  UNL     1     -32.506   7.235   2.929  1.00 20.00    -0.176 C 
HETATM    2  C2  UNL     1     -31.695   8.244   3.018  1.00 20.00     0.091 C 
HETATM    3  C3  UNL     1     -33.318   6.221   2.837  1.00 20.00     0.067 C 
ENDROOT
BRANCH   3   4
HETATM    4  C6  UNL     1     -34.732   6.207   3.341  1.00 20.00     0.021 C 
BRANCH   4   5
HETATM    5  C7  UNL     1     -34.904   5.400   4.642  1.00 20.00    -0.021 C 
HETATM    6  C4  UNL     1     -34.373   6.155   5.863  1.00 20.00     0.009 C 
HETATM    7  C5  UNL     1     -34.190   4.053   4.517  1.00 20.00     0.009 C 
ENDBRANCH   4   5
ENDBRANCH   3   4
TORSDOF 2
ENDMDL
MODEL 3
REMARK VINA RESULT:      -5.2      0.957      1.577
REMARK  2 active torsions:
REMARK  status: ('A' for Active; 'I' for Inactive)
REMARK    1  A    between atoms: C3_3  and  C6_6 
REMARK    2  A    between atoms: C6_6  and  C7_7 
ROOT
HETATM    1  C1  UNL     1     -32.252   8.479   2.013  1.00 20.00    -0.176 C 
HETATM    2  C2  UNL     1     -32.184   9.385   1.086  1.00 20.00     0.091 C 
HETATM    3  C3  UNL     1     -32.316   7.569   2.943  1.00 20.00     0.067 C 
ENDROOT
BRANCH   3   4
HETATM    4  C6  UNL     1     -33.528   7.283   3.780  1.00 20.00     0.021 C 
BRANCH   4   5
HETATM    5  C7  UNL     1     -34.193   5.935   3.444  1.00 20.00    -0.021 C 
HETATM    6  C4  UNL     1     -34.764   5.247   4.687  1.00 20.00     0.009 C 
HETATM    7  C5  UNL     1     -33.182   5.012   2.761  1.00 20.00     0.009 C 
ENDBRANCH   4   5
ENDBRANCH   3   4
TORSDOF 2
ENDMDL
MODEL 4
REMARK VINA RESULT:      -5.2      0.742      1.577
REMARK  2 active torsions:
REMARK  status: ('A' for Active; 'I' for Inactive)
REMARK    1  A    between atoms: C3_3  and  C6_6 
REMARK    2  A    between atoms: C6_6  and  C7_7 
ROOT
HETATM    1  C1  UNL     1     -32.591   7.572   2.458  1.00 20.00    -0.176 C 
HETATM    2  C2  UNL     1     -31.898   8.648   2.242  1.00 20.00     0.091 C 
HETATM    3  C3  UNL     1     -33.284   6.490   2.671  1.00 20.00     0.067 C 
ENDROOT
BRANCH   3   4
HETATM    4  C6  UNL     1     -34.386   6.365   3.684  1.00 20.00     0.021 C 
BRANCH   4   5
HETATM    5  C7  UNL     1     -33.874   6.033   5.098  1.00 20.00    -0.021 C 
HETATM    6  C4  UNL     1     -34.721   4.955   5.780  1.00 20.00     0.009 C 
HETATM    7  C5  UNL     1     -33.860   7.299   5.957  1.00 20.00     0.009 C 
ENDBRANCH   4   5
ENDBRANCH   3   4
TORSDOF 2
ENDMDL
MODEL 5
REMARK VINA RESULT:      -5.0      1.761      4.550
REMARK  2 active torsions:
REMARK  status: ('A' for Active; 'I' for Inactive)
REMARK    1  A    between atoms: C3_3  and  C6_6 
REMARK    2  A    between atoms: C6_6  and  C7_7 
ROOT
HETATM    1  C1  UNL     1     -33.045   6.943   2.744  1.00 20.00    -0.176 C 
HETATM    2  C2  UNL     1     -33.612   5.789   2.920  1.00 20.00     0.091 C 
HETATM    3  C3  UNL     1     -32.477   8.103   2.570  1.00 20.00     0.067 C 
ENDROOT
BRANCH   3   4
HETATM    4  C6  UNL     1     -31.633   8.474   1.386  1.00 20.00     0.021 C 
BRANCH   4   5
HETATM    5  C7  UNL     1     -32.179   9.687   0.609  1.00 20.00    -0.021 C 
HETATM    6  C4  UNL     1     -32.890  10.687   1.525  1.00 20.00     0.009 C 
HETATM    7  C5  UNL     1     -33.139   9.215  -0.485  1.00 20.00     0.009 C 
ENDBRANCH   4   5
ENDBRANCH   3   4
TORSDOF 2
ENDMDL
MODEL 6
REMARK VINA RESULT:      -5.0      1.028      4.033
REMARK  2 active torsions:
REMARK  status: ('A' for Active; 'I' for Inactive)
REMARK    1  A    between atoms: C3_3  and  C6_6 
REMARK    2  A    between atoms: C6_6  and  C7_7 
ROOT
HETATM    1  C1  UNL     1     -34.451   5.643   4.462  1.00 20.00    -0.176 C 
HETATM    2  C2  UNL     1     -34.614   5.246   5.687  1.00 20.00     0.091 C 
HETATM    3  C3  UNL     1     -34.292   6.040   3.232  1.00 20.00     0.067 C 
ENDROOT
BRANCH   3   4
HETATM    4  C6  UNL     1     -32.980   6.446   2.625  1.00 20.00     0.021 C 
BRANCH   4   5
HETATM    5  C7  UNL     1     -32.696   7.955   2.750  1.00 20.00    -0.021 C 
HETATM    6  C4  UNL     1     -32.396   8.599   1.394  1.00 20.00     0.009 C 
HETATM    7  C5  UNL     1     -31.522   8.187   3.703  1.00 20.00     0.009 C 
ENDBRANCH   4   5
ENDBRANCH   3   4
TORSDOF 2
ENDMDL
MODEL 7
REMARK VINA RESULT:      -4.9      0.831      4.078
REMARK  2 active torsions:
REMARK  status: ('A' for Active; 'I' for Inactive)
REMARK    1  A    between atoms: C3_3  and  C6_6 
REMARK    2  A    between atoms: C6_6  and  C7_7 
ROOT
HETATM    1  C1  UNL     1     -34.240   6.119   5.627  1.00 20.00    -0.176 C 
HETATM    2  C2  UNL     1     -34.736   4.923   5.725  1.00 20.00     0.091 C 
HETATM    3  C3  UNL     1     -33.746   7.320   5.532  1.00 20.00     0.067 C 
ENDROOT
BRANCH   3   4
HETATM    4  C6  UNL     1     -32.687   7.735   4.552  1.00 20.00     0.021 C 
BRANCH   4   5
HETATM    5  C7  UNL     1     -33.092   7.495   3.085  1.00 20.00    -0.021 C 
HETATM    6  C4  UNL     1     -32.914   6.033   2.669  1.00 20.00     0.009 C 
HETATM    7  C5  UNL     1     -32.269   8.398   2.163  1.00 20.00     0.009 C 
ENDBRANCH   4   5
ENDBRANCH   3   4
TORSDOF 2
ENDMDL
MODEL 8
REMARK VINA RESULT:      -4.9      1.526      4.632
REMARK  2 active torsions:
REMARK  status: ('A' for Active; 'I' for Inactive)
REMARK    1  A    between atoms: C3_3  and  C6_6 
REMARK    2  A    between atoms: C6_6  and  C7_7 
ROOT
HETATM    1  C1  UNL     1     -33.078   6.985   3.095  1.00 20.00    -0.176 C 
HETATM    2  C2  UNL     1     -34.011   6.099   3.272  1.00 20.00     0.091 C 
HETATM    3  C3  UNL     1     -32.142   7.873   2.921  1.00 20.00     0.067 C 
ENDROOT
BRANCH   3   4
HETATM    4  C6  UNL     1     -31.781   8.489   1.600  1.00 20.00     0.021 C 
BRANCH   4   5
HETATM    5  C7  UNL     1     -32.870   9.430   1.051  1.00 20.00    -0.021 C 
HETATM    6  C4  UNL     1     -33.007   9.328  -0.470  1.00 20.00     0.009 C 
HETATM    7  C5  UNL     1     -32.557  10.874   1.446  1.00 20.00     0.009 C 
ENDBRANCH   4   5
ENDBRANCH   3   4
TORSDOF 2
ENDMDL
MODEL 9
REMARK VINA RESULT:      -4.9      0.847      4.046
REMARK  2 active torsions:
REMARK  status: ('A' for Active; 'I' for Inactive)
REMARK    1  A    between atoms: C3_3  and  C6_6 
REMARK    2  A    between atoms: C6_6  and  C7_7 
ROOT
HETATM    1  C1  UNL     1     -34.254   6.079   4.842  1.00 20.00    -0.176 C 
HETATM    2  C2  UNL     1     -34.659   5.102   5.594  1.00 20.00     0.091 C 
HETATM    3  C3  UNL     1     -33.848   7.062   4.090  1.00 20.00     0.067 C 
ENDROOT
BRANCH   3   4
HETATM    4  C6  UNL     1     -33.321   6.910   2.692  1.00 20.00     0.021 C 
BRANCH   4   5
HETATM    5  C7  UNL     1     -32.095   7.799   2.407  1.00 20.00    -0.021 C 
HETATM    6  C4  UNL     1     -31.448   8.320   3.692  1.00 20.00     0.009 C 
HETATM    7  C5  UNL     1     -32.502   8.977   1.519  1.00 20.00     0.009 C 
ENDBRANCH   4   5
ENDBRANCH   3   4
TORSDOF 2
ENDMDL
