MODEL 1
REMARK VINA RESULT:      -4.0      0.000      0.000
REMARK  3 active torsions:
REMARK  status: ('A' for Active; 'I' for Inactive)
REMARK    1  A    between atoms: C1_1  and  C6_6 
REMARK    2  A    between atoms: C6_6  and  C7_7 
REMARK    3  A    between atoms: C6_6  and  O9_9 
ROOT
HETATM    1  C2  UNL     1     -35.216  15.505  -6.968  1.00 20.00     0.054 C 
HETATM    2  C6  UNL     1     -34.721  14.554  -5.872  1.00 20.00     0.113 C 
ENDROOT
BRANCH   2   3
HETATM    3  C1  UNL     1     -35.932  13.787  -5.347  1.00 20.00     0.269 C 
HETATM    4  O8  UNL     1     -35.956  12.573  -5.164  1.00 20.00    -0.304 OA
ENDBRANCH   2   3
BRANCH   2   5
HETATM    5  C7  UNL     1     -33.933  15.253  -4.708  1.00 20.00    -0.014 C 
HETATM    6  C3  UNL     1     -33.348  16.605  -5.183  1.00 20.00     0.018 C 
HETATM    7  C4  UNL     1     -32.741  14.380  -4.254  1.00 20.00     0.018 C 
HETATM    8  C5  UNL     1     -34.817  15.521  -3.473  1.00 20.00     0.018 C 
ENDBRANCH   2   5
BRANCH   2   9
HETATM    9  O9  UNL     1     -33.868  13.585  -6.485  1.00 20.00    -0.382 OA
HETATM   10  H23 UNL     1     -34.307  13.316  -7.305  1.00 20.00     0.211 HD
ENDBRANCH   2   9
TORSDOF 3
ENDMDL
MODEL 2
REMARK VINA RESULT:      -4.0      1.380      2.197
REMARK  3 active torsions:
REMARK  status: ('A' for Active; 'I' for Inactive)
REMARK    1  A    between atoms: C1_1  and  C6_6 
REMARK    2  A    between atoms: C6_6  and  C7_7 
REMARK    3  A    between atoms: C6_6  and  O9_9 
ROOT
HETATM    1  C2  UNL     1     -35.514  13.553  -7.137  1.00 20.00     0.054 C 
HETATM    2  C6  UNL     1     -35.881  13.883  -5.685  1.00 20.00     0.113 C 
ENDROOT
BRANCH   2   3
HETATM    3  C1  UNL     1     -37.329  14.365  -5.674  1.00 20.00     0.269 C 
HETATM    4  O8  UNL     1     -38.235  13.821  -5.048  1.00 20.00    -0.304 OA
ENDBRANCH   2   3
BRANCH   2   5
HETATM    5  C7  UNL     1     -34.925  14.914  -4.988  1.00 20.00    -0.014 C 
HETATM    6  C3  UNL     1     -35.673  15.676  -3.867  1.00 20.00     0.018 C 
HETATM    7  C4  UNL     1     -34.431  15.972  -6.001  1.00 20.00     0.018 C 
HETATM    8  C5  UNL     1     -33.683  14.243  -4.365  1.00 20.00     0.018 C 
ENDBRANCH   2   5
BRANCH   2   9
HETATM    9  O9  UNL     1     -35.859  12.662  -4.941  1.00 20.00    -0.382 OA
HETATM   10  H23 UNL     1     -36.260  12.859  -4.082  1.00 20.00     0.211 HD
ENDBRANCH   2   9
TORSDOF 3
ENDMDL
MODEL 3
REMARK VINA RESULT:      -4.0      0.061      1.441
REMARK  3 active torsions:
REMARK  status: ('A' for Active; 'I' for Inactive)
REMARK    1  A    between atoms: C1_1  and  C6_6 
REMARK    2  A    between atoms: C6_6  and  C7_7 
REMARK    3  A    between atoms: C6_6  and  O9_9 
ROOT
HETATM    1  C2  UNL     1     -35.263  15.548  -6.906  1.00 20.00     0.054 C 
HETATM    2  C6  UNL     1     -34.718  14.570  -5.858  1.00 20.00     0.113 C 
ENDROOT
BRANCH   2   3
HETATM    3  C1  UNL     1     -35.905  13.795  -5.291  1.00 20.00     0.269 C 
HETATM    4  O8  UNL     1     -35.952  12.571  -5.199  1.00 20.00    -0.304 OA
ENDBRANCH   2   3
BRANCH   2   5
HETATM    5  C7  UNL     1     -33.869  15.238  -4.719  1.00 20.00    -0.014 C 
HETATM    6  C3  UNL     1     -34.752  15.524  -3.481  1.00 20.00     0.018 C 
HETATM    7  C4  UNL     1     -33.298  16.596  -5.190  1.00 20.00     0.018 C 
HETATM    8  C5  UNL     1     -32.684  14.359  -4.271  1.00 20.00     0.018 C 
ENDBRANCH   2   5
BRANCH   2   9
HETATM    9  O9  UNL     1     -33.901  13.613  -6.537  1.00 20.00    -0.382 OA
HETATM   10  H23 UNL     1     -33.129  14.097  -6.864  1.00 20.00     0.211 HD
ENDBRANCH   2   9
TORSDOF 3
ENDMDL
MODEL 4
REMARK VINA RESULT:      -4.0      1.406      1.755
REMARK  3 active torsions:
REMARK  status: ('A' for Active; 'I' for Inactive)
REMARK    1  A    between atoms: C1_1  and  C6_6 
REMARK    2  A    between atoms: C6_6  and  C7_7 
REMARK    3  A    between atoms: C6_6  and  O9_9 
ROOT
HETATM    1  C2  UNL     1     -35.537  13.619  -7.131  1.00 20.00     0.054 C 
HETATM    2  C6  UNL     1     -35.917  13.912  -5.675  1.00 20.00     0.113 C 
ENDROOT
BRANCH   2   3
HETATM    3  C1  UNL     1     -37.373  14.371  -5.663  1.00 20.00     0.269 C 
HETATM    4  O8  UNL     1     -38.271  13.809  -5.041  1.00 20.00    -0.304 OA
ENDBRANCH   2   3
BRANCH   2   5
HETATM    5  C7  UNL     1     -34.982  14.943  -4.950  1.00 20.00    -0.014 C 
HETATM    6  C3  UNL     1     -34.394  15.951  -5.967  1.00 20.00     0.018 C 
HETATM    7  C4  UNL     1     -33.786  14.223  -4.285  1.00 20.00     0.018 C 
HETATM    8  C5  UNL     1     -35.718  15.741  -3.855  1.00 20.00     0.018 C 
ENDBRANCH   2   5
BRANCH   2   9
HETATM    9  O9  UNL     1     -35.881  12.676  -4.957  1.00 20.00    -0.382 OA
HETATM   10  H23 UNL     1     -34.946  12.437  -4.874  1.00 20.00     0.211 HD
ENDBRANCH   2   9
TORSDOF 3
ENDMDL
MODEL 5
REMARK VINA RESULT:      -4.0      0.065      1.435
REMARK  3 active torsions:
REMARK  status: ('A' for Active; 'I' for Inactive)
REMARK    1  A    between atoms: C1_1  and  C6_6 
REMARK    2  A    between atoms: C6_6  and  C7_7 
REMARK    3  A    between atoms: C6_6  and  O9_9 
ROOT
HETATM    1  C2  UNL     1     -35.287  15.531  -6.909  1.00 20.00     0.054 C 
HETATM    2  C6  UNL     1     -34.730  14.587  -5.836  1.00 20.00     0.113 C 
ENDROOT
BRANCH   2   3
HETATM    3  C1  UNL     1     -35.906  13.809  -5.253  1.00 20.00     0.269 C 
HETATM    4  O8  UNL     1     -35.961  12.583  -5.189  1.00 20.00    -0.304 OA
ENDBRANCH   2   3
BRANCH   2   5
HETATM    5  C7  UNL     1     -33.894  15.296  -4.713  1.00 20.00    -0.014 C 
HETATM    6  C3  UNL     1     -32.705  14.406  -4.276  1.00 20.00     0.018 C 
HETATM    7  C4  UNL     1     -34.763  15.537  -3.456  1.00 20.00     0.018 C 
HETATM    8  C5  UNL     1     -33.332  16.659  -5.164  1.00 20.00     0.018 C 
ENDBRANCH   2   5
BRANCH   2   9
HETATM    9  O9  UNL     1     -33.897  13.626  -6.490  1.00 20.00    -0.382 OA
HETATM   10  H23 UNL     1     -33.071  13.593  -5.984  1.00 20.00     0.211 HD
ENDBRANCH   2   9
TORSDOF 3
ENDMDL
MODEL 6
REMARK VINA RESULT:      -3.9      1.445      3.127
REMARK  3 active torsions:
REMARK  status: ('A' for Active; 'I' for Inactive)
REMARK    1  A    between atoms: C1_1  and  C6_6 
REMARK    2  A    between atoms: C6_6  and  C7_7 
REMARK    3  A    between atoms: C6_6  and  O9_9 
ROOT
HETATM    1  C2  UNL     1     -36.953  14.795  -4.486  1.00 20.00     0.054 C 
HETATM    2  C6  UNL     1     -35.749  14.091  -5.123  1.00 20.00     0.113 C 
ENDROOT
BRANCH   2   3
HETATM    3  C1  UNL     1     -34.532  14.381  -4.249  1.00 20.00     0.269 C 
HETATM    4  O8  UNL     1     -33.576  13.621  -4.119  1.00 20.00    -0.304 OA
ENDBRANCH   2   3
BRANCH   2   5
HETATM    5  C7  UNL     1     -35.487  14.476  -6.622  1.00 20.00    -0.014 C 
HETATM    6  C3  UNL     1     -34.698  15.804  -6.712  1.00 20.00     0.018 C 
HETATM    7  C4  UNL     1     -36.821  14.691  -7.372  1.00 20.00     0.018 C 
HETATM    8  C5  UNL     1     -34.690  13.393  -7.379  1.00 20.00     0.018 C 
ENDBRANCH   2   5
BRANCH   2   9
HETATM    9  O9  UNL     1     -35.974  12.682  -5.044  1.00 20.00    -0.382 OA
HETATM   10  H23 UNL     1     -36.686  12.484  -5.670  1.00 20.00     0.211 HD
ENDBRANCH   2   9
TORSDOF 3
ENDMDL
MODEL 7
REMARK VINA RESULT:      -3.9     11.439     12.579
REMARK  3 active torsions:
REMARK  status: ('A' for Active; 'I' for Inactive)
REMARK    1  A    between atoms: C1_1  and  C6_6 
REMARK    2  A    between atoms: C6_6  and  C7_7 
REMARK    3  A    between atoms: C6_6  and  O9_9 
ROOT
HETATM    1  C2  UNL     1     -32.707   4.630   2.615  1.00 20.00     0.054 C 
HETATM    2  C6  UNL     1     -33.486   5.913   2.927  1.00 20.00     0.113 C 
ENDROOT
BRANCH   2   3
HETATM    3  C1  UNL     1     -32.471   7.046   3.062  1.00 20.00     0.269 C 
HETATM    4  O8  UNL     1     -32.443   8.040   2.342  1.00 20.00    -0.304 OA
ENDBRANCH   2   3
BRANCH   2   5
HETATM    5  C7  UNL     1     -34.420   5.822   4.185  1.00 20.00    -0.014 C 
HETATM    6  C3  UNL     1     -34.406   4.389   4.768  1.00 20.00     0.018 C 
HETATM    7  C4  UNL     1     -35.884   6.141   3.803  1.00 20.00     0.018 C 
HETATM    8  C5  UNL     1     -34.002   6.799   5.303  1.00 20.00     0.018 C 
ENDBRANCH   2   5
BRANCH   2   9
HETATM    9  O9  UNL     1     -34.286   6.227   1.784  1.00 20.00    -0.382 OA
HETATM   10  H23 UNL     1     -33.961   5.669   1.063  1.00 20.00     0.211 HD
ENDBRANCH   2   9
TORSDOF 3
ENDMDL
MODEL 8
REMARK VINA RESULT:      -3.9      1.435      3.069
REMARK  3 active torsions:
REMARK  status: ('A' for Active; 'I' for Inactive)
REMARK    1  A    between atoms: C1_1  and  C6_6 
REMARK    2  A    between atoms: C6_6  and  C7_7 
REMARK    3  A    between atoms: C6_6  and  O9_9 
ROOT
HETATM    1  C2  UNL     1     -36.775  14.886  -4.421  1.00 20.00     0.054 C 
HETATM    2  C6  UNL     1     -35.639  14.115  -5.105  1.00 20.00     0.113 C 
ENDROOT
BRANCH   2   3
HETATM    3  C1  UNL     1     -34.358  14.398  -4.325  1.00 20.00     0.269 C 
HETATM    4  O8  UNL     1     -33.418  13.613  -4.229  1.00 20.00    -0.304 OA
ENDBRANCH   2   3
BRANCH   2   5
HETATM    5  C7  UNL     1     -35.465  14.428  -6.633  1.00 20.00    -0.014 C 
HETATM    6  C3  UNL     1     -36.828  14.781  -7.274  1.00 20.00     0.018 C 
HETATM    7  C4  UNL     1     -34.919  13.191  -7.384  1.00 20.00     0.018 C 
HETATM    8  C5  UNL     1     -34.496  15.600  -6.890  1.00 20.00     0.018 C 
ENDBRANCH   2   5
BRANCH   2   9
HETATM    9  O9  UNL     1     -35.904  12.719  -4.949  1.00 20.00    -0.382 OA
HETATM   10  H23 UNL     1     -35.041  12.283  -4.895  1.00 20.00     0.211 HD
ENDBRANCH   2   9
TORSDOF 3
ENDMDL
MODEL 9
REMARK VINA RESULT:      -3.8      1.468      3.111
REMARK  3 active torsions:
REMARK  status: ('A' for Active; 'I' for Inactive)
REMARK    1  A    between atoms: C1_1  and  C6_6 
REMARK    2  A    between atoms: C6_6  and  C7_7 
REMARK    3  A    between atoms: C6_6  and  O9_9 
ROOT
HETATM    1  C2  UNL     1     -34.319  14.197  -4.084  1.00 20.00     0.054 C 
HETATM    2  C6  UNL     1     -35.406  13.991  -5.146  1.00 20.00     0.113 C 
ENDROOT
BRANCH   2   3
HETATM    3  C1  UNL     1     -34.715  13.940  -6.507  1.00 20.00     0.269 C 
HETATM    4  O8  UNL     1     -34.535  12.911  -7.153  1.00 20.00    -0.304 OA
ENDBRANCH   2   3
BRANCH   2   5
HETATM    5  C7  UNL     1     -36.553  15.062  -5.123  1.00 20.00    -0.014 C 
HETATM    6  C3  UNL     1     -36.513  15.872  -3.805  1.00 20.00     0.018 C 
HETATM    7  C4  UNL     1     -37.939  14.378  -5.191  1.00 20.00     0.018 C 
HETATM    8  C5  UNL     1     -36.460  16.054  -6.299  1.00 20.00     0.018 C 
ENDBRANCH   2   5
BRANCH   2   9
HETATM    9  O9  UNL     1     -35.980  12.699  -4.939  1.00 20.00    -0.382 OA
HETATM   10  H23 UNL     1     -35.725  12.427  -4.045  1.00 20.00     0.211 HD
ENDBRANCH   2   9
TORSDOF 3
ENDMDL
