MODEL 1
REMARK VINA RESULT:      -6.0      0.000      0.000
REMARK  3 active torsions:
REMARK  status: ('A' for Active; 'I' for Inactive)
REMARK    1  A    between atoms: C1_1  and  C3_3 
REMARK    2  A    between atoms: C2_2  and  C6_6 
REMARK    3  A    between atoms: C3_3  and  O10_10 
ROOT
HETATM    1  C1  UNL     1     -33.239   6.881   3.163  1.00 20.00     0.014 C 
HETATM    2  C2  UNL     1     -33.833   6.734   4.371  1.00 20.00    -0.067 C 
HETATM    3  C7  UNL     1     -33.515   6.052   1.941  1.00 20.00     0.056 C 
HETATM    4  C8  UNL     1     -33.560   7.586   5.566  1.00 20.00     0.044 C 
ENDROOT
BRANCH   1   5
HETATM    5  C3  UNL     1     -32.250   7.977   2.985  1.00 20.00     0.171 C 
HETATM    6  O9  UNL     1     -31.216   8.114   3.618  1.00 20.00    -0.646 OA
BRANCH   5   7
HETATM    7  O10 UNL     1     -32.674   8.815   2.009  1.00 20.00    -0.773 OA
HETATM    8  H22 UNL     1     -32.495   9.755   2.230  1.00 20.00     0.167 HD
ENDBRANCH   5   7
ENDBRANCH   1   5
BRANCH   2   9
HETATM    9  C6  UNL     1     -34.836   5.631   4.637  1.00 20.00     0.015 A 
HETATM   10  C4  UNL     1     -34.332   4.243   4.597  1.00 20.00     0.010 A 
HETATM   11  C5  UNL     1     -34.690   4.884   5.904  1.00 20.00     0.010 A 
ENDBRANCH   2   9
TORSDOF 3
ENDMDL
MODEL 2
REMARK VINA RESULT:      -5.6      2.402      4.242
REMARK  3 active torsions:
REMARK  status: ('A' for Active; 'I' for Inactive)
REMARK    1  A    between atoms: C1_1  and  C3_3 
REMARK    2  A    between atoms: C2_2  and  C6_6 
REMARK    3  A    between atoms: C3_3  and  O10_10 
ROOT
HETATM    1  C1  UNL     1     -33.930   6.525   4.647  1.00 20.00     0.014 C 
HETATM    2  C2  UNL     1     -33.469   6.881   3.424  1.00 20.00    -0.067 C 
HETATM    3  C7  UNL     1     -33.848   7.359   5.894  1.00 20.00     0.056 C 
HETATM    4  C8  UNL     1     -33.583   6.046   2.193  1.00 20.00     0.044 C 
ENDROOT
BRANCH   1   5
HETATM    5  C3  UNL     1     -34.619   5.217   4.794  1.00 20.00     0.171 C 
HETATM    6  O9  UNL     1     -34.165   4.230   5.351  1.00 20.00    -0.646 OA
BRANCH   5   7
HETATM    7  O10 UNL     1     -35.838   5.278   4.206  1.00 20.00    -0.773 OA
HETATM    8  H22 UNL     1     -36.542   4.913   4.784  1.00 20.00     0.167 HD
ENDBRANCH   5   7
ENDBRANCH   1   5
BRANCH   2   9
HETATM    9  C6  UNL     1     -32.740   8.189   3.196  1.00 20.00     0.015 A 
HETATM   10  C4  UNL     1     -31.266   8.159   3.286  1.00 20.00     0.010 A 
HETATM   11  C5  UNL     1     -31.944   8.305   1.958  1.00 20.00     0.010 A 
ENDBRANCH   2   9
TORSDOF 3
ENDMDL
MODEL 3
REMARK VINA RESULT:      -5.4      2.492      3.901
REMARK  3 active torsions:
REMARK  status: ('A' for Active; 'I' for Inactive)
REMARK    1  A    between atoms: C1_1  and  C3_3 
REMARK    2  A    between atoms: C2_2  and  C6_6 
REMARK    3  A    between atoms: C3_3  and  O10_10 
ROOT
HETATM    1  C1  UNL     1     -33.601   5.524   3.443  1.00 20.00     0.014 C 
HETATM    2  C2  UNL     1     -33.096   6.767   3.623  1.00 20.00    -0.067 C 
HETATM    3  C7  UNL     1     -33.188   4.553   2.374  1.00 20.00     0.056 C 
HETATM    4  C8  UNL     1     -33.505   7.706   4.708  1.00 20.00     0.044 C 
ENDROOT
BRANCH   1   5
HETATM    5  C3  UNL     1     -34.629   5.029   4.397  1.00 20.00     0.171 C 
HETATM    6  O9  UNL     1     -34.419   4.320   5.367  1.00 20.00    -0.646 OA
BRANCH   5   7
HETATM    7  O10 UNL     1     -35.850   5.480   4.021  1.00 20.00    -0.773 OA
HETATM    8  H22 UNL     1     -36.413   4.760   3.665  1.00 20.00     0.167 HD
ENDBRANCH   5   7
ENDBRANCH   1   5
BRANCH   2   9
HETATM    9  C6  UNL     1     -32.061   7.350   2.684  1.00 20.00     0.015 A 
HETATM   10  C4  UNL     1     -32.440   8.570   1.942  1.00 20.00     0.010 A 
HETATM   11  C5  UNL     1     -31.457   8.642   3.071  1.00 20.00     0.010 A 
ENDBRANCH   2   9
TORSDOF 3
ENDMDL
MODEL 4
REMARK VINA RESULT:      -5.3      0.515      2.084
REMARK  3 active torsions:
REMARK  status: ('A' for Active; 'I' for Inactive)
REMARK    1  A    between atoms: C1_1  and  C3_3 
REMARK    2  A    between atoms: C2_2  and  C6_6 
REMARK    3  A    between atoms: C3_3  and  O10_10 
ROOT
HETATM    1  C1  UNL     1     -33.272   7.339   4.014  1.00 20.00     0.014 C 
HETATM    2  C2  UNL     1     -33.824   6.197   3.540  1.00 20.00    -0.067 C 
HETATM    3  C7  UNL     1     -33.480   7.912   5.387  1.00 20.00     0.056 C 
HETATM    4  C8  UNL     1     -33.584   5.633   2.180  1.00 20.00     0.044 C 
ENDROOT
BRANCH   1   5
HETATM    5  C3  UNL     1     -32.341   8.096   3.137  1.00 20.00     0.171 C 
HETATM    6  O9  UNL     1     -32.636   8.644   2.088  1.00 20.00    -0.646 OA
BRANCH   5   7
HETATM    7  O10 UNL     1     -31.099   8.083   3.677  1.00 20.00    -0.773 OA
HETATM    8  H22 UNL     1     -30.484   7.511   3.169  1.00 20.00     0.167 HD
ENDBRANCH   5   7
ENDBRANCH   1   5
BRANCH   2   9
HETATM    9  C6  UNL     1     -34.797   5.380   4.365  1.00 20.00     0.015 A 
HETATM   10  C4  UNL     1     -34.464   3.956   4.579  1.00 20.00     0.010 A 
HETATM   11  C5  UNL     1     -34.340   4.943   5.701  1.00 20.00     0.010 A 
ENDBRANCH   2   9
TORSDOF 3
ENDMDL
MODEL 5
REMARK VINA RESULT:      -5.3      2.324      4.375
REMARK  3 active torsions:
REMARK  status: ('A' for Active; 'I' for Inactive)
REMARK    1  A    between atoms: C1_1  and  C3_3 
REMARK    2  A    between atoms: C2_2  and  C6_6 
REMARK    3  A    between atoms: C3_3  and  O10_10 
ROOT
HETATM    1  C1  UNL     1     -33.754   6.740   4.517  1.00 20.00     0.014 C 
HETATM    2  C2  UNL     1     -33.168   6.904   3.307  1.00 20.00    -0.067 C 
HETATM    3  C7  UNL     1     -33.514   7.590   5.732  1.00 20.00     0.056 C 
HETATM    4  C8  UNL     1     -33.441   6.062   2.106  1.00 20.00     0.044 C 
ENDROOT
BRANCH   1   5
HETATM    5  C3  UNL     1     -34.759   5.657   4.680  1.00 20.00     0.171 C 
HETATM    6  O9  UNL     1     -35.761   5.506   4.000  1.00 20.00    -0.646 OA
BRANCH   5   7
HETATM    7  O10 UNL     1     -34.399   4.856   5.711  1.00 20.00    -0.773 OA
HETATM    8  H22 UNL     1     -35.166   4.620   6.277  1.00 20.00     0.167 HD
ENDBRANCH   5   7
ENDBRANCH   1   5
BRANCH   2   9
HETATM    9  C6  UNL     1     -32.122   7.971   3.066  1.00 20.00     0.015 A 
HETATM   10  C4  UNL     1     -31.640   8.138   1.679  1.00 20.00     0.010 A 
HETATM   11  C5  UNL     1     -32.543   9.162   2.299  1.00 20.00     0.010 A 
ENDBRANCH   2   9
TORSDOF 3
ENDMDL
MODEL 6
REMARK VINA RESULT:      -4.9      2.278      4.013
REMARK  3 active torsions:
REMARK  status: ('A' for Active; 'I' for Inactive)
REMARK    1  A    between atoms: C1_1  and  C3_3 
REMARK    2  A    between atoms: C2_2  and  C6_6 
REMARK    3  A    between atoms: C3_3  and  O10_10 
ROOT
HETATM    1  C1  UNL     1     -33.849   6.877   3.902  1.00 20.00     0.014 C 
HETATM    2  C2  UNL     1     -32.834   7.604   3.376  1.00 20.00    -0.067 C 
HETATM    3  C7  UNL     1     -34.915   6.162   3.122  1.00 20.00     0.056 C 
HETATM    4  C8  UNL     1     -31.772   8.286   4.170  1.00 20.00     0.044 C 
ENDROOT
BRANCH   1   5
HETATM    5  C3  UNL     1     -33.919   6.719   5.379  1.00 20.00     0.171 C 
HETATM    6  O9  UNL     1     -33.664   7.583   6.201  1.00 20.00    -0.646 OA
BRANCH   5   7
HETATM    7  O10 UNL     1     -34.306   5.457   5.681  1.00 20.00    -0.773 OA
HETATM    8  H22 UNL     1     -33.608   4.965   6.164  1.00 20.00     0.167 HD
ENDBRANCH   5   7
ENDBRANCH   1   5
BRANCH   2   9
HETATM    9  C6  UNL     1     -32.705   7.827   1.884  1.00 20.00     0.015 A 
HETATM   10  C4  UNL     1     -32.800   9.220   1.403  1.00 20.00     0.010 A 
HETATM   11  C5  UNL     1     -31.482   8.508   1.412  1.00 20.00     0.010 A 
ENDBRANCH   2   9
TORSDOF 3
ENDMDL
MODEL 7
REMARK VINA RESULT:      -4.8     11.441     12.211
REMARK  3 active torsions:
REMARK  status: ('A' for Active; 'I' for Inactive)
REMARK    1  A    between atoms: C1_1  and  C3_3 
REMARK    2  A    between atoms: C2_2  and  C6_6 
REMARK    3  A    between atoms: C3_3  and  O10_10 
ROOT
HETATM    1  C1  UNL     1     -34.626  14.634  -4.455  1.00 20.00     0.014 C 
HETATM    2  C2  UNL     1     -35.250  15.552  -3.679  1.00 20.00    -0.067 C 
HETATM    3  C7  UNL     1     -33.177  14.247  -4.366  1.00 20.00     0.056 C 
HETATM    4  C8  UNL     1     -36.697  15.903  -3.768  1.00 20.00     0.044 C 
ENDROOT
BRANCH   1   5
HETATM    5  C3  UNL     1     -35.426  13.897  -5.468  1.00 20.00     0.171 C 
HETATM    6  O9  UNL     1     -35.653  14.270  -6.607  1.00 20.00    -0.646 OA
BRANCH   5   7
HETATM    7  O10 UNL     1     -35.878  12.738  -4.932  1.00 20.00    -0.773 OA
HETATM    8  H22 UNL     1     -36.858  12.701  -4.911  1.00 20.00     0.167 HD
ENDBRANCH   5   7
ENDBRANCH   1   5
BRANCH   2   9
HETATM    9  C6  UNL     1     -34.501  16.357  -2.638  1.00 20.00     0.015 A 
HETATM   10  C4  UNL     1     -34.824  17.795  -2.543  1.00 20.00     0.010 A 
HETATM   11  C5  UNL     1     -35.278  16.842  -1.479  1.00 20.00     0.010 A 
ENDBRANCH   2   9
TORSDOF 3
ENDMDL
MODEL 8
REMARK VINA RESULT:      -4.7     11.532     12.282
REMARK  3 active torsions:
REMARK  status: ('A' for Active; 'I' for Inactive)
REMARK    1  A    between atoms: C1_1  and  C3_3 
REMARK    2  A    between atoms: C2_2  and  C6_6 
REMARK    3  A    between atoms: C3_3  and  O10_10 
ROOT
HETATM    1  C1  UNL     1     -35.542  14.868  -4.903  1.00 20.00     0.014 C 
HETATM    2  C2  UNL     1     -34.504  15.372  -4.193  1.00 20.00    -0.067 C 
HETATM    3  C7  UNL     1     -36.884  15.520  -5.083  1.00 20.00     0.056 C 
HETATM    4  C8  UNL     1     -33.172  14.718  -4.048  1.00 20.00     0.044 C 
ENDROOT
BRANCH   1   5
HETATM    5  C3  UNL     1     -35.356  13.576  -5.613  1.00 20.00     0.171 C 
HETATM    6  O9  UNL     1     -34.737  13.415  -6.652  1.00 20.00    -0.646 OA
BRANCH   5   7
HETATM    7  O10 UNL     1     -35.988  12.590  -4.932  1.00 20.00    -0.773 OA
HETATM    8  H22 UNL     1     -35.523  11.729  -5.017  1.00 20.00     0.167 HD
ENDBRANCH   5   7
ENDBRANCH   1   5
BRANCH   2   9
HETATM    9  C6  UNL     1     -34.621  16.673  -3.427  1.00 20.00     0.015 A 
HETATM   10  C4  UNL     1     -35.046  16.584  -2.015  1.00 20.00     0.010 A 
HETATM   11  C5  UNL     1     -33.626  16.915  -2.362  1.00 20.00     0.010 A 
ENDBRANCH   2   9
TORSDOF 3
ENDMDL
MODEL 9
REMARK VINA RESULT:      -4.7      1.298      2.442
REMARK  3 active torsions:
REMARK  status: ('A' for Active; 'I' for Inactive)
REMARK    1  A    between atoms: C1_1  and  C3_3 
REMARK    2  A    between atoms: C2_2  and  C6_6 
REMARK    3  A    between atoms: C3_3  and  O10_10 
ROOT
HETATM    1  C1  UNL     1     -32.259   7.961   2.861  1.00 20.00     0.014 C 
HETATM    2  C2  UNL     1     -33.152   6.949   2.959  1.00 20.00    -0.067 C 
HETATM    3  C7  UNL     1     -31.343   8.435   3.954  1.00 20.00     0.056 C 
HETATM    4  C8  UNL     1     -34.035   6.479   1.852  1.00 20.00     0.044 C 
ENDROOT
BRANCH   1   5
HETATM    5  C3  UNL     1     -32.117   8.661   1.557  1.00 20.00     0.171 C 
HETATM    6  O9  UNL     1     -31.315   8.381   0.681  1.00 20.00    -0.646 OA
BRANCH   5   7
HETATM    7  O10 UNL     1     -33.016   9.672   1.486  1.00 20.00    -0.773 OA
HETATM    8  H22 UNL     1     -33.922   9.374   1.714  1.00 20.00     0.167 HD
ENDBRANCH   5   7
ENDBRANCH   1   5
BRANCH   2   9
HETATM    9  C6  UNL     1     -33.368   6.200   4.258  1.00 20.00     0.015 A 
HETATM   10  C4  UNL     1     -34.115   6.903   5.321  1.00 20.00     0.010 A 
HETATM   11  C5  UNL     1     -34.750   5.776   4.565  1.00 20.00     0.010 A 
ENDBRANCH   2   9
TORSDOF 3
ENDMDL
