MODEL 1
REMARK VINA RESULT:      -5.8      0.000      0.000
REMARK  3 active torsions:
REMARK  status: ('A' for Active; 'I' for Inactive)
REMARK    1  A    between atoms: C1_1  and  C5_5 
REMARK    2  A    between atoms: C2_2  and  C6_6 
REMARK    3  A    between atoms: C6_6  and  C7_7 
ROOT
HETATM    1  C1  UNL     1     -33.751   6.928   4.073  1.00 20.00    -0.026 C 
HETATM    2  C2  UNL     1     -33.033   7.079   2.949  1.00 20.00    -0.029 C 
ENDROOT
BRANCH   1   3
HETATM    3  C5  UNL     1     -34.750   5.873   4.317  1.00 20.00     0.008 A 
HETATM    4  C3  UNL     1     -34.299   4.448   4.298  1.00 20.00     0.009 A 
HETATM    5  C4  UNL     1     -34.670   5.101   5.595  1.00 20.00     0.009 A 
ENDBRANCH   1   3
BRANCH   2   6
HETATM    6  C6  UNL     1     -32.017   8.167   2.741  1.00 20.00     0.042 C 
BRANCH   6   7
HETATM    7  C7  UNL     1     -32.009   8.699   1.311  1.00 20.00     0.118 C 
HETATM    8 CL8  UNL     1     -32.657  10.356   1.225  1.00 20.00    -0.130 Cl
ENDBRANCH   6   7
ENDBRANCH   2   6
TORSDOF 3
ENDMDL
MODEL 2
REMARK VINA RESULT:      -5.4      2.252      4.850
REMARK  3 active torsions:
REMARK  status: ('A' for Active; 'I' for Inactive)
REMARK    1  A    between atoms: C1_1  and  C5_5 
REMARK    2  A    between atoms: C2_2  and  C6_6 
REMARK    3  A    between atoms: C6_6  and  C7_7 
ROOT
HETATM    1  C1  UNL     1     -33.026   7.747   2.235  1.00 20.00    -0.026 C 
HETATM    2  C2  UNL     1     -33.009   6.997   3.349  1.00 20.00    -0.029 C 
ENDROOT
BRANCH   1   3
HETATM    3  C5  UNL     1     -32.089   8.840   1.922  1.00 20.00     0.008 A 
HETATM    4  C3  UNL     1     -31.776   9.117   0.486  1.00 20.00     0.009 A 
HETATM    5  C4  UNL     1     -32.628  10.071   1.267  1.00 20.00     0.009 A 
ENDBRANCH   1   3
BRANCH   2   6
HETATM    6  C6  UNL     1     -33.982   5.887   3.628  1.00 20.00     0.042 C 
BRANCH   6   7
HETATM    7  C7  UNL     1     -34.522   5.923   5.055  1.00 20.00     0.118 C 
HETATM    8 CL8  UNL     1     -33.816   7.264   5.990  1.00 20.00    -0.130 Cl
ENDBRANCH   6   7
ENDBRANCH   2   6
TORSDOF 3
ENDMDL
MODEL 3
REMARK VINA RESULT:      -5.3      0.695      1.029
REMARK  3 active torsions:
REMARK  status: ('A' for Active; 'I' for Inactive)
REMARK    1  A    between atoms: C1_1  and  C5_5 
REMARK    2  A    between atoms: C2_2  and  C6_6 
REMARK    3  A    between atoms: C6_6  and  C7_7 
ROOT
HETATM    1  C1  UNL     1     -32.984   6.122   2.950  1.00 20.00    -0.026 C 
HETATM    2  C2  UNL     1     -32.978   7.459   3.072  1.00 20.00    -0.029 C 
ENDROOT
BRANCH   1   3
HETATM    3  C5  UNL     1     -34.115   5.236   3.277  1.00 20.00     0.008 A 
HETATM    4  C3  UNL     1     -34.350   4.884   4.711  1.00 20.00     0.009 A 
HETATM    5  C4  UNL     1     -35.286   5.816   4.003  1.00 20.00     0.009 A 
ENDBRANCH   1   3
BRANCH   2   6
HETATM    6  C6  UNL     1     -31.803   8.328   2.723  1.00 20.00     0.042 C 
BRANCH   6   7
HETATM    7  C7  UNL     1     -31.842   8.817   1.278  1.00 20.00     0.118 C 
HETATM    8 CL8  UNL     1     -32.764  10.334   1.124  1.00 20.00    -0.130 Cl
ENDBRANCH   6   7
ENDBRANCH   2   6
TORSDOF 3
ENDMDL
MODEL 4
REMARK VINA RESULT:      -5.3      2.664      5.128
REMARK  3 active torsions:
REMARK  status: ('A' for Active; 'I' for Inactive)
REMARK    1  A    between atoms: C1_1  and  C5_5 
REMARK    2  A    between atoms: C2_2  and  C6_6 
REMARK    3  A    between atoms: C6_6  and  C7_7 
ROOT
HETATM    1  C1  UNL     1     -32.025   8.381   2.278  1.00 20.00    -0.026 C 
HETATM    2  C2  UNL     1     -33.062   7.573   2.551  1.00 20.00    -0.029 C 
ENDROOT
BRANCH   1   3
HETATM    3  C5  UNL     1     -31.805   9.097   1.009  1.00 20.00     0.008 A 
HETATM    4  C3  UNL     1     -32.937   9.183   0.037  1.00 20.00     0.009 A 
HETATM    5  C4  UNL     1     -32.507  10.400   0.798  1.00 20.00     0.009 A 
ENDBRANCH   1   3
BRANCH   2   6
HETATM    6  C6  UNL     1     -33.253   6.864   3.862  1.00 20.00     0.042 C 
BRANCH   6   7
HETATM    7  C7  UNL     1     -34.533   6.036   3.903  1.00 20.00     0.118 C 
HETATM    8 CL8  UNL     1     -34.730   5.211   5.469  1.00 20.00    -0.130 Cl
ENDBRANCH   6   7
ENDBRANCH   2   6
TORSDOF 3
ENDMDL
MODEL 5
REMARK VINA RESULT:      -5.0      2.651      4.919
REMARK  3 active torsions:
REMARK  status: ('A' for Active; 'I' for Inactive)
REMARK    1  A    between atoms: C1_1  and  C5_5 
REMARK    2  A    between atoms: C2_2  and  C6_6 
REMARK    3  A    between atoms: C6_6  and  C7_7 
ROOT
HETATM    1  C1  UNL     1     -32.676   7.748   3.210  1.00 20.00    -0.026 C 
HETATM    2  C2  UNL     1     -33.732   7.271   3.889  1.00 20.00    -0.029 C 
ENDROOT
BRANCH   1   3
HETATM    3  C5  UNL     1     -32.661   8.093   1.778  1.00 20.00     0.008 A 
HETATM    4  C3  UNL     1     -32.595   9.537   1.396  1.00 20.00     0.009 A 
HETATM    5  C4  UNL     1     -31.403   8.652   1.195  1.00 20.00     0.009 A 
ENDBRANCH   1   3
BRANCH   2   6
HETATM    6  C6  UNL     1     -33.706   6.935   5.353  1.00 20.00     0.042 C 
BRANCH   6   7
HETATM    7  C7  UNL     1     -34.559   5.717   5.693  1.00 20.00     0.118 C 
HETATM    8 CL8  UNL     1     -34.439   4.462   4.434  1.00 20.00    -0.130 Cl
ENDBRANCH   6   7
ENDBRANCH   2   6
TORSDOF 3
ENDMDL
MODEL 6
REMARK VINA RESULT:      -3.6     11.068     11.476
REMARK  3 active torsions:
REMARK  status: ('A' for Active; 'I' for Inactive)
REMARK    1  A    between atoms: C1_1  and  C5_5 
REMARK    2  A    between atoms: C2_2  and  C6_6 
REMARK    3  A    between atoms: C6_6  and  C7_7 
ROOT
HETATM    1  C1  UNL     1     -34.715  16.011  -2.988  1.00 20.00    -0.026 C 
HETATM    2  C2  UNL     1     -33.636  15.708  -3.726  1.00 20.00    -0.029 C 
ENDROOT
BRANCH   1   3
HETATM    3  C5  UNL     1     -34.904  17.249  -2.211  1.00 20.00     0.008 A 
HETATM    4  C3  UNL     1     -35.342  17.133  -0.786  1.00 20.00     0.009 A 
HETATM    5  C4  UNL     1     -33.939  17.549  -1.109  1.00 20.00     0.009 A 
ENDBRANCH   1   3
BRANCH   2   6
HETATM    6  C6  UNL     1     -33.485  14.434  -4.509  1.00 20.00     0.042 C 
BRANCH   6   7
HETATM    7  C7  UNL     1     -34.494  14.320  -5.647  1.00 20.00     0.118 C 
HETATM    8 CL8  UNL     1     -35.903  13.336  -5.178  1.00 20.00    -0.130 Cl
ENDBRANCH   6   7
ENDBRANCH   2   6
TORSDOF 3
ENDMDL
MODEL 7
REMARK VINA RESULT:      -3.5     10.733     11.488
REMARK  3 active torsions:
REMARK  status: ('A' for Active; 'I' for Inactive)
REMARK    1  A    between atoms: C1_1  and  C5_5 
REMARK    2  A    between atoms: C2_2  and  C6_6 
REMARK    3  A    between atoms: C6_6  and  C7_7 
ROOT
HETATM    1  C1  UNL     1     -35.255  16.256  -2.961  1.00 20.00    -0.026 C 
HETATM    2  C2  UNL     1     -34.487  16.680  -1.946  1.00 20.00    -0.029 C 
ENDROOT
BRANCH   1   3
HETATM    3  C5  UNL     1     -34.772  15.587  -4.182  1.00 20.00     0.008 A 
HETATM    4  C3  UNL     1     -33.353  15.116  -4.220  1.00 20.00     0.009 A 
HETATM    5  C4  UNL     1     -34.472  14.124  -4.119  1.00 20.00     0.009 A 
ENDBRANCH   1   3
BRANCH   2   6
HETATM    6  C6  UNL     1     -35.021  17.355  -0.714  1.00 20.00     0.042 C 
BRANCH   6   7
HETATM    7  C7  UNL     1     -33.978  18.227  -0.021  1.00 20.00     0.118 C 
HETATM    8 CL8  UNL     1     -32.449  18.270  -0.934  1.00 20.00    -0.130 Cl
ENDBRANCH   6   7
ENDBRANCH   2   6
TORSDOF 3
ENDMDL
MODEL 8
REMARK VINA RESULT:      -3.5     10.792     11.770
REMARK  3 active torsions:
REMARK  status: ('A' for Active; 'I' for Inactive)
REMARK    1  A    between atoms: C1_1  and  C5_5 
REMARK    2  A    between atoms: C2_2  and  C6_6 
REMARK    3  A    between atoms: C6_6  and  C7_7 
ROOT
HETATM    1  C1  UNL     1     -34.872  16.922  -1.666  1.00 20.00    -0.026 C 
HETATM    2  C2  UNL     1     -34.441  16.358  -2.805  1.00 20.00    -0.029 C 
ENDROOT
BRANCH   1   3
HETATM    3  C5  UNL     1     -34.047  17.706  -0.731  1.00 20.00     0.008 A 
HETATM    4  C3  UNL     1     -32.699  18.166  -1.187  1.00 20.00     0.009 A 
HETATM    5  C4  UNL     1     -33.815  19.153  -1.029  1.00 20.00     0.009 A 
ENDBRANCH   1   3
BRANCH   2   6
HETATM    6  C6  UNL     1     -35.319  15.568  -3.735  1.00 20.00     0.042 C 
BRANCH   6   7
HETATM    7  C7  UNL     1     -34.658  14.279  -4.215  1.00 20.00     0.118 C 
HETATM    8 CL8  UNL     1     -32.889  14.452  -4.331  1.00 20.00    -0.130 Cl
ENDBRANCH   6   7
ENDBRANCH   2   6
TORSDOF 3
ENDMDL
MODEL 9
REMARK VINA RESULT:      -3.5     11.479     12.104
REMARK  3 active torsions:
REMARK  status: ('A' for Active; 'I' for Inactive)
REMARK    1  A    between atoms: C1_1  and  C5_5 
REMARK    2  A    between atoms: C2_2  and  C6_6 
REMARK    3  A    between atoms: C6_6  and  C7_7 
ROOT
HETATM    1  C1  UNL     1     -32.320  18.163  -0.739  1.00 20.00    -0.026 C 
HETATM    2  C2  UNL     1     -32.270  18.893   0.386  1.00 20.00    -0.029 C 
ENDROOT
BRANCH   1   3
HETATM    3  C5  UNL     1     -33.466  18.086  -1.662  1.00 20.00     0.008 A 
HETATM    4  C3  UNL     1     -33.642  16.843  -2.473  1.00 20.00     0.009 A 
HETATM    5  C4  UNL     1     -34.576  17.138  -1.339  1.00 20.00     0.009 A 
ENDBRANCH   1   3
BRANCH   2   6
HETATM    6  C6  UNL     1     -31.078  18.948   1.300  1.00 20.00     0.042 C 
BRANCH   6   7
HETATM    7  C7  UNL     1     -31.468  19.032   2.772  1.00 20.00     0.118 C 
HETATM    8 CL8  UNL     1     -33.045  18.263   3.078  1.00 20.00    -0.130 Cl
ENDBRANCH   6   7
ENDBRANCH   2   6
TORSDOF 3
ENDMDL
