MODEL 1
REMARK VINA RESULT:      -5.3      0.000      0.000
REMARK  4 active torsions:
REMARK  status: ('A' for Active; 'I' for Inactive)
REMARK    1  A    between atoms: C1_1  and  C6_6 
REMARK    2  A    between atoms: C2_2  and  C7_7 
REMARK    3  A    between atoms: C6_6  and  O9_9 
REMARK    4  A    between atoms: C8_8  and  O9_9 
ROOT
HETATM    1  C6  UNL     1     -32.787   7.324   3.597  1.00 20.00     0.196 C 
ENDROOT
BRANCH   1   2
HETATM    2  C1  UNL     1     -32.401   7.774   2.226  1.00 20.00    -0.004 C 
HETATM    3  C2  UNL     1     -32.288   9.062   1.868  1.00 20.00    -0.014 C 
BRANCH   3   4
HETATM    4  C7  UNL     1     -31.888   9.507   0.500  1.00 20.00     0.141 C 
HETATM    5 CL10 UNL     1     -33.260   9.346  -0.616  1.00 20.00    -0.126 Cl
ENDBRANCH   3   4
ENDBRANCH   1   2
BRANCH   1   6
HETATM    6  O9  UNL     1     -33.212   5.972   3.530  1.00 20.00    -0.378 OA
BRANCH   6   7
HETATM    7  C8  UNL     1     -34.307   5.727   4.413  1.00 20.00     0.050 C 
HETATM    8  C3  UNL     1     -34.134   6.601   5.656  1.00 20.00     0.045 C 
HETATM    9  C4  UNL     1     -35.589   6.098   3.671  1.00 20.00     0.045 C 
HETATM   10  C5  UNL     1     -34.311   4.245   4.786  1.00 20.00     0.045 C 
ENDBRANCH   6   7
ENDBRANCH   1   6
TORSDOF 4
ENDMDL
MODEL 2
REMARK VINA RESULT:      -5.3      0.020      1.375
REMARK  4 active torsions:
REMARK  status: ('A' for Active; 'I' for Inactive)
REMARK    1  A    between atoms: C1_1  and  C6_6 
REMARK    2  A    between atoms: C2_2  and  C7_7 
REMARK    3  A    between atoms: C6_6  and  O9_9 
REMARK    4  A    between atoms: C8_8  and  O9_9 
ROOT
HETATM    1  C6  UNL     1     -32.779   7.317   3.607  1.00 20.00     0.196 C 
ENDROOT
BRANCH   1   2
HETATM    2  C1  UNL     1     -32.388   7.769   2.238  1.00 20.00    -0.004 C 
HETATM    3  C2  UNL     1     -32.298   9.058   1.876  1.00 20.00    -0.014 C 
BRANCH   3   4
HETATM    4  C7  UNL     1     -31.893   9.505   0.510  1.00 20.00     0.141 C 
HETATM    5 CL10 UNL     1     -33.273   9.386  -0.602  1.00 20.00    -0.126 Cl
ENDBRANCH   3   4
ENDBRANCH   1   2
BRANCH   1   6
HETATM    6  O9  UNL     1     -33.212   5.968   3.534  1.00 20.00    -0.378 OA
BRANCH   6   7
HETATM    7  C8  UNL     1     -34.319   5.731   4.405  1.00 20.00     0.050 C 
HETATM    8  C3  UNL     1     -35.605   6.100   3.667  1.00 20.00     0.045 C 
HETATM    9  C4  UNL     1     -34.312   4.246   4.763  1.00 20.00     0.045 C 
HETATM   10  C5  UNL     1     -34.144   6.587   5.659  1.00 20.00     0.045 C 
ENDBRANCH   6   7
ENDBRANCH   1   6
TORSDOF 4
ENDMDL
MODEL 3
REMARK VINA RESULT:      -5.2      2.750      5.294
REMARK  4 active torsions:
REMARK  status: ('A' for Active; 'I' for Inactive)
REMARK    1  A    between atoms: C1_1  and  C6_6 
REMARK    2  A    between atoms: C2_2  and  C7_7 
REMARK    3  A    between atoms: C6_6  and  O9_9 
REMARK    4  A    between atoms: C8_8  and  O9_9 
ROOT
HETATM    1  C6  UNL     1     -32.312   7.848   2.675  1.00 20.00     0.196 C 
ENDROOT
BRANCH   1   2
HETATM    2  C1  UNL     1     -33.089   7.011   3.638  1.00 20.00    -0.004 C 
HETATM    3  C2  UNL     1     -34.048   6.149   3.270  1.00 20.00    -0.014 C 
BRANCH   3   4
HETATM    4  C7  UNL     1     -34.812   5.303   4.235  1.00 20.00     0.141 C 
HETATM    5 CL10 UNL     1     -34.455   5.809   5.900  1.00 20.00    -0.126 Cl
ENDBRANCH   3   4
ENDBRANCH   1   2
BRANCH   1   6
HETATM    6  O9  UNL     1     -33.214   8.428   1.745  1.00 20.00    -0.378 OA
BRANCH   6   7
HETATM    7  C8  UNL     1     -32.536   9.302   0.841  1.00 20.00     0.050 C 
HETATM    8  C3  UNL     1     -32.542  10.712   1.431  1.00 20.00     0.045 C 
HETATM    9  C4  UNL     1     -31.105   8.788   0.691  1.00 20.00     0.045 C 
HETATM   10  C5  UNL     1     -33.262   9.270  -0.503  1.00 20.00     0.045 C 
ENDBRANCH   6   7
ENDBRANCH   1   6
TORSDOF 4
ENDMDL
MODEL 4
REMARK VINA RESULT:      -3.8      2.905      5.217
REMARK  4 active torsions:
REMARK  status: ('A' for Active; 'I' for Inactive)
REMARK    1  A    between atoms: C1_1  and  C6_6 
REMARK    2  A    between atoms: C2_2  and  C7_7 
REMARK    3  A    between atoms: C6_6  and  O9_9 
REMARK    4  A    between atoms: C8_8  and  O9_9 
ROOT
HETATM    1  C6  UNL     1     -33.143   6.837   2.054  1.00 20.00     0.196 C 
ENDROOT
BRANCH   1   2
HETATM    2  C1  UNL     1     -33.876   6.234   3.207  1.00 20.00    -0.004 C 
HETATM    3  C2  UNL     1     -33.795   4.939   3.547  1.00 20.00    -0.014 C 
BRANCH   3   4
HETATM    4  C7  UNL     1     -34.518   4.343   4.710  1.00 20.00     0.141 C 
HETATM    5 CL10 UNL     1     -34.622   5.527   6.031  1.00 20.00    -0.126 Cl
ENDBRANCH   3   4
ENDBRANCH   1   2
BRANCH   1   6
HETATM    6  O9  UNL     1     -33.405   8.231   2.027  1.00 20.00    -0.378 OA
BRANCH   6   7
HETATM    7  C8  UNL     1     -32.204   8.980   1.832  1.00 20.00     0.050 C 
HETATM    8  C3  UNL     1     -31.476   8.421   0.610  1.00 20.00     0.045 C 
HETATM    9  C4  UNL     1     -32.603  10.436   1.600  1.00 20.00     0.045 C 
HETATM   10  C5  UNL     1     -31.341   8.852   3.087  1.00 20.00     0.045 C 
ENDBRANCH   6   7
ENDBRANCH   1   6
TORSDOF 4
ENDMDL
MODEL 5
REMARK VINA RESULT:      -3.6     11.172     11.927
REMARK  4 active torsions:
REMARK  status: ('A' for Active; 'I' for Inactive)
REMARK    1  A    between atoms: C1_1  and  C6_6 
REMARK    2  A    between atoms: C2_2  and  C7_7 
REMARK    3  A    between atoms: C6_6  and  O9_9 
REMARK    4  A    between atoms: C8_8  and  O9_9 
ROOT
HETATM    1  C6  UNL     1     -33.730  15.129  -5.049  1.00 20.00     0.196 C 
ENDROOT
BRANCH   1   2
HETATM    2  C1  UNL     1     -33.668  15.921  -3.785  1.00 20.00    -0.004 C 
HETATM    3  C2  UNL     1     -34.713  16.094  -2.962  1.00 20.00    -0.014 C 
BRANCH   3   4
HETATM    4  C7  UNL     1     -34.643  16.875  -1.691  1.00 20.00     0.141 C 
HETATM    5 CL10 UNL     1     -33.045  17.636  -1.534  1.00 20.00    -0.126 Cl
ENDBRANCH   3   4
ENDBRANCH   1   2
BRANCH   1   6
HETATM    6  O9  UNL     1     -34.921  15.470  -5.742  1.00 20.00    -0.378 OA
BRANCH   6   7
HETATM    7  C8  UNL     1     -35.511  14.322  -6.356  1.00 20.00     0.050 C 
HETATM    8  C3  UNL     1     -36.007  13.384  -5.255  1.00 20.00     0.045 C 
HETATM    9  C4  UNL     1     -36.677  14.808  -7.213  1.00 20.00     0.045 C 
HETATM   10  C5  UNL     1     -34.455  13.636  -7.222  1.00 20.00     0.045 C 
ENDBRANCH   6   7
ENDBRANCH   1   6
TORSDOF 4
ENDMDL
MODEL 6
REMARK VINA RESULT:      -3.6     10.957     11.671
REMARK  4 active torsions:
REMARK  status: ('A' for Active; 'I' for Inactive)
REMARK    1  A    between atoms: C1_1  and  C6_6 
REMARK    2  A    between atoms: C2_2  and  C7_7 
REMARK    3  A    between atoms: C6_6  and  O9_9 
REMARK    4  A    between atoms: C8_8  and  O9_9 
ROOT
HETATM    1  C6  UNL     1     -35.825  15.885  -3.621  1.00 20.00     0.196 C 
ENDROOT
BRANCH   1   2
HETATM    2  C1  UNL     1     -35.503  16.608  -2.355  1.00 20.00    -0.004 C 
HETATM    3  C2  UNL     1     -34.269  17.013  -2.020  1.00 20.00    -0.014 C 
BRANCH   3   4
HETATM    4  C7  UNL     1     -33.954  17.749  -0.759  1.00 20.00     0.141 C 
HETATM    5 CL10 UNL     1     -32.265  18.299  -0.784  1.00 20.00    -0.126 Cl
ENDBRANCH   3   4
ENDBRANCH   1   2
BRANCH   1   6
HETATM    6  O9  UNL     1     -34.757  16.073  -4.536  1.00 20.00    -0.378 OA
BRANCH   6   7
HETATM    7  C8  UNL     1     -34.312  14.828  -5.077  1.00 20.00     0.050 C 
HETATM    8  C3  UNL     1     -33.026  14.418  -4.361  1.00 20.00     0.045 C 
HETATM    9  C4  UNL     1     -35.415  13.800  -4.832  1.00 20.00     0.045 C 
HETATM   10  C5  UNL     1     -34.068  15.007  -6.575  1.00 20.00     0.045 C 
ENDBRANCH   6   7
ENDBRANCH   1   6
TORSDOF 4
ENDMDL
MODEL 7
REMARK VINA RESULT:      -3.6     11.007     11.610
REMARK  4 active torsions:
REMARK  status: ('A' for Active; 'I' for Inactive)
REMARK    1  A    between atoms: C1_1  and  C6_6 
REMARK    2  A    between atoms: C2_2  and  C7_7 
REMARK    3  A    between atoms: C6_6  and  O9_9 
REMARK    4  A    between atoms: C8_8  and  O9_9 
ROOT
HETATM    1  C6  UNL     1     -33.702  15.864  -3.707  1.00 20.00     0.196 C 
ENDROOT
BRANCH   1   2
HETATM    2  C1  UNL     1     -33.924  16.675  -2.473  1.00 20.00    -0.004 C 
HETATM    3  C2  UNL     1     -35.071  16.675  -1.777  1.00 20.00    -0.014 C 
BRANCH   3   4
HETATM    4  C7  UNL     1     -35.284  17.476  -0.536  1.00 20.00     0.141 C 
HETATM    5 CL10 UNL     1     -33.749  18.199  -0.009  1.00 20.00    -0.126 Cl
ENDBRANCH   3   4
ENDBRANCH   1   2
BRANCH   1   6
HETATM    6  O9  UNL     1     -34.720  14.879  -3.794  1.00 20.00    -0.378 OA
BRANCH   6   7
HETATM    7  C8  UNL     1     -35.209  14.754  -5.130  1.00 20.00     0.050 C 
HETATM    8  C3  UNL     1     -36.121  15.944  -5.427  1.00 20.00     0.045 C 
HETATM    9  C4  UNL     1     -34.000  14.758  -6.064  1.00 20.00     0.045 C 
HETATM   10  C5  UNL     1     -35.975  13.438  -5.248  1.00 20.00     0.045 C 
ENDBRANCH   6   7
ENDBRANCH   1   6
TORSDOF 4
ENDMDL
MODEL 8
REMARK VINA RESULT:      -3.6     10.989     11.710
REMARK  4 active torsions:
REMARK  status: ('A' for Active; 'I' for Inactive)
REMARK    1  A    between atoms: C1_1  and  C6_6 
REMARK    2  A    between atoms: C2_2  and  C7_7 
REMARK    3  A    between atoms: C6_6  and  O9_9 
REMARK    4  A    between atoms: C8_8  and  O9_9 
ROOT
HETATM    1  C6  UNL     1     -36.091  15.821  -3.866  1.00 20.00     0.196 C 
ENDROOT
BRANCH   1   2
HETATM    2  C1  UNL     1     -35.771  16.694  -2.697  1.00 20.00    -0.004 C 
HETATM    3  C2  UNL     1     -34.603  16.658  -2.038  1.00 20.00    -0.014 C 
BRANCH   3   4
HETATM    4  C7  UNL     1     -34.281  17.542  -0.879  1.00 20.00     0.141 C 
HETATM    5 CL10 UNL     1     -32.650  18.223  -1.069  1.00 20.00    -0.126 Cl
ENDBRANCH   3   4
ENDBRANCH   1   2
BRANCH   1   6
HETATM    6  O9  UNL     1     -35.063  15.961  -4.834  1.00 20.00    -0.378 OA
BRANCH   6   7
HETATM    7  C8  UNL     1     -34.573  14.688  -5.257  1.00 20.00     0.050 C 
HETATM    8  C3  UNL     1     -35.657  13.641  -5.002  1.00 20.00     0.045 C 
HETATM    9  C4  UNL     1     -34.262  14.787  -6.749  1.00 20.00     0.045 C 
HETATM   10  C5  UNL     1     -33.307  14.365  -4.464  1.00 20.00     0.045 C 
ENDBRANCH   6   7
ENDBRANCH   1   6
TORSDOF 4
ENDMDL
MODEL 9
REMARK VINA RESULT:      -3.5     10.936     11.522
REMARK  4 active torsions:
REMARK  status: ('A' for Active; 'I' for Inactive)
REMARK    1  A    between atoms: C1_1  and  C6_6 
REMARK    2  A    between atoms: C2_2  and  C7_7 
REMARK    3  A    between atoms: C6_6  and  O9_9 
REMARK    4  A    between atoms: C8_8  and  O9_9 
ROOT
HETATM    1  C6  UNL     1     -33.812  15.860  -3.437  1.00 20.00     0.196 C 
ENDROOT
BRANCH   1   2
HETATM    2  C1  UNL     1     -34.232  14.815  -4.418  1.00 20.00    -0.004 C 
HETATM    3  C2  UNL     1     -35.497  14.395  -4.564  1.00 20.00    -0.014 C 
BRANCH   3   4
HETATM    4  C7  UNL     1     -35.915  13.361  -5.557  1.00 20.00     0.141 C 
HETATM    5 CL10 UNL     1     -34.817  13.382  -6.953  1.00 20.00    -0.126 Cl
ENDBRANCH   3   4
ENDBRANCH   1   2
BRANCH   1   6
HETATM    6  O9  UNL     1     -34.908  16.147  -2.582  1.00 20.00    -0.378 OA
BRANCH   6   7
HETATM    7  C8  UNL     1     -34.712  17.378  -1.883  1.00 20.00     0.050 C 
HETATM    8  C3  UNL     1     -35.407  17.282  -0.525  1.00 20.00     0.045 C 
HETATM    9  C4  UNL     1     -33.207  17.570  -1.704  1.00 20.00     0.045 C 
HETATM   10  C5  UNL     1     -35.303  18.512  -2.719  1.00 20.00     0.045 C 
ENDBRANCH   6   7
ENDBRANCH   1   6
TORSDOF 4
ENDMDL
