MODEL 1
REMARK VINA RESULT:      -5.4      0.000      0.000
REMARK  5 active torsions:
REMARK  status: ('A' for Active; 'I' for Inactive)
REMARK    1  A    between atoms: C1_1  and  C3_3 
REMARK    2  A    between atoms: C1_1  and  C4_4 
REMARK    3  A    between atoms: C3_3  and  C5_5 
REMARK    4  A    between atoms: C4_4  and  C6_6 
REMARK    5  A    between atoms: C6_6  and  C7_7 
ROOT
HETATM    1  C1  UNL     1     -31.974   8.061   2.712  1.00 20.00     0.127 C 
HETATM    2  O8  UNL     1     -31.370   8.370   3.738  1.00 20.00    -0.298 OA
ENDROOT
BRANCH   1   3
HETATM    3  C3  UNL     1     -31.607   8.633   1.352  1.00 20.00     0.078 C 
BRANCH   3   4
HETATM    4  C5  UNL     1     -32.536   9.766   0.922  1.00 20.00     0.003 C 
HETATM    5  C2  UNL     1     -33.169   9.484  -0.431  1.00 20.00     0.005 C 
ENDBRANCH   3   4
ENDBRANCH   1   3
BRANCH   1   6
HETATM    6  C4  UNL     1     -33.115   7.053   2.712  1.00 20.00     0.079 C 
BRANCH   6   7
HETATM    7  C6  UNL     1     -33.874   6.975   4.036  1.00 20.00     0.022 C 
BRANCH   7   8
HETATM    8  C7  UNL     1     -34.791   5.759   4.104  1.00 20.00     0.115 C 
HETATM    9 CL9  UNL     1     -34.618   4.942   5.676  1.00 20.00    -0.130 Cl
ENDBRANCH   7   8
ENDBRANCH   6   7
ENDBRANCH   1   6
TORSDOF 5
ENDMDL
MODEL 2
REMARK VINA RESULT:      -5.3      2.911      4.969
REMARK  5 active torsions:
REMARK  status: ('A' for Active; 'I' for Inactive)
REMARK    1  A    between atoms: C1_1  and  C3_3 
REMARK    2  A    between atoms: C1_1  and  C4_4 
REMARK    3  A    between atoms: C3_3  and  C5_5 
REMARK    4  A    between atoms: C4_4  and  C6_6 
REMARK    5  A    between atoms: C6_6  and  C7_7 
ROOT
HETATM    1  C1  UNL     1     -32.948   6.896   3.225  1.00 20.00     0.127 C 
HETATM    2  O8  UNL     1     -32.762   5.794   2.714  1.00 20.00    -0.298 OA
ENDROOT
BRANCH   1   3
HETATM    3  C3  UNL     1     -34.160   7.194   4.094  1.00 20.00     0.078 C 
BRANCH   3   4
HETATM    4  C5  UNL     1     -34.000   6.675   5.520  1.00 20.00     0.003 C 
HETATM    5  C2  UNL     1     -34.587   5.282   5.675  1.00 20.00     0.005 C 
ENDBRANCH   3   4
ENDBRANCH   1   3
BRANCH   1   6
HETATM    6  C4  UNL     1     -31.962   8.045   3.061  1.00 20.00     0.079 C 
BRANCH   6   7
HETATM    7  C6  UNL     1     -31.733   8.462   1.609  1.00 20.00     0.022 C 
BRANCH   7   8
HETATM    8  C7  UNL     1     -32.548   9.693   1.227  1.00 20.00     0.115 C 
HETATM    9 CL9  UNL     1     -33.192   9.521  -0.423  1.00 20.00    -0.130 Cl
ENDBRANCH   7   8
ENDBRANCH   6   7
ENDBRANCH   1   6
TORSDOF 5
ENDMDL
MODEL 3
REMARK VINA RESULT:      -5.2      3.343      4.987
REMARK  5 active torsions:
REMARK  status: ('A' for Active; 'I' for Inactive)
REMARK    1  A    between atoms: C1_1  and  C3_3 
REMARK    2  A    between atoms: C1_1  and  C4_4 
REMARK    3  A    between atoms: C3_3  and  C5_5 
REMARK    4  A    between atoms: C4_4  and  C6_6 
REMARK    5  A    between atoms: C6_6  and  C7_7 
ROOT
HETATM    1  C1  UNL     1     -34.107   4.732   3.863  1.00 20.00     0.127 C 
HETATM    2  O8  UNL     1     -34.182   3.545   4.175  1.00 20.00    -0.298 OA
ENDROOT
BRANCH   1   3
HETATM    3  C3  UNL     1     -34.956   5.802   4.532  1.00 20.00     0.078 C 
BRANCH   3   4
HETATM    4  C5  UNL     1     -34.484   6.125   5.948  1.00 20.00     0.003 C 
HETATM    5  C2  UNL     1     -33.653   7.397   5.982  1.00 20.00     0.005 C 
ENDBRANCH   3   4
ENDBRANCH   1   3
BRANCH   1   6
HETATM    6  C4  UNL     1     -33.132   5.236   2.808  1.00 20.00     0.079 C 
BRANCH   6   7
HETATM    7  C6  UNL     1     -33.355   6.692   2.403  1.00 20.00     0.022 C 
BRANCH   7   8
HETATM    8  C7  UNL     1     -32.143   7.566   2.708  1.00 20.00     0.115 C 
HETATM    9 CL9  UNL     1     -32.012   8.879   1.514  1.00 20.00    -0.130 Cl
ENDBRANCH   7   8
ENDBRANCH   6   7
ENDBRANCH   1   6
TORSDOF 5
ENDMDL
MODEL 4
REMARK VINA RESULT:      -5.2      2.838      4.768
REMARK  5 active torsions:
REMARK  status: ('A' for Active; 'I' for Inactive)
REMARK    1  A    between atoms: C1_1  and  C3_3 
REMARK    2  A    between atoms: C1_1  and  C4_4 
REMARK    3  A    between atoms: C3_3  and  C5_5 
REMARK    4  A    between atoms: C4_4  and  C6_6 
REMARK    5  A    between atoms: C6_6  and  C7_7 
ROOT
HETATM    1  C1  UNL     1     -32.907   7.375   4.010  1.00 20.00     0.127 C 
HETATM    2  O8  UNL     1     -33.153   7.558   5.201  1.00 20.00    -0.298 OA
ENDROOT
BRANCH   1   3
HETATM    3  C3  UNL     1     -33.697   6.391   3.161  1.00 20.00     0.078 C 
BRANCH   3   4
HETATM    4  C5  UNL     1     -34.868   5.771   3.918  1.00 20.00     0.003 C 
HETATM    5  C2  UNL     1     -34.494   4.425   4.515  1.00 20.00     0.005 C 
ENDBRANCH   3   4
ENDBRANCH   1   3
BRANCH   1   6
HETATM    6  C4  UNL     1     -31.817   8.145   3.277  1.00 20.00     0.079 C 
BRANCH   6   7
HETATM    7  C6  UNL     1     -32.026   8.227   1.765  1.00 20.00     0.022 C 
BRANCH   7   8
HETATM    8  C7  UNL     1     -32.523   9.600   1.326  1.00 20.00     0.115 C 
HETATM    9 CL9  UNL     1     -33.099   9.540  -0.357  1.00 20.00    -0.130 Cl
ENDBRANCH   7   8
ENDBRANCH   6   7
ENDBRANCH   1   6
TORSDOF 5
ENDMDL
MODEL 5
REMARK VINA RESULT:      -5.2      2.717      4.963
REMARK  5 active torsions:
REMARK  status: ('A' for Active; 'I' for Inactive)
REMARK    1  A    between atoms: C1_1  and  C3_3 
REMARK    2  A    between atoms: C1_1  and  C4_4 
REMARK    3  A    between atoms: C3_3  and  C5_5 
REMARK    4  A    between atoms: C4_4  and  C6_6 
REMARK    5  A    between atoms: C6_6  and  C7_7 
ROOT
HETATM    1  C1  UNL     1     -33.462   7.099   4.137  1.00 20.00     0.127 C 
HETATM    2  O8  UNL     1     -32.955   7.628   5.124  1.00 20.00    -0.298 OA
ENDROOT
BRANCH   1   3
HETATM    3  C3  UNL     1     -34.802   6.382   4.200  1.00 20.00     0.078 C 
BRANCH   3   4
HETATM    4  C5  UNL     1     -34.765   5.147   5.096  1.00 20.00     0.003 C 
HETATM    5  C2  UNL     1     -34.130   3.963   4.385  1.00 20.00     0.005 C 
ENDBRANCH   3   4
ENDBRANCH   1   3
BRANCH   1   6
HETATM    6  C4  UNL     1     -32.810   7.148   2.762  1.00 20.00     0.079 C 
BRANCH   6   7
HETATM    7  C6  UNL     1     -31.874   8.340   2.563  1.00 20.00     0.022 C 
BRANCH   7   8
HETATM    8  C7  UNL     1     -31.941   8.893   1.143  1.00 20.00     0.115 C 
HETATM    9 CL9  UNL     1     -32.727  10.490   1.139  1.00 20.00    -0.130 Cl
ENDBRANCH   7   8
ENDBRANCH   6   7
ENDBRANCH   1   6
TORSDOF 5
ENDMDL
MODEL 6
REMARK VINA RESULT:      -5.1      2.870      4.931
REMARK  5 active torsions:
REMARK  status: ('A' for Active; 'I' for Inactive)
REMARK    1  A    between atoms: C1_1  and  C3_3 
REMARK    2  A    between atoms: C1_1  and  C4_4 
REMARK    3  A    between atoms: C3_3  and  C5_5 
REMARK    4  A    between atoms: C4_4  and  C6_6 
REMARK    5  A    between atoms: C6_6  and  C7_7 
ROOT
HETATM    1  C1  UNL     1     -33.643   6.153   3.083  1.00 20.00     0.127 C 
HETATM    2  O8  UNL     1     -32.859   5.268   2.745  1.00 20.00    -0.298 OA
ENDROOT
BRANCH   1   3
HETATM    3  C3  UNL     1     -34.851   5.873   3.963  1.00 20.00     0.078 C 
BRANCH   3   4
HETATM    4  C5  UNL     1     -34.485   5.742   5.438  1.00 20.00     0.003 C 
HETATM    5  C2  UNL     1     -33.920   7.041   5.990  1.00 20.00     0.005 C 
ENDBRANCH   3   4
ENDBRANCH   1   3
BRANCH   1   6
HETATM    6  C4  UNL     1     -33.449   7.609   2.680  1.00 20.00     0.079 C 
BRANCH   6   7
HETATM    7  C6  UNL     1     -31.986   8.015   2.510  1.00 20.00     0.022 C 
BRANCH   7   8
HETATM    8  C7  UNL     1     -31.745   8.767   1.205  1.00 20.00     0.115 C 
HETATM    9 CL9  UNL     1     -32.727  10.250   1.156  1.00 20.00    -0.130 Cl
ENDBRANCH   7   8
ENDBRANCH   6   7
ENDBRANCH   1   6
TORSDOF 5
ENDMDL
MODEL 7
REMARK VINA RESULT:      -5.1      1.360      1.697
REMARK  5 active torsions:
REMARK  status: ('A' for Active; 'I' for Inactive)
REMARK    1  A    between atoms: C1_1  and  C3_3 
REMARK    2  A    between atoms: C1_1  and  C4_4 
REMARK    3  A    between atoms: C3_3  and  C5_5 
REMARK    4  A    between atoms: C4_4  and  C6_6 
REMARK    5  A    between atoms: C6_6  and  C7_7 
ROOT
HETATM    1  C1  UNL     1     -32.788   7.115   3.105  1.00 20.00     0.127 C 
HETATM    2  O8  UNL     1     -32.620   6.000   2.613  1.00 20.00    -0.298 OA
ENDROOT
BRANCH   1   3
HETATM    3  C3  UNL     1     -31.885   8.292   2.774  1.00 20.00     0.078 C 
BRANCH   3   4
HETATM    4  C5  UNL     1     -31.990   8.719   1.312  1.00 20.00     0.003 C 
HETATM    5  C2  UNL     1     -32.621  10.095   1.178  1.00 20.00     0.005 C 
ENDBRANCH   3   4
ENDBRANCH   1   3
BRANCH   1   6
HETATM    6  C4  UNL     1     -33.937   7.418   4.058  1.00 20.00     0.079 C 
BRANCH   6   7
HETATM    7  C6  UNL     1     -33.749   6.839   5.459  1.00 20.00     0.022 C 
BRANCH   7   8
HETATM    8  C7  UNL     1     -34.740   5.719   5.756  1.00 20.00     0.115 C 
HETATM    9 CL9  UNL     1     -34.386   4.296   4.747  1.00 20.00    -0.130 Cl
ENDBRANCH   7   8
ENDBRANCH   6   7
ENDBRANCH   1   6
TORSDOF 5
ENDMDL
MODEL 8
REMARK VINA RESULT:      -5.0      1.551      2.058
REMARK  5 active torsions:
REMARK  status: ('A' for Active; 'I' for Inactive)
REMARK    1  A    between atoms: C1_1  and  C3_3 
REMARK    2  A    between atoms: C1_1  and  C4_4 
REMARK    3  A    between atoms: C3_3  and  C5_5 
REMARK    4  A    between atoms: C4_4  and  C6_6 
REMARK    5  A    between atoms: C6_6  and  C7_7 
ROOT
HETATM    1  C1  UNL     1     -33.036   6.627   2.944  1.00 20.00     0.127 C 
HETATM    2  O8  UNL     1     -32.614   5.567   2.485  1.00 20.00    -0.298 OA
ENDROOT
BRANCH   1   3
HETATM    3  C3  UNL     1     -32.200   7.898   2.950  1.00 20.00     0.078 C 
BRANCH   3   4
HETATM    4  C5  UNL     1     -31.887   8.400   1.543  1.00 20.00     0.003 C 
HETATM    5  C2  UNL     1     -32.535   9.749   1.277  1.00 20.00     0.005 C 
ENDBRANCH   3   4
ENDBRANCH   1   3
BRANCH   1   6
HETATM    6  C4  UNL     1     -34.442   6.766   3.511  1.00 20.00     0.079 C 
BRANCH   6   7
HETATM    7  C6  UNL     1     -34.925   5.537   4.279  1.00 20.00     0.022 C 
BRANCH   7   8
HETATM    8  C7  UNL     1     -34.548   5.596   5.756  1.00 20.00     0.115 C 
HETATM    9 CL9  UNL     1     -33.922   7.210   6.170  1.00 20.00    -0.130 Cl
ENDBRANCH   7   8
ENDBRANCH   6   7
ENDBRANCH   1   6
TORSDOF 5
ENDMDL
MODEL 9
REMARK VINA RESULT:      -4.9      1.791      2.383
REMARK  5 active torsions:
REMARK  status: ('A' for Active; 'I' for Inactive)
REMARK    1  A    between atoms: C1_1  and  C3_3 
REMARK    2  A    between atoms: C1_1  and  C4_4 
REMARK    3  A    between atoms: C3_3  and  C5_5 
REMARK    4  A    between atoms: C4_4  and  C6_6 
REMARK    5  A    between atoms: C6_6  and  C7_7 
ROOT
HETATM    1  C1  UNL     1     -33.255   7.387   4.564  1.00 20.00     0.127 C 
HETATM    2  O8  UNL     1     -33.256   7.532   5.785  1.00 20.00    -0.298 OA
ENDROOT
BRANCH   1   3
HETATM    3  C3  UNL     1     -32.126   7.907   3.687  1.00 20.00     0.078 C 
BRANCH   3   4
HETATM    4  C5  UNL     1     -32.495   7.925   2.206  1.00 20.00     0.003 C 
HETATM    5  C2  UNL     1     -32.258   9.294   1.589  1.00 20.00     0.005 C 
ENDBRANCH   3   4
ENDBRANCH   1   3
BRANCH   1   6
HETATM    6  C4  UNL     1     -34.363   6.643   3.831  1.00 20.00     0.079 C 
BRANCH   6   7
HETATM    7  C6  UNL     1     -34.877   5.411   4.573  1.00 20.00     0.022 C 
BRANCH   7   8
HETATM    8  C7  UNL     1     -34.120   4.146   4.181  1.00 20.00     0.115 C 
HETATM    9 CL9  UNL     1     -33.135   4.440   2.729  1.00 20.00    -0.130 Cl
ENDBRANCH   7   8
ENDBRANCH   6   7
ENDBRANCH   1   6
TORSDOF 5
ENDMDL
