MODEL 1
REMARK VINA RESULT:      -4.8      0.000      0.000
REMARK  4 active torsions:
REMARK  status: ('A' for Active; 'I' for Inactive)
REMARK    1  A    between atoms: C3_3  and  C4_4 
REMARK    2  A    between atoms: C3_3  and  C6_6 
REMARK    3  A    between atoms: C4_4  and  O7_7 
REMARK    4  A    between atoms: C5_5  and  C6_6 
ROOT
HETATM    1  C3  UNL     1     -32.867   6.789   3.105  1.00 20.00     0.031 C 
ENDROOT
BRANCH   1   2
HETATM    2  C4  UNL     1     -31.958   8.013   3.083  1.00 20.00     0.167 C 
BRANCH   2   3
HETATM    3  O7  UNL     1     -31.693   8.359   1.730  1.00 20.00    -0.396 OA
HETATM    4  C2  UNL     1     -32.430   9.507   1.332  1.00 20.00     0.201 C 
ENDBRANCH   2   3
ENDBRANCH   1   2
BRANCH   1   5
HETATM    5  C6  UNL     1     -34.094   6.942   4.024  1.00 20.00    -0.003 C 
HETATM    6  C1  UNL     1     -33.635   7.230   5.458  1.00 20.00     0.011 C 
BRANCH   5   7
HETATM    7  C5  UNL     1     -35.078   5.762   3.977  1.00 20.00     0.119 C 
HETATM    8 CL8  UNL     1     -34.396   4.242   4.604  1.00 20.00    -0.130 Cl
ENDBRANCH   5   7
ENDBRANCH   1   5
TORSDOF 4
ENDMDL
MODEL 2
REMARK VINA RESULT:      -4.3      3.084      4.287
REMARK  4 active torsions:
REMARK  status: ('A' for Active; 'I' for Inactive)
REMARK    1  A    between atoms: C3_3  and  C4_4 
REMARK    2  A    between atoms: C3_3  and  C6_6 
REMARK    3  A    between atoms: C4_4  and  O7_7 
REMARK    4  A    between atoms: C5_5  and  C6_6 
ROOT
HETATM    1  C3  UNL     1     -34.722   6.152   3.700  1.00 20.00     0.031 C 
ENDROOT
BRANCH   1   2
HETATM    2  C4  UNL     1     -34.613   5.017   4.712  1.00 20.00     0.167 C 
BRANCH   2   3
HETATM    3  O7  UNL     1     -34.584   5.573   6.020  1.00 20.00    -0.396 OA
HETATM    4  C2  UNL     1     -34.034   6.884   6.016  1.00 20.00     0.201 C 
ENDBRANCH   2   3
ENDBRANCH   1   2
BRANCH   1   5
HETATM    5  C6  UNL     1     -33.589   6.166   2.657  1.00 20.00    -0.003 C 
HETATM    6  C1  UNL     1     -32.959   4.772   2.558  1.00 20.00     0.011 C 
BRANCH   5   7
HETATM    7  C5  UNL     1     -32.523   7.248   2.887  1.00 20.00     0.119 C 
HETATM    8 CL8  UNL     1     -32.476   8.484   1.607  1.00 20.00    -0.130 Cl
ENDBRANCH   5   7
ENDBRANCH   1   5
TORSDOF 4
ENDMDL
MODEL 3
REMARK VINA RESULT:      -4.3      1.499      1.680
REMARK  4 active torsions:
REMARK  status: ('A' for Active; 'I' for Inactive)
REMARK    1  A    between atoms: C3_3  and  C4_4 
REMARK    2  A    between atoms: C3_3  and  C6_6 
REMARK    3  A    between atoms: C4_4  and  O7_7 
REMARK    4  A    between atoms: C5_5  and  C6_6 
ROOT
HETATM    1  C3  UNL     1     -33.959   7.047   3.655  1.00 20.00     0.031 C 
ENDROOT
BRANCH   1   2
HETATM    2  C4  UNL     1     -32.783   7.656   4.410  1.00 20.00     0.167 C 
BRANCH   2   3
HETATM    3  O7  UNL     1     -31.794   8.052   3.470  1.00 20.00    -0.396 OA
HETATM    4  C2  UNL     1     -32.337   8.174   2.162  1.00 20.00     0.201 C 
ENDBRANCH   2   3
ENDBRANCH   1   2
BRANCH   1   5
HETATM    5  C6  UNL     1     -34.612   5.854   4.378  1.00 20.00    -0.003 C 
HETATM    6  C1  UNL     1     -34.472   6.028   5.895  1.00 20.00     0.011 C 
BRANCH   5   7
HETATM    7  C5  UNL     1     -34.104   4.476   3.923  1.00 20.00     0.119 C 
HETATM    8 CL8  UNL     1     -32.952   4.554   2.569  1.00 20.00    -0.130 Cl
ENDBRANCH   5   7
ENDBRANCH   1   5
TORSDOF 4
ENDMDL
MODEL 4
REMARK VINA RESULT:      -4.3      1.115      1.624
REMARK  4 active torsions:
REMARK  status: ('A' for Active; 'I' for Inactive)
REMARK    1  A    between atoms: C3_3  and  C4_4 
REMARK    2  A    between atoms: C3_3  and  C6_6 
REMARK    3  A    between atoms: C4_4  and  O7_7 
REMARK    4  A    between atoms: C5_5  and  C6_6 
ROOT
HETATM    1  C3  UNL     1     -33.102   7.859   2.573  1.00 20.00     0.031 C 
ENDROOT
BRANCH   1   2
HETATM    2  C4  UNL     1     -31.729   8.468   2.312  1.00 20.00     0.167 C 
BRANCH   2   3
HETATM    3  O7  UNL     1     -31.672   8.898   0.959  1.00 20.00    -0.396 OA
HETATM    4  C2  UNL     1     -32.541   9.998   0.725  1.00 20.00     0.201 C 
ENDBRANCH   2   3
ENDBRANCH   1   2
BRANCH   1   5
HETATM    5  C6  UNL     1     -33.085   6.698   3.586  1.00 20.00    -0.003 C 
HETATM    6  C1  UNL     1     -33.513   5.400   2.893  1.00 20.00     0.011 C 
BRANCH   5   7
HETATM    7  C5  UNL     1     -33.908   6.951   4.860  1.00 20.00     0.119 C 
HETATM    8 CL8  UNL     1     -34.570   5.466   5.586  1.00 20.00    -0.130 Cl
ENDBRANCH   5   7
ENDBRANCH   1   5
TORSDOF 4
ENDMDL
MODEL 5
REMARK VINA RESULT:      -4.1      0.884      1.144
REMARK  4 active torsions:
REMARK  status: ('A' for Active; 'I' for Inactive)
REMARK    1  A    between atoms: C3_3  and  C4_4 
REMARK    2  A    between atoms: C3_3  and  C6_6 
REMARK    3  A    between atoms: C4_4  and  O7_7 
REMARK    4  A    between atoms: C5_5  and  C6_6 
ROOT
HETATM    1  C3  UNL     1     -32.996   6.795   3.407  1.00 20.00     0.031 C 
ENDROOT
BRANCH   1   2
HETATM    2  C4  UNL     1     -33.052   7.760   2.228  1.00 20.00     0.167 C 
BRANCH   2   3
HETATM    3  O7  UNL     1     -31.984   8.689   2.347  1.00 20.00    -0.396 OA
HETATM    4  C2  UNL     1     -31.187   8.421   3.493  1.00 20.00     0.201 C 
ENDBRANCH   2   3
ENDBRANCH   1   2
BRANCH   1   5
HETATM    5  C6  UNL     1     -34.247   6.837   4.305  1.00 20.00    -0.003 C 
HETATM    6  C1  UNL     1     -33.833   7.108   5.756  1.00 20.00     0.011 C 
BRANCH   5   7
HETATM    7  C5  UNL     1     -35.149   5.597   4.201  1.00 20.00     0.119 C 
HETATM    8 CL8  UNL     1     -34.289   4.065   4.487  1.00 20.00    -0.130 Cl
ENDBRANCH   5   7
ENDBRANCH   1   5
TORSDOF 4
ENDMDL
MODEL 6
REMARK VINA RESULT:      -4.1      1.787      2.240
REMARK  4 active torsions:
REMARK  status: ('A' for Active; 'I' for Inactive)
REMARK    1  A    between atoms: C3_3  and  C4_4 
REMARK    2  A    between atoms: C3_3  and  C6_6 
REMARK    3  A    between atoms: C4_4  and  O7_7 
REMARK    4  A    between atoms: C5_5  and  C6_6 
ROOT
HETATM    1  C3  UNL     1     -33.353   5.147   3.379  1.00 20.00     0.031 C 
ENDROOT
BRANCH   1   2
HETATM    2  C4  UNL     1     -33.206   6.409   2.536  1.00 20.00     0.167 C 
BRANCH   2   3
HETATM    3  O7  UNL     1     -32.203   7.230   3.117  1.00 20.00    -0.396 OA
HETATM    4  C2  UNL     1     -31.976   8.400   2.343  1.00 20.00     0.201 C 
ENDBRANCH   2   3
ENDBRANCH   1   2
BRANCH   1   5
HETATM    5  C6  UNL     1     -34.622   5.126   4.252  1.00 20.00    -0.003 C 
HETATM    6  C1  UNL     1     -35.679   6.060   3.652  1.00 20.00     0.011 C 
BRANCH   5   7
HETATM    7  C5  UNL     1     -34.380   5.434   5.738  1.00 20.00     0.119 C 
HETATM    8 CL8  UNL     1     -33.964   7.136   6.053  1.00 20.00    -0.130 Cl
ENDBRANCH   5   7
ENDBRANCH   1   5
TORSDOF 4
ENDMDL
MODEL 7
REMARK VINA RESULT:      -4.1      3.078      4.418
REMARK  4 active torsions:
REMARK  status: ('A' for Active; 'I' for Inactive)
REMARK    1  A    between atoms: C3_3  and  C4_4 
REMARK    2  A    between atoms: C3_3  and  C6_6 
REMARK    3  A    between atoms: C4_4  and  O7_7 
REMARK    4  A    between atoms: C5_5  and  C6_6 
ROOT
HETATM    1  C3  UNL     1     -33.319   7.063   2.434  1.00 20.00     0.031 C 
ENDROOT
BRANCH   1   2
HETATM    2  C4  UNL     1     -33.727   6.858   3.889  1.00 20.00     0.167 C 
BRANCH   2   3
HETATM    3  O7  UNL     1     -34.877   6.024   3.927  1.00 20.00    -0.396 OA
HETATM    4  C2  UNL     1     -34.594   4.774   4.540  1.00 20.00     0.201 C 
ENDBRANCH   2   3
ENDBRANCH   1   2
BRANCH   1   5
HETATM    5  C6  UNL     1     -32.146   8.044   2.248  1.00 20.00    -0.003 C 
HETATM    6  C1  UNL     1     -31.452   8.282   3.594  1.00 20.00     0.011 C 
BRANCH   5   7
HETATM    7  C5  UNL     1     -32.525   9.370   1.570  1.00 20.00     0.119 C 
HETATM    8 CL8  UNL     1     -32.883   9.206  -0.165  1.00 20.00    -0.130 Cl
ENDBRANCH   5   7
ENDBRANCH   1   5
TORSDOF 4
ENDMDL
MODEL 8
REMARK VINA RESULT:      -3.9      2.330      3.781
REMARK  4 active torsions:
REMARK  status: ('A' for Active; 'I' for Inactive)
REMARK    1  A    between atoms: C3_3  and  C4_4 
REMARK    2  A    between atoms: C3_3  and  C6_6 
REMARK    3  A    between atoms: C4_4  and  O7_7 
REMARK    4  A    between atoms: C5_5  and  C6_6 
ROOT
HETATM    1  C3  UNL     1     -32.833   7.703   4.563  1.00 20.00     0.031 C 
ENDROOT
BRANCH   1   2
HETATM    2  C4  UNL     1     -34.224   7.213   4.950  1.00 20.00     0.167 C 
BRANCH   2   3
HETATM    3  O7  UNL     1     -34.099   6.289   6.023  1.00 20.00    -0.396 OA
HETATM    4  C2  UNL     1     -34.621   5.014   5.675  1.00 20.00     0.201 C 
ENDBRANCH   2   3
ENDBRANCH   1   2
BRANCH   1   5
HETATM    5  C6  UNL     1     -32.389   7.266   3.155  1.00 20.00    -0.003 C 
HETATM    6  C1  UNL     1     -32.057   8.500   2.309  1.00 20.00     0.011 C 
BRANCH   5   7
HETATM    7  C5  UNL     1     -33.381   6.341   2.431  1.00 20.00     0.119 C 
HETATM    8 CL8  UNL     1     -32.961   4.615   2.549  1.00 20.00    -0.130 Cl
ENDBRANCH   5   7
ENDBRANCH   1   5
TORSDOF 4
ENDMDL
MODEL 9
REMARK VINA RESULT:      -3.8      2.488      3.914
REMARK  4 active torsions:
REMARK  status: ('A' for Active; 'I' for Inactive)
REMARK    1  A    between atoms: C3_3  and  C4_4 
REMARK    2  A    between atoms: C3_3  and  C6_6 
REMARK    3  A    between atoms: C4_4  and  O7_7 
REMARK    4  A    between atoms: C5_5  and  C6_6 
ROOT
HETATM    1  C3  UNL     1     -33.009   6.187   2.910  1.00 20.00     0.031 C 
ENDROOT
BRANCH   1   2
HETATM    2  C4  UNL     1     -34.455   5.758   2.687  1.00 20.00     0.167 C 
BRANCH   2   3
HETATM    3  O7  UNL     1     -35.038   5.448   3.946  1.00 20.00    -0.396 OA
HETATM    4  C2  UNL     1     -34.426   4.310   4.537  1.00 20.00     0.201 C 
ENDBRANCH   2   3
ENDBRANCH   1   2
BRANCH   1   5
HETATM    5  C6  UNL     1     -32.839   7.698   3.155  1.00 20.00    -0.003 C 
HETATM    6  C1  UNL     1     -31.936   8.300   2.073  1.00 20.00     0.011 C 
BRANCH   5   7
HETATM    7  C5  UNL     1     -32.347   8.065   4.564  1.00 20.00     0.119 C 
HETATM    8 CL8  UNL     1     -33.440   7.528   5.862  1.00 20.00    -0.130 Cl
ENDBRANCH   5   7
ENDBRANCH   1   5
TORSDOF 4
ENDMDL
