MODEL 1
REMARK VINA RESULT:      -4.4      0.000      0.000
REMARK  2 active torsions:
REMARK  status: ('A' for Active; 'I' for Inactive)
REMARK    1  A    between atoms: C2_2  and  C4_4 
REMARK    2  A    between atoms: C4_4  and  C5_5 
ROOT
HETATM    1  C1  UNL     1     -32.602   7.638   3.657  1.00 20.00    -0.035 C 
HETATM    2  C2  UNL     1     -33.733   7.084   4.122  1.00 20.00    -0.030 C 
HETATM    3  C3  UNL     1     -32.330   7.984   2.250  1.00 20.00     0.036 C 
ENDROOT
BRANCH   2   4
HETATM    4  C4  UNL     1     -33.972   6.751   5.567  1.00 20.00     0.042 C 
BRANCH   4   5
HETATM    5  C5  UNL     1     -34.635   5.390   5.757  1.00 20.00     0.118 C 
HETATM    6 CL6  UNL     1     -34.361   4.325   4.356  1.00 20.00    -0.130 Cl
ENDBRANCH   4   5
ENDBRANCH   2   4
TORSDOF 2
ENDMDL
MODEL 2
REMARK VINA RESULT:      -4.4      1.625      1.709
REMARK  2 active torsions:
REMARK  status: ('A' for Active; 'I' for Inactive)
REMARK    1  A    between atoms: C2_2  and  C4_4 
REMARK    2  A    between atoms: C4_4  and  C5_5 
ROOT
HETATM    1  C1  UNL     1     -32.794   6.780   2.999  1.00 20.00    -0.035 C 
HETATM    2  C2  UNL     1     -34.060   6.598   3.403  1.00 20.00    -0.030 C 
HETATM    3  C3  UNL     1     -32.271   7.982   2.325  1.00 20.00     0.036 C 
ENDROOT
BRANCH   2   4
HETATM    4  C4  UNL     1     -34.552   5.357   4.092  1.00 20.00     0.042 C 
BRANCH   4   5
HETATM    5  C5  UNL     1     -34.547   5.485   5.613  1.00 20.00     0.118 C 
HETATM    6 CL6  UNL     1     -33.987   7.093   6.134  1.00 20.00    -0.130 Cl
ENDBRANCH   4   5
ENDBRANCH   2   4
TORSDOF 2
ENDMDL
MODEL 3
REMARK VINA RESULT:      -4.2      3.062      4.457
REMARK  2 active torsions:
REMARK  status: ('A' for Active; 'I' for Inactive)
REMARK    1  A    between atoms: C2_2  and  C4_4 
REMARK    2  A    between atoms: C4_4  and  C5_5 
ROOT
HETATM    1  C1  UNL     1     -33.826   6.928   3.877  1.00 20.00    -0.035 C 
HETATM    2  C2  UNL     1     -32.933   7.041   2.882  1.00 20.00    -0.030 C 
HETATM    3  C3  UNL     1     -34.781   5.820   4.053  1.00 20.00     0.036 C 
ENDROOT
BRANCH   2   4
HETATM    4  C4  UNL     1     -31.972   8.187   2.742  1.00 20.00     0.042 C 
BRANCH   4   5
HETATM    5  C5  UNL     1     -31.912   8.736   1.320  1.00 20.00     0.118 C 
HETATM    6 CL6  UNL     1     -32.715  10.320   1.192  1.00 20.00    -0.130 Cl
ENDBRANCH   4   5
ENDBRANCH   2   4
TORSDOF 2
ENDMDL
MODEL 4
REMARK VINA RESULT:      -4.2      1.858      2.746
REMARK  2 active torsions:
REMARK  status: ('A' for Active; 'I' for Inactive)
REMARK    1  A    between atoms: C2_2  and  C4_4 
REMARK    2  A    between atoms: C4_4  and  C5_5 
ROOT
HETATM    1  C1  UNL     1     -32.372   9.244   1.622  1.00 20.00    -0.035 C 
HETATM    2  C2  UNL     1     -32.566   8.005   2.100  1.00 20.00    -0.030 C 
HETATM    3  C3  UNL     1     -32.539   9.658   0.218  1.00 20.00     0.036 C 
ENDROOT
BRANCH   2   4
HETATM    4  C4  UNL     1     -32.389   7.624   3.543  1.00 20.00     0.042 C 
BRANCH   4   5
HETATM    5  C5  UNL     1     -33.656   7.037   4.158  1.00 20.00     0.118 C 
HETATM    6 CL6  UNL     1     -33.703   7.279   5.921  1.00 20.00    -0.130 Cl
ENDBRANCH   4   5
ENDBRANCH   2   4
TORSDOF 2
ENDMDL
MODEL 5
REMARK VINA RESULT:      -4.0      2.725      4.205
REMARK  2 active torsions:
REMARK  status: ('A' for Active; 'I' for Inactive)
REMARK    1  A    between atoms: C2_2  and  C4_4 
REMARK    2  A    between atoms: C4_4  and  C5_5 
ROOT
HETATM    1  C1  UNL     1     -34.196   5.729   4.252  1.00 20.00    -0.035 C 
HETATM    2  C2  UNL     1     -33.545   6.859   3.933  1.00 20.00    -0.030 C 
HETATM    3  C3  UNL     1     -34.697   5.376   5.593  1.00 20.00     0.036 C 
ENDROOT
BRANCH   2   4
HETATM    4  C4  UNL     1     -33.055   7.182   2.551  1.00 20.00     0.042 C 
BRANCH   4   5
HETATM    5  C5  UNL     1     -31.974   8.259   2.545  1.00 20.00     0.118 C 
HETATM    6 CL6  UNL     1     -31.778   8.985   0.931  1.00 20.00    -0.130 Cl
ENDBRANCH   4   5
ENDBRANCH   2   4
TORSDOF 2
ENDMDL
MODEL 6
REMARK VINA RESULT:      -3.7      2.005      2.672
REMARK  2 active torsions:
REMARK  status: ('A' for Active; 'I' for Inactive)
REMARK    1  A    between atoms: C2_2  and  C4_4 
REMARK    2  A    between atoms: C4_4  and  C5_5 
ROOT
HETATM    1  C1  UNL     1     -33.935   6.885   5.288  1.00 20.00    -0.035 C 
HETATM    2  C2  UNL     1     -34.457   5.706   5.659  1.00 20.00    -0.030 C 
HETATM    3  C3  UNL     1     -33.381   7.905   6.197  1.00 20.00     0.036 C 
ENDROOT
BRANCH   2   4
HETATM    4  C4  UNL     1     -35.006   4.691   4.698  1.00 20.00     0.042 C 
BRANCH   4   5
HETATM    5  C5  UNL     1     -33.915   3.867   4.022  1.00 20.00     0.118 C 
HETATM    6 CL6  UNL     1     -33.146   4.764   2.689  1.00 20.00    -0.130 Cl
ENDBRANCH   4   5
ENDBRANCH   2   4
TORSDOF 2
ENDMDL
MODEL 7
REMARK VINA RESULT:      -3.5      1.574      2.622
REMARK  2 active torsions:
REMARK  status: ('A' for Active; 'I' for Inactive)
REMARK    1  A    between atoms: C2_2  and  C4_4 
REMARK    2  A    between atoms: C4_4  and  C5_5 
ROOT
HETATM    1  C1  UNL     1     -33.403   7.017   4.937  1.00 20.00    -0.035 C 
HETATM    2  C2  UNL     1     -34.234   6.776   3.912  1.00 20.00    -0.030 C 
HETATM    3  C3  UNL     1     -33.774   7.654   6.213  1.00 20.00     0.036 C 
ENDROOT
BRANCH   2   4
HETATM    4  C4  UNL     1     -33.815   6.119   2.628  1.00 20.00     0.042 C 
BRANCH   4   5
HETATM    5  C5  UNL     1     -33.238   4.723   2.841  1.00 20.00     0.118 C 
HETATM    6 CL6  UNL     1     -34.098   3.846   4.130  1.00 20.00    -0.130 Cl
ENDBRANCH   4   5
ENDBRANCH   2   4
TORSDOF 2
ENDMDL
MODEL 8
REMARK VINA RESULT:      -3.0     11.811     12.175
REMARK  2 active torsions:
REMARK  status: ('A' for Active; 'I' for Inactive)
REMARK    1  A    between atoms: C2_2  and  C4_4 
REMARK    2  A    between atoms: C4_4  and  C5_5 
ROOT
HETATM    1  C1  UNL     1     -35.275  17.003  -1.138  1.00 20.00    -0.035 C 
HETATM    2  C2  UNL     1     -34.052  17.044  -1.688  1.00 20.00    -0.030 C 
HETATM    3  C3  UNL     1     -35.632  17.499   0.203  1.00 20.00     0.036 C 
ENDROOT
BRANCH   2   4
HETATM    4  C4  UNL     1     -33.732  16.530  -3.063  1.00 20.00     0.042 C 
BRANCH   4   5
HETATM    5  C5  UNL     1     -34.894  15.770  -3.694  1.00 20.00     0.118 C 
HETATM    6 CL6  UNL     1     -34.462  14.077  -4.037  1.00 20.00    -0.130 Cl
ENDBRANCH   4   5
ENDBRANCH   2   4
TORSDOF 2
ENDMDL
MODEL 9
REMARK VINA RESULT:      -2.9     12.049     12.292
REMARK  2 active torsions:
REMARK  status: ('A' for Active; 'I' for Inactive)
REMARK    1  A    between atoms: C2_2  and  C4_4 
REMARK    2  A    between atoms: C4_4  and  C5_5 
ROOT
HETATM    1  C1  UNL     1     -33.731  17.398  -1.562  1.00 20.00    -0.035 C 
HETATM    2  C2  UNL     1     -33.788  16.658  -2.680  1.00 20.00    -0.030 C 
HETATM    3  C3  UNL     1     -32.573  18.195  -1.118  1.00 20.00     0.036 C 
ENDROOT
BRANCH   2   4
HETATM    4  C4  UNL     1     -34.992  15.863  -3.099  1.00 20.00     0.042 C 
BRANCH   4   5
HETATM    5  C5  UNL     1     -34.675  14.843  -4.189  1.00 20.00     0.118 C 
HETATM    6 CL6  UNL     1     -32.925  14.543  -4.319  1.00 20.00    -0.130 Cl
ENDBRANCH   4   5
ENDBRANCH   2   4
TORSDOF 2
ENDMDL
