MODEL 1
REMARK VINA RESULT:      -5.1      0.000      0.000
REMARK  2 active torsions:
REMARK  status: ('A' for Active; 'I' for Inactive)
REMARK    1  A    between atoms: C1_1  and  C6_6 
REMARK    2  A    between atoms: C2_2  and  C7_7 
ROOT
HETATM    1  C1  UNL     1     -32.900   7.654   3.156  1.00 20.00    -0.015 C 
HETATM    2  C2  UNL     1     -33.251   6.362   3.268  1.00 20.00    -0.021 C 
ENDROOT
BRANCH   2   3
HETATM    3  C7  UNL     1     -34.290   5.761   4.205  1.00 20.00    -0.034 C 
HETATM    4  C3  UNL     1     -35.686   6.067   3.634  1.00 20.00     0.018 C 
HETATM    5  C4  UNL     1     -34.163   4.238   4.397  1.00 20.00     0.018 C 
HETATM    6  C5  UNL     1     -34.147   6.439   5.578  1.00 20.00     0.018 C 
ENDBRANCH   2   3
BRANCH   1   7
HETATM    7  C6  UNL     1     -31.868   8.144   2.194  1.00 20.00     0.141 C 
HETATM    8 CL8  UNL     1     -32.511   9.515   1.264  1.00 20.00    -0.126 Cl
ENDBRANCH   1   7
TORSDOF 2
ENDMDL
MODEL 2
REMARK VINA RESULT:      -5.1      0.080      1.527
REMARK  2 active torsions:
REMARK  status: ('A' for Active; 'I' for Inactive)
REMARK    1  A    between atoms: C1_1  and  C6_6 
REMARK    2  A    between atoms: C2_2  and  C7_7 
ROOT
HETATM    1  C1  UNL     1     -32.860   7.657   3.130  1.00 20.00    -0.015 C 
HETATM    2  C2  UNL     1     -33.256   6.377   3.242  1.00 20.00    -0.021 C 
ENDROOT
BRANCH   2   3
HETATM    3  C7  UNL     1     -34.281   5.806   4.211  1.00 20.00    -0.034 C 
HETATM    4  C3  UNL     1     -34.065   4.284   4.296  1.00 20.00     0.018 C 
HETATM    5  C4  UNL     1     -34.203   6.391   5.634  1.00 20.00     0.018 C 
HETATM    6  C5  UNL     1     -35.685   6.084   3.645  1.00 20.00     0.018 C 
ENDBRANCH   2   3
BRANCH   1   7
HETATM    7  C6  UNL     1     -31.846   8.119   2.134  1.00 20.00     0.141 C 
HETATM    8 CL8  UNL     1     -32.507   9.460   1.176  1.00 20.00    -0.126 Cl
ENDBRANCH   1   7
TORSDOF 2
ENDMDL
MODEL 3
REMARK VINA RESULT:      -5.0      0.173      1.547
REMARK  2 active torsions:
REMARK  status: ('A' for Active; 'I' for Inactive)
REMARK    1  A    between atoms: C1_1  and  C6_6 
REMARK    2  A    between atoms: C2_2  and  C7_7 
ROOT
HETATM    1  C1  UNL     1     -32.940   7.700   2.988  1.00 20.00    -0.015 C 
HETATM    2  C2  UNL     1     -33.157   6.408   3.286  1.00 20.00    -0.021 C 
ENDROOT
BRANCH   2   3
HETATM    3  C7  UNL     1     -34.268   5.831   4.153  1.00 20.00    -0.034 C 
HETATM    4  C3  UNL     1     -34.146   6.442   5.560  1.00 20.00     0.018 C 
HETATM    5  C4  UNL     1     -35.690   6.103   3.624  1.00 20.00     0.018 C 
HETATM    6  C5  UNL     1     -34.065   4.309   4.245  1.00 20.00     0.018 C 
ENDBRANCH   2   3
BRANCH   1   7
HETATM    7  C6  UNL     1     -31.818   8.164   2.117  1.00 20.00     0.141 C 
HETATM    8 CL8  UNL     1     -32.419   9.351   0.939  1.00 20.00    -0.126 Cl
ENDBRANCH   1   7
TORSDOF 2
ENDMDL
MODEL 4
REMARK VINA RESULT:      -4.6      2.501      4.843
REMARK  2 active torsions:
REMARK  status: ('A' for Active; 'I' for Inactive)
REMARK    1  A    between atoms: C1_1  and  C6_6 
REMARK    2  A    between atoms: C2_2  and  C7_7 
ROOT
HETATM    1  C1  UNL     1     -32.695   7.667   2.874  1.00 20.00    -0.015 C 
HETATM    2  C2  UNL     1     -33.253   8.352   1.862  1.00 20.00    -0.021 C 
ENDROOT
BRANCH   2   3
HETATM    3  C7  UNL     1     -32.554   9.268   0.867  1.00 20.00    -0.034 C 
HETATM    4  C3  UNL     1     -31.102   8.784   0.707  1.00 20.00     0.018 C 
HETATM    5  C4  UNL     1     -33.212   9.310  -0.525  1.00 20.00     0.018 C 
HETATM    6  C5  UNL     1     -32.549  10.693   1.447  1.00 20.00     0.018 C 
ENDBRANCH   2   3
BRANCH   1   7
HETATM    7  C6  UNL     1     -33.473   6.784   3.795  1.00 20.00     0.141 C 
HETATM    8 CL8  UNL     1     -33.444   7.453   5.441  1.00 20.00    -0.126 Cl
ENDBRANCH   1   7
TORSDOF 2
ENDMDL
MODEL 5
REMARK VINA RESULT:      -4.5      2.516      4.853
REMARK  2 active torsions:
REMARK  status: ('A' for Active; 'I' for Inactive)
REMARK    1  A    between atoms: C1_1  and  C6_6 
REMARK    2  A    between atoms: C2_2  and  C7_7 
ROOT
HETATM    1  C1  UNL     1     -32.735   7.746   2.952  1.00 20.00    -0.015 C 
HETATM    2  C2  UNL     1     -33.224   8.299   1.829  1.00 20.00    -0.021 C 
ENDROOT
BRANCH   2   3
HETATM    3  C7  UNL     1     -32.523   9.274   0.895  1.00 20.00    -0.034 C 
HETATM    4  C3  UNL     1     -33.271   9.273  -0.451  1.00 20.00     0.018 C 
HETATM    5  C4  UNL     1     -32.464  10.722   1.419  1.00 20.00     0.018 C 
HETATM    6  C5  UNL     1     -31.085   8.777   0.672  1.00 20.00     0.018 C 
ENDBRANCH   2   3
BRANCH   1   7
HETATM    7  C6  UNL     1     -33.507   6.788   3.800  1.00 20.00     0.141 C 
HETATM    8 CL8  UNL     1     -33.544   7.362   5.481  1.00 20.00    -0.126 Cl
ENDBRANCH   1   7
TORSDOF 2
ENDMDL
MODEL 6
REMARK VINA RESULT:      -4.5      2.510      4.857
REMARK  2 active torsions:
REMARK  status: ('A' for Active; 'I' for Inactive)
REMARK    1  A    between atoms: C1_1  and  C6_6 
REMARK    2  A    between atoms: C2_2  and  C7_7 
ROOT
HETATM    1  C1  UNL     1     -32.782   7.687   2.922  1.00 20.00    -0.015 C 
HETATM    2  C2  UNL     1     -33.269   8.341   1.855  1.00 20.00    -0.021 C 
ENDROOT
BRANCH   2   3
HETATM    3  C7  UNL     1     -32.504   9.233   0.886  1.00 20.00    -0.034 C 
HETATM    4  C3  UNL     1     -32.512  10.667   1.444  1.00 20.00     0.018 C 
HETATM    5  C4  UNL     1     -31.042   8.807   0.653  1.00 20.00     0.018 C 
HETATM    6  C5  UNL     1     -33.239   9.214  -0.466  1.00 20.00     0.018 C 
ENDBRANCH   2   3
BRANCH   1   7
HETATM    7  C6  UNL     1     -33.620   6.827   3.811  1.00 20.00     0.141 C 
HETATM    8 CL8  UNL     1     -33.503   7.397   5.490  1.00 20.00    -0.126 Cl
ENDBRANCH   1   7
TORSDOF 2
ENDMDL
MODEL 7
REMARK VINA RESULT:      -4.3      1.187      1.451
REMARK  2 active torsions:
REMARK  status: ('A' for Active; 'I' for Inactive)
REMARK    1  A    between atoms: C1_1  and  C6_6 
REMARK    2  A    between atoms: C2_2  and  C7_7 
ROOT
HETATM    1  C1  UNL     1     -32.339   8.201   2.113  1.00 20.00    -0.015 C 
HETATM    2  C2  UNL     1     -33.506   7.777   2.625  1.00 20.00    -0.021 C 
ENDROOT
BRANCH   2   3
HETATM    3  C7  UNL     1     -33.750   6.534   3.470  1.00 20.00    -0.034 C 
HETATM    4  C3  UNL     1     -35.247   6.184   3.388  1.00 20.00     0.018 C 
HETATM    5  C4  UNL     1     -32.935   5.302   3.035  1.00 20.00     0.018 C 
HETATM    6  C5  UNL     1     -33.391   6.867   4.929  1.00 20.00     0.018 C 
ENDBRANCH   2   3
BRANCH   1   7
HETATM    7  C6  UNL     1     -32.204   9.446   1.298  1.00 20.00     0.141 C 
HETATM    8 CL8  UNL     1     -33.021   9.236  -0.266  1.00 20.00    -0.126 Cl
ENDBRANCH   1   7
TORSDOF 2
ENDMDL
MODEL 8
REMARK VINA RESULT:      -4.0      2.479      4.558
REMARK  2 active torsions:
REMARK  status: ('A' for Active; 'I' for Inactive)
REMARK    1  A    between atoms: C1_1  and  C6_6 
REMARK    2  A    between atoms: C2_2  and  C7_7 
ROOT
HETATM    1  C1  UNL     1     -33.457   6.901   3.353  1.00 20.00    -0.015 C 
HETATM    2  C2  UNL     1     -33.208   7.536   2.196  1.00 20.00    -0.021 C 
ENDROOT
BRANCH   2   3
HETATM    3  C7  UNL     1     -32.208   8.657   1.950  1.00 20.00    -0.034 C 
HETATM    4  C3  UNL     1     -31.410   8.319   0.678  1.00 20.00     0.018 C 
HETATM    5  C4  UNL     1     -32.847  10.047   1.771  1.00 20.00     0.018 C 
HETATM    6  C5  UNL     1     -31.245   8.714   3.148  1.00 20.00     0.018 C 
ENDBRANCH   2   3
BRANCH   1   7
HETATM    7  C6  UNL     1     -34.460   5.802   3.488  1.00 20.00     0.141 C 
HETATM    8 CL8  UNL     1     -34.721   5.429   5.205  1.00 20.00    -0.126 Cl
ENDBRANCH   1   7
TORSDOF 2
ENDMDL
MODEL 9
REMARK VINA RESULT:      -3.7      2.505      4.510
REMARK  2 active torsions:
REMARK  status: ('A' for Active; 'I' for Inactive)
REMARK    1  A    between atoms: C1_1  and  C6_6 
REMARK    2  A    between atoms: C2_2  and  C7_7 
ROOT
HETATM    1  C1  UNL     1     -33.604   6.920   3.499  1.00 20.00    -0.015 C 
HETATM    2  C2  UNL     1     -33.228   7.452   2.324  1.00 20.00    -0.021 C 
ENDROOT
BRANCH   2   3
HETATM    3  C7  UNL     1     -32.189   8.539   2.089  1.00 20.00    -0.034 C 
HETATM    4  C3  UNL     1     -32.927   9.880   1.922  1.00 20.00     0.018 C 
HETATM    5  C4  UNL     1     -31.158   8.686   3.224  1.00 20.00     0.018 C 
HETATM    6  C5  UNL     1     -31.438   8.212   0.786  1.00 20.00     0.018 C 
ENDBRANCH   2   3
BRANCH   1   7
HETATM    7  C6  UNL     1     -34.635   5.845   3.622  1.00 20.00     0.141 C 
HETATM    8 CL8  UNL     1     -34.703   5.262   5.299  1.00 20.00    -0.126 Cl
ENDBRANCH   1   7
TORSDOF 2
ENDMDL
