MODEL 1
REMARK VINA RESULT:      -3.7      0.000      0.000
REMARK  0 active torsions:
REMARK  status: ('A' for Active; 'I' for Inactive)
ROOT
HETATM    1  C1  UNL     1     -33.641  16.995  -4.891  1.00 20.00     0.109 C 
HETATM    2  C2  UNL     1     -33.707  16.070  -3.670  1.00 20.00     0.226 C 
HETATM    3  C3  UNL     1     -35.123  14.324  -4.699  1.00 20.00     0.230 C 
HETATM    4  C4  UNL     1     -34.141  14.454  -5.891  1.00 20.00     0.076 C 
HETATM    5  C5  UNL     1     -33.592  16.901  -2.389  1.00 20.00     0.043 C 
HETATM    6  C6  UNL     1     -36.604  14.325  -5.096  1.00 20.00     0.043 C 
HETATM    7  C7  UNL     1     -34.478  13.548  -7.074  1.00 20.00     0.023 C 
HETATM    8  N8  UNL     1     -34.971  15.338  -3.644  1.00 20.00     0.093 N 
HETATM    9  S9  UNL     1     -33.998  16.176  -6.480  1.00 20.00    -0.160 SA
HETATM   10  H24 UNL     1     -35.077  14.880  -2.726  1.00 20.00     0.316 HD
ENDROOT
TORSDOF 0
ENDMDL
MODEL 2
REMARK VINA RESULT:      -3.5      1.647      3.700
REMARK  0 active torsions:
REMARK  status: ('A' for Active; 'I' for Inactive)
ROOT
HETATM    1  C1  UNL     1     -34.334  15.929  -7.041  1.00 20.00     0.109 C 
HETATM    2  C2  UNL     1     -34.913  14.563  -6.653  1.00 20.00     0.226 C 
HETATM    3  C3  UNL     1     -33.774  14.371  -4.467  1.00 20.00     0.230 C 
HETATM    4  C4  UNL     1     -34.252  15.831  -4.268  1.00 20.00     0.076 C 
HETATM    5  C5  UNL     1     -35.198  13.749  -7.918  1.00 20.00     0.043 C 
HETATM    6  C6  UNL     1     -32.302  14.133  -4.110  1.00 20.00     0.043 C 
HETATM    7  C7  UNL     1     -33.817  16.451  -2.941  1.00 20.00     0.023 C 
HETATM    8  N8  UNL     1     -33.971  13.822  -5.818  1.00 20.00     0.093 N 
HETATM    9  S9  UNL     1     -33.728  16.920  -5.636  1.00 20.00    -0.160 SA
HETATM   10  H24 UNL     1     -34.291  12.844  -5.735  1.00 20.00     0.316 HD
ENDROOT
TORSDOF 0
ENDMDL
MODEL 3
REMARK VINA RESULT:      -3.5      1.565      3.958
REMARK  0 active torsions:
REMARK  status: ('A' for Active; 'I' for Inactive)
ROOT
HETATM    1  C1  UNL     1     -35.826  14.588  -5.609  1.00 20.00     0.109 C 
HETATM    2  C2  UNL     1     -34.368  14.382  -6.038  1.00 20.00     0.226 C 
HETATM    3  C3  UNL     1     -33.427  16.313  -4.813  1.00 20.00     0.230 C 
HETATM    4  C4  UNL     1     -34.281  15.781  -3.636  1.00 20.00     0.076 C 
HETATM    5  C5  UNL     1     -34.327  13.717  -7.416  1.00 20.00     0.043 C 
HETATM    6  C6  UNL     1     -33.552  17.822  -5.053  1.00 20.00     0.043 C 
HETATM    7  C7  UNL     1     -34.190  16.630  -2.369  1.00 20.00     0.023 C 
HETATM    8  N8  UNL     1     -33.667  15.661  -6.111  1.00 20.00     0.093 N 
HETATM    9  S9  UNL     1     -36.037  15.578  -4.094  1.00 20.00    -0.160 SA
HETATM   10  H24 UNL     1     -32.761  15.523  -6.585  1.00 20.00     0.316 HD
ENDROOT
TORSDOF 0
ENDMDL
MODEL 4
REMARK VINA RESULT:      -3.4     11.660     12.235
REMARK  0 active torsions:
REMARK  status: ('A' for Active; 'I' for Inactive)
ROOT
HETATM    1  C1  UNL     1     -32.399   8.266   4.112  1.00 20.00     0.109 C 
HETATM    2  C2  UNL     1     -32.824   8.184   2.641  1.00 20.00     0.226 C 
HETATM    3  C3  UNL     1     -33.678   5.865   2.710  1.00 20.00     0.230 C 
HETATM    4  C4  UNL     1     -34.389   6.333   4.004  1.00 20.00     0.076 C 
HETATM    5  C5  UNL     1     -31.927   9.093   1.797  1.00 20.00     0.043 C 
HETATM    6  C6  UNL     1     -32.951   4.521   2.839  1.00 20.00     0.043 C 
HETATM    7  C7  UNL     1     -35.201   5.240   4.697  1.00 20.00     0.023 C 
HETATM    8  N8  UNL     1     -32.707   6.815   2.146  1.00 20.00     0.093 N 
HETATM    9  S9  UNL     1     -33.224   7.062   5.206  1.00 20.00    -0.160 SA
HETATM   10  H24 UNL     1     -32.804   6.818   1.119  1.00 20.00     0.316 HD
ENDROOT
TORSDOF 0
ENDMDL
MODEL 5
REMARK VINA RESULT:      -3.3      1.797      4.031
REMARK  0 active torsions:
REMARK  status: ('A' for Active; 'I' for Inactive)
ROOT
HETATM    1  C1  UNL     1     -36.740  15.211  -4.292  1.00 20.00     0.109 C 
HETATM    2  C2  UNL     1     -35.556  14.315  -4.675  1.00 20.00     0.226 C 
HETATM    3  C3  UNL     1     -33.773  15.950  -4.161  1.00 20.00     0.230 C 
HETATM    4  C4  UNL     1     -34.570  16.167  -2.850  1.00 20.00     0.076 C 
HETATM    5  C5  UNL     1     -35.987  13.335  -5.769  1.00 20.00     0.043 C 
HETATM    6  C6  UNL     1     -33.352  17.243  -4.867  1.00 20.00     0.043 C 
HETATM    7  C7  UNL     1     -33.966  17.222  -1.925  1.00 20.00     0.023 C 
HETATM    8  N8  UNL     1     -34.443  15.118  -5.174  1.00 20.00     0.093 N 
HETATM    9  S9  UNL     1     -36.319  16.582  -3.167  1.00 20.00    -0.160 SA
HETATM   10  H24 UNL     1     -33.743  14.494  -5.605  1.00 20.00     0.316 HD
ENDROOT
TORSDOF 0
ENDMDL
MODEL 6
REMARK VINA RESULT:      -3.3      2.186      4.505
REMARK  0 active torsions:
REMARK  status: ('A' for Active; 'I' for Inactive)
ROOT
HETATM    1  C1  UNL     1     -35.709  16.087  -4.219  1.00 20.00     0.109 C 
HETATM    2  C2  UNL     1     -34.438  15.343  -3.792  1.00 20.00     0.226 C 
HETATM    3  C3  UNL     1     -33.773  16.905  -1.995  1.00 20.00     0.230 C 
HETATM    4  C4  UNL     1     -35.261  16.807  -1.576  1.00 20.00     0.076 C 
HETATM    5  C5  UNL     1     -33.851  14.598  -4.994  1.00 20.00     0.043 C 
HETATM    6  C6  UNL     1     -33.224  18.335  -2.049  1.00 20.00     0.043 C 
HETATM    7  C7  UNL     1     -35.624  17.668  -0.367  1.00 20.00     0.023 C 
HETATM    8  N8  UNL     1     -33.439  16.279  -3.284  1.00 20.00     0.093 N 
HETATM    9  S9  UNL     1     -36.393  17.206  -2.953  1.00 20.00    -0.160 SA
HETATM   10  H24 UNL     1     -32.535  15.790  -3.191  1.00 20.00     0.316 HD
ENDROOT
TORSDOF 0
ENDMDL
MODEL 7
REMARK VINA RESULT:      -3.3      1.951      3.801
REMARK  0 active torsions:
REMARK  status: ('A' for Active; 'I' for Inactive)
ROOT
HETATM    1  C1  UNL     1     -36.905  16.648  -4.796  1.00 20.00     0.109 C 
HETATM    2  C2  UNL     1     -36.903  15.172  -4.382  1.00 20.00     0.226 C 
HETATM    3  C3  UNL     1     -34.522  15.054  -3.725  1.00 20.00     0.230 C 
HETATM    4  C4  UNL     1     -34.828  16.375  -2.975  1.00 20.00     0.076 C 
HETATM    5  C5  UNL     1     -37.947  14.407  -5.200  1.00 20.00     0.043 C 
HETATM    6  C6  UNL     1     -33.238  15.085  -4.562  1.00 20.00     0.043 C 
HETATM    7  C7  UNL     1     -33.621  16.975  -2.256  1.00 20.00     0.023 C 
HETATM    8  N8  UNL     1     -35.591  14.573  -4.614  1.00 20.00     0.093 N 
HETATM    9  S9  UNL     1     -35.556  17.639  -4.073  1.00 20.00    -0.160 SA
HETATM   10  H24 UNL     1     -35.666  13.548  -4.518  1.00 20.00     0.316 HD
ENDROOT
TORSDOF 0
ENDMDL
MODEL 8
REMARK VINA RESULT:      -3.3      2.211      3.467
REMARK  0 active torsions:
REMARK  status: ('A' for Active; 'I' for Inactive)
ROOT
HETATM    1  C1  UNL     1     -36.773  15.774  -3.995  1.00 20.00     0.109 C 
HETATM    2  C2  UNL     1     -37.156  14.549  -4.834  1.00 20.00     0.226 C 
HETATM    3  C3  UNL     1     -34.927  14.168  -5.833  1.00 20.00     0.230 C 
HETATM    4  C4  UNL     1     -34.419  14.353  -4.381  1.00 20.00     0.076 C 
HETATM    5  C5  UNL     1     -38.633  14.638  -5.228  1.00 20.00     0.043 C 
HETATM    6  C6  UNL     1     -34.139  14.959  -6.884  1.00 20.00     0.043 C 
HETATM    7  C7  UNL     1     -32.902  14.257  -4.236  1.00 20.00     0.023 C 
HETATM    8  N8  UNL     1     -36.348  14.483  -6.049  1.00 20.00     0.093 N 
HETATM    9  S9  UNL     1     -34.990  15.925  -3.647  1.00 20.00    -0.160 SA
HETATM   10  H24 UNL     1     -36.751  13.776  -6.684  1.00 20.00     0.316 HD
ENDROOT
TORSDOF 0
ENDMDL
MODEL 9
REMARK VINA RESULT:      -3.3      1.768      2.182
REMARK  0 active torsions:
REMARK  status: ('A' for Active; 'I' for Inactive)
ROOT
HETATM    1  C1  UNL     1     -33.849  16.910  -2.607  1.00 20.00     0.109 C 
HETATM    2  C2  UNL     1     -35.128  16.513  -1.859  1.00 20.00     0.226 C 
HETATM    3  C3  UNL     1     -36.373  15.680  -3.826  1.00 20.00     0.230 C 
HETATM    4  C4  UNL     1     -35.051  14.941  -4.152  1.00 20.00     0.076 C 
HETATM    5  C5  UNL     1     -35.309  17.415  -0.636  1.00 20.00     0.043 C 
HETATM    6  C6  UNL     1     -36.994  16.418  -5.018  1.00 20.00     0.043 C 
HETATM    7  C7  UNL     1     -35.096  14.127  -5.444  1.00 20.00     0.023 C 
HETATM    8  N8  UNL     1     -36.296  16.652  -2.725  1.00 20.00     0.093 N 
HETATM    9  S9  UNL     1     -33.622  16.077  -4.212  1.00 20.00    -0.160 SA
HETATM   10  H24 UNL     1     -37.151  16.573  -2.152  1.00 20.00     0.316 HD
ENDROOT
TORSDOF 0
ENDMDL
