MODEL 1
REMARK VINA RESULT:      -4.8      0.000      0.000
REMARK  3 active torsions:
REMARK  status: ('A' for Active; 'I' for Inactive)
REMARK    1  A    between atoms: C4_4  and  O9_9 
REMARK    2  A    between atoms: C6_6  and  C7_7 
REMARK    3  A    between atoms: C6_6  and  N8_8 
ROOT
HETATM    1  C1  UNL     1     -33.909   7.135   5.735  1.00 20.00     0.064 C 
HETATM    2  C2  UNL     1     -32.820   7.534   4.751  1.00 20.00     0.275 C 
HETATM    3  C3  UNL     1     -34.294   6.218   3.517  1.00 20.00     0.304 C 
HETATM    4  C4  UNL     1     -34.738   6.104   4.973  1.00 20.00     0.150 C 
HETATM    5  N8  UNL     1     -33.528   7.466   3.475  1.00 20.00     0.092 N 
ENDROOT
BRANCH   5   6
HETATM    6  C6  UNL     1     -32.628   7.530   2.332  1.00 20.00     0.287 C 
BRANCH   6   7
HETATM    7  C7  UNL     1     -32.192   8.950   2.012  1.00 20.00     0.144 C 
HETATM    8 CL10 UNL     1     -32.664   9.415   0.358  1.00 20.00    -0.129 Cl
ENDBRANCH   6   7
ENDBRANCH   5   6
BRANCH   4   9
HETATM    9  O9  UNL     1     -34.457   4.796   5.451  1.00 20.00    -0.389 OA
HETATM   10  C5  UNL     1     -34.122   3.912   4.389  1.00 20.00     0.202 C 
ENDBRANCH   4   9
TORSDOF 3
ENDMDL
MODEL 2
REMARK VINA RESULT:      -4.3      3.238      4.675
REMARK  3 active torsions:
REMARK  status: ('A' for Active; 'I' for Inactive)
REMARK    1  A    between atoms: C4_4  and  O9_9 
REMARK    2  A    between atoms: C6_6  and  C7_7 
REMARK    3  A    between atoms: C6_6  and  N8_8 
ROOT
HETATM    1  C1  UNL     1     -31.606   8.302   3.728  1.00 20.00     0.064 C 
HETATM    2  C2  UNL     1     -32.842   7.597   4.266  1.00 20.00     0.275 C 
HETATM    3  C3  UNL     1     -32.960   7.340   1.953  1.00 20.00     0.304 C 
HETATM    4  C4  UNL     1     -31.814   8.314   2.215  1.00 20.00     0.150 C 
HETATM    5  N8  UNL     1     -33.108   6.615   3.217  1.00 20.00     0.092 N 
ENDROOT
BRANCH   5   6
HETATM    6  C6  UNL     1     -34.417   5.992   3.354  1.00 20.00     0.287 C 
BRANCH   6   7
HETATM    7  C7  UNL     1     -34.367   4.701   4.155  1.00 20.00     0.144 C 
HETATM    8 CL10 UNL     1     -34.611   5.007   5.893  1.00 20.00    -0.129 Cl
ENDBRANCH   6   7
ENDBRANCH   5   6
BRANCH   4   9
HETATM    9  O9  UNL     1     -32.191   9.613   1.780  1.00 20.00    -0.389 OA
HETATM   10  C5  UNL     1     -32.615   9.608   0.424  1.00 20.00     0.202 C 
ENDBRANCH   4   9
TORSDOF 3
ENDMDL
MODEL 3
REMARK VINA RESULT:      -3.8     11.535     12.220
REMARK  3 active torsions:
REMARK  status: ('A' for Active; 'I' for Inactive)
REMARK    1  A    between atoms: C4_4  and  O9_9 
REMARK    2  A    between atoms: C6_6  and  C7_7 
REMARK    3  A    between atoms: C6_6  and  N8_8 
ROOT
HETATM    1  C1  UNL     1     -35.358  13.347  -6.723  1.00 20.00     0.064 C 
HETATM    2  C2  UNL     1     -34.394  14.523  -6.681  1.00 20.00     0.275 C 
HETATM    3  C3  UNL     1     -35.075  14.222  -4.473  1.00 20.00     0.304 C 
HETATM    4  C4  UNL     1     -35.956  13.307  -5.319  1.00 20.00     0.150 C 
HETATM    5  N8  UNL     1     -33.895  14.453  -5.309  1.00 20.00     0.092 N 
ENDROOT
BRANCH   5   6
HETATM    6  C6  UNL     1     -33.160  15.649  -4.921  1.00 20.00     0.287 C 
BRANCH   6   7
HETATM    7  C7  UNL     1     -34.028  16.652  -4.179  1.00 20.00     0.144 C 
HETATM    8 CL10 UNL     1     -33.524  16.812  -2.478  1.00 20.00    -0.129 Cl
ENDBRANCH   6   7
ENDBRANCH   5   6
BRANCH   4   9
HETATM    9  O9  UNL     1     -37.284  13.813  -5.335  1.00 20.00    -0.389 OA
HETATM   10  C5  UNL     1     -37.411  14.973  -4.524  1.00 20.00     0.202 C 
ENDBRANCH   4   9
TORSDOF 3
ENDMDL
MODEL 4
REMARK VINA RESULT:      -3.7      1.315      2.016
REMARK  3 active torsions:
REMARK  status: ('A' for Active; 'I' for Inactive)
REMARK    1  A    between atoms: C4_4  and  O9_9 
REMARK    2  A    between atoms: C6_6  and  C7_7 
REMARK    3  A    between atoms: C6_6  and  N8_8 
ROOT
HETATM    1  C1  UNL     1     -33.396   5.621   2.855  1.00 20.00     0.064 C 
HETATM    2  C2  UNL     1     -33.299   6.813   1.916  1.00 20.00     0.275 C 
HETATM    3  C3  UNL     1     -32.745   7.654   4.018  1.00 20.00     0.304 C 
HETATM    4  C4  UNL     1     -33.247   6.230   4.247  1.00 20.00     0.150 C 
HETATM    5  N8  UNL     1     -32.336   7.665   2.611  1.00 20.00     0.092 N 
ENDROOT
BRANCH   5   6
HETATM    6  C6  UNL     1     -32.279   9.010   2.057  1.00 20.00     0.287 C 
BRANCH   6   7
HETATM    7  C7  UNL     1     -31.827   9.024   0.606  1.00 20.00     0.144 C 
HETATM    8 CL10 UNL     1     -33.141   9.548  -0.477  1.00 20.00    -0.129 Cl
ENDBRANCH   6   7
ENDBRANCH   5   6
BRANCH   4   9
HETATM    9  O9  UNL     1     -34.507   6.274   4.903  1.00 20.00    -0.389 OA
HETATM   10  C5  UNL     1     -34.746   5.093   5.655  1.00 20.00     0.202 C 
ENDBRANCH   4   9
TORSDOF 3
ENDMDL
MODEL 5
REMARK VINA RESULT:      -3.5     11.465     12.181
REMARK  3 active torsions:
REMARK  status: ('A' for Active; 'I' for Inactive)
REMARK    1  A    between atoms: C4_4  and  O9_9 
REMARK    2  A    between atoms: C6_6  and  C7_7 
REMARK    3  A    between atoms: C6_6  and  N8_8 
ROOT
HETATM    1  C1  UNL     1     -33.281  15.720  -5.674  1.00 20.00     0.064 C 
HETATM    2  C2  UNL     1     -34.201  16.685  -4.942  1.00 20.00     0.275 C 
HETATM    3  C3  UNL     1     -34.577  14.615  -3.940  1.00 20.00     0.304 C 
HETATM    4  C4  UNL     1     -33.699  14.345  -5.159  1.00 20.00     0.150 C 
HETATM    5  N8  UNL     1     -34.349  16.031  -3.643  1.00 20.00     0.092 N 
ENDROOT
BRANCH   5   6
HETATM    6  C6  UNL     1     -35.418  16.614  -2.844  1.00 20.00     0.287 C 
BRANCH   6   7
HETATM    7  C7  UNL     1     -34.965  16.973  -1.439  1.00 20.00     0.144 C 
HETATM    8 CL10 UNL     1     -33.280  17.551  -1.429  1.00 20.00    -0.129 Cl
ENDBRANCH   6   7
ENDBRANCH   5   6
BRANCH   4   9
HETATM    9  O9  UNL     1     -34.458  13.659  -6.145  1.00 20.00    -0.389 OA
HETATM   10  C5  UNL     1     -35.770  13.366  -5.684  1.00 20.00     0.202 C 
ENDBRANCH   4   9
TORSDOF 3
ENDMDL
MODEL 6
REMARK VINA RESULT:      -3.4     11.231     12.139
REMARK  3 active torsions:
REMARK  status: ('A' for Active; 'I' for Inactive)
REMARK    1  A    between atoms: C4_4  and  O9_9 
REMARK    2  A    between atoms: C6_6  and  C7_7 
REMARK    3  A    between atoms: C6_6  and  N8_8 
ROOT
HETATM    1  C1  UNL     1     -33.113  14.365  -4.562  1.00 20.00     0.064 C 
HETATM    2  C2  UNL     1     -33.116  15.860  -4.840  1.00 20.00     0.275 C 
HETATM    3  C3  UNL     1     -35.151  15.439  -3.787  1.00 20.00     0.304 C 
HETATM    4  C4  UNL     1     -34.531  14.074  -4.078  1.00 20.00     0.150 C 
HETATM    5  N8  UNL     1     -34.011  16.358  -3.797  1.00 20.00     0.092 N 
ENDROOT
BRANCH   5   6
HETATM    6  C6  UNL     1     -34.409  17.741  -4.016  1.00 20.00     0.287 C 
BRANCH   6   7
HETATM    7  C7  UNL     1     -33.561  18.724  -3.228  1.00 20.00     0.144 C 
HETATM    8 CL10 UNL     1     -32.919  17.980  -1.741  1.00 20.00    -0.129 Cl
ENDBRANCH   6   7
ENDBRANCH   5   6
BRANCH   4   9
HETATM    9  O9  UNL     1     -35.277  13.425  -5.099  1.00 20.00    -0.389 OA
HETATM   10  C5  UNL     1     -36.582  13.973  -5.221  1.00 20.00     0.202 C 
ENDBRANCH   4   9
TORSDOF 3
ENDMDL
MODEL 7
REMARK VINA RESULT:      -3.3     12.003     12.704
REMARK  3 active torsions:
REMARK  status: ('A' for Active; 'I' for Inactive)
REMARK    1  A    between atoms: C4_4  and  O9_9 
REMARK    2  A    between atoms: C6_6  and  C7_7 
REMARK    3  A    between atoms: C6_6  and  N8_8 
ROOT
HETATM    1  C1  UNL     1     -34.402  15.978  -3.343  1.00 20.00     0.064 C 
HETATM    2  C2  UNL     1     -35.646  15.245  -3.820  1.00 20.00     0.275 C 
HETATM    3  C3  UNL     1     -33.966  14.604  -5.301  1.00 20.00     0.304 C 
HETATM    4  C4  UNL     1     -33.376  15.722  -4.445  1.00 20.00     0.150 C 
HETATM    5  N8  UNL     1     -35.071  14.082  -4.494  1.00 20.00     0.092 N 
ENDROOT
BRANCH   5   6
HETATM    6  C6  UNL     1     -36.050  13.357  -5.290  1.00 20.00     0.287 C 
BRANCH   6   7
HETATM    7  C7  UNL     1     -36.939  14.282  -6.106  1.00 20.00     0.144 C 
HETATM    8 CL10 UNL     1     -36.573  14.163  -7.846  1.00 20.00    -0.129 Cl
ENDBRANCH   6   7
ENDBRANCH   5   6
BRANCH   4   9
HETATM    9  O9  UNL     1     -33.207  16.887  -5.241  1.00 20.00    -0.389 OA
HETATM   10  C5  UNL     1     -33.697  16.693  -6.561  1.00 20.00     0.202 C 
ENDBRANCH   4   9
TORSDOF 3
ENDMDL
MODEL 8
REMARK VINA RESULT:      -3.3     11.647     12.746
REMARK  3 active torsions:
REMARK  status: ('A' for Active; 'I' for Inactive)
REMARK    1  A    between atoms: C4_4  and  O9_9 
REMARK    2  A    between atoms: C6_6  and  C7_7 
REMARK    3  A    between atoms: C6_6  and  N8_8 
ROOT
HETATM    1  C1  UNL     1     -33.140  14.647  -4.609  1.00 20.00     0.064 C 
HETATM    2  C2  UNL     1     -33.307  15.806  -5.580  1.00 20.00     0.275 C 
HETATM    3  C3  UNL     1     -35.333  15.681  -4.435  1.00 20.00     0.304 C 
HETATM    4  C4  UNL     1     -34.538  14.442  -4.031  1.00 20.00     0.150 C 
HETATM    5  N8  UNL     1     -34.312  16.622  -4.902  1.00 20.00     0.092 N 
ENDROOT
BRANCH   5   6
HETATM    6  C6  UNL     1     -34.862  17.660  -5.763  1.00 20.00     0.287 C 
BRANCH   6   7
HETATM    7  C7  UNL     1     -36.220  17.285  -6.334  1.00 20.00     0.144 C 
HETATM    8 CL10 UNL     1     -36.057  16.485  -7.918  1.00 20.00    -0.129 Cl
ENDBRANCH   6   7
ENDBRANCH   5   6
BRANCH   4   9
HETATM    9  O9  UNL     1     -35.142  13.288  -4.599  1.00 20.00    -0.389 OA
HETATM   10  C5  UNL     1     -36.293  13.622  -5.362  1.00 20.00     0.202 C 
ENDBRANCH   4   9
TORSDOF 3
ENDMDL
MODEL 9
REMARK VINA RESULT:      -3.2     11.696     12.489
REMARK  3 active torsions:
REMARK  status: ('A' for Active; 'I' for Inactive)
REMARK    1  A    between atoms: C4_4  and  O9_9 
REMARK    2  A    between atoms: C6_6  and  C7_7 
REMARK    3  A    between atoms: C6_6  and  N8_8 
ROOT
HETATM    1  C1  UNL     1     -36.279  13.745  -5.513  1.00 20.00     0.064 C 
HETATM    2  C2  UNL     1     -36.902  14.745  -4.551  1.00 20.00     0.275 C 
HETATM    3  C3  UNL     1     -35.017  15.820  -5.401  1.00 20.00     0.304 C 
HETATM    4  C4  UNL     1     -34.939  14.375  -5.888  1.00 20.00     0.150 C 
HETATM    5  N8  UNL     1     -36.436  16.018  -5.098  1.00 20.00     0.092 N 
ENDROOT
BRANCH   5   6
HETATM    6  C6  UNL     1     -36.663  17.132  -4.188  1.00 20.00     0.287 C 
BRANCH   6   7
HETATM    7  C7  UNL     1     -35.413  17.517  -3.415  1.00 20.00     0.144 C 
HETATM    8 CL10 UNL     1     -35.317  16.645  -1.863  1.00 20.00    -0.129 Cl
ENDBRANCH   6   7
ENDBRANCH   5   6
BRANCH   4   9
HETATM    9  O9  UNL     1     -33.878  13.708  -5.220  1.00 20.00    -0.389 OA
HETATM   10  C5  UNL     1     -33.117  14.605  -4.422  1.00 20.00     0.202 C 
ENDBRANCH   4   9
TORSDOF 3
ENDMDL
