MODEL 1
REMARK VINA RESULT:      -6.0      0.000      0.000
REMARK  0 active torsions:
REMARK  status: ('A' for Active; 'I' for Inactive)
ROOT
HETATM    1  C1  UNL     1     -32.756   7.381   3.310  1.00 20.00    -0.088 C 
HETATM    2  C2  UNL     1     -32.709   8.127   2.197  1.00 20.00     0.014 C 
HETATM    3  C3  UNL     1     -32.527   7.958   4.681  1.00 20.00     0.033 C 
HETATM    4  C4  UNL     1     -33.061   5.903   3.286  1.00 20.00     0.042 C 
HETATM    5  C5  UNL     1     -33.692   7.627   5.614  1.00 20.00     0.005 C 
HETATM    6  C6  UNL     1     -34.008   6.128   5.627  1.00 20.00     0.009 C 
HETATM    7  C7  UNL     1     -34.245   5.537   4.214  1.00 20.00    -0.044 C 
HETATM    8  C8  UNL     1     -35.572   6.057   3.626  1.00 20.00     0.015 C 
HETATM    9  C9  UNL     1     -34.340   4.004   4.323  1.00 20.00     0.015 C 
ENDROOT
TORSDOF 0
ENDMDL
MODEL 2
REMARK VINA RESULT:      -5.3      1.136      3.001
REMARK  0 active torsions:
REMARK  status: ('A' for Active; 'I' for Inactive)
ROOT
HETATM    1  C1  UNL     1     -34.501   5.976   5.226  1.00 20.00    -0.088 C 
HETATM    2  C2  UNL     1     -34.646   5.004   6.139  1.00 20.00     0.014 C 
HETATM    3  C3  UNL     1     -33.797   7.271   5.529  1.00 20.00     0.033 C 
HETATM    4  C4  UNL     1     -35.016   5.847   3.814  1.00 20.00     0.042 C 
HETATM    5  C5  UNL     1     -32.682   7.534   4.517  1.00 20.00     0.005 C 
HETATM    6  C6  UNL     1     -33.182   7.434   3.073  1.00 20.00     0.009 C 
HETATM    7  C7  UNL     1     -33.906   6.098   2.764  1.00 20.00    -0.044 C 
HETATM    8  C8  UNL     1     -32.901   4.929   2.752  1.00 20.00     0.015 C 
HETATM    9  C9  UNL     1     -34.548   6.188   1.368  1.00 20.00     0.015 C 
ENDROOT
TORSDOF 0
ENDMDL
MODEL 3
REMARK VINA RESULT:      -4.5      0.843      3.186
REMARK  0 active torsions:
REMARK  status: ('A' for Active; 'I' for Inactive)
ROOT
HETATM    1  C1  UNL     1     -34.417   5.279   4.423  1.00 20.00    -0.088 C 
HETATM    2  C2  UNL     1     -34.282   3.947   4.358  1.00 20.00     0.014 C 
HETATM    3  C3  UNL     1     -34.564   6.014   5.728  1.00 20.00     0.033 C 
HETATM    4  C4  UNL     1     -34.416   6.157   3.196  1.00 20.00     0.042 C 
HETATM    5  C5  UNL     1     -33.517   7.121   5.851  1.00 20.00     0.005 C 
HETATM    6  C6  UNL     1     -33.510   8.043   4.628  1.00 20.00     0.009 C 
HETATM    7  C7  UNL     1     -33.357   7.283   3.286  1.00 20.00    -0.044 C 
HETATM    8  C8  UNL     1     -31.937   6.699   3.154  1.00 20.00     0.015 C 
HETATM    9  C9  UNL     1     -33.576   8.270   2.124  1.00 20.00     0.015 C 
ENDROOT
TORSDOF 0
ENDMDL
MODEL 4
REMARK VINA RESULT:      -3.8     11.697     12.899
REMARK  0 active torsions:
REMARK  status: ('A' for Active; 'I' for Inactive)
ROOT
HETATM    1  C1  UNL     1     -34.019  17.139  -2.916  1.00 20.00    -0.088 C 
HETATM    2  C2  UNL     1     -33.304  17.393  -1.810  1.00 20.00     0.014 C 
HETATM    3  C3  UNL     1     -34.107  18.110  -4.063  1.00 20.00     0.033 C 
HETATM    4  C4  UNL     1     -34.782  15.852  -3.112  1.00 20.00     0.042 C 
HETATM    5  C5  UNL     1     -33.712  17.437  -5.377  1.00 20.00     0.005 C 
HETATM    6  C6  UNL     1     -34.489  16.139  -5.614  1.00 20.00     0.009 C 
HETATM    7  C7  UNL     1     -34.395  15.141  -4.432  1.00 20.00    -0.044 C 
HETATM    8  C8  UNL     1     -32.972  14.555  -4.331  1.00 20.00     0.015 C 
HETATM    9  C9  UNL     1     -35.373  13.978  -4.679  1.00 20.00     0.015 C 
ENDROOT
TORSDOF 0
ENDMDL
MODEL 5
REMARK VINA RESULT:      -3.8     11.628     13.039
REMARK  0 active torsions:
REMARK  status: ('A' for Active; 'I' for Inactive)
ROOT
HETATM    1  C1  UNL     1     -34.951  14.177  -5.188  1.00 20.00    -0.088 C 
HETATM    2  C2  UNL     1     -36.054  13.429  -5.339  1.00 20.00     0.014 C 
HETATM    3  C3  UNL     1     -34.048  14.529  -6.340  1.00 20.00     0.033 C 
HETATM    4  C4  UNL     1     -34.531  14.745  -3.854  1.00 20.00     0.042 C 
HETATM    5  C5  UNL     1     -33.846  16.042  -6.431  1.00 20.00     0.005 C 
HETATM    6  C6  UNL     1     -33.396  16.643  -5.095  1.00 20.00     0.009 C 
HETATM    7  C7  UNL     1     -34.328  16.279  -3.912  1.00 20.00    -0.044 C 
HETATM    8  C8  UNL     1     -35.685  16.997  -4.053  1.00 20.00     0.015 C 
HETATM    9  C9  UNL     1     -33.676  16.747  -2.598  1.00 20.00     0.015 C 
ENDROOT
TORSDOF 0
ENDMDL
MODEL 6
REMARK VINA RESULT:      -3.8     11.966     12.712
REMARK  0 active torsions:
REMARK  status: ('A' for Active; 'I' for Inactive)
ROOT
HETATM    1  C1  UNL     1     -33.898  16.822  -2.305  1.00 20.00    -0.088 C 
HETATM    2  C2  UNL     1     -33.064  17.760  -1.835  1.00 20.00     0.014 C 
HETATM    3  C3  UNL     1     -35.313  16.677  -1.811  1.00 20.00     0.033 C 
HETATM    4  C4  UNL     1     -33.497  15.843  -3.381  1.00 20.00     0.042 C 
HETATM    5  C5  UNL     1     -36.303  16.711  -2.975  1.00 20.00     0.005 C 
HETATM    6  C6  UNL     1     -35.933  15.709  -4.073  1.00 20.00     0.009 C 
HETATM    7  C7  UNL     1     -34.476  15.862  -4.580  1.00 20.00    -0.044 C 
HETATM    8  C8  UNL     1     -34.319  17.168  -5.385  1.00 20.00     0.015 C 
HETATM    9  C9  UNL     1     -34.146  14.684  -5.515  1.00 20.00     0.015 C 
ENDROOT
TORSDOF 0
ENDMDL
MODEL 7
REMARK VINA RESULT:      -3.7     11.636     13.608
REMARK  0 active torsions:
REMARK  status: ('A' for Active; 'I' for Inactive)
ROOT
HETATM    1  C1  UNL     1     -35.655  14.650  -5.124  1.00 20.00    -0.088 C 
HETATM    2  C2  UNL     1     -36.640  13.750  -5.251  1.00 20.00     0.014 C 
HETATM    3  C3  UNL     1     -34.625  14.573  -4.029  1.00 20.00     0.033 C 
HETATM    4  C4  UNL     1     -35.484  15.808  -6.076  1.00 20.00     0.042 C 
HETATM    5  C5  UNL     1     -33.211  14.597  -4.608  1.00 20.00     0.005 C 
HETATM    6  C6  UNL     1     -33.001  15.777  -5.562  1.00 20.00     0.009 C 
HETATM    7  C7  UNL     1     -34.063  15.853  -6.689  1.00 20.00    -0.044 C 
HETATM    8  C8  UNL     1     -33.870  14.697  -7.691  1.00 20.00     0.015 C 
HETATM    9  C9  UNL     1     -33.888  17.179  -7.452  1.00 20.00     0.015 C 
ENDROOT
TORSDOF 0
ENDMDL
MODEL 8
REMARK VINA RESULT:      -3.7     11.630     13.036
REMARK  0 active torsions:
REMARK  status: ('A' for Active; 'I' for Inactive)
ROOT
HETATM    1  C1  UNL     1     -34.624  15.572  -4.254  1.00 20.00    -0.088 C 
HETATM    2  C2  UNL     1     -35.027  14.294  -4.317  1.00 20.00     0.014 C 
HETATM    3  C3  UNL     1     -35.140  16.630  -5.192  1.00 20.00     0.033 C 
HETATM    4  C4  UNL     1     -33.634  16.061  -3.227  1.00 20.00     0.042 C 
HETATM    5  C5  UNL     1     -35.705  17.819  -4.415  1.00 20.00     0.005 C 
HETATM    6  C6  UNL     1     -34.709  18.353  -3.380  1.00 20.00     0.009 C 
HETATM    7  C7  UNL     1     -34.181  17.261  -2.415  1.00 20.00    -0.044 C 
HETATM    8  C8  UNL     1     -35.298  16.799  -1.458  1.00 20.00     0.015 C 
HETATM    9  C9  UNL     1     -33.041  17.852  -1.566  1.00 20.00     0.015 C 
ENDROOT
TORSDOF 0
ENDMDL
MODEL 9
REMARK VINA RESULT:      -3.7      1.809      4.153
REMARK  0 active torsions:
REMARK  status: ('A' for Active; 'I' for Inactive)
ROOT
HETATM    1  C1  UNL     1     -33.177   6.923   2.788  1.00 20.00    -0.088 C 
HETATM    2  C2  UNL     1     -33.321   5.615   2.531  1.00 20.00     0.014 C 
HETATM    3  C3  UNL     1     -32.610   7.436   4.085  1.00 20.00     0.033 C 
HETATM    4  C4  UNL     1     -33.555   7.993   1.793  1.00 20.00     0.042 C 
HETATM    5  C5  UNL     1     -31.436   8.382   3.830  1.00 20.00     0.005 C 
HETATM    6  C6  UNL     1     -31.799   9.493   2.841  1.00 20.00     0.009 C 
HETATM    7  C7  UNL     1     -32.382   8.962   1.506  1.00 20.00    -0.044 C 
HETATM    8  C8  UNL     1     -31.288   8.255   0.682  1.00 20.00     0.015 C 
HETATM    9  C9  UNL     1     -32.906  10.152   0.681  1.00 20.00     0.015 C 
ENDROOT
TORSDOF 0
ENDMDL
