MODEL 1
REMARK VINA RESULT:      -4.4      0.000      0.000
REMARK  3 active torsions:
REMARK  status: ('A' for Active; 'I' for Inactive)
REMARK    1  A    between atoms: C6_6  and  C8_8 
REMARK    2  A    between atoms: C6_6  and  C9_9 
REMARK    3  A    between atoms: C9_9  and  O10_10 
ROOT
HETATM    1  C1  UNL     1     -34.392   5.195   4.110  1.00 20.00     0.000 C 
HETATM    2  C2  UNL     1     -33.320   5.010   3.043  1.00 20.00     0.001 C 
HETATM    3  C3  UNL     1     -34.173   6.468   4.922  1.00 20.00     0.001 C 
HETATM    4  C4  UNL     1     -33.203   6.238   2.140  1.00 20.00     0.011 C 
HETATM    5  C5  UNL     1     -34.058   7.698   4.022  1.00 20.00     0.011 C 
HETATM    6  C6  UNL     1     -32.984   7.555   2.920  1.00 20.00    -0.019 C 
ENDROOT
BRANCH   6   7
HETATM    7  C8  UNL     1     -33.107   8.741   1.944  1.00 20.00     0.007 C 
HETATM    8  C7  UNL     1     -31.903   8.852   1.077  1.00 20.00     0.006 C 
ENDBRANCH   6   7
BRANCH   6   9
HETATM    9  C9  UNL     1     -31.571   7.592   3.533  1.00 20.00     0.173 C 
BRANCH   9  10
HETATM   10  O10 UNL     1     -31.579   8.529   4.589  1.00 20.00    -0.400 OA
HETATM   11  H28 UNL     1     -31.629   8.026   5.421  1.00 20.00     0.209 HD
ENDBRANCH   9  10
ENDBRANCH   6   9
TORSDOF 3
ENDMDL
MODEL 2
REMARK VINA RESULT:      -4.3      1.851      2.117
REMARK  3 active torsions:
REMARK  status: ('A' for Active; 'I' for Inactive)
REMARK    1  A    between atoms: C6_6  and  C8_8 
REMARK    2  A    between atoms: C6_6  and  C9_9 
REMARK    3  A    between atoms: C9_9  and  O10_10 
ROOT
HETATM    1  C1  UNL     1     -34.777   6.075   5.926  1.00 20.00     0.000 C 
HETATM    2  C2  UNL     1     -35.032   5.265   4.660  1.00 20.00     0.001 C 
HETATM    3  C3  UNL     1     -33.419   6.766   5.896  1.00 20.00     0.001 C 
HETATM    4  C4  UNL     1     -34.863   6.115   3.402  1.00 20.00     0.011 C 
HETATM    5  C5  UNL     1     -33.247   7.619   4.640  1.00 20.00     0.011 C 
HETATM    6  C6  UNL     1     -33.498   6.840   3.329  1.00 20.00    -0.019 C 
ENDROOT
BRANCH   6   7
HETATM    7  C8  UNL     1     -33.522   7.834   2.152  1.00 20.00     0.007 C 
HETATM    8  C7  UNL     1     -32.177   8.427   1.921  1.00 20.00     0.006 C 
ENDBRANCH   6   7
BRANCH   6   9
HETATM    9  C9  UNL     1     -32.363   5.830   3.072  1.00 20.00     0.173 C 
BRANCH   9  10
HETATM   10  O10 UNL     1     -32.917   4.711   2.415  1.00 20.00    -0.400 OA
HETATM   11  H28 UNL     1     -33.071   4.026   3.089  1.00 20.00     0.209 HD
ENDBRANCH   9  10
ENDBRANCH   6   9
TORSDOF 3
ENDMDL
MODEL 3
REMARK VINA RESULT:      -4.2      2.065      2.966
REMARK  3 active torsions:
REMARK  status: ('A' for Active; 'I' for Inactive)
REMARK    1  A    between atoms: C6_6  and  C8_8 
REMARK    2  A    between atoms: C6_6  and  C9_9 
REMARK    3  A    between atoms: C9_9  and  O10_10 
ROOT
HETATM    1  C1  UNL     1     -34.309   4.738   5.808  1.00 20.00     0.000 C 
HETATM    2  C2  UNL     1     -34.595   6.234   5.759  1.00 20.00     0.001 C 
HETATM    3  C3  UNL     1     -34.302   4.114   4.418  1.00 20.00     0.001 C 
HETATM    4  C4  UNL     1     -33.634   6.964   4.821  1.00 20.00     0.011 C 
HETATM    5  C5  UNL     1     -33.339   4.839   3.478  1.00 20.00     0.011 C 
HETATM    6  C6  UNL     1     -33.590   6.362   3.397  1.00 20.00    -0.019 C 
ENDROOT
BRANCH   6   7
HETATM    7  C8  UNL     1     -32.438   7.019   2.612  1.00 20.00     0.007 C 
HETATM    8  C7  UNL     1     -31.781   8.086   3.414  1.00 20.00     0.006 C 
ENDBRANCH   6   7
BRANCH   6   9
HETATM    9  C9  UNL     1     -34.903   6.657   2.646  1.00 20.00     0.173 C 
BRANCH   9  10
HETATM   10  O10 UNL     1     -34.819   6.053   1.373  1.00 20.00    -0.400 OA
HETATM   11  H28 UNL     1     -35.520   6.444   0.821  1.00 20.00     0.209 HD
ENDBRANCH   9  10
ENDBRANCH   6   9
TORSDOF 3
ENDMDL
MODEL 4
REMARK VINA RESULT:      -4.1     10.758     12.103
REMARK  3 active torsions:
REMARK  status: ('A' for Active; 'I' for Inactive)
REMARK    1  A    between atoms: C6_6  and  C8_8 
REMARK    2  A    between atoms: C6_6  and  C9_9 
REMARK    3  A    between atoms: C9_9  and  O10_10 
ROOT
HETATM    1  C1  UNL     1     -32.935  15.851  -5.333  1.00 20.00     0.000 C 
HETATM    2  C2  UNL     1     -33.285  14.660  -4.449  1.00 20.00     0.001 C 
HETATM    3  C3  UNL     1     -33.939  16.033  -6.466  1.00 20.00     0.001 C 
HETATM    4  C4  UNL     1     -34.717  14.749  -3.921  1.00 20.00     0.011 C 
HETATM    5  C5  UNL     1     -35.372  16.124  -5.942  1.00 20.00     0.011 C 
HETATM    6  C6  UNL     1     -35.772  14.938  -5.036  1.00 20.00    -0.019 C 
ENDROOT
BRANCH   6   7
HETATM    7  C8  UNL     1     -37.136  15.241  -4.388  1.00 20.00     0.007 C 
HETATM    8  C7  UNL     1     -37.152  16.597  -3.776  1.00 20.00     0.006 C 
ENDBRANCH   6   7
BRANCH   6   9
HETATM    9  C9  UNL     1     -35.918  13.647  -5.866  1.00 20.00     0.173 C 
BRANCH   9  10
HETATM   10  O10 UNL     1     -35.976  12.559  -4.969  1.00 20.00    -0.400 OA
HETATM   11  H28 UNL     1     -36.588  11.904  -5.348  1.00 20.00     0.209 HD
ENDBRANCH   9  10
ENDBRANCH   6   9
TORSDOF 3
ENDMDL
MODEL 5
REMARK VINA RESULT:      -4.1     10.605     11.754
REMARK  3 active torsions:
REMARK  status: ('A' for Active; 'I' for Inactive)
REMARK    1  A    between atoms: C6_6  and  C8_8 
REMARK    2  A    between atoms: C6_6  and  C9_9 
REMARK    3  A    between atoms: C9_9  and  O10_10 
ROOT
HETATM    1  C1  UNL     1     -36.878  14.270  -5.266  1.00 20.00     0.000 C 
HETATM    2  C2  UNL     1     -36.672  15.737  -5.621  1.00 20.00     0.001 C 
HETATM    3  C3  UNL     1     -35.553  13.537  -5.083  1.00 20.00     0.001 C 
HETATM    4  C4  UNL     1     -35.775  16.445  -4.606  1.00 20.00     0.011 C 
HETATM    5  C5  UNL     1     -34.654  14.241  -4.066  1.00 20.00     0.011 C 
HETATM    6  C6  UNL     1     -34.419  15.735  -4.384  1.00 20.00    -0.019 C 
ENDROOT
BRANCH   6   7
HETATM    7  C8  UNL     1     -33.699  16.393  -3.192  1.00 20.00     0.007 C 
HETATM    8  C7  UNL     1     -34.644  16.663  -2.075  1.00 20.00     0.006 C 
ENDBRANCH   6   7
BRANCH   6   9
HETATM    9  C9  UNL     1     -33.519  15.889  -5.625  1.00 20.00     0.173 C 
BRANCH   9  10
HETATM   10  O10 UNL     1     -32.326  15.174  -5.388  1.00 20.00    -0.400 OA
HETATM   11  H28 UNL     1     -32.448  14.278  -5.750  1.00 20.00     0.209 HD
ENDBRANCH   9  10
ENDBRANCH   6   9
TORSDOF 3
ENDMDL
MODEL 6
REMARK VINA RESULT:      -4.0     11.129     11.766
REMARK  3 active torsions:
REMARK  status: ('A' for Active; 'I' for Inactive)
REMARK    1  A    between atoms: C6_6  and  C8_8 
REMARK    2  A    between atoms: C6_6  and  C9_9 
REMARK    3  A    between atoms: C9_9  and  O10_10 
ROOT
HETATM    1  C1  UNL     1     -35.439  13.901  -4.807  1.00 20.00     0.000 C 
HETATM    2  C2  UNL     1     -36.333  15.045  -4.342  1.00 20.00     0.001 C 
HETATM    3  C3  UNL     1     -34.059  14.392  -5.228  1.00 20.00     0.001 C 
HETATM    4  C4  UNL     1     -35.669  15.868  -3.238  1.00 20.00     0.011 C 
HETATM    5  C5  UNL     1     -33.391  15.214  -4.125  1.00 20.00     0.011 C 
HETATM    6  C6  UNL     1     -34.263  16.386  -3.619  1.00 20.00    -0.019 C 
ENDROOT
BRANCH   6   7
HETATM    7  C8  UNL     1     -33.600  16.999  -2.371  1.00 20.00     0.007 C 
HETATM    8  C7  UNL     1     -34.581  17.155  -1.263  1.00 20.00     0.006 C 
ENDBRANCH   6   7
BRANCH   6   9
HETATM    9  C9  UNL     1     -34.364  17.488  -4.691  1.00 20.00     0.173 C 
BRANCH   9  10
HETATM   10  O10 UNL     1     -33.056  17.794  -5.126  1.00 20.00    -0.400 OA
HETATM   11  H28 UNL     1     -32.451  17.174  -4.681  1.00 20.00     0.209 HD
ENDBRANCH   9  10
ENDBRANCH   6   9
TORSDOF 3
ENDMDL
MODEL 7
REMARK VINA RESULT:      -4.0     10.347     11.686
REMARK  3 active torsions:
REMARK  status: ('A' for Active; 'I' for Inactive)
REMARK    1  A    between atoms: C6_6  and  C8_8 
REMARK    2  A    between atoms: C6_6  and  C9_9 
REMARK    3  A    between atoms: C9_9  and  O10_10 
ROOT
HETATM    1  C1  UNL     1     -36.045  16.959  -2.603  1.00 20.00     0.000 C 
HETATM    2  C2  UNL     1     -36.525  16.094  -3.762  1.00 20.00     0.001 C 
HETATM    3  C3  UNL     1     -34.661  16.543  -2.118  1.00 20.00     0.001 C 
HETATM    4  C4  UNL     1     -35.514  16.070  -4.907  1.00 20.00     0.011 C 
HETATM    5  C5  UNL     1     -33.645  16.522  -3.261  1.00 20.00     0.011 C 
HETATM    6  C6  UNL     1     -34.091  15.657  -4.462  1.00 20.00    -0.019 C 
ENDROOT
BRANCH   6   7
HETATM    7  C8  UNL     1     -33.115  15.885  -5.632  1.00 20.00     0.007 C 
HETATM    8  C7  UNL     1     -33.846  16.062  -6.916  1.00 20.00     0.006 C 
ENDBRANCH   6   7
BRANCH   6   9
HETATM    9  C9  UNL     1     -34.052  14.161  -4.098  1.00 20.00     0.173 C 
BRANCH   9  10
HETATM   10  O10 UNL     1     -32.769  13.668  -4.419  1.00 20.00    -0.400 OA
HETATM   11  H28 UNL     1     -32.621  13.841  -5.365  1.00 20.00     0.209 HD
ENDBRANCH   9  10
ENDBRANCH   6   9
TORSDOF 3
ENDMDL
MODEL 8
REMARK VINA RESULT:      -4.0     10.787     12.503
REMARK  3 active torsions:
REMARK  status: ('A' for Active; 'I' for Inactive)
REMARK    1  A    between atoms: C6_6  and  C8_8 
REMARK    2  A    between atoms: C6_6  and  C9_9 
REMARK    3  A    between atoms: C9_9  and  O10_10 
ROOT
HETATM    1  C1  UNL     1     -34.531  16.001  -7.918  1.00 20.00     0.000 C 
HETATM    2  C2  UNL     1     -34.139  14.581  -7.527  1.00 20.00     0.001 C 
HETATM    3  C3  UNL     1     -35.763  16.480  -7.158  1.00 20.00     0.001 C 
HETATM    4  C4  UNL     1     -33.956  14.440  -6.016  1.00 20.00     0.011 C 
HETATM    5  C5  UNL     1     -35.583  16.343  -5.646  1.00 20.00     0.011 C 
HETATM    6  C6  UNL     1     -35.181  14.918  -5.202  1.00 20.00    -0.019 C 
ENDROOT
BRANCH   6   7
HETATM    7  C8  UNL     1     -34.808  14.946  -3.708  1.00 20.00     0.007 C 
HETATM    8  C7  UNL     1     -33.823  16.023  -3.419  1.00 20.00     0.006 C 
ENDBRANCH   6   7
BRANCH   6   9
HETATM    9  C9  UNL     1     -36.360  13.942  -5.378  1.00 20.00     0.173 C 
BRANCH   9  10
HETATM   10  O10 UNL     1     -35.922  12.657  -4.994  1.00 20.00    -0.400 OA
HETATM   11  H28 UNL     1     -36.693  12.064  -5.030  1.00 20.00     0.209 HD
ENDBRANCH   9  10
ENDBRANCH   6   9
TORSDOF 3
ENDMDL
MODEL 9
REMARK VINA RESULT:      -4.0     11.182     11.901
REMARK  3 active torsions:
REMARK  status: ('A' for Active; 'I' for Inactive)
REMARK    1  A    between atoms: C6_6  and  C8_8 
REMARK    2  A    between atoms: C6_6  and  C9_9 
REMARK    3  A    between atoms: C9_9  and  O10_10 
ROOT
HETATM    1  C1  UNL     1     -35.034  16.746  -1.879  1.00 20.00     0.000 C 
HETATM    2  C2  UNL     1     -33.680  16.724  -2.577  1.00 20.00     0.001 C 
HETATM    3  C3  UNL     1     -36.187  16.808  -2.875  1.00 20.00     0.001 C 
HETATM    4  C4  UNL     1     -33.593  15.598  -3.607  1.00 20.00     0.011 C 
HETATM    5  C5  UNL     1     -36.105  15.682  -3.905  1.00 20.00     0.011 C 
HETATM    6  C6  UNL     1     -34.746  15.619  -4.638  1.00 20.00    -0.019 C 
ENDROOT
BRANCH   6   7
HETATM    7  C8  UNL     1     -34.689  14.327  -5.477  1.00 20.00     0.007 C 
HETATM    8  C7  UNL     1     -35.888  13.479  -5.239  1.00 20.00     0.006 C 
ENDBRANCH   6   7
BRANCH   6   9
HETATM    9  C9  UNL     1     -34.591  16.814  -5.598  1.00 20.00     0.173 C 
BRANCH   9  10
HETATM   10  O10 UNL     1     -33.270  16.804  -6.095  1.00 20.00    -0.400 OA
HETATM   11  H28 UNL     1     -33.032  17.725  -6.303  1.00 20.00     0.209 HD
ENDBRANCH   9  10
ENDBRANCH   6   9
TORSDOF 3
ENDMDL
