MODEL 1
REMARK VINA RESULT:      -4.6      0.000      0.000
REMARK  2 active torsions:
REMARK  status: ('A' for Active; 'I' for Inactive)
REMARK    1  A    between atoms: C2_2  and  C6_6 
REMARK    2  A    between atoms: C3_3  and  O7_7 
ROOT
HETATM    1  C1  UNL     1     -35.330   6.075   3.623  1.00 20.00     0.045 A 
HETATM    2  C2  UNL     1     -33.930   6.550   3.910  1.00 20.00     0.022 A 
HETATM    3  C3  UNL     1     -34.410   5.232   4.468  1.00 20.00     0.058 A 
HETATM    4  C4  UNL     1     -34.663   5.091   5.931  1.00 20.00     0.046 C 
ENDROOT
BRANCH   3   5
HETATM    5  O7  UNL     1     -33.912   4.033   3.849  1.00 20.00    -0.390 OA
HETATM    6  H19 UNL     1     -34.536   3.824   3.140  1.00 20.00     0.210 HD
ENDBRANCH   3   5
BRANCH   2   7
HETATM    7  C6  UNL     1     -32.922   6.612   2.813  1.00 20.00     0.003 C 
HETATM    8  C5  UNL     1     -32.169   7.918   2.778  1.00 20.00     0.005 C 
ENDBRANCH   2   7
TORSDOF 2
ENDMDL
MODEL 2
REMARK VINA RESULT:      -4.3      1.206      3.311
REMARK  2 active torsions:
REMARK  status: ('A' for Active; 'I' for Inactive)
REMARK    1  A    between atoms: C2_2  and  C6_6 
REMARK    2  A    between atoms: C3_3  and  O7_7 
ROOT
HETATM    1  C1  UNL     1     -33.069   7.288   4.695  1.00 20.00     0.045 A 
HETATM    2  C2  UNL     1     -34.346   6.980   3.960  1.00 20.00     0.022 A 
HETATM    3  C3  UNL     1     -33.035   7.023   3.212  1.00 20.00     0.058 A 
HETATM    4  C4  UNL     1     -32.757   8.140   2.263  1.00 20.00     0.046 C 
ENDROOT
BRANCH   3   5
HETATM    5  O7  UNL     1     -32.461   5.768   2.812  1.00 20.00    -0.390 OA
HETATM    6  H19 UNL     1     -31.771   5.986   2.171  1.00 20.00     0.210 HD
ENDBRANCH   3   5
BRANCH   2   7
HETATM    7  C6  UNL     1     -35.060   5.694   4.208  1.00 20.00     0.003 C 
HETATM    8  C5  UNL     1     -34.680   5.053   5.518  1.00 20.00     0.005 C 
ENDBRANCH   2   7
TORSDOF 2
ENDMDL
MODEL 3
REMARK VINA RESULT:      -4.1      1.590      2.108
REMARK  2 active torsions:
REMARK  status: ('A' for Active; 'I' for Inactive)
REMARK    1  A    between atoms: C2_2  and  C6_6 
REMARK    2  A    between atoms: C3_3  and  O7_7 
ROOT
HETATM    1  C1  UNL     1     -32.917   5.508   3.057  1.00 20.00     0.045 A 
HETATM    2  C2  UNL     1     -33.239   6.905   2.598  1.00 20.00     0.022 A 
HETATM    3  C3  UNL     1     -33.923   6.334   3.817  1.00 20.00     0.058 A 
HETATM    4  C4  UNL     1     -35.371   5.979   3.761  1.00 20.00     0.046 C 
ENDROOT
BRANCH   3   5
HETATM    5  O7  UNL     1     -33.495   6.817   5.102  1.00 20.00    -0.390 OA
HETATM    6  H19 UNL     1     -33.809   7.730   5.157  1.00 20.00     0.210 HD
ENDBRANCH   3   5
BRANCH   2   7
HETATM    7  C6  UNL     1     -32.217   7.984   2.712  1.00 20.00     0.003 C 
HETATM    8  C5  UNL     1     -32.125   8.841   1.475  1.00 20.00     0.005 C 
ENDBRANCH   2   7
TORSDOF 2
ENDMDL
MODEL 4
REMARK VINA RESULT:      -4.1      2.561      3.564
REMARK  2 active torsions:
REMARK  status: ('A' for Active; 'I' for Inactive)
REMARK    1  A    between atoms: C2_2  and  C6_6 
REMARK    2  A    between atoms: C3_3  and  O7_7 
ROOT
HETATM    1  C1  UNL     1     -31.543   8.082   3.338  1.00 20.00     0.045 A 
HETATM    2  C2  UNL     1     -32.067   8.231   1.934  1.00 20.00     0.022 A 
HETATM    3  C3  UNL     1     -32.819   7.389   2.936  1.00 20.00     0.058 A 
HETATM    4  C4  UNL     1     -32.846   5.904   2.790  1.00 20.00     0.046 C 
ENDROOT
BRANCH   3   5
HETATM    5  O7  UNL     1     -34.030   7.937   3.483  1.00 20.00    -0.390 OA
HETATM    6  H19 UNL     1     -33.895   7.973   4.440  1.00 20.00     0.210 HD
ENDBRANCH   3   5
BRANCH   2   7
HETATM    7  C6  UNL     1     -32.594   9.545   1.468  1.00 20.00     0.003 C 
HETATM    8  C5  UNL     1     -32.889   9.571  -0.010  1.00 20.00     0.005 C 
ENDBRANCH   2   7
TORSDOF 2
ENDMDL
MODEL 5
REMARK VINA RESULT:      -4.0      1.905      2.778
REMARK  2 active torsions:
REMARK  status: ('A' for Active; 'I' for Inactive)
REMARK    1  A    between atoms: C2_2  and  C6_6 
REMARK    2  A    between atoms: C3_3  and  O7_7 
ROOT
HETATM    1  C1  UNL     1     -34.527   4.148   4.559  1.00 20.00     0.045 A 
HETATM    2  C2  UNL     1     -33.747   5.340   5.047  1.00 20.00     0.022 A 
HETATM    3  C3  UNL     1     -34.108   5.220   3.586  1.00 20.00     0.058 A 
HETATM    4  C4  UNL     1     -33.046   4.937   2.578  1.00 20.00     0.046 C 
ENDROOT
BRANCH   3   5
HETATM    5  O7  UNL     1     -35.161   6.068   3.095  1.00 20.00    -0.390 OA
HETATM    6  H19 UNL     1     -35.068   6.905   3.570  1.00 20.00     0.210 HD
ENDBRANCH   3   5
BRANCH   2   7
HETATM    7  C6  UNL     1     -34.398   6.348   5.932  1.00 20.00     0.003 C 
HETATM    8  C5  UNL     1     -33.590   7.612   6.078  1.00 20.00     0.005 C 
ENDBRANCH   2   7
TORSDOF 2
ENDMDL
MODEL 6
REMARK VINA RESULT:      -4.0      2.584      4.507
REMARK  2 active torsions:
REMARK  status: ('A' for Active; 'I' for Inactive)
REMARK    1  A    between atoms: C2_2  and  C6_6 
REMARK    2  A    between atoms: C3_3  and  O7_7 
ROOT
HETATM    1  C1  UNL     1     -31.576   8.592   3.189  1.00 20.00     0.045 A 
HETATM    2  C2  UNL     1     -32.851   7.923   2.748  1.00 20.00     0.022 A 
HETATM    3  C3  UNL     1     -32.103   8.825   1.796  1.00 20.00     0.058 A 
HETATM    4  C4  UNL     1     -32.672  10.155   1.429  1.00 20.00     0.046 C 
ENDROOT
BRANCH   3   5
HETATM    5  O7  UNL     1     -31.366   8.198   0.733  1.00 20.00    -0.390 OA
HETATM    6  H19 UNL     1     -31.817   7.361   0.558  1.00 20.00     0.210 HD
ENDBRANCH   3   5
BRANCH   2   7
HETATM    7  C6  UNL     1     -32.891   6.446   2.552  1.00 20.00     0.003 C 
HETATM    8  C5  UNL     1     -34.036   5.786   3.279  1.00 20.00     0.005 C 
ENDBRANCH   2   7
TORSDOF 2
ENDMDL
MODEL 7
REMARK VINA RESULT:      -3.8      3.228      5.155
REMARK  2 active torsions:
REMARK  status: ('A' for Active; 'I' for Inactive)
REMARK    1  A    between atoms: C2_2  and  C6_6 
REMARK    2  A    between atoms: C3_3  and  O7_7 
ROOT
HETATM    1  C1  UNL     1     -32.406  10.194   1.698  1.00 20.00     0.045 A 
HETATM    2  C2  UNL     1     -32.930   8.795   1.885  1.00 20.00     0.022 A 
HETATM    3  C3  UNL     1     -32.307   9.199   0.570  1.00 20.00     0.058 A 
HETATM    4  C4  UNL     1     -33.163   9.360  -0.641  1.00 20.00     0.046 C 
ENDROOT
BRANCH   3   5
HETATM    5  O7  UNL     1     -30.988   8.704   0.285  1.00 20.00    -0.390 OA
HETATM    6  H19 UNL     1     -30.601   8.476   1.141  1.00 20.00     0.210 HD
ENDBRANCH   3   5
BRANCH   2   7
HETATM    7  C6  UNL     1     -32.242   7.857   2.818  1.00 20.00     0.003 C 
HETATM    8  C5  UNL     1     -32.975   6.550   2.986  1.00 20.00     0.005 C 
ENDBRANCH   2   7
TORSDOF 2
ENDMDL
MODEL 8
REMARK VINA RESULT:      -3.7      1.821      3.383
REMARK  2 active torsions:
REMARK  status: ('A' for Active; 'I' for Inactive)
REMARK    1  A    between atoms: C2_2  and  C6_6 
REMARK    2  A    between atoms: C3_3  and  O7_7 
ROOT
HETATM    1  C1  UNL     1     -34.387   7.704   3.512  1.00 20.00     0.045 A 
HETATM    2  C2  UNL     1     -33.902   6.286   3.658  1.00 20.00     0.022 A 
HETATM    3  C3  UNL     1     -33.023   7.434   4.094  1.00 20.00     0.058 A 
HETATM    4  C4  UNL     1     -31.799   7.773   3.311  1.00 20.00     0.046 C 
ENDROOT
BRANCH   3   5
HETATM    5  O7  UNL     1     -32.888   7.662   5.507  1.00 20.00    -0.390 OA
HETATM    6  H19 UNL     1     -33.441   8.430   5.704  1.00 20.00     0.210 HD
ENDBRANCH   3   5
BRANCH   2   7
HETATM    7  C6  UNL     1     -34.543   5.375   4.649  1.00 20.00     0.003 C 
HETATM    8  C5  UNL     1     -34.191   3.926   4.429  1.00 20.00     0.005 C 
ENDBRANCH   2   7
TORSDOF 2
ENDMDL
MODEL 9
REMARK VINA RESULT:      -3.7      1.672      2.079
REMARK  2 active torsions:
REMARK  status: ('A' for Active; 'I' for Inactive)
REMARK    1  A    between atoms: C2_2  and  C6_6 
REMARK    2  A    between atoms: C3_3  and  O7_7 
ROOT
HETATM    1  C1  UNL     1     -35.364   5.811   3.681  1.00 20.00     0.045 A 
HETATM    2  C2  UNL     1     -34.405   6.114   4.801  1.00 20.00     0.022 A 
HETATM    3  C3  UNL     1     -34.054   5.072   3.766  1.00 20.00     0.058 A 
HETATM    4  C4  UNL     1     -34.037   3.628   4.140  1.00 20.00     0.046 C 
ENDROOT
BRANCH   3   5
HETATM    5  O7  UNL     1     -33.069   5.426   2.781  1.00 20.00    -0.390 OA
HETATM    6  H19 UNL     1     -33.369   5.026   1.953  1.00 20.00     0.210 HD
ENDBRANCH   3   5
BRANCH   2   7
HETATM    7  C6  UNL     1     -33.705   7.429   4.852  1.00 20.00     0.003 C 
HETATM    8  C5  UNL     1     -33.308   7.832   6.249  1.00 20.00     0.005 C 
ENDBRANCH   2   7
TORSDOF 2
ENDMDL
