MODEL 1
REMARK VINA RESULT:      -5.7      0.000      0.000
REMARK  3 active torsions:
REMARK  status: ('A' for Active; 'I' for Inactive)
REMARK    1  A    between atoms: C1_1  and  C6_6 
REMARK    2  A    between atoms: C2_2  and  C7_7 
REMARK    3  A    between atoms: C3_3  and  C7_7 
ROOT
HETATM    1  C1  UNL     1     -33.632   6.968   4.124  1.00 20.00    -0.026 C 
HETATM    2  C2  UNL     1     -32.899   7.147   3.015  1.00 20.00    -0.020 C 
ENDROOT
BRANCH   2   3
HETATM    3  C7  UNL     1     -31.840   8.195   2.874  1.00 20.00     0.140 C 
BRANCH   3   4
HETATM    4  C3  UNL     1     -32.040   8.888   1.531  1.00 20.00     0.176 C 
HETATM    5  O8  UNL     1     -31.237   8.538   0.621  1.00 20.00    -0.648 OA
HETATM    6  O9  UNL     1     -32.975   9.737   1.498  1.00 20.00    -0.648 OA
ENDBRANCH   3   4
ENDBRANCH   2   3
BRANCH   1   7
HETATM    7  C6  UNL     1     -34.690   5.958   4.302  1.00 20.00     0.008 A 
HETATM    8  C4  UNL     1     -34.312   4.513   4.235  1.00 20.00     0.009 A 
HETATM    9  C5  UNL     1     -34.682   5.133   5.549  1.00 20.00     0.009 A 
ENDBRANCH   1   7
TORSDOF 3
ENDMDL
MODEL 2
REMARK VINA RESULT:      -5.7      0.024      1.078
REMARK  3 active torsions:
REMARK  status: ('A' for Active; 'I' for Inactive)
REMARK    1  A    between atoms: C1_1  and  C6_6 
REMARK    2  A    between atoms: C2_2  and  C7_7 
REMARK    3  A    between atoms: C3_3  and  C7_7 
ROOT
HETATM    1  C1  UNL     1     -33.609   6.954   4.131  1.00 20.00    -0.026 C 
HETATM    2  C2  UNL     1     -32.924   7.174   2.999  1.00 20.00    -0.020 C 
ENDROOT
BRANCH   2   3
HETATM    3  C7  UNL     1     -31.850   8.208   2.860  1.00 20.00     0.140 C 
BRANCH   3   4
HETATM    4  C3  UNL     1     -32.043   8.907   1.519  1.00 20.00     0.176 C 
HETATM    5  O8  UNL     1     -32.991   9.741   1.479  1.00 20.00    -0.648 OA
HETATM    6  O9  UNL     1     -31.240   8.555   0.609  1.00 20.00    -0.648 OA
ENDBRANCH   3   4
ENDBRANCH   2   3
BRANCH   1   7
HETATM    7  C6  UNL     1     -34.679   5.956   4.308  1.00 20.00     0.008 A 
HETATM    8  C4  UNL     1     -34.315   4.507   4.256  1.00 20.00     0.009 A 
HETATM    9  C5  UNL     1     -34.689   5.141   5.562  1.00 20.00     0.009 A 
ENDBRANCH   1   7
TORSDOF 3
ENDMDL
MODEL 3
REMARK VINA RESULT:      -5.5      2.941      4.997
REMARK  3 active torsions:
REMARK  status: ('A' for Active; 'I' for Inactive)
REMARK    1  A    between atoms: C1_1  and  C6_6 
REMARK    2  A    between atoms: C2_2  and  C7_7 
REMARK    3  A    between atoms: C3_3  and  C7_7 
ROOT
HETATM    1  C1  UNL     1     -32.583   7.421   2.605  1.00 20.00    -0.026 C 
HETATM    2  C2  UNL     1     -33.615   7.360   3.461  1.00 20.00    -0.020 C 
ENDROOT
BRANCH   2   3
HETATM    3  C7  UNL     1     -34.302   6.088   3.849  1.00 20.00     0.140 C 
BRANCH   3   4
HETATM    4  C3  UNL     1     -34.351   6.026   5.371  1.00 20.00     0.176 C 
HETATM    5  O8  UNL     1     -34.708   4.915   5.853  1.00 20.00    -0.648 OA
HETATM    6  O9  UNL     1     -34.041   7.099   5.963  1.00 20.00    -0.648 OA
ENDBRANCH   3   4
ENDBRANCH   2   3
BRANCH   1   7
HETATM    7  C6  UNL     1     -31.884   8.650   2.189  1.00 20.00     0.008 A 
HETATM    8  C4  UNL     1     -31.561   8.829   0.740  1.00 20.00     0.009 A 
HETATM    9  C5  UNL     1     -32.637   9.656   1.378  1.00 20.00     0.009 A 
ENDBRANCH   1   7
TORSDOF 3
ENDMDL
MODEL 4
REMARK VINA RESULT:      -5.4      2.550      4.803
REMARK  3 active torsions:
REMARK  status: ('A' for Active; 'I' for Inactive)
REMARK    1  A    between atoms: C1_1  and  C6_6 
REMARK    2  A    between atoms: C2_2  and  C7_7 
REMARK    3  A    between atoms: C3_3  and  C7_7 
ROOT
HETATM    1  C1  UNL     1     -31.917   8.285   2.048  1.00 20.00    -0.026 C 
HETATM    2  C2  UNL     1     -33.082   7.892   2.585  1.00 20.00    -0.020 C 
ENDROOT
BRANCH   2   3
HETATM    3  C7  UNL     1     -33.192   7.039   3.809  1.00 20.00     0.140 C 
BRANCH   3   4
HETATM    4  C3  UNL     1     -33.954   5.773   3.432  1.00 20.00     0.176 C 
HETATM    5  O8  UNL     1     -33.285   4.913   2.793  1.00 20.00    -0.648 OA
HETATM    6  O9  UNL     1     -35.164   5.747   3.793  1.00 20.00    -0.648 OA
ENDBRANCH   3   4
ENDBRANCH   2   3
BRANCH   1   7
HETATM    7  C6  UNL     1     -31.763   9.116   0.841  1.00 20.00     0.008 A 
HETATM    8  C4  UNL     1     -32.927   9.241  -0.090  1.00 20.00     0.009 A 
HETATM    9  C5  UNL     1     -32.519  10.404   0.764  1.00 20.00     0.009 A 
ENDBRANCH   1   7
TORSDOF 3
ENDMDL
MODEL 5
REMARK VINA RESULT:      -5.4      2.609      4.951
REMARK  3 active torsions:
REMARK  status: ('A' for Active; 'I' for Inactive)
REMARK    1  A    between atoms: C1_1  and  C6_6 
REMARK    2  A    between atoms: C2_2  and  C7_7 
REMARK    3  A    between atoms: C3_3  and  C7_7 
ROOT
HETATM    1  C1  UNL     1     -31.994   8.388   2.215  1.00 20.00    -0.026 C 
HETATM    2  C2  UNL     1     -33.093   7.703   2.565  1.00 20.00    -0.020 C 
ENDROOT
BRANCH   2   3
HETATM    3  C7  UNL     1     -33.251   6.989   3.871  1.00 20.00     0.140 C 
BRANCH   3   4
HETATM    4  C3  UNL     1     -33.999   5.686   3.606  1.00 20.00     0.176 C 
HETATM    5  O8  UNL     1     -35.168   5.632   4.081  1.00 20.00    -0.648 OA
HETATM    6  O9  UNL     1     -33.351   4.817   2.957  1.00 20.00    -0.648 OA
ENDBRANCH   3   4
ENDBRANCH   2   3
BRANCH   1   7
HETATM    7  C6  UNL     1     -31.793   9.097   0.939  1.00 20.00     0.008 A 
HETATM    8  C4  UNL     1     -32.920   9.129  -0.043  1.00 20.00     0.009 A 
HETATM    9  C5  UNL     1     -32.542  10.370   0.707  1.00 20.00     0.009 A 
ENDBRANCH   1   7
TORSDOF 3
ENDMDL
MODEL 6
REMARK VINA RESULT:      -5.3      1.271      1.480
REMARK  3 active torsions:
REMARK  status: ('A' for Active; 'I' for Inactive)
REMARK    1  A    between atoms: C1_1  and  C6_6 
REMARK    2  A    between atoms: C2_2  and  C7_7 
REMARK    3  A    between atoms: C3_3  and  C7_7 
ROOT
HETATM    1  C1  UNL     1     -34.512   6.403   3.314  1.00 20.00    -0.026 C 
HETATM    2  C2  UNL     1     -33.216   6.388   2.968  1.00 20.00    -0.020 C 
ENDROOT
BRANCH   2   3
HETATM    3  C7  UNL     1     -32.629   7.250   1.894  1.00 20.00     0.140 C 
BRANCH   3   4
HETATM    4  C3  UNL     1     -32.009   8.473   2.561  1.00 20.00     0.176 C 
HETATM    5  O8  UNL     1     -32.104   9.549   1.905  1.00 20.00    -0.648 OA
HETATM    6  O9  UNL     1     -31.463   8.257   3.680  1.00 20.00    -0.648 OA
ENDBRANCH   3   4
ENDBRANCH   2   3
BRANCH   1   7
HETATM    7  C6  UNL     1     -35.132   5.565   4.357  1.00 20.00     0.008 A 
HETATM    8  C4  UNL     1     -34.416   4.328   4.795  1.00 20.00     0.009 A 
HETATM    9  C5  UNL     1     -34.488   5.517   5.705  1.00 20.00     0.009 A 
ENDBRANCH   1   7
TORSDOF 3
ENDMDL
MODEL 7
REMARK VINA RESULT:      -4.3     10.729     11.228
REMARK  3 active torsions:
REMARK  status: ('A' for Active; 'I' for Inactive)
REMARK    1  A    between atoms: C1_1  and  C6_6 
REMARK    2  A    between atoms: C2_2  and  C7_7 
REMARK    3  A    between atoms: C3_3  and  C7_7 
ROOT
HETATM    1  C1  UNL     1     -34.380  16.003  -2.941  1.00 20.00    -0.026 C 
HETATM    2  C2  UNL     1     -35.148  15.261  -3.752  1.00 20.00    -0.020 C 
ENDROOT
BRANCH   2   3
HETATM    3  C7  UNL     1     -34.673  14.028  -4.455  1.00 20.00     0.140 C 
BRANCH   3   4
HETATM    4  C3  UNL     1     -35.861  13.420  -5.192  1.00 20.00     0.176 C 
HETATM    5  O8  UNL     1     -35.563  12.652  -6.150  1.00 20.00    -0.648 OA
HETATM    6  O9  UNL     1     -36.996  13.771  -4.763  1.00 20.00    -0.648 OA
ENDBRANCH   3   4
ENDBRANCH   2   3
BRANCH   1   7
HETATM    7  C6  UNL     1     -34.804  17.227  -2.238  1.00 20.00     0.008 A 
HETATM    8  C4  UNL     1     -35.383  17.095  -0.866  1.00 20.00     0.009 A 
HETATM    9  C5  UNL     1     -34.013  17.675  -1.051  1.00 20.00     0.009 A 
ENDBRANCH   1   7
TORSDOF 3
ENDMDL
MODEL 8
REMARK VINA RESULT:      -4.3     10.480     11.315
REMARK  3 active torsions:
REMARK  status: ('A' for Active; 'I' for Inactive)
REMARK    1  A    between atoms: C1_1  and  C6_6 
REMARK    2  A    between atoms: C2_2  and  C7_7 
REMARK    3  A    between atoms: C3_3  and  C7_7 
ROOT
HETATM    1  C1  UNL     1     -35.183  16.597  -2.134  1.00 20.00    -0.026 C 
HETATM    2  C2  UNL     1     -34.699  15.872  -3.154  1.00 20.00    -0.020 C 
ENDROOT
BRANCH   2   3
HETATM    3  C7  UNL     1     -35.555  15.192  -4.175  1.00 20.00     0.140 C 
BRANCH   3   4
HETATM    4  C3  UNL     1     -34.893  13.867  -4.535  1.00 20.00     0.176 C 
HETATM    5  O8  UNL     1     -33.652  13.807  -4.310  1.00 20.00    -0.648 OA
HETATM    6  O9  UNL     1     -35.665  12.997  -5.029  1.00 20.00    -0.648 OA
ENDBRANCH   3   4
ENDBRANCH   2   3
BRANCH   1   7
HETATM    7  C6  UNL     1     -34.378  17.274  -1.102  1.00 20.00     0.008 A 
HETATM    8  C4  UNL     1     -33.035  17.810  -1.485  1.00 20.00     0.009 A 
HETATM    9  C5  UNL     1     -34.172  18.751  -1.217  1.00 20.00     0.009 A 
ENDBRANCH   1   7
TORSDOF 3
ENDMDL
MODEL 9
REMARK VINA RESULT:      -3.9     11.007     11.587
REMARK  3 active torsions:
REMARK  status: ('A' for Active; 'I' for Inactive)
REMARK    1  A    between atoms: C1_1  and  C6_6 
REMARK    2  A    between atoms: C2_2  and  C7_7 
REMARK    3  A    between atoms: C3_3  and  C7_7 
ROOT
HETATM    1  C1  UNL     1     -34.339  16.287  -3.770  1.00 20.00    -0.026 C 
HETATM    2  C2  UNL     1     -34.919  15.179  -4.257  1.00 20.00    -0.020 C 
ENDROOT
BRANCH   2   3
HETATM    3  C7  UNL     1     -35.221  14.964  -5.707  1.00 20.00     0.140 C 
BRANCH   3   4
HETATM    4  C3  UNL     1     -35.245  13.461  -5.962  1.00 20.00     0.176 C 
HETATM    5  O8  UNL     1     -35.987  12.795  -5.186  1.00 20.00    -0.648 OA
HETATM    6  O9  UNL     1     -34.509  13.065  -6.909  1.00 20.00    -0.648 OA
ENDBRANCH   3   4
ENDBRANCH   2   3
BRANCH   1   7
HETATM    7  C6  UNL     1     -34.033  16.544  -2.351  1.00 20.00     0.008 A 
HETATM    8  C4  UNL     1     -34.191  17.937  -1.831  1.00 20.00     0.009 A 
HETATM    9  C5  UNL     1     -35.164  16.870  -1.429  1.00 20.00     0.009 A 
ENDBRANCH   1   7
TORSDOF 3
ENDMDL
