MODEL 1
REMARK VINA RESULT:      -5.1      0.000      0.000
REMARK  3 active torsions:
REMARK  status: ('A' for Active; 'I' for Inactive)
REMARK    1  A    between atoms: C4_4  and  C5_5 
REMARK    2  A    between atoms: C5_5  and  C6_6 
REMARK    3  A    between atoms: C6_6  and  N8_8 
ROOT
HETATM    1  C1  UNL     1     -32.378   9.136   1.489  1.00 20.00     0.177 C 
HETATM    2  N7  UNL     1     -32.597  10.116   0.909  1.00 20.00    -0.172 NA
HETATM    3  N8  UNL     1     -32.145   7.985   2.193  1.00 20.00    -0.329 N 
HETATM    4  H18 UNL     1     -31.156   7.644   2.220  1.00 20.00     0.171 HD
ENDROOT
BRANCH   3   5
HETATM    5  C6  UNL     1     -32.973   7.485   3.255  1.00 20.00     0.132 C 
BRANCH   5   6
HETATM    6  C5  UNL     1     -33.627   6.154   2.904  1.00 20.00     0.025 C 
BRANCH   6   7
HETATM    7  C4  UNL     1     -34.723   5.761   3.883  1.00 20.00    -0.013 A 
HETATM    8  C2  UNL     1     -34.592   4.509   4.705  1.00 20.00     0.005 A 
HETATM    9  C3  UNL     1     -34.485   5.856   5.364  1.00 20.00     0.005 A 
ENDBRANCH   6   7
ENDBRANCH   5   6
ENDBRANCH   3   5
TORSDOF 3
ENDMDL
MODEL 2
REMARK VINA RESULT:      -4.9      3.065      4.694
REMARK  3 active torsions:
REMARK  status: ('A' for Active; 'I' for Inactive)
REMARK    1  A    between atoms: C4_4  and  C5_5 
REMARK    2  A    between atoms: C5_5  and  C6_6 
REMARK    3  A    between atoms: C6_6  and  N8_8 
ROOT
HETATM    1  C1  UNL     1     -34.460   4.773   5.081  1.00 20.00     0.177 C 
HETATM    2  N7  UNL     1     -34.479   3.800   4.450  1.00 20.00    -0.172 NA
HETATM    3  N8  UNL     1     -34.418   5.935   5.803  1.00 20.00    -0.329 N 
HETATM    4  H18 UNL     1     -34.575   5.852   6.834  1.00 20.00     0.171 HD
ENDROOT
BRANCH   3   5
HETATM    5  C6  UNL     1     -33.731   7.131   5.403  1.00 20.00     0.132 C 
BRANCH   5   6
HETATM    6  C5  UNL     1     -33.848   7.396   3.907  1.00 20.00     0.025 C 
BRANCH   6   7
HETATM    7  C4  UNL     1     -32.513   7.290   3.185  1.00 20.00    -0.013 A 
HETATM    8  C2  UNL     1     -32.168   8.255   2.084  1.00 20.00     0.005 A 
HETATM    9  C3  UNL     1     -31.450   8.330   3.403  1.00 20.00     0.005 A 
ENDBRANCH   6   7
ENDBRANCH   5   6
ENDBRANCH   3   5
TORSDOF 3
ENDMDL
MODEL 3
REMARK VINA RESULT:      -4.7      2.369      4.894
REMARK  3 active torsions:
REMARK  status: ('A' for Active; 'I' for Inactive)
REMARK    1  A    between atoms: C4_4  and  C5_5 
REMARK    2  A    between atoms: C5_5  and  C6_6 
REMARK    3  A    between atoms: C6_6  and  N8_8 
ROOT
HETATM    1  C1  UNL     1     -34.431   5.105   4.302  1.00 20.00     0.177 C 
HETATM    2  N7  UNL     1     -34.396   3.950   4.400  1.00 20.00    -0.172 NA
HETATM    3  N8  UNL     1     -34.440   6.469   4.182  1.00 20.00    -0.329 N 
HETATM    4  H18 UNL     1     -35.250   6.972   4.613  1.00 20.00     0.171 HD
ENDROOT
BRANCH   3   5
HETATM    5  C6  UNL     1     -33.277   7.287   3.975  1.00 20.00     0.132 C 
BRANCH   5   6
HETATM    6  C5  UNL     1     -32.846   7.323   2.514  1.00 20.00     0.025 C 
BRANCH   6   7
HETATM    7  C4  UNL     1     -32.018   8.554   2.175  1.00 20.00    -0.013 A 
HETATM    8  C2  UNL     1     -31.489   8.752   0.782  1.00 20.00     0.005 A 
HETATM    9  C3  UNL     1     -32.591   9.634   1.300  1.00 20.00     0.005 A 
ENDBRANCH   6   7
ENDBRANCH   5   6
ENDBRANCH   3   5
TORSDOF 3
ENDMDL
MODEL 4
REMARK VINA RESULT:      -4.6      1.989      4.907
REMARK  3 active torsions:
REMARK  status: ('A' for Active; 'I' for Inactive)
REMARK    1  A    between atoms: C4_4  and  C5_5 
REMARK    2  A    between atoms: C5_5  and  C6_6 
REMARK    3  A    between atoms: C6_6  and  N8_8 
ROOT
HETATM    1  C1  UNL     1     -34.231   5.823   3.754  1.00 20.00     0.177 C 
HETATM    2  N7  UNL     1     -34.940   5.267   4.484  1.00 20.00    -0.172 NA
HETATM    3  N8  UNL     1     -33.381   6.497   2.917  1.00 20.00    -0.329 N 
HETATM    4  H18 UNL     1     -33.682   6.590   1.920  1.00 20.00     0.171 HD
ENDROOT
BRANCH   3   5
HETATM    5  C6  UNL     1     -32.409   7.468   3.336  1.00 20.00     0.132 C 
BRANCH   5   6
HETATM    6  C5  UNL     1     -31.836   8.257   2.165  1.00 20.00     0.025 C 
BRANCH   6   7
HETATM    7  C4  UNL     1     -32.889   9.088   1.445  1.00 20.00    -0.013 A 
HETATM    8  C2  UNL     1     -32.587  10.502   1.033  1.00 20.00     0.005 A 
HETATM    9  C3  UNL     1     -32.721   9.427  -0.010  1.00 20.00     0.005 A 
ENDBRANCH   6   7
ENDBRANCH   5   6
ENDBRANCH   3   5
TORSDOF 3
ENDMDL
MODEL 5
REMARK VINA RESULT:      -4.4      1.048      1.065
REMARK  3 active torsions:
REMARK  status: ('A' for Active; 'I' for Inactive)
REMARK    1  A    between atoms: C4_4  and  C5_5 
REMARK    2  A    between atoms: C5_5  and  C6_6 
REMARK    3  A    between atoms: C6_6  and  N8_8 
ROOT
HETATM    1  C1  UNL     1     -32.505   8.500   1.944  1.00 20.00     0.177 C 
HETATM    2  N7  UNL     1     -31.912   9.486   1.805  1.00 20.00    -0.172 NA
HETATM    3  N8  UNL     1     -33.183   7.324   2.130  1.00 20.00    -0.329 N 
HETATM    4  H18 UNL     1     -33.810   7.017   1.352  1.00 20.00     0.171 HD
ENDROOT
BRANCH   3   5
HETATM    5  C6  UNL     1     -32.778   6.269   3.016  1.00 20.00     0.132 C 
BRANCH   5   6
HETATM    6  C5  UNL     1     -33.916   5.306   3.331  1.00 20.00     0.025 C 
BRANCH   6   7
HETATM    7  C4  UNL     1     -34.757   5.756   4.517  1.00 20.00    -0.013 A 
HETATM    8  C2  UNL     1     -34.602   5.087   5.854  1.00 20.00     0.005 A 
HETATM    9  C3  UNL     1     -34.120   6.497   5.659  1.00 20.00     0.005 A 
ENDBRANCH   6   7
ENDBRANCH   5   6
ENDBRANCH   3   5
TORSDOF 3
ENDMDL
MODEL 6
REMARK VINA RESULT:      -4.4      2.766      4.281
REMARK  3 active torsions:
REMARK  status: ('A' for Active; 'I' for Inactive)
REMARK    1  A    between atoms: C4_4  and  C5_5 
REMARK    2  A    between atoms: C5_5  and  C6_6 
REMARK    3  A    between atoms: C6_6  and  N8_8 
ROOT
HETATM    1  C1  UNL     1     -34.170   6.580   5.477  1.00 20.00     0.177 C 
HETATM    2  N7  UNL     1     -33.757   7.342   6.248  1.00 20.00    -0.172 NA
HETATM    3  N8  UNL     1     -34.645   5.699   4.543  1.00 20.00    -0.329 N 
HETATM    4  H18 UNL     1     -35.481   5.132   4.816  1.00 20.00     0.171 HD
ENDROOT
BRANCH   3   5
HETATM    5  C6  UNL     1     -34.442   5.810   3.125  1.00 20.00     0.132 C 
BRANCH   5   6
HETATM    6  C5  UNL     1     -33.016   6.213   2.773  1.00 20.00     0.025 C 
BRANCH   6   7
HETATM    7  C4  UNL     1     -32.829   7.723   2.715  1.00 20.00    -0.013 A 
HETATM    8  C2  UNL     1     -31.566   8.352   3.233  1.00 20.00     0.005 A 
HETATM    9  C3  UNL     1     -31.842   8.327   1.756  1.00 20.00     0.005 A 
ENDBRANCH   6   7
ENDBRANCH   5   6
ENDBRANCH   3   5
TORSDOF 3
ENDMDL
MODEL 7
REMARK VINA RESULT:      -3.8     11.003     11.458
REMARK  3 active torsions:
REMARK  status: ('A' for Active; 'I' for Inactive)
REMARK    1  A    between atoms: C4_4  and  C5_5 
REMARK    2  A    between atoms: C5_5  and  C6_6 
REMARK    3  A    between atoms: C6_6  and  N8_8 
ROOT
HETATM    1  C1  UNL     1     -34.987  13.490  -5.609  1.00 20.00     0.177 C 
HETATM    2  N7  UNL     1     -35.962  12.956  -5.278  1.00 20.00    -0.172 NA
HETATM    3  N8  UNL     1     -33.842  14.144  -5.977  1.00 20.00    -0.329 N 
HETATM    4  H18 UNL     1     -33.522  14.011  -6.964  1.00 20.00     0.171 HD
ENDROOT
BRANCH   3   5
HETATM    5  C6  UNL     1     -33.324  15.323  -5.341  1.00 20.00     0.132 C 
BRANCH   5   6
HETATM    6  C5  UNL     1     -33.514  15.298  -3.829  1.00 20.00     0.025 C 
BRANCH   6   7
HETATM    7  C4  UNL     1     -34.054  16.612  -3.283  1.00 20.00    -0.013 A 
HETATM    8  C2  UNL     1     -34.952  16.619  -2.077  1.00 20.00     0.005 A 
HETATM    9  C3  UNL     1     -33.550  17.151  -1.973  1.00 20.00     0.005 A 
ENDBRANCH   6   7
ENDBRANCH   5   6
ENDBRANCH   3   5
TORSDOF 3
ENDMDL
MODEL 8
REMARK VINA RESULT:      -3.6     10.610     11.357
REMARK  3 active torsions:
REMARK  status: ('A' for Active; 'I' for Inactive)
REMARK    1  A    between atoms: C4_4  and  C5_5 
REMARK    2  A    between atoms: C5_5  and  C6_6 
REMARK    3  A    between atoms: C6_6  and  N8_8 
ROOT
HETATM    1  C1  UNL     1     -35.279  13.546  -4.871  1.00 20.00     0.177 C 
HETATM    2  N7  UNL     1     -36.305  13.159  -5.247  1.00 20.00    -0.172 NA
HETATM    3  N8  UNL     1     -34.069  14.029  -4.448  1.00 20.00    -0.329 N 
HETATM    4  H18 UNL     1     -33.397  13.330  -4.056  1.00 20.00     0.171 HD
ENDROOT
BRANCH   3   5
HETATM    5  C6  UNL     1     -33.458  15.244  -4.910  1.00 20.00     0.132 C 
BRANCH   5   6
HETATM    6  C5  UNL     1     -33.961  16.469  -4.156  1.00 20.00     0.025 C 
BRANCH   6   7
HETATM    7  C4  UNL     1     -33.987  16.263  -2.649  1.00 20.00    -0.013 A 
HETATM    8  C2  UNL     1     -33.725  17.417  -1.721  1.00 20.00     0.005 A 
HETATM    9  C3  UNL     1     -35.107  16.835  -1.825  1.00 20.00     0.005 A 
ENDBRANCH   6   7
ENDBRANCH   5   6
ENDBRANCH   3   5
TORSDOF 3
ENDMDL
MODEL 9
REMARK VINA RESULT:      -3.5     10.878     11.540
REMARK  3 active torsions:
REMARK  status: ('A' for Active; 'I' for Inactive)
REMARK    1  A    between atoms: C4_4  and  C5_5 
REMARK    2  A    between atoms: C5_5  and  C6_6 
REMARK    3  A    between atoms: C6_6  and  N8_8 
ROOT
HETATM    1  C1  UNL     1     -34.358  14.283  -6.621  1.00 20.00     0.177 C 
HETATM    2  N7  UNL     1     -35.085  14.589  -7.470  1.00 20.00    -0.172 NA
HETATM    3  N8  UNL     1     -33.505  13.950  -5.602  1.00 20.00    -0.329 N 
HETATM    4  H18 UNL     1     -32.714  13.310  -5.843  1.00 20.00     0.171 HD
ENDROOT
BRANCH   3   5
HETATM    5  C6  UNL     1     -33.297  14.728  -4.412  1.00 20.00     0.132 C 
BRANCH   5   6
HETATM    6  C5  UNL     1     -34.601  15.050  -3.693  1.00 20.00     0.025 C 
BRANCH   6   7
HETATM    7  C4  UNL     1     -34.654  16.484  -3.186  1.00 20.00    -0.013 A 
HETATM    8  C2  UNL     1     -35.012  16.769  -1.754  1.00 20.00     0.005 A 
HETATM    9  C3  UNL     1     -33.606  16.990  -2.235  1.00 20.00     0.005 A 
ENDBRANCH   6   7
ENDBRANCH   5   6
ENDBRANCH   3   5
TORSDOF 3
ENDMDL
