MODEL 1
REMARK VINA RESULT:      -5.1      0.000      0.000
REMARK  1 active torsions:
REMARK  status: ('A' for Active; 'I' for Inactive)
REMARK    1  A    between atoms: C1_1  and  C7_7 
ROOT
HETATM    1  C2  UNL     1     -33.662  17.851  -5.060  1.00 20.00     0.002 C 
HETATM    2  C3  UNL     1     -33.969  16.502  -5.699  1.00 20.00     0.010 C 
HETATM    3  C4  UNL     1     -33.629  17.748  -3.535  1.00 20.00     0.009 C 
HETATM    4  C5  UNL     1     -36.547  16.180  -5.871  1.00 20.00     0.026 A 
HETATM    5  C6  UNL     1     -35.265  15.810  -3.632  1.00 20.00     0.019 C 
HETATM    6  C7  UNL     1     -35.906  14.821  -5.982  1.00 20.00     0.096 A 
HETATM    7  C8  UNL     1     -35.248  15.913  -5.146  1.00 20.00    -0.025 A 
HETATM    8  C9  UNL     1     -34.923  17.150  -2.937  1.00 20.00    -0.047 C 
HETATM    9  C10 UNL     1     -34.699  16.887  -1.434  1.00 20.00     0.015 C 
HETATM   10  C11 UNL     1     -36.091  18.147  -3.070  1.00 20.00     0.015 C 
ENDROOT
BRANCH   6  11
HETATM   11  C1  UNL     1     -36.559  13.710  -5.317  1.00 20.00     0.177 C 
HETATM   12  O12 UNL     1     -37.759  13.915  -4.980  1.00 20.00    -0.648 OA
HETATM   13  O13 UNL     1     -35.838  12.685  -5.165  1.00 20.00    -0.648 OA
ENDBRANCH   6  11
TORSDOF 1
ENDMDL
MODEL 2
REMARK VINA RESULT:      -4.6      1.291      1.676
REMARK  1 active torsions:
REMARK  status: ('A' for Active; 'I' for Inactive)
REMARK    1  A    between atoms: C1_1  and  C7_7 
ROOT
HETATM    1  C2  UNL     1     -36.183  18.456  -4.471  1.00 20.00     0.002 C 
HETATM    2  C3  UNL     1     -36.119  17.374  -5.543  1.00 20.00     0.010 C 
HETATM    3  C4  UNL     1     -34.934  18.438  -3.589  1.00 20.00     0.009 C 
HETATM    4  C5  UNL     1     -37.073  15.145  -4.594  1.00 20.00     0.026 A 
HETATM    5  C6  UNL     1     -34.661  15.954  -4.030  1.00 20.00     0.019 C 
HETATM    6  C7  UNL     1     -36.233  14.809  -5.799  1.00 20.00     0.096 A 
HETATM    7  C8  UNL     1     -35.881  16.012  -4.930  1.00 20.00    -0.025 A 
HETATM    8  C9  UNL     1     -34.663  17.059  -2.946  1.00 20.00    -0.047 C 
HETATM    9  C10 UNL     1     -33.279  17.092  -2.268  1.00 20.00     0.015 C 
HETATM   10  C11 UNL     1     -35.712  16.753  -1.859  1.00 20.00     0.015 C 
ENDROOT
BRANCH   6  11
HETATM   11  C1  UNL     1     -35.408  13.618  -5.736  1.00 20.00     0.177 C 
HETATM   12  O12 UNL     1     -35.881  12.671  -5.048  1.00 20.00    -0.648 OA
HETATM   13  O13 UNL     1     -34.325  13.689  -6.381  1.00 20.00    -0.648 OA
ENDBRANCH   6  11
TORSDOF 1
ENDMDL
MODEL 3
REMARK VINA RESULT:      -4.5      1.384      2.539
REMARK  1 active torsions:
REMARK  status: ('A' for Active; 'I' for Inactive)
REMARK    1  A    between atoms: C1_1  and  C7_7 
ROOT
HETATM    1  C2  UNL     1     -34.105  17.530  -2.817  1.00 20.00     0.002 C 
HETATM    2  C3  UNL     1     -34.674  16.117  -2.765  1.00 20.00     0.010 C 
HETATM    3  C4  UNL     1     -34.952  18.437  -3.711  1.00 20.00     0.009 C 
HETATM    4  C5  UNL     1     -33.720  14.715  -4.741  1.00 20.00     0.026 A 
HETATM    5  C6  UNL     1     -35.660  16.421  -5.082  1.00 20.00     0.019 C 
HETATM    6  C7  UNL     1     -34.966  14.026  -4.248  1.00 20.00     0.096 A 
HETATM    7  C8  UNL     1     -34.840  15.543  -4.154  1.00 20.00    -0.025 A 
HETATM    8  C9  UNL     1     -35.141  17.878  -5.140  1.00 20.00    -0.047 C 
HETATM    9  C10 UNL     1     -36.180  18.746  -5.877  1.00 20.00     0.015 C 
HETATM   10  C11 UNL     1     -33.820  17.954  -5.930  1.00 20.00     0.015 C 
ENDROOT
BRANCH   6  11
HETATM   11  C1  UNL     1     -35.851  13.444  -5.239  1.00 20.00     0.177 C 
HETATM   12  O12 UNL     1     -37.077  13.457  -4.939  1.00 20.00    -0.648 OA
HETATM   13  O13 UNL     1     -35.274  13.002  -6.270  1.00 20.00    -0.648 OA
ENDBRANCH   6  11
TORSDOF 1
ENDMDL
MODEL 4
REMARK VINA RESULT:      -4.5      1.956      2.793
REMARK  1 active torsions:
REMARK  status: ('A' for Active; 'I' for Inactive)
REMARK    1  A    between atoms: C1_1  and  C7_7 
ROOT
HETATM    1  C2  UNL     1     -35.990  18.914  -3.179  1.00 20.00     0.002 C 
HETATM    2  C3  UNL     1     -35.429  18.085  -4.329  1.00 20.00     0.010 C 
HETATM    3  C4  UNL     1     -34.928  19.170  -2.109  1.00 20.00     0.009 C 
HETATM    4  C5  UNL     1     -35.668  15.551  -3.778  1.00 20.00     0.026 A 
HETATM    5  C6  UNL     1     -33.767  17.004  -2.746  1.00 20.00     0.019 C 
HETATM    6  C7  UNL     1     -34.624  15.690  -4.856  1.00 20.00     0.096 A 
HETATM    7  C8  UNL     1     -34.815  16.798  -3.825  1.00 20.00    -0.025 A 
HETATM    8  C9  UNL     1     -34.279  17.873  -1.572  1.00 20.00    -0.047 C 
HETATM    9  C10 UNL     1     -33.084  18.251  -0.676  1.00 20.00     0.015 C 
HETATM   10  C11 UNL     1     -35.283  17.084  -0.709  1.00 20.00     0.015 C 
ENDROOT
BRANCH   6  11
HETATM   11  C1  UNL     1     -33.455  14.836  -4.778  1.00 20.00     0.177 C 
HETATM   12  O12 UNL     1     -33.631  13.735  -4.186  1.00 20.00    -0.648 OA
HETATM   13  O13 UNL     1     -32.415  15.311  -5.314  1.00 20.00    -0.648 OA
ENDBRANCH   6  11
TORSDOF 1
ENDMDL
MODEL 5
REMARK VINA RESULT:      -4.5      3.087      4.579
REMARK  1 active torsions:
REMARK  status: ('A' for Active; 'I' for Inactive)
REMARK    1  A    between atoms: C1_1  and  C7_7 
ROOT
HETATM    1  C2  UNL     1     -33.825  14.461  -5.472  1.00 20.00     0.002 C 
HETATM    2  C3  UNL     1     -33.265  15.011  -4.165  1.00 20.00     0.010 C 
HETATM    3  C4  UNL     1     -33.701  15.482  -6.602  1.00 20.00     0.009 C 
HETATM    4  C5  UNL     1     -35.124  16.327  -2.902  1.00 20.00     0.026 A 
HETATM    5  C6  UNL     1     -33.829  17.369  -4.909  1.00 20.00     0.019 C 
HETATM    6  C7  UNL     1     -33.793  16.768  -2.350  1.00 20.00     0.096 A 
HETATM    7  C8  UNL     1     -33.912  16.330  -3.806  1.00 20.00    -0.025 A 
HETATM    8  C9  UNL     1     -34.353  16.843  -6.267  1.00 20.00    -0.047 C 
HETATM    9  C10 UNL     1     -33.981  17.856  -7.369  1.00 20.00     0.015 C 
HETATM   10  C11 UNL     1     -35.889  16.716  -6.246  1.00 20.00     0.015 C 
ENDROOT
BRANCH   6  11
HETATM   11  C1  UNL     1     -33.624  18.174  -2.040  1.00 20.00     0.177 C 
HETATM   12  O12 UNL     1     -34.695  18.827  -1.898  1.00 20.00    -0.648 OA
HETATM   13  O13 UNL     1     -32.424  18.557  -1.952  1.00 20.00    -0.648 OA
ENDBRANCH   6  11
TORSDOF 1
ENDMDL
MODEL 6
REMARK VINA RESULT:      -4.4      1.319      1.637
REMARK  1 active torsions:
REMARK  status: ('A' for Active; 'I' for Inactive)
REMARK    1  A    between atoms: C1_1  and  C7_7 
ROOT
HETATM    1  C2  UNL     1     -33.171  15.552  -4.575  1.00 20.00     0.002 C 
HETATM    2  C3  UNL     1     -34.267  14.699  -5.203  1.00 20.00     0.010 C 
HETATM    3  C4  UNL     1     -33.539  15.969  -3.151  1.00 20.00     0.009 C 
HETATM    4  C5  UNL     1     -36.036  16.240  -6.333  1.00 20.00     0.026 A 
HETATM    5  C6  UNL     1     -36.002  15.853  -3.756  1.00 20.00     0.019 C 
HETATM    6  C7  UNL     1     -36.675  14.894  -6.110  1.00 20.00     0.096 A 
HETATM    7  C8  UNL     1     -35.605  15.403  -5.151  1.00 20.00    -0.025 A 
HETATM    8  C9  UNL     1     -34.902  16.693  -3.063  1.00 20.00    -0.047 C 
HETATM    9  C10 UNL     1     -35.274  16.868  -1.577  1.00 20.00     0.015 C 
HETATM   10  C11 UNL     1     -34.811  18.097  -3.693  1.00 20.00     0.015 C 
ENDROOT
BRANCH   6  11
HETATM   11  C1  UNL     1     -38.061  14.868  -5.684  1.00 20.00     0.177 C 
HETATM   12  O12 UNL     1     -38.745  15.876  -6.013  1.00 20.00    -0.648 OA
HETATM   13  O13 UNL     1     -38.397  13.836  -5.039  1.00 20.00    -0.648 OA
ENDBRANCH   6  11
TORSDOF 1
ENDMDL
MODEL 7
REMARK VINA RESULT:      -4.4      3.431      4.856
REMARK  1 active torsions:
REMARK  status: ('A' for Active; 'I' for Inactive)
REMARK    1  A    between atoms: C1_1  and  C7_7 
ROOT
HETATM    1  C2  UNL     1     -36.162  15.372  -4.263  1.00 20.00     0.002 C 
HETATM    2  C3  UNL     1     -36.037  16.305  -3.064  1.00 20.00     0.010 C 
HETATM    3  C4  UNL     1     -34.978  14.408  -4.342  1.00 20.00     0.009 C 
HETATM    4  C5  UNL     1     -34.641  18.400  -3.728  1.00 20.00     0.026 A 
HETATM    5  C6  UNL     1     -33.510  16.119  -3.175  1.00 20.00     0.019 C 
HETATM    6  C7  UNL     1     -34.631  18.299  -2.225  1.00 20.00     0.096 A 
HETATM    7  C8  UNL     1     -34.714  17.038  -3.078  1.00 20.00    -0.025 A 
HETATM    8  C9  UNL     1     -33.609  15.126  -4.358  1.00 20.00    -0.047 C 
HETATM    9  C10 UNL     1     -32.494  14.070  -4.215  1.00 20.00     0.015 C 
HETATM   10  C11 UNL     1     -33.396  15.855  -5.699  1.00 20.00     0.015 C 
ENDROOT
BRANCH   6  11
HETATM   11  C1  UNL     1     -33.394  18.614  -1.536  1.00 20.00     0.177 C 
HETATM   12  O12 UNL     1     -33.319  18.198  -0.346  1.00 20.00    -0.648 OA
HETATM   13  O13 UNL     1     -32.556  19.263  -2.222  1.00 20.00    -0.648 OA
ENDBRANCH   6  11
TORSDOF 1
ENDMDL
MODEL 8
REMARK VINA RESULT:      -4.4      1.708      2.521
REMARK  1 active torsions:
REMARK  status: ('A' for Active; 'I' for Inactive)
REMARK    1  A    between atoms: C1_1  and  C7_7 
ROOT
HETATM    1  C2  UNL     1     -34.058  16.659  -2.823  1.00 20.00     0.002 C 
HETATM    2  C3  UNL     1     -33.758  15.358  -3.561  1.00 20.00     0.010 C 
HETATM    3  C4  UNL     1     -35.563  16.906  -2.723  1.00 20.00     0.009 C 
HETATM    4  C5  UNL     1     -33.646  15.811  -6.122  1.00 20.00     0.026 A 
HETATM    5  C6  UNL     1     -35.920  15.596  -4.868  1.00 20.00     0.019 C 
HETATM    6  C7  UNL     1     -33.870  14.334  -5.927  1.00 20.00     0.096 A 
HETATM    7  C8  UNL     1     -34.425  15.335  -4.918  1.00 20.00    -0.025 A 
HETATM    8  C9  UNL     1     -36.275  16.889  -4.095  1.00 20.00    -0.047 C 
HETATM    9  C10 UNL     1     -37.799  16.925  -3.863  1.00 20.00     0.015 C 
HETATM   10  C11 UNL     1     -35.896  18.136  -4.918  1.00 20.00     0.015 C 
ENDROOT
BRANCH   6  11
HETATM   11  C1  UNL     1     -34.776  13.663  -6.838  1.00 20.00     0.177 C 
HETATM   12  O12 UNL     1     -35.223  12.553  -6.433  1.00 20.00    -0.648 OA
HETATM   13  O13 UNL     1     -34.997  14.281  -7.916  1.00 20.00    -0.648 OA
ENDBRANCH   6  11
TORSDOF 1
ENDMDL
MODEL 9
REMARK VINA RESULT:      -4.3      1.800      3.087
REMARK  1 active torsions:
REMARK  status: ('A' for Active; 'I' for Inactive)
REMARK    1  A    between atoms: C1_1  and  C7_7 
ROOT
HETATM    1  C2  UNL     1     -35.184  18.146  -1.364  1.00 20.00     0.002 C 
HETATM    2  C3  UNL     1     -34.496  16.823  -1.682  1.00 20.00     0.010 C 
HETATM    3  C4  UNL     1     -36.653  18.123  -1.786  1.00 20.00     0.009 C 
HETATM    4  C5  UNL     1     -33.583  16.875  -4.120  1.00 20.00     0.026 A 
HETATM    5  C6  UNL     1     -36.102  16.444  -3.609  1.00 20.00     0.019 C 
HETATM    6  C7  UNL     1     -33.677  15.432  -3.695  1.00 20.00     0.096 A 
HETATM    7  C8  UNL     1     -34.657  16.460  -3.142  1.00 20.00    -0.025 A 
HETATM    8  C9  UNL     1     -36.853  17.755  -3.275  1.00 20.00    -0.047 C 
HETATM    9  C10 UNL     1     -38.358  17.545  -3.535  1.00 20.00     0.015 C 
HETATM   10  C11 UNL     1     -36.376  18.903  -4.185  1.00 20.00     0.015 C 
ENDROOT
BRANCH   6  11
HETATM   11  C1  UNL     1     -34.133  14.468  -4.677  1.00 20.00     0.177 C 
HETATM   12  O12 UNL     1     -33.933  14.790  -5.882  1.00 20.00    -0.648 OA
HETATM   13  O13 UNL     1     -34.669  13.432  -4.194  1.00 20.00    -0.648 OA
ENDBRANCH   6  11
TORSDOF 1
ENDMDL
