MODEL 1
REMARK VINA RESULT:      -3.4      0.000      0.000
REMARK  0 active torsions:
REMARK  status: ('A' for Active; 'I' for Inactive)
ROOT
HETATM    1  C1  UNL     1     -33.708   7.060   4.782  1.00 20.00     0.290 C 
HETATM    2  C2  UNL     1     -32.452   6.869   2.807  1.00 20.00     0.344 C 
HETATM    3  C3  UNL     1     -34.367   5.770   4.269  1.00 20.00     0.029 C 
HETATM    4  C4  UNL     1     -35.744   6.030   3.646  1.00 20.00     0.028 C 
HETATM    5  C5  UNL     1     -34.464   4.713   5.366  1.00 20.00     0.028 C 
HETATM    6  N6  UNL     1     -33.225   7.807   3.618  1.00 20.00     0.093 N 
HETATM    7  S7  UNL     1     -33.214   5.231   2.958  1.00 20.00    -0.128 SA
HETATM    8  H18 UNL     1     -34.027   8.124   3.074  1.00 20.00     0.316 HD
ENDROOT
TORSDOF 0
ENDMDL
MODEL 2
REMARK VINA RESULT:      -3.3      1.813      2.375
REMARK  0 active torsions:
REMARK  status: ('A' for Active; 'I' for Inactive)
ROOT
HETATM    1  C1  UNL     1     -34.260   5.179   5.155  1.00 20.00     0.290 C 
HETATM    2  C2  UNL     1     -33.594   7.315   5.873  1.00 20.00     0.344 C 
HETATM    3  C3  UNL     1     -34.088   5.799   3.758  1.00 20.00     0.029 C 
HETATM    4  C4  UNL     1     -35.432   6.174   3.122  1.00 20.00     0.028 C 
HETATM    5  C5  UNL     1     -33.291   4.884   2.833  1.00 20.00     0.028 C 
HETATM    6  N6  UNL     1     -34.587   6.264   6.085  1.00 20.00     0.093 N 
HETATM    7  S7  UNL     1     -33.151   7.326   4.115  1.00 20.00    -0.128 SA
HETATM    8  H18 UNL     1     -35.508   6.633   5.850  1.00 20.00     0.316 HD
ENDROOT
TORSDOF 0
ENDMDL
MODEL 3
REMARK VINA RESULT:      -3.2      2.065      3.032
REMARK  0 active torsions:
REMARK  status: ('A' for Active; 'I' for Inactive)
ROOT
HETATM    1  C1  UNL     1     -33.730   4.639   3.729  1.00 20.00     0.290 C 
HETATM    2  C2  UNL     1     -34.535   5.147   5.876  1.00 20.00     0.344 C 
HETATM    3  C3  UNL     1     -33.877   6.154   3.517  1.00 20.00     0.029 C 
HETATM    4  C4  UNL     1     -35.130   6.509   2.708  1.00 20.00     0.028 C 
HETATM    5  C5  UNL     1     -32.631   6.753   2.870  1.00 20.00     0.028 C 
HETATM    6  N6  UNL     1     -34.705   4.236   4.747  1.00 20.00     0.093 N 
HETATM    7  S7  UNL     1     -34.075   6.775   5.224  1.00 20.00    -0.128 SA
HETATM    8  H18 UNL     1     -35.644   4.357   4.369  1.00 20.00     0.316 HD
ENDROOT
TORSDOF 0
ENDMDL
MODEL 4
REMARK VINA RESULT:      -3.1     12.115     12.727
REMARK  0 active torsions:
REMARK  status: ('A' for Active; 'I' for Inactive)
ROOT
HETATM    1  C1  UNL     1     -33.141  14.666  -4.368  1.00 20.00     0.290 C 
HETATM    2  C2  UNL     1     -35.204  13.872  -5.160  1.00 20.00     0.344 C 
HETATM    3  C3  UNL     1     -33.925  15.975  -4.184  1.00 20.00     0.029 C 
HETATM    4  C4  UNL     1     -33.624  16.991  -5.292  1.00 20.00     0.028 C 
HETATM    5  C5  UNL     1     -33.677  16.589  -2.808  1.00 20.00     0.028 C 
HETATM    6  N6  UNL     1     -33.774  13.917  -5.457  1.00 20.00     0.093 N 
HETATM    7  S7  UNL     1     -35.659  15.423  -4.338  1.00 20.00    -0.128 SA
HETATM    8  H18 UNL     1     -33.639  14.426  -6.330  1.00 20.00     0.316 HD
ENDROOT
TORSDOF 0
ENDMDL
MODEL 5
REMARK VINA RESULT:      -3.1     12.030     12.780
REMARK  0 active torsions:
REMARK  status: ('A' for Active; 'I' for Inactive)
ROOT
HETATM    1  C1  UNL     1     -35.966  13.344  -5.509  1.00 20.00     0.290 C 
HETATM    2  C2  UNL     1     -34.767  13.933  -7.441  1.00 20.00     0.344 C 
HETATM    3  C3  UNL     1     -35.316  14.616  -4.942  1.00 20.00     0.029 C 
HETATM    4  C4  UNL     1     -34.133  14.301  -4.020  1.00 20.00     0.028 C 
HETATM    5  C5  UNL     1     -36.337  15.496  -4.226  1.00 20.00     0.028 C 
HETATM    6  N6  UNL     1     -35.079  12.818  -6.551  1.00 20.00     0.093 N 
HETATM    7  S7  UNL     1     -34.694  15.447  -6.445  1.00 20.00    -0.128 SA
HETATM    8  H18 UNL     1     -34.215  12.496  -6.116  1.00 20.00     0.316 HD
ENDROOT
TORSDOF 0
ENDMDL
MODEL 6
REMARK VINA RESULT:      -3.0     12.257     13.332
REMARK  0 active torsions:
REMARK  status: ('A' for Active; 'I' for Inactive)
ROOT
HETATM    1  C1  UNL     1     -33.630  15.778  -6.427  1.00 20.00     0.290 C 
HETATM    2  C2  UNL     1     -33.267  14.817  -4.314  1.00 20.00     0.344 C 
HETATM    3  C3  UNL     1     -34.806  14.788  -6.469  1.00 20.00     0.029 C 
HETATM    4  C4  UNL     1     -34.501  13.562  -7.338  1.00 20.00     0.028 C 
HETATM    5  C5  UNL     1     -36.094  15.467  -6.928  1.00 20.00     0.028 C 
HETATM    6  N6  UNL     1     -32.600  15.207  -5.555  1.00 20.00     0.093 N 
HETATM    7  S7  UNL     1     -34.943  14.261  -4.726  1.00 20.00    -0.128 SA
HETATM    8  H18 UNL     1     -32.220  14.370  -5.997  1.00 20.00     0.316 HD
ENDROOT
TORSDOF 0
ENDMDL
MODEL 7
REMARK VINA RESULT:      -3.0     12.372     13.341
REMARK  0 active torsions:
REMARK  status: ('A' for Active; 'I' for Inactive)
ROOT
HETATM    1  C1  UNL     1     -34.418  14.157  -5.066  1.00 20.00     0.290 C 
HETATM    2  C2  UNL     1     -36.762  14.046  -5.170  1.00 20.00     0.344 C 
HETATM    3  C3  UNL     1     -34.573  14.807  -6.450  1.00 20.00     0.029 C 
HETATM    4  C4  UNL     1     -34.242  13.835  -7.588  1.00 20.00     0.028 C 
HETATM    5  C5  UNL     1     -33.736  16.079  -6.568  1.00 20.00     0.028 C 
HETATM    6  N6  UNL     1     -35.565  13.267  -4.863  1.00 20.00     0.093 N 
HETATM    7  S7  UNL     1     -36.355  15.203  -6.505  1.00 20.00    -0.128 SA
HETATM    8  H18 UNL     1     -35.502  12.492  -5.523  1.00 20.00     0.316 HD
ENDROOT
TORSDOF 0
ENDMDL
MODEL 8
REMARK VINA RESULT:      -3.0     12.106     12.758
REMARK  0 active torsions:
REMARK  status: ('A' for Active; 'I' for Inactive)
ROOT
HETATM    1  C1  UNL     1     -35.500  14.547  -4.464  1.00 20.00     0.290 C 
HETATM    2  C2  UNL     1     -35.549  13.274  -6.438  1.00 20.00     0.344 C 
HETATM    3  C3  UNL     1     -34.191  15.085  -5.063  1.00 20.00     0.029 C 
HETATM    4  C4  UNL     1     -32.953  14.457  -4.412  1.00 20.00     0.028 C 
HETATM    5  C5  UNL     1     -34.124  16.608  -4.989  1.00 20.00     0.028 C 
HETATM    6  N6  UNL     1     -35.705  13.193  -4.988  1.00 20.00     0.093 N 
HETATM    7  S7  UNL     1     -34.293  14.531  -6.801  1.00 20.00    -0.128 SA
HETATM    8  H18 UNL     1     -34.978  12.582  -4.616  1.00 20.00     0.316 HD
ENDROOT
TORSDOF 0
ENDMDL
MODEL 9
REMARK VINA RESULT:      -2.9      8.478      9.215
REMARK  0 active torsions:
REMARK  status: ('A' for Active; 'I' for Inactive)
ROOT
HETATM    1  C1  UNL     1     -41.237   5.538   0.641  1.00 20.00     0.290 C 
HETATM    2  C2  UNL     1     -41.187   7.646  -0.394  1.00 20.00     0.344 C 
HETATM    3  C3  UNL     1     -42.758   5.712   0.505  1.00 20.00     0.029 C 
HETATM    4  C4  UNL     1     -43.416   6.117   1.829  1.00 20.00     0.028 C 
HETATM    5  C5  UNL     1     -43.417   4.458  -0.063  1.00 20.00     0.028 C 
HETATM    6  N6  UNL     1     -40.642   6.875   0.721  1.00 20.00     0.093 N 
HETATM    7  S7  UNL     1     -42.893   7.099  -0.676  1.00 20.00    -0.128 SA
HETATM    8  H18 UNL     1     -40.933   7.314   1.594  1.00 20.00     0.316 HD
ENDROOT
TORSDOF 0
ENDMDL
