MODEL 1
REMARK VINA RESULT:      -5.0      0.000      0.000
REMARK  3 active torsions:
REMARK  status: ('A' for Active; 'I' for Inactive)
REMARK    1  A    between atoms: C1_1  and  C5_5 
REMARK    2  A    between atoms: C3_3  and  C5_5 
REMARK    3  A    between atoms: C4_4  and  C5_5 
ROOT
HETATM    1  C5  UNL     1     -33.856   7.101   3.804  1.00 20.00     0.085 C 
ENDROOT
BRANCH   1   2
HETATM    2  C1  UNL     1     -33.905   6.818   5.306  1.00 20.00     0.224 C 
HETATM    3  O6  UNL     1     -33.445   7.603   6.131  1.00 20.00    -0.279 OA
HETATM    4 CL7  UNL     1     -34.668   5.297   5.678  1.00 20.00    -0.043 Cl
ENDBRANCH   1   2
BRANCH   1   5
HETATM    5  C3  UNL     1     -32.421   7.475   3.393  1.00 20.00     0.010 C 
HETATM    6  C2  UNL     1     -32.375   8.376   2.166  1.00 20.00     0.006 C 
ENDBRANCH   1   5
BRANCH   1   7
HETATM    7  C4  UNL     1     -34.317   5.861   3.028  1.00 20.00     0.128 C 
HETATM    8 CL8  UNL     1     -32.943   4.806   2.608  1.00 20.00    -0.130 Cl
ENDBRANCH   1   7
TORSDOF 3
ENDMDL
MODEL 2
REMARK VINA RESULT:      -4.7      2.324      3.097
REMARK  3 active torsions:
REMARK  status: ('A' for Active; 'I' for Inactive)
REMARK    1  A    between atoms: C1_1  and  C5_5 
REMARK    2  A    between atoms: C3_3  and  C5_5 
REMARK    3  A    between atoms: C4_4  and  C5_5 
ROOT
HETATM    1  C5  UNL     1     -33.844   6.514   3.504  1.00 20.00     0.085 C 
ENDROOT
BRANCH   1   2
HETATM    2  C1  UNL     1     -33.531   5.041   3.238  1.00 20.00     0.224 C 
HETATM    3  O6  UNL     1     -32.826   4.686   2.297  1.00 20.00    -0.279 OA
HETATM    4 CL7  UNL     1     -34.276   3.976   4.397  1.00 20.00    -0.043 Cl
ENDBRANCH   1   2
BRANCH   1   5
HETATM    5  C3  UNL     1     -34.459   6.668   4.907  1.00 20.00     0.010 C 
HETATM    6  C2  UNL     1     -33.541   7.403   5.874  1.00 20.00     0.006 C 
ENDBRANCH   1   5
BRANCH   1   7
HETATM    7  C4  UNL     1     -32.559   7.344   3.401  1.00 20.00     0.128 C 
HETATM    8 CL8  UNL     1     -32.529   8.318   1.908  1.00 20.00    -0.130 Cl
ENDBRANCH   1   7
TORSDOF 3
ENDMDL
MODEL 3
REMARK VINA RESULT:      -4.4      1.828      3.263
REMARK  3 active torsions:
REMARK  status: ('A' for Active; 'I' for Inactive)
REMARK    1  A    between atoms: C1_1  and  C5_5 
REMARK    2  A    between atoms: C3_3  and  C5_5 
REMARK    3  A    between atoms: C4_4  and  C5_5 
ROOT
HETATM    1  C5  UNL     1     -33.758   7.313   3.745  1.00 20.00     0.085 C 
ENDROOT
BRANCH   1   2
HETATM    2  C1  UNL     1     -32.468   7.902   3.173  1.00 20.00     0.224 C 
HETATM    3  O6  UNL     1     -31.444   7.999   3.845  1.00 20.00    -0.279 OA
HETATM    4 CL7  UNL     1     -32.634   8.397   1.512  1.00 20.00    -0.043 Cl
ENDBRANCH   1   2
BRANCH   1   5
HETATM    5  C3  UNL     1     -34.132   6.036   2.970  1.00 20.00     0.010 C 
HETATM    6  C2  UNL     1     -32.953   5.088   2.794  1.00 20.00     0.006 C 
ENDBRANCH   1   5
BRANCH   1   7
HETATM    7  C4  UNL     1     -33.565   6.987   5.230  1.00 20.00     0.128 C 
HETATM    8 CL8  UNL     1     -34.631   5.654   5.749  1.00 20.00    -0.130 Cl
ENDBRANCH   1   7
TORSDOF 3
ENDMDL
MODEL 4
REMARK VINA RESULT:      -4.3      2.177      2.761
REMARK  3 active torsions:
REMARK  status: ('A' for Active; 'I' for Inactive)
REMARK    1  A    between atoms: C1_1  and  C5_5 
REMARK    2  A    between atoms: C3_3  and  C5_5 
REMARK    3  A    between atoms: C4_4  and  C5_5 
ROOT
HETATM    1  C5  UNL     1     -33.086   6.541   3.580  1.00 20.00     0.085 C 
ENDROOT
BRANCH   1   2
HETATM    2  C1  UNL     1     -33.392   5.086   3.224  1.00 20.00     0.224 C 
HETATM    3  O6  UNL     1     -32.925   4.549   2.223  1.00 20.00    -0.279 OA
HETATM    4 CL7  UNL     1     -34.446   4.320   4.379  1.00 20.00    -0.043 Cl
ENDBRANCH   1   2
BRANCH   1   5
HETATM    5  C3  UNL     1     -32.909   7.364   2.291  1.00 20.00     0.010 C 
HETATM    6  C2  UNL     1     -31.844   8.444   2.424  1.00 20.00     0.006 C 
ENDBRANCH   1   5
BRANCH   1   7
HETATM    7  C4  UNL     1     -34.230   7.121   4.420  1.00 20.00     0.128 C 
HETATM    8 CL8  UNL     1     -33.731   7.384   6.111  1.00 20.00    -0.130 Cl
ENDBRANCH   1   7
TORSDOF 3
ENDMDL
MODEL 5
REMARK VINA RESULT:      -4.1      2.288      3.572
REMARK  3 active torsions:
REMARK  status: ('A' for Active; 'I' for Inactive)
REMARK    1  A    between atoms: C1_1  and  C5_5 
REMARK    2  A    between atoms: C3_3  and  C5_5 
REMARK    3  A    between atoms: C4_4  and  C5_5 
ROOT
HETATM    1  C5  UNL     1     -34.220   6.840   3.997  1.00 20.00     0.085 C 
ENDROOT
BRANCH   1   2
HETATM    2  C1  UNL     1     -33.265   6.581   2.831  1.00 20.00     0.224 C 
HETATM    3  O6  UNL     1     -32.818   7.494   2.141  1.00 20.00    -0.279 OA
HETATM    4 CL7  UNL     1     -32.908   4.890   2.619  1.00 20.00    -0.043 Cl
ENDBRANCH   1   2
BRANCH   1   5
HETATM    5  C3  UNL     1     -35.017   5.561   4.307  1.00 20.00     0.010 C 
HETATM    6  C2  UNL     1     -34.659   4.957   5.659  1.00 20.00     0.006 C 
ENDBRANCH   1   5
BRANCH   1   7
HETATM    7  C4  UNL     1     -33.422   7.273   5.233  1.00 20.00     0.128 C 
HETATM    8 CL8  UNL     1     -32.096   8.383   4.797  1.00 20.00    -0.130 Cl
ENDBRANCH   1   7
TORSDOF 3
ENDMDL
MODEL 6
REMARK VINA RESULT:      -4.1      1.570      2.284
REMARK  3 active torsions:
REMARK  status: ('A' for Active; 'I' for Inactive)
REMARK    1  A    between atoms: C1_1  and  C5_5 
REMARK    2  A    between atoms: C3_3  and  C5_5 
REMARK    3  A    between atoms: C4_4  and  C5_5 
ROOT
HETATM    1  C5  UNL     1     -33.208   6.649   3.894  1.00 20.00     0.085 C 
ENDROOT
BRANCH   1   2
HETATM    2  C1  UNL     1     -33.903   6.676   5.256  1.00 20.00     0.224 C 
HETATM    3  O6  UNL     1     -33.857   7.660   5.991  1.00 20.00    -0.279 OA
HETATM    4 CL7  UNL     1     -34.738   5.190   5.613  1.00 20.00    -0.043 Cl
ENDBRANCH   1   2
BRANCH   1   5
HETATM    5  C3  UNL     1     -33.923   5.649   2.967  1.00 20.00     0.010 C 
HETATM    6  C2  UNL     1     -33.002   4.539   2.477  1.00 20.00     0.006 C 
ENDBRANCH   1   5
BRANCH   1   7
HETATM    7  C4  UNL     1     -33.234   8.050   3.271  1.00 20.00     0.128 C 
HETATM    8 CL8  UNL     1     -31.806   8.332   2.240  1.00 20.00    -0.130 Cl
ENDBRANCH   1   7
TORSDOF 3
ENDMDL
MODEL 7
REMARK VINA RESULT:      -4.1      1.896      3.113
REMARK  3 active torsions:
REMARK  status: ('A' for Active; 'I' for Inactive)
REMARK    1  A    between atoms: C1_1  and  C5_5 
REMARK    2  A    between atoms: C3_3  and  C5_5 
REMARK    3  A    between atoms: C4_4  and  C5_5 
ROOT
HETATM    1  C5  UNL     1     -32.887   6.765   3.873  1.00 20.00     0.085 C 
ENDROOT
BRANCH   1   2
HETATM    2  C1  UNL     1     -32.125   7.949   3.277  1.00 20.00     0.224 C 
HETATM    3  O6  UNL     1     -31.237   8.529   3.896  1.00 20.00    -0.279 OA
HETATM    4 CL7  UNL     1     -32.658   8.349   1.668  1.00 20.00    -0.043 Cl
ENDBRANCH   1   2
BRANCH   1   5
HETATM    5  C3  UNL     1     -33.807   7.257   5.004  1.00 20.00     0.010 C 
HETATM    6  C2  UNL     1     -34.413   6.116   5.810  1.00 20.00     0.006 C 
ENDBRANCH   1   5
BRANCH   1   7
HETATM    7  C4  UNL     1     -33.719   6.081   2.781  1.00 20.00     0.128 C 
HETATM    8 CL8  UNL     1     -33.060   4.477   2.367  1.00 20.00    -0.130 Cl
ENDBRANCH   1   7
TORSDOF 3
ENDMDL
MODEL 8
REMARK VINA RESULT:      -4.1      2.386      3.285
REMARK  3 active torsions:
REMARK  status: ('A' for Active; 'I' for Inactive)
REMARK    1  A    between atoms: C1_1  and  C5_5 
REMARK    2  A    between atoms: C3_3  and  C5_5 
REMARK    3  A    between atoms: C4_4  and  C5_5 
ROOT
HETATM    1  C5  UNL     1     -33.054   6.536   3.725  1.00 20.00     0.085 C 
ENDROOT
BRANCH   1   2
HETATM    2  C1  UNL     1     -32.549   7.584   2.733  1.00 20.00     0.224 C 
HETATM    3  O6  UNL     1     -33.073   7.746   1.634  1.00 20.00    -0.279 OA
HETATM    4 CL7  UNL     1     -31.188   8.483   3.343  1.00 20.00    -0.043 Cl
ENDBRANCH   1   2
BRANCH   1   5
HETATM    5  C3  UNL     1     -34.185   7.135   4.581  1.00 20.00     0.010 C 
HETATM    6  C2  UNL     1     -33.809   7.254   6.053  1.00 20.00     0.006 C 
ENDBRANCH   1   5
BRANCH   1   7
HETATM    7  C4  UNL     1     -33.568   5.307   2.964  1.00 20.00     0.128 C 
HETATM    8 CL8  UNL     1     -34.187   4.061   4.080  1.00 20.00    -0.130 Cl
ENDBRANCH   1   7
TORSDOF 3
ENDMDL
MODEL 9
REMARK VINA RESULT:      -4.0      1.700      1.742
REMARK  3 active torsions:
REMARK  status: ('A' for Active; 'I' for Inactive)
REMARK    1  A    between atoms: C1_1  and  C5_5 
REMARK    2  A    between atoms: C3_3  and  C5_5 
REMARK    3  A    between atoms: C4_4  and  C5_5 
ROOT
HETATM    1  C5  UNL     1     -34.185   6.855   3.868  1.00 20.00     0.085 C 
ENDROOT
BRANCH   1   2
HETATM    2  C1  UNL     1     -33.731   7.209   5.285  1.00 20.00     0.224 C 
HETATM    3  O6  UNL     1     -34.285   6.747   6.280  1.00 20.00    -0.279 OA
HETATM    4 CL7  UNL     1     -32.380   8.307   5.303  1.00 20.00    -0.043 Cl
ENDBRANCH   1   2
BRANCH   1   5
HETATM    5  C3  UNL     1     -32.957   6.543   2.994  1.00 20.00     0.010 C 
HETATM    6  C2  UNL     1     -32.557   7.712   2.103  1.00 20.00     0.006 C 
ENDBRANCH   1   5
BRANCH   1   7
HETATM    7  C4  UNL     1     -35.119   5.640   3.912  1.00 20.00     0.128 C 
HETATM    8 CL8  UNL     1     -34.220   4.137   4.244  1.00 20.00    -0.130 Cl
ENDBRANCH   1   7
TORSDOF 3
ENDMDL
