MODEL 1
REMARK VINA RESULT:      -5.8      0.000      0.000
REMARK  4 active torsions:
REMARK  status: ('A' for Active; 'I' for Inactive)
REMARK    1  A    between atoms: C2_2  and  C8_8 
REMARK    2  A    between atoms: C2_2  and  C9_9 
REMARK    3  A    between atoms: C3_3  and  C8_8 
REMARK    4  A    between atoms: C3_3  and  C10_10 
ROOT
HETATM    1  C3  UNL     1     -33.400   6.052   3.075  1.00 20.00     0.138 C 
HETATM    2  O11 UNL     1     -32.579   5.220   2.678  1.00 20.00    -0.297 OA
ENDROOT
BRANCH   1   3
HETATM    3  C8  UNL     1     -33.489   7.433   2.430  1.00 20.00     0.112 C 
BRANCH   3   4
HETATM    4  C2  UNL     1     -32.151   8.128   2.449  1.00 20.00    -0.083 C 
HETATM    5  C1  UNL     1     -31.435   8.222   3.582  1.00 20.00     0.014 C 
BRANCH   4   6
HETATM    6  C9  UNL     1     -31.647   8.723   1.154  1.00 20.00     0.029 C 
HETATM    7  C4  UNL     1     -32.508   9.876   0.658  1.00 20.00     0.010 C 
ENDBRANCH   4   6
ENDBRANCH   3   4
ENDBRANCH   1   3
BRANCH   1   8
HETATM    8  C10 UNL     1     -34.383   5.724   4.219  1.00 20.00     0.010 C 
HETATM    9  C5  UNL     1     -34.276   4.233   4.562  1.00 20.00     0.022 C 
HETATM   10  C6  UNL     1     -34.072   6.583   5.452  1.00 20.00     0.022 C 
HETATM   11  C7  UNL     1     -35.822   6.026   3.764  1.00 20.00     0.022 C 
ENDBRANCH   1   8
TORSDOF 4
ENDMDL
MODEL 2
REMARK VINA RESULT:      -5.8      0.029      1.309
REMARK  4 active torsions:
REMARK  status: ('A' for Active; 'I' for Inactive)
REMARK    1  A    between atoms: C2_2  and  C8_8 
REMARK    2  A    between atoms: C2_2  and  C9_9 
REMARK    3  A    between atoms: C3_3  and  C8_8 
REMARK    4  A    between atoms: C3_3  and  C10_10 
ROOT
HETATM    1  C3  UNL     1     -33.414   6.064   3.066  1.00 20.00     0.138 C 
HETATM    2  O11 UNL     1     -32.598   5.240   2.643  1.00 20.00    -0.297 OA
ENDROOT
BRANCH   1   3
HETATM    3  C8  UNL     1     -33.495   7.465   2.463  1.00 20.00     0.112 C 
BRANCH   3   4
HETATM    4  C2  UNL     1     -32.144   8.133   2.460  1.00 20.00    -0.083 C 
HETATM    5  C1  UNL     1     -31.416   8.229   3.586  1.00 20.00     0.014 C 
BRANCH   4   6
HETATM    6  C9  UNL     1     -31.639   8.699   1.153  1.00 20.00     0.029 C 
HETATM    7  C4  UNL     1     -32.472   9.872   0.655  1.00 20.00     0.010 C 
ENDBRANCH   4   6
ENDBRANCH   3   4
ENDBRANCH   1   3
BRANCH   1   8
HETATM    8  C10 UNL     1     -34.398   5.708   4.201  1.00 20.00     0.010 C 
HETATM    9  C5  UNL     1     -35.827   6.028   3.745  1.00 20.00     0.022 C 
HETATM   10  C6  UNL     1     -34.271   4.224   4.572  1.00 20.00     0.022 C 
HETATM   11  C7  UNL     1     -34.073   6.552   5.446  1.00 20.00     0.022 C 
ENDBRANCH   1   8
TORSDOF 4
ENDMDL
MODEL 3
REMARK VINA RESULT:      -5.8      0.042      1.308
REMARK  4 active torsions:
REMARK  status: ('A' for Active; 'I' for Inactive)
REMARK    1  A    between atoms: C2_2  and  C8_8 
REMARK    2  A    between atoms: C2_2  and  C9_9 
REMARK    3  A    between atoms: C3_3  and  C8_8 
REMARK    4  A    between atoms: C3_3  and  C10_10 
ROOT
HETATM    1  C3  UNL     1     -33.416   6.074   3.064  1.00 20.00     0.138 C 
HETATM    2  O11 UNL     1     -32.592   5.245   2.669  1.00 20.00    -0.297 OA
ENDROOT
BRANCH   1   3
HETATM    3  C8  UNL     1     -33.500   7.459   2.425  1.00 20.00     0.112 C 
BRANCH   3   4
HETATM    4  C2  UNL     1     -32.158   8.144   2.435  1.00 20.00    -0.083 C 
HETATM    5  C1  UNL     1     -31.428   8.222   3.560  1.00 20.00     0.014 C 
BRANCH   4   6
HETATM    6  C9  UNL     1     -31.664   8.747   1.140  1.00 20.00     0.029 C 
HETATM    7  C4  UNL     1     -32.470   9.965   0.711  1.00 20.00     0.010 C 
ENDBRANCH   4   6
ENDBRANCH   3   4
ENDBRANCH   1   3
BRANCH   1   8
HETATM    8  C10 UNL     1     -34.406   5.741   4.201  1.00 20.00     0.010 C 
HETATM    9  C5  UNL     1     -34.054   6.579   5.436  1.00 20.00     0.022 C 
HETATM   10  C6  UNL     1     -35.847   6.022   3.753  1.00 20.00     0.022 C 
HETATM   11  C7  UNL     1     -34.290   4.250   4.563  1.00 20.00     0.022 C 
ENDBRANCH   1   8
TORSDOF 4
ENDMDL
MODEL 4
REMARK VINA RESULT:      -5.1      1.331      1.462
REMARK  4 active torsions:
REMARK  status: ('A' for Active; 'I' for Inactive)
REMARK    1  A    between atoms: C2_2  and  C8_8 
REMARK    2  A    between atoms: C2_2  and  C9_9 
REMARK    3  A    between atoms: C3_3  and  C8_8 
REMARK    4  A    between atoms: C3_3  and  C10_10 
ROOT
HETATM    1  C3  UNL     1     -33.671   7.124   4.410  1.00 20.00     0.138 C 
HETATM    2  O11 UNL     1     -33.173   7.449   5.492  1.00 20.00    -0.297 OA
ENDROOT
BRANCH   1   3
HETATM    3  C8  UNL     1     -33.657   8.084   3.222  1.00 20.00     0.112 C 
BRANCH   3   4
HETATM    4  C2  UNL     1     -32.254   8.299   2.715  1.00 20.00    -0.083 C 
HETATM    5  C1  UNL     1     -31.191   8.119   3.518  1.00 20.00     0.014 C 
BRANCH   4   6
HETATM    6  C9  UNL     1     -32.082   8.731   1.277  1.00 20.00     0.029 C 
HETATM    7  C4  UNL     1     -32.610  10.135   1.015  1.00 20.00     0.010 C 
ENDBRANCH   4   6
ENDBRANCH   3   4
ENDBRANCH   1   3
BRANCH   1   8
HETATM    8  C10 UNL     1     -34.307   5.732   4.207  1.00 20.00     0.010 C 
HETATM    9  C5  UNL     1     -33.428   4.913   3.253  1.00 20.00     0.022 C 
HETATM   10  C6  UNL     1     -34.455   5.012   5.554  1.00 20.00     0.022 C 
HETATM   11  C7  UNL     1     -35.704   5.891   3.582  1.00 20.00     0.022 C 
ENDBRANCH   1   8
TORSDOF 4
ENDMDL
MODEL 5
REMARK VINA RESULT:      -5.0      1.452      4.670
REMARK  4 active torsions:
REMARK  status: ('A' for Active; 'I' for Inactive)
REMARK    1  A    between atoms: C2_2  and  C8_8 
REMARK    2  A    between atoms: C2_2  and  C9_9 
REMARK    3  A    between atoms: C3_3  and  C8_8 
REMARK    4  A    between atoms: C3_3  and  C10_10 
ROOT
HETATM    1  C3  UNL     1     -32.499   8.275   2.452  1.00 20.00     0.138 C 
HETATM    2  O11 UNL     1     -31.540   8.138   3.217  1.00 20.00    -0.297 OA
ENDROOT
BRANCH   1   3
HETATM    3  C8  UNL     1     -33.872   7.713   2.811  1.00 20.00     0.112 C 
BRANCH   3   4
HETATM    4  C2  UNL     1     -33.754   6.343   3.428  1.00 20.00    -0.083 C 
HETATM    5  C1  UNL     1     -33.209   5.321   2.746  1.00 20.00     0.014 C 
BRANCH   4   6
HETATM    6  C9  UNL     1     -34.275   6.155   4.834  1.00 20.00     0.029 C 
HETATM    7  C4  UNL     1     -33.781   7.226   5.796  1.00 20.00     0.010 C 
ENDBRANCH   4   6
ENDBRANCH   3   4
ENDBRANCH   1   3
BRANCH   1   8
HETATM    8  C10 UNL     1     -32.356   9.037   1.117  1.00 20.00     0.010 C 
HETATM    9  C5  UNL     1     -30.965   8.766   0.530  1.00 20.00     0.022 C 
HETATM   10  C6  UNL     1     -33.450   8.600   0.133  1.00 20.00     0.022 C 
HETATM   11  C7  UNL     1     -32.502  10.549   1.369  1.00 20.00     0.022 C 
ENDBRANCH   1   8
TORSDOF 4
ENDMDL
MODEL 6
REMARK VINA RESULT:      -5.0      1.453      4.661
REMARK  4 active torsions:
REMARK  status: ('A' for Active; 'I' for Inactive)
REMARK    1  A    between atoms: C2_2  and  C8_8 
REMARK    2  A    between atoms: C2_2  and  C9_9 
REMARK    3  A    between atoms: C3_3  and  C8_8 
REMARK    4  A    between atoms: C3_3  and  C10_10 
ROOT
HETATM    1  C3  UNL     1     -32.475   8.271   2.469  1.00 20.00     0.138 C 
HETATM    2  O11 UNL     1     -31.496   8.102   3.202  1.00 20.00    -0.297 OA
ENDROOT
BRANCH   1   3
HETATM    3  C8  UNL     1     -33.852   7.745   2.868  1.00 20.00     0.112 C 
BRANCH   3   4
HETATM    4  C2  UNL     1     -33.755   6.360   3.455  1.00 20.00    -0.083 C 
HETATM    5  C1  UNL     1     -33.251   5.339   2.742  1.00 20.00     0.014 C 
BRANCH   4   6
HETATM    6  C9  UNL     1     -34.252   6.156   4.867  1.00 20.00     0.029 C 
HETATM    7  C4  UNL     1     -33.785   7.246   5.822  1.00 20.00     0.010 C 
ENDBRANCH   4   6
ENDBRANCH   3   4
ENDBRANCH   1   3
BRANCH   1   8
HETATM    8  C10 UNL     1     -32.352   9.036   1.134  1.00 20.00     0.010 C 
HETATM    9  C5  UNL     1     -32.573  10.532   1.391  1.00 20.00     0.022 C 
HETATM   10  C6  UNL     1     -30.974   8.796   0.505  1.00 20.00     0.022 C 
HETATM   11  C7  UNL     1     -33.430   8.537   0.154  1.00 20.00     0.022 C 
ENDBRANCH   1   8
TORSDOF 4
ENDMDL
MODEL 7
REMARK VINA RESULT:      -5.0      1.452      4.647
REMARK  4 active torsions:
REMARK  status: ('A' for Active; 'I' for Inactive)
REMARK    1  A    between atoms: C2_2  and  C8_8 
REMARK    2  A    between atoms: C2_2  and  C9_9 
REMARK    3  A    between atoms: C3_3  and  C8_8 
REMARK    4  A    between atoms: C3_3  and  C10_10 
ROOT
HETATM    1  C3  UNL     1     -32.495   8.277   2.463  1.00 20.00     0.138 C 
HETATM    2  O11 UNL     1     -31.523   8.120   3.207  1.00 20.00    -0.297 OA
ENDROOT
BRANCH   1   3
HETATM    3  C8  UNL     1     -33.871   7.737   2.848  1.00 20.00     0.112 C 
BRANCH   3   4
HETATM    4  C2  UNL     1     -33.766   6.355   3.440  1.00 20.00    -0.083 C 
HETATM    5  C1  UNL     1     -33.247   5.337   2.734  1.00 20.00     0.014 C 
BRANCH   4   6
HETATM    6  C9  UNL     1     -34.270   6.152   4.850  1.00 20.00     0.029 C 
HETATM    7  C4  UNL     1     -33.787   7.228   5.813  1.00 20.00     0.010 C 
ENDBRANCH   4   6
ENDBRANCH   3   4
ENDBRANCH   1   3
BRANCH   1   8
HETATM    8  C10 UNL     1     -32.367   9.042   1.128  1.00 20.00     0.010 C 
HETATM    9  C5  UNL     1     -33.438   8.535   0.154  1.00 20.00     0.022 C 
HETATM   10  C6  UNL     1     -32.522  10.551   1.360  1.00 20.00     0.022 C 
HETATM   11  C7  UNL     1     -30.978   8.782   0.518  1.00 20.00     0.022 C 
ENDBRANCH   1   8
TORSDOF 4
ENDMDL
MODEL 8
REMARK VINA RESULT:      -4.8      0.995      4.341
REMARK  4 active torsions:
REMARK  status: ('A' for Active; 'I' for Inactive)
REMARK    1  A    between atoms: C2_2  and  C8_8 
REMARK    2  A    between atoms: C2_2  and  C9_9 
REMARK    3  A    between atoms: C3_3  and  C8_8 
REMARK    4  A    between atoms: C3_3  and  C10_10 
ROOT
HETATM    1  C3  UNL     1     -33.039   6.787   2.842  1.00 20.00     0.138 C 
HETATM    2  O11 UNL     1     -32.519   5.711   2.534  1.00 20.00    -0.297 OA
ENDROOT
BRANCH   1   3
HETATM    3  C8  UNL     1     -34.372   6.827   3.587  1.00 20.00     0.112 C 
BRANCH   3   4
HETATM    4  C2  UNL     1     -34.188   6.497   5.046  1.00 20.00    -0.083 C 
HETATM    5  C1  UNL     1     -33.635   7.381   5.893  1.00 20.00     0.014 C 
BRANCH   4   6
HETATM    6  C9  UNL     1     -34.640   5.136   5.524  1.00 20.00     0.029 C 
HETATM    7  C4  UNL     1     -34.357   4.032   4.515  1.00 20.00     0.010 C 
ENDBRANCH   4   6
ENDBRANCH   3   4
ENDBRANCH   1   3
BRANCH   1   8
HETATM    8  C10 UNL     1     -32.357   8.131   2.509  1.00 20.00     0.010 C 
HETATM    9  C5  UNL     1     -33.414   9.242   2.497  1.00 20.00     0.022 C 
HETATM   10  C6  UNL     1     -31.261   8.442   3.536  1.00 20.00     0.022 C 
HETATM   11  C7  UNL     1     -31.710   8.047   1.115  1.00 20.00     0.022 C 
ENDBRANCH   1   8
TORSDOF 4
ENDMDL
MODEL 9
REMARK VINA RESULT:      -4.5      0.931      4.253
REMARK  4 active torsions:
REMARK  status: ('A' for Active; 'I' for Inactive)
REMARK    1  A    between atoms: C2_2  and  C8_8 
REMARK    2  A    between atoms: C2_2  and  C9_9 
REMARK    3  A    between atoms: C3_3  and  C8_8 
REMARK    4  A    between atoms: C3_3  and  C10_10 
ROOT
HETATM    1  C3  UNL     1     -33.084   6.520   2.770  1.00 20.00     0.138 C 
HETATM    2  O11 UNL     1     -32.446   5.515   2.445  1.00 20.00    -0.297 OA
ENDROOT
BRANCH   1   3
HETATM    3  C8  UNL     1     -34.470   6.399   3.399  1.00 20.00     0.112 C 
BRANCH   3   4
HETATM    4  C2  UNL     1     -34.452   5.456   4.574  1.00 20.00    -0.083 C 
HETATM    5  C1  UNL     1     -34.399   4.125   4.394  1.00 20.00     0.014 C 
BRANCH   4   6
HETATM    6  C9  UNL     1     -34.504   6.055   5.960  1.00 20.00     0.029 C 
HETATM    7  C4  UNL     1     -33.780   7.391   6.055  1.00 20.00     0.010 C 
ENDBRANCH   4   6
ENDBRANCH   3   4
ENDBRANCH   1   3
BRANCH   1   8
HETATM    8  C10 UNL     1     -32.499   7.936   2.575  1.00 20.00     0.010 C 
HETATM    9  C5  UNL     1     -33.633   8.965   2.671  1.00 20.00     0.022 C 
HETATM   10  C6  UNL     1     -31.425   8.220   3.634  1.00 20.00     0.022 C 
HETATM   11  C7  UNL     1     -31.852   8.039   1.183  1.00 20.00     0.022 C 
ENDBRANCH   1   8
TORSDOF 4
ENDMDL
