MODEL 1
REMARK VINA RESULT:      -4.2      0.000      0.000
REMARK  5 active torsions:
REMARK  status: ('A' for Active; 'I' for Inactive)
REMARK    1  A    between atoms: C4_4  and  C7_7 
REMARK    2  A    between atoms: C5_5  and  C9_9 
REMARK    3  A    between atoms: C6_6  and  C9_9 
REMARK    4  A    between atoms: C7_7  and  C9_9 
REMARK    5  A    between atoms: C8_8  and  C9_9 
ROOT
HETATM    1  C9  UNL     1     -33.509   6.642   3.530  1.00 20.00    -0.029 C 
ENDROOT
BRANCH   1   2
HETATM    2  C5  UNL     1     -32.578   5.430   3.199  1.00 20.00     0.006 C 
HETATM    3  C2  UNL     1     -33.008   4.545   2.035  1.00 20.00     0.006 C 
ENDBRANCH   1   2
BRANCH   1   4
HETATM    4  C6  UNL     1     -32.986   7.428   4.775  1.00 20.00     0.006 C 
HETATM    5  C3  UNL     1     -33.836   7.337   6.036  1.00 20.00     0.006 C 
ENDBRANCH   1   4
BRANCH   1   6
HETATM    6  C7  UNL     1     -33.521   7.550   2.254  1.00 20.00     0.010 C 
BRANCH   6   7
HETATM    7  C4  UNL     1     -32.242   8.349   1.979  1.00 20.00    -0.004 C 
HETATM    8  C1  UNL     1     -32.544   9.613   1.187  1.00 20.00     0.005 C 
ENDBRANCH   6   7
ENDBRANCH   1   6
BRANCH   1   9
HETATM    9  C8  UNL     1     -34.946   6.163   3.893  1.00 20.00     0.124 C 
HETATM   10 CL10 UNL     1     -35.013   4.584   4.717  1.00 20.00    -0.130 Cl
ENDBRANCH   1   9
TORSDOF 5
ENDMDL
MODEL 2
REMARK VINA RESULT:      -4.2      1.220      2.575
REMARK  5 active torsions:
REMARK  status: ('A' for Active; 'I' for Inactive)
REMARK    1  A    between atoms: C4_4  and  C7_7 
REMARK    2  A    between atoms: C5_5  and  C9_9 
REMARK    3  A    between atoms: C6_6  and  C9_9 
REMARK    4  A    between atoms: C7_7  and  C9_9 
REMARK    5  A    between atoms: C8_8  and  C9_9 
ROOT
HETATM    1  C9  UNL     1     -33.485   6.603   3.499  1.00 20.00    -0.029 C 
ENDROOT
BRANCH   1   2
HETATM    2  C5  UNL     1     -32.963   7.516   4.656  1.00 20.00     0.006 C 
HETATM    3  C2  UNL     1     -33.694   7.401   5.989  1.00 20.00     0.006 C 
ENDBRANCH   1   2
BRANCH   1   4
HETATM    4  C6  UNL     1     -34.937   6.105   3.788  1.00 20.00     0.006 C 
HETATM    5  C3  UNL     1     -35.061   4.797   4.559  1.00 20.00     0.006 C 
ENDBRANCH   1   4
BRANCH   1   6
HETATM    6  C7  UNL     1     -33.435   7.470   2.195  1.00 20.00     0.010 C 
BRANCH   6   7
HETATM    7  C4  UNL     1     -32.209   8.376   2.030  1.00 20.00    -0.004 C 
HETATM    8  C1  UNL     1     -32.483   9.494   1.034  1.00 20.00     0.005 C 
ENDBRANCH   6   7
ENDBRANCH   1   6
BRANCH   1   9
HETATM    9  C8  UNL     1     -32.610   5.323   3.357  1.00 20.00     0.124 C 
HETATM   10 CL10 UNL     1     -32.952   4.350   1.903  1.00 20.00    -0.130 Cl
ENDBRANCH   1   9
TORSDOF 5
ENDMDL
MODEL 3
REMARK VINA RESULT:      -3.9      1.241      2.605
REMARK  5 active torsions:
REMARK  status: ('A' for Active; 'I' for Inactive)
REMARK    1  A    between atoms: C4_4  and  C7_7 
REMARK    2  A    between atoms: C5_5  and  C9_9 
REMARK    3  A    between atoms: C6_6  and  C9_9 
REMARK    4  A    between atoms: C7_7  and  C9_9 
REMARK    5  A    between atoms: C8_8  and  C9_9 
ROOT
HETATM    1  C9  UNL     1     -33.423   6.732   3.384  1.00 20.00    -0.029 C 
ENDROOT
BRANCH   1   2
HETATM    2  C5  UNL     1     -34.916   6.377   3.686  1.00 20.00     0.006 C 
HETATM    3  C2  UNL     1     -35.156   5.128   4.527  1.00 20.00     0.006 C 
ENDBRANCH   1   2
BRANCH   1   4
HETATM    4  C6  UNL     1     -32.565   5.439   3.198  1.00 20.00     0.006 C 
HETATM    5  C3  UNL     1     -32.968   4.522   2.050  1.00 20.00     0.006 C 
ENDBRANCH   1   4
BRANCH   1   6
HETATM    6  C7  UNL     1     -33.430   7.597   2.078  1.00 20.00     0.010 C 
BRANCH   6   7
HETATM    7  C4  UNL     1     -32.228   8.527   1.875  1.00 20.00    -0.004 C 
HETATM    8  C1  UNL     1     -32.611   9.744   1.044  1.00 20.00     0.005 C 
ENDBRANCH   6   7
ENDBRANCH   1   6
BRANCH   1   9
HETATM    9  C8  UNL     1     -32.780   7.510   4.571  1.00 20.00     0.124 C 
HETATM   10 CL10 UNL     1     -33.713   7.447   6.088  1.00 20.00    -0.130 Cl
ENDBRANCH   1   9
TORSDOF 5
ENDMDL
MODEL 4
REMARK VINA RESULT:      -3.8     11.308     12.357
REMARK  5 active torsions:
REMARK  status: ('A' for Active; 'I' for Inactive)
REMARK    1  A    between atoms: C4_4  and  C7_7 
REMARK    2  A    between atoms: C5_5  and  C9_9 
REMARK    3  A    between atoms: C6_6  and  C9_9 
REMARK    4  A    between atoms: C7_7  and  C9_9 
REMARK    5  A    between atoms: C8_8  and  C9_9 
ROOT
HETATM    1  C9  UNL     1     -34.785  15.671  -4.165  1.00 20.00    -0.029 C 
ENDROOT
BRANCH   1   2
HETATM    2  C5  UNL     1     -33.461  16.207  -4.803  1.00 20.00     0.006 C 
HETATM    3  C2  UNL     1     -33.228  15.859  -6.268  1.00 20.00     0.006 C 
ENDBRANCH   1   2
BRANCH   1   4
HETATM    4  C6  UNL     1     -34.836  14.110  -4.207  1.00 20.00     0.006 C 
HETATM    5  C3  UNL     1     -35.897  13.493  -5.110  1.00 20.00     0.006 C 
ENDBRANCH   1   4
BRANCH   1   6
HETATM    6  C7  UNL     1     -34.810  16.196  -2.690  1.00 20.00     0.010 C 
BRANCH   6   7
HETATM    7  C4  UNL     1     -33.600  17.028  -2.248  1.00 20.00    -0.004 C 
HETATM    8  C1  UNL     1     -33.876  17.739  -0.930  1.00 20.00     0.005 C 
ENDBRANCH   6   7
ENDBRANCH   1   6
BRANCH   1   9
HETATM    9  C8  UNL     1     -36.030  16.165  -4.960  1.00 20.00     0.124 C 
HETATM   10 CL10 UNL     1     -36.552  17.822  -4.561  1.00 20.00    -0.130 Cl
ENDBRANCH   1   9
TORSDOF 5
ENDMDL
MODEL 5
REMARK VINA RESULT:      -3.8     10.853     12.307
REMARK  5 active torsions:
REMARK  status: ('A' for Active; 'I' for Inactive)
REMARK    1  A    between atoms: C4_4  and  C7_7 
REMARK    2  A    between atoms: C5_5  and  C9_9 
REMARK    3  A    between atoms: C6_6  and  C9_9 
REMARK    4  A    between atoms: C7_7  and  C9_9 
REMARK    5  A    between atoms: C8_8  and  C9_9 
ROOT
HETATM    1  C9  UNL     1     -34.709  15.647  -4.151  1.00 20.00    -0.029 C 
ENDROOT
BRANCH   1   2
HETATM    2  C5  UNL     1     -35.953  16.208  -4.914  1.00 20.00     0.006 C 
HETATM    3  C2  UNL     1     -36.868  17.137  -4.125  1.00 20.00     0.006 C 
ENDBRANCH   1   2
BRANCH   1   4
HETATM    4  C6  UNL     1     -33.380  16.088  -4.844  1.00 20.00     0.006 C 
HETATM    5  C3  UNL     1     -33.343  15.981  -6.363  1.00 20.00     0.006 C 
ENDBRANCH   1   4
BRANCH   1   6
HETATM    6  C7  UNL     1     -34.797  16.207  -2.691  1.00 20.00     0.010 C 
BRANCH   6   7
HETATM    7  C4  UNL     1     -33.601  17.038  -2.211  1.00 20.00    -0.004 C 
HETATM    8  C1  UNL     1     -33.920  17.758  -0.909  1.00 20.00     0.005 C 
ENDBRANCH   6   7
ENDBRANCH   1   6
BRANCH   1   9
HETATM    9  C8  UNL     1     -34.703  14.090  -4.157  1.00 20.00     0.124 C 
HETATM   10 CL10 UNL     1     -35.960  13.349  -5.181  1.00 20.00    -0.130 Cl
ENDBRANCH   1   9
TORSDOF 5
ENDMDL
MODEL 6
REMARK VINA RESULT:      -3.8     11.326     12.282
REMARK  5 active torsions:
REMARK  status: ('A' for Active; 'I' for Inactive)
REMARK    1  A    between atoms: C4_4  and  C7_7 
REMARK    2  A    between atoms: C5_5  and  C9_9 
REMARK    3  A    between atoms: C6_6  and  C9_9 
REMARK    4  A    between atoms: C7_7  and  C9_9 
REMARK    5  A    between atoms: C8_8  and  C9_9 
ROOT
HETATM    1  C9  UNL     1     -34.834  15.774  -4.043  1.00 20.00    -0.029 C 
ENDROOT
BRANCH   1   2
HETATM    2  C5  UNL     1     -34.701  14.223  -4.196  1.00 20.00     0.006 C 
HETATM    3  C2  UNL     1     -35.747  13.538  -5.068  1.00 20.00     0.006 C 
ENDBRANCH   1   2
BRANCH   1   4
HETATM    4  C6  UNL     1     -36.214  16.159  -3.418  1.00 20.00     0.006 C 
HETATM    5  C3  UNL     1     -37.071  17.129  -4.222  1.00 20.00     0.006 C 
ENDBRANCH   1   4
BRANCH   1   6
HETATM    6  C7  UNL     1     -33.652  16.230  -3.122  1.00 20.00     0.010 C 
BRANCH   6   7
HETATM    7  C4  UNL     1     -34.039  17.000  -1.854  1.00 20.00    -0.004 C 
HETATM    8  C1  UNL     1     -32.931  17.957  -1.435  1.00 20.00     0.005 C 
ENDBRANCH   6   7
ENDBRANCH   1   6
BRANCH   1   9
HETATM    9  C8  UNL     1     -34.774  16.482  -5.428  1.00 20.00     0.124 C 
HETATM   10 CL10 UNL     1     -33.349  16.062  -6.413  1.00 20.00    -0.130 Cl
ENDBRANCH   1   9
TORSDOF 5
ENDMDL
MODEL 7
REMARK VINA RESULT:      -3.7     11.396     12.373
REMARK  5 active torsions:
REMARK  status: ('A' for Active; 'I' for Inactive)
REMARK    1  A    between atoms: C4_4  and  C7_7 
REMARK    2  A    between atoms: C5_5  and  C9_9 
REMARK    3  A    between atoms: C6_6  and  C9_9 
REMARK    4  A    between atoms: C7_7  and  C9_9 
REMARK    5  A    between atoms: C8_8  and  C9_9 
ROOT
HETATM    1  C9  UNL     1     -35.044  15.828  -4.003  1.00 20.00    -0.029 C 
ENDROOT
BRANCH   1   2
HETATM    2  C5  UNL     1     -36.597  15.911  -3.837  1.00 20.00     0.006 C 
HETATM    3  C2  UNL     1     -37.317  16.926  -4.718  1.00 20.00     0.006 C 
ENDBRANCH   1   2
BRANCH   1   4
HETATM    4  C6  UNL     1     -34.316  16.315  -2.709  1.00 20.00     0.006 C 
HETATM    5  C3  UNL     1     -35.208  16.817  -1.581  1.00 20.00     0.006 C 
ENDBRANCH   1   4
BRANCH   1   6
HETATM    6  C7  UNL     1     -34.712  14.328  -4.306  1.00 20.00     0.010 C 
BRANCH   6   7
HETATM    7  C4  UNL     1     -35.810  13.520  -5.008  1.00 20.00    -0.004 C 
HETATM    8  C1  UNL     1     -35.522  13.381  -6.496  1.00 20.00     0.005 C 
ENDBRANCH   6   7
ENDBRANCH   1   6
BRANCH   1   9
HETATM    9  C8  UNL     1     -34.552  16.757  -5.151  1.00 20.00     0.124 C 
HETATM   10 CL10 UNL     1     -33.227  16.081  -6.133  1.00 20.00    -0.130 Cl
ENDBRANCH   1   9
TORSDOF 5
ENDMDL
MODEL 8
REMARK VINA RESULT:      -3.7     11.262     12.203
REMARK  5 active torsions:
REMARK  status: ('A' for Active; 'I' for Inactive)
REMARK    1  A    between atoms: C4_4  and  C7_7 
REMARK    2  A    between atoms: C5_5  and  C9_9 
REMARK    3  A    between atoms: C6_6  and  C9_9 
REMARK    4  A    between atoms: C7_7  and  C9_9 
REMARK    5  A    between atoms: C8_8  and  C9_9 
ROOT
HETATM    1  C9  UNL     1     -34.860  15.414  -4.436  1.00 20.00    -0.029 C 
ENDROOT
BRANCH   1   2
HETATM    2  C5  UNL     1     -33.319  15.456  -4.171  1.00 20.00     0.006 C 
HETATM    3  C2  UNL     1     -32.586  14.121  -4.236  1.00 20.00     0.006 C 
ENDBRANCH   1   2
BRANCH   1   4
HETATM    4  C6  UNL     1     -35.360  13.943  -4.602  1.00 20.00     0.006 C 
HETATM    5  C3  UNL     1     -35.897  13.564  -5.976  1.00 20.00     0.006 C 
ENDBRANCH   1   4
BRANCH   1   6
HETATM    6  C7  UNL     1     -35.538  16.104  -3.204  1.00 20.00     0.010 C 
BRANCH   6   7
HETATM    7  C4  UNL     1     -34.592  16.687  -2.148  1.00 20.00    -0.004 C 
HETATM    8  C1  UNL     1     -35.355  17.101  -0.897  1.00 20.00     0.005 C 
ENDBRANCH   6   7
ENDBRANCH   1   6
BRANCH   1   9
HETATM    9  C8  UNL     1     -35.222  16.146  -5.762  1.00 20.00     0.124 C 
HETATM   10 CL10 UNL     1     -33.827  16.516  -6.807  1.00 20.00    -0.130 Cl
ENDBRANCH   1   9
TORSDOF 5
ENDMDL
MODEL 9
REMARK VINA RESULT:      -3.7     11.152     12.319
REMARK  5 active torsions:
REMARK  status: ('A' for Active; 'I' for Inactive)
REMARK    1  A    between atoms: C4_4  and  C7_7 
REMARK    2  A    between atoms: C5_5  and  C9_9 
REMARK    3  A    between atoms: C6_6  and  C9_9 
REMARK    4  A    between atoms: C7_7  and  C9_9 
REMARK    5  A    between atoms: C8_8  and  C9_9 
ROOT
HETATM    1  C9  UNL     1     -34.497  15.491  -5.025  1.00 20.00    -0.029 C 
ENDROOT
BRANCH   1   2
HETATM    2  C5  UNL     1     -35.152  14.169  -4.505  1.00 20.00     0.006 C 
HETATM    3  C2  UNL     1     -36.352  13.655  -5.290  1.00 20.00     0.006 C 
ENDBRANCH   1   2
BRANCH   1   4
HETATM    4  C6  UNL     1     -34.905  15.773  -6.507  1.00 20.00     0.006 C 
HETATM    5  C3  UNL     1     -33.942  15.274  -7.578  1.00 20.00     0.006 C 
ENDBRANCH   1   4
BRANCH   1   6
HETATM    6  C7  UNL     1     -34.995  16.634  -4.077  1.00 20.00     0.010 C 
BRANCH   6   7
HETATM    7  C4  UNL     1     -34.998  16.316  -2.577  1.00 20.00    -0.004 C 
HETATM    8  C1  UNL     1     -33.897  17.078  -1.853  1.00 20.00     0.005 C 
ENDBRANCH   6   7
ENDBRANCH   1   6
BRANCH   1   9
HETATM    9  C8  UNL     1     -32.943  15.389  -5.017  1.00 20.00     0.124 C 
HETATM   10 CL10 UNL     1     -32.300  13.981  -4.132  1.00 20.00    -0.130 Cl
ENDBRANCH   1   9
TORSDOF 5
ENDMDL
