MODEL 1
REMARK VINA RESULT:      -5.2      0.000      0.000
REMARK  2 active torsions:
REMARK  status: ('A' for Active; 'I' for Inactive)
REMARK    1  A    between atoms: C1_1  and  C2_2 
REMARK    2  A    between atoms: C1_1  and  C3_3 
ROOT
HETATM    1  C1  UNL     1     -34.591   6.383   3.965  1.00 20.00     0.299 C 
HETATM    2  F4  UNL     1     -35.808   5.800   3.768  1.00 20.00    -0.238 F 
ENDROOT
BRANCH   1   3
HETATM    3  C2  UNL     1     -33.642   5.844   2.919  1.00 20.00     0.392 C 
HETATM    4  F5  UNL     1     -32.450   6.485   2.995  1.00 20.00    -0.211 F 
HETATM    5  F6  UNL     1     -33.399   4.533   3.164  1.00 20.00    -0.211 F 
ENDBRANCH   1   3
BRANCH   1   6
HETATM    6  C3  UNL     1     -34.148   6.074   5.377  1.00 20.00     0.392 C 
HETATM    7  F7  UNL     1     -34.967   5.148   5.931  1.00 20.00    -0.211 F 
HETATM    8  F8  UNL     1     -34.250   7.193   6.136  1.00 20.00    -0.211 F 
ENDBRANCH   1   6
TORSDOF 2
ENDMDL
MODEL 2
REMARK VINA RESULT:      -5.1      1.076      3.076
REMARK  2 active torsions:
REMARK  status: ('A' for Active; 'I' for Inactive)
REMARK    1  A    between atoms: C1_1  and  C2_2 
REMARK    2  A    between atoms: C1_1  and  C3_3 
ROOT
HETATM    1  C1  UNL     1     -33.877   7.110   4.514  1.00 20.00     0.299 C 
HETATM    2  F4  UNL     1     -33.125   7.339   5.629  1.00 20.00    -0.238 F 
ENDROOT
BRANCH   1   3
HETATM    3  C2  UNL     1     -34.519   5.749   4.656  1.00 20.00     0.392 C 
HETATM    4  F5  UNL     1     -34.791   5.495   5.959  1.00 20.00    -0.211 F 
HETATM    5  F6  UNL     1     -35.705   5.739   3.998  1.00 20.00    -0.211 F 
ENDBRANCH   1   3
BRANCH   1   6
HETATM    6  C3  UNL     1     -32.966   7.208   3.310  1.00 20.00     0.392 C 
HETATM    7  F7  UNL     1     -32.658   5.970   2.856  1.00 20.00    -0.211 F 
HETATM    8  F8  UNL     1     -31.799   7.794   3.676  1.00 20.00    -0.211 F 
ENDBRANCH   1   6
TORSDOF 2
ENDMDL
MODEL 3
REMARK VINA RESULT:      -5.1      1.390      2.019
REMARK  2 active torsions:
REMARK  status: ('A' for Active; 'I' for Inactive)
REMARK    1  A    between atoms: C1_1  and  C2_2 
REMARK    2  A    between atoms: C1_1  and  C3_3 
ROOT
HETATM    1  C1  UNL     1     -34.737   5.753   4.874  1.00 20.00     0.299 C 
HETATM    2  F4  UNL     1     -34.783   5.298   6.159  1.00 20.00    -0.238 F 
ENDROOT
BRANCH   1   3
HETATM    3  C2  UNL     1     -34.319   4.603   3.986  1.00 20.00     0.392 C 
HETATM    4  F5  UNL     1     -33.272   4.971   3.208  1.00 20.00    -0.211 F 
HETATM    5  F6  UNL     1     -33.892   3.572   4.757  1.00 20.00    -0.211 F 
ENDBRANCH   1   3
BRANCH   1   6
HETATM    6  C3  UNL     1     -33.771   6.915   4.825  1.00 20.00     0.392 C 
HETATM    7  F7  UNL     1     -33.883   7.664   5.948  1.00 20.00    -0.211 F 
HETATM    8  F8  UNL     1     -34.091   7.722   3.783  1.00 20.00    -0.211 F 
ENDBRANCH   1   6
TORSDOF 2
ENDMDL
MODEL 4
REMARK VINA RESULT:      -5.0      0.874      3.145
REMARK  2 active torsions:
REMARK  status: ('A' for Active; 'I' for Inactive)
REMARK    1  A    between atoms: C1_1  and  C2_2 
REMARK    2  A    between atoms: C1_1  and  C3_3 
ROOT
HETATM    1  C1  UNL     1     -34.733   5.346   4.003  1.00 20.00     0.299 C 
HETATM    2  F4  UNL     1     -35.757   6.068   3.463  1.00 20.00    -0.238 F 
ENDROOT
BRANCH   1   3
HETATM    3  C2  UNL     1     -34.645   5.690   5.473  1.00 20.00     0.392 C 
HETATM    4  F5  UNL     1     -34.117   4.651   6.165  1.00 20.00    -0.211 F 
HETATM    5  F6  UNL     1     -33.804   6.741   5.640  1.00 20.00    -0.211 F 
ENDBRANCH   1   3
BRANCH   1   6
HETATM    6  C3  UNL     1     -33.471   5.686   3.243  1.00 20.00     0.392 C 
HETATM    7  F7  UNL     1     -33.730   6.631   2.307  1.00 20.00    -0.211 F 
HETATM    8  F8  UNL     1     -33.036   4.586   2.579  1.00 20.00    -0.211 F 
ENDBRANCH   1   6
TORSDOF 2
ENDMDL
MODEL 5
REMARK VINA RESULT:      -5.0      1.262      2.380
REMARK  2 active torsions:
REMARK  status: ('A' for Active; 'I' for Inactive)
REMARK    1  A    between atoms: C1_1  and  C2_2 
REMARK    2  A    between atoms: C1_1  and  C3_3 
ROOT
HETATM    1  C1  UNL     1     -34.783   6.006   4.161  1.00 20.00     0.299 C 
HETATM    2  F4  UNL     1     -34.629   5.811   2.820  1.00 20.00    -0.238 F 
ENDROOT
BRANCH   1   3
HETATM    3  C2  UNL     1     -33.650   6.886   4.637  1.00 20.00     0.392 C 
HETATM    4  F5  UNL     1     -33.287   7.750   3.658  1.00 20.00    -0.211 F 
HETATM    5  F6  UNL     1     -34.071   7.635   5.686  1.00 20.00    -0.211 F 
ENDBRANCH   1   3
BRANCH   1   6
HETATM    6  C3  UNL     1     -34.795   4.650   4.831  1.00 20.00     0.392 C 
HETATM    7  F7  UNL     1     -34.173   4.716   6.032  1.00 20.00    -0.211 F 
HETATM    8  F8  UNL     1     -34.095   3.768   4.074  1.00 20.00    -0.211 F 
ENDBRANCH   1   6
TORSDOF 2
ENDMDL
MODEL 6
REMARK VINA RESULT:      -5.0      1.044      2.365
REMARK  2 active torsions:
REMARK  status: ('A' for Active; 'I' for Inactive)
REMARK    1  A    between atoms: C1_1  and  C2_2 
REMARK    2  A    between atoms: C1_1  and  C3_3 
ROOT
HETATM    1  C1  UNL     1     -34.550   5.795   3.730  1.00 20.00     0.299 C 
HETATM    2  F4  UNL     1     -35.900   5.993   3.768  1.00 20.00    -0.238 F 
ENDROOT
BRANCH   1   3
HETATM    3  C2  UNL     1     -34.202   4.758   4.774  1.00 20.00     0.392 C 
HETATM    4  F5  UNL     1     -35.097   4.799   5.790  1.00 20.00    -0.211 F 
HETATM    5  F6  UNL     1     -34.286   3.521   4.225  1.00 20.00    -0.211 F 
ENDBRANCH   1   3
BRANCH   1   6
HETATM    6  C3  UNL     1     -33.877   7.127   3.977  1.00 20.00     0.392 C 
HETATM    7  F7  UNL     1     -32.573   7.065   3.616  1.00 20.00    -0.211 F 
HETATM    8  F8  UNL     1     -33.905   7.406   5.304  1.00 20.00    -0.211 F 
ENDBRANCH   1   6
TORSDOF 2
ENDMDL
MODEL 7
REMARK VINA RESULT:      -5.0      1.437      2.372
REMARK  2 active torsions:
REMARK  status: ('A' for Active; 'I' for Inactive)
REMARK    1  A    between atoms: C1_1  and  C2_2 
REMARK    2  A    between atoms: C1_1  and  C3_3 
ROOT
HETATM    1  C1  UNL     1     -33.645   5.732   2.874  1.00 20.00     0.299 C 
HETATM    2  F4  UNL     1     -32.842   4.684   2.530  1.00 20.00    -0.238 F 
ENDROOT
BRANCH   1   3
HETATM    3  C2  UNL     1     -32.763   6.935   3.121  1.00 20.00     0.392 C 
HETATM    4  F5  UNL     1     -32.965   7.867   2.158  1.00 20.00    -0.211 F 
HETATM    5  F6  UNL     1     -33.102   7.509   4.301  1.00 20.00    -0.211 F 
ENDBRANCH   1   3
BRANCH   1   6
HETATM    6  C3  UNL     1     -34.442   5.328   4.094  1.00 20.00     0.392 C 
HETATM    7  F7  UNL     1     -34.502   3.977   4.187  1.00 20.00    -0.211 F 
HETATM    8  F8  UNL     1     -35.718   5.769   3.965  1.00 20.00    -0.211 F 
ENDBRANCH   1   6
TORSDOF 2
ENDMDL
MODEL 8
REMARK VINA RESULT:      -4.9      1.101      2.230
REMARK  2 active torsions:
REMARK  status: ('A' for Active; 'I' for Inactive)
REMARK    1  A    between atoms: C1_1  and  C2_2 
REMARK    2  A    between atoms: C1_1  and  C3_3 
ROOT
HETATM    1  C1  UNL     1     -33.629   6.623   4.146  1.00 20.00     0.299 C 
HETATM    2  F4  UNL     1     -33.633   7.770   3.408  1.00 20.00    -0.238 F 
ENDROOT
BRANCH   1   3
HETATM    3  C2  UNL     1     -34.533   5.624   3.460  1.00 20.00     0.392 C 
HETATM    4  F5  UNL     1     -34.235   4.367   3.868  1.00 20.00    -0.211 F 
HETATM    5  F6  UNL     1     -35.819   5.859   3.819  1.00 20.00    -0.211 F 
ENDBRANCH   1   3
BRANCH   1   6
HETATM    6  C3  UNL     1     -34.088   6.967   5.545  1.00 20.00     0.392 C 
HETATM    7  F7  UNL     1     -33.111   7.629   6.209  1.00 20.00    -0.211 F 
HETATM    8  F8  UNL     1     -34.325   5.823   6.235  1.00 20.00    -0.211 F 
ENDBRANCH   1   6
TORSDOF 2
ENDMDL
MODEL 9
REMARK VINA RESULT:      -4.9      0.572      2.816
REMARK  2 active torsions:
REMARK  status: ('A' for Active; 'I' for Inactive)
REMARK    1  A    between atoms: C1_1  and  C2_2 
REMARK    2  A    between atoms: C1_1  and  C3_3 
ROOT
HETATM    1  C1  UNL     1     -34.574   5.458   3.920  1.00 20.00     0.299 C 
HETATM    2  F4  UNL     1     -35.746   6.078   3.597  1.00 20.00    -0.238 F 
ENDROOT
BRANCH   1   3
HETATM    3  C2  UNL     1     -34.142   5.958   5.280  1.00 20.00     0.392 C 
HETATM    4  F5  UNL     1     -34.404   7.282   5.396  1.00 20.00    -0.211 F 
HETATM    5  F6  UNL     1     -34.864   5.330   6.241  1.00 20.00    -0.211 F 
ENDBRANCH   1   3
BRANCH   1   6
HETATM    6  C3  UNL     1     -33.569   5.766   2.834  1.00 20.00     0.392 C 
HETATM    7  F7  UNL     1     -32.895   4.643   2.489  1.00 20.00    -0.211 F 
HETATM    8  F8  UNL     1     -32.650   6.645   3.307  1.00 20.00    -0.211 F 
ENDBRANCH   1   6
TORSDOF 2
ENDMDL
