MODEL 1
REMARK VINA RESULT:      -6.7      0.000      0.000
REMARK  0 active torsions:
REMARK  status: ('A' for Active; 'I' for Inactive)
ROOT
HETATM    1  C1  UNL     1     -34.111   6.595   5.582  1.00 20.00    -0.021 C 
HETATM    2  C2  UNL     1     -34.336   5.274   5.684  1.00 20.00    -0.025 C 
HETATM    3  C3  UNL     1     -33.222   6.317   3.315  1.00 20.00    -0.076 C 
HETATM    4  C4  UNL     1     -32.262   6.936   2.623  1.00 20.00    -0.027 C 
HETATM    5  C5  UNL     1     -33.453   4.813   3.396  1.00 20.00     0.043 C 
HETATM    6  C6  UNL     1     -35.468   6.011   3.806  1.00 20.00     0.022 C 
HETATM    7  C7  UNL     1     -34.320   6.973   4.134  1.00 20.00     0.037 C 
HETATM    8  C8  UNL     1     -34.708   4.775   4.302  1.00 20.00     0.013 C 
HETATM    9  C9  UNL     1     -32.083   8.418   2.581  1.00 20.00     0.036 C 
ENDROOT
TORSDOF 0
ENDMDL
MODEL 2
REMARK VINA RESULT:      -5.3      0.873      1.960
REMARK  0 active torsions:
REMARK  status: ('A' for Active; 'I' for Inactive)
ROOT
HETATM    1  C1  UNL     1     -35.020   6.203   2.692  1.00 20.00    -0.021 C 
HETATM    2  C2  UNL     1     -35.606   5.945   3.874  1.00 20.00    -0.025 C 
HETATM    3  C3  UNL     1     -33.042   7.114   3.820  1.00 20.00    -0.076 C 
HETATM    4  C4  UNL     1     -32.189   8.097   3.524  1.00 20.00    -0.027 C 
HETATM    5  C5  UNL     1     -33.680   6.845   5.178  1.00 20.00     0.043 C 
HETATM    6  C6  UNL     1     -33.566   4.854   3.878  1.00 20.00     0.022 C 
HETATM    7  C7  UNL     1     -33.532   6.021   2.884  1.00 20.00     0.037 C 
HETATM    8  C8  UNL     1     -34.506   5.578   4.850  1.00 20.00     0.013 C 
HETATM    9  C9  UNL     1     -31.596   8.311   2.171  1.00 20.00     0.036 C 
ENDROOT
TORSDOF 0
ENDMDL
MODEL 3
REMARK VINA RESULT:      -4.7      1.111      2.650
REMARK  0 active torsions:
REMARK  status: ('A' for Active; 'I' for Inactive)
ROOT
HETATM    1  C1  UNL     1     -34.005   4.546   4.026  1.00 20.00    -0.021 C 
HETATM    2  C2  UNL     1     -33.370   4.549   2.842  1.00 20.00    -0.025 C 
HETATM    3  C3  UNL     1     -33.510   6.925   4.351  1.00 20.00    -0.076 C 
HETATM    4  C4  UNL     1     -33.243   7.668   5.428  1.00 20.00    -0.027 C 
HETATM    5  C5  UNL     1     -32.773   6.965   3.017  1.00 20.00     0.043 C 
HETATM    6  C6  UNL     1     -35.004   6.183   2.739  1.00 20.00     0.022 C 
HETATM    7  C7  UNL     1     -34.631   5.911   4.200  1.00 20.00     0.037 C 
HETATM    8  C8  UNL     1     -33.585   5.915   2.221  1.00 20.00     0.013 C 
HETATM    9  C9  UNL     1     -34.002   7.585   6.711  1.00 20.00     0.036 C 
ENDROOT
TORSDOF 0
ENDMDL
MODEL 4
REMARK VINA RESULT:      -4.2     11.574     12.667
REMARK  0 active torsions:
REMARK  status: ('A' for Active; 'I' for Inactive)
ROOT
HETATM    1  C1  UNL     1     -33.300  16.109  -5.399  1.00 20.00    -0.021 C 
HETATM    2  C2  UNL     1     -34.223  15.454  -6.124  1.00 20.00    -0.025 C 
HETATM    3  C3  UNL     1     -34.649  15.858  -3.367  1.00 20.00    -0.076 C 
HETATM    4  C4  UNL     1     -34.844  16.628  -2.294  1.00 20.00    -0.027 C 
HETATM    5  C5  UNL     1     -35.723  15.120  -4.159  1.00 20.00     0.043 C 
HETATM    6  C6  UNL     1     -33.606  14.055  -4.388  1.00 20.00     0.022 C 
HETATM    7  C7  UNL     1     -33.317  15.512  -4.011  1.00 20.00     0.037 C 
HETATM    8  C8  UNL     1     -34.846  14.410  -5.219  1.00 20.00     0.013 C 
HETATM    9  C9  UNL     1     -33.750  17.329  -1.558  1.00 20.00     0.036 C 
ENDROOT
TORSDOF 0
ENDMDL
MODEL 5
REMARK VINA RESULT:      -4.1     11.990     12.863
REMARK  0 active torsions:
REMARK  status: ('A' for Active; 'I' for Inactive)
ROOT
HETATM    1  C1  UNL     1     -32.734  17.943  -1.343  1.00 20.00    -0.021 C 
HETATM    2  C2  UNL     1     -33.609  18.134  -0.341  1.00 20.00    -0.025 C 
HETATM    3  C3  UNL     1     -34.382  16.627  -2.593  1.00 20.00    -0.076 C 
HETATM    4  C4  UNL     1     -34.287  15.576  -3.411  1.00 20.00    -0.027 C 
HETATM    5  C5  UNL     1     -35.398  16.815  -1.473  1.00 20.00     0.043 C 
HETATM    6  C6  UNL     1     -34.611  18.914  -2.275  1.00 20.00     0.022 C 
HETATM    7  C7  UNL     1     -33.530  17.885  -2.626  1.00 20.00     0.037 C 
HETATM    8  C8  UNL     1     -34.989  18.218  -0.961  1.00 20.00     0.013 C 
HETATM    9  C9  UNL     1     -33.267  15.447  -4.493  1.00 20.00     0.036 C 
ENDROOT
TORSDOF 0
ENDMDL
MODEL 6
REMARK VINA RESULT:      -4.0     11.874     12.817
REMARK  0 active torsions:
REMARK  status: ('A' for Active; 'I' for Inactive)
ROOT
HETATM    1  C1  UNL     1     -36.025  18.244  -2.493  1.00 20.00    -0.021 C 
HETATM    2  C2  UNL     1     -35.240  19.079  -1.791  1.00 20.00    -0.025 C 
HETATM    3  C3  UNL     1     -34.244  16.561  -2.574  1.00 20.00    -0.076 C 
HETATM    4  C4  UNL     1     -33.874  15.659  -3.486  1.00 20.00    -0.027 C 
HETATM    5  C5  UNL     1     -33.321  17.485  -1.787  1.00 20.00     0.043 C 
HETATM    6  C6  UNL     1     -35.350  17.095  -0.606  1.00 20.00     0.022 C 
HETATM    7  C7  UNL     1     -35.656  16.836  -2.085  1.00 20.00     0.037 C 
HETATM    8  C8  UNL     1     -34.356  18.224  -0.905  1.00 20.00     0.013 C 
HETATM    9  C9  UNL     1     -34.826  14.780  -4.227  1.00 20.00     0.036 C 
ENDROOT
TORSDOF 0
ENDMDL
MODEL 7
REMARK VINA RESULT:      -4.0     12.115     13.060
REMARK  0 active torsions:
REMARK  status: ('A' for Active; 'I' for Inactive)
ROOT
HETATM    1  C1  UNL     1     -35.101  16.824  -1.488  1.00 20.00    -0.021 C 
HETATM    2  C2  UNL     1     -34.102  16.687  -2.376  1.00 20.00    -0.025 C 
HETATM    3  C3  UNL     1     -33.731  18.314  -0.105  1.00 20.00    -0.076 C 
HETATM    4  C4  UNL     1     -33.638  18.516   1.212  1.00 20.00    -0.027 C 
HETATM    5  C5  UNL     1     -32.572  18.175  -1.084  1.00 20.00     0.043 C 
HETATM    6  C6  UNL     1     -34.534  18.951  -2.186  1.00 20.00     0.022 C 
HETATM    7  C7  UNL     1     -35.008  18.223  -0.923  1.00 20.00     0.037 C 
HETATM    8  C8  UNL     1     -33.350  18.003  -2.411  1.00 20.00     0.013 C 
HETATM    9  C9  UNL     1     -34.813  18.644   2.124  1.00 20.00     0.036 C 
ENDROOT
TORSDOF 0
ENDMDL
MODEL 8
REMARK VINA RESULT:      -3.9     12.114     13.092
REMARK  0 active torsions:
REMARK  status: ('A' for Active; 'I' for Inactive)
ROOT
HETATM    1  C1  UNL     1     -34.197  18.574  -3.249  1.00 20.00    -0.021 C 
HETATM    2  C2  UNL     1     -35.378  17.955  -3.409  1.00 20.00    -0.025 C 
HETATM    3  C3  UNL     1     -34.032  17.765  -0.940  1.00 20.00    -0.076 C 
HETATM    4  C4  UNL     1     -33.521  18.282   0.179  1.00 20.00    -0.027 C 
HETATM    5  C5  UNL     1     -35.375  17.057  -1.081  1.00 20.00     0.043 C 
HETATM    6  C6  UNL     1     -33.851  16.342  -2.764  1.00 20.00     0.022 C 
HETATM    7  C7  UNL     1     -33.372  17.725  -2.309  1.00 20.00     0.037 C 
HETATM    8  C8  UNL     1     -35.335  16.685  -2.583  1.00 20.00     0.013 C 
HETATM    9  C9  UNL     1     -32.197  18.966   0.257  1.00 20.00     0.036 C 
ENDROOT
TORSDOF 0
ENDMDL
MODEL 9
REMARK VINA RESULT:      -3.9     11.520     12.851
REMARK  0 active torsions:
REMARK  status: ('A' for Active; 'I' for Inactive)
ROOT
HETATM    1  C1  UNL     1     -34.679  14.198  -4.126  1.00 20.00    -0.021 C 
HETATM    2  C2  UNL     1     -34.045  14.233  -5.310  1.00 20.00    -0.025 C 
HETATM    3  C3  UNL     1     -34.021  16.512  -3.652  1.00 20.00    -0.076 C 
HETATM    4  C4  UNL     1     -33.704  17.164  -2.532  1.00 20.00    -0.027 C 
HETATM    5  C5  UNL     1     -33.283  16.586  -4.984  1.00 20.00     0.043 C 
HETATM    6  C6  UNL     1     -35.562  15.978  -5.303  1.00 20.00     0.022 C 
HETATM    7  C7  UNL     1     -35.209  15.588  -3.863  1.00 20.00     0.037 C 
HETATM    8  C8  UNL     1     -34.165  15.647  -5.842  1.00 20.00     0.013 C 
HETATM    9  C9  UNL     1     -34.467  17.052  -1.254  1.00 20.00     0.036 C 
ENDROOT
TORSDOF 0
ENDMDL
