MODEL 1
REMARK VINA RESULT:      -5.8      0.000      0.000
REMARK  3 active torsions:
REMARK  status: ('A' for Active; 'I' for Inactive)
REMARK    1  A    between atoms: C2_2  and  C6_6 
REMARK    2  A    between atoms: C6_6  and  C7_7 
REMARK    3  A    between atoms: C7_7  and  C8_8 
ROOT
HETATM    1  C6  UNL     1     -32.906   7.891   3.064  1.00 20.00     0.027 C 
ENDROOT
BRANCH   1   2
HETATM    2  C2  UNL     1     -31.919   8.007   1.939  1.00 20.00    -0.031 C 
HETATM    3  C1  UNL     1     -31.888   9.034   1.077  1.00 20.00    -0.035 C 
HETATM    4  C3  UNL     1     -32.830  10.190   1.128  1.00 20.00     0.035 C 
ENDBRANCH   1   2
BRANCH   1   5
HETATM    5  C7  UNL     1     -33.466   6.472   3.227  1.00 20.00     0.007 C 
BRANCH   5   6
HETATM    6  C8  UNL     1     -34.413   6.267   4.428  1.00 20.00    -0.022 C 
HETATM    7  C4  UNL     1     -34.566   4.770   4.712  1.00 20.00     0.009 C 
HETATM    8  C5  UNL     1     -33.922   6.983   5.686  1.00 20.00     0.009 C 
ENDBRANCH   5   6
ENDBRANCH   1   5
TORSDOF 3
ENDMDL
MODEL 2
REMARK VINA RESULT:      -5.7      0.926      1.289
REMARK  3 active torsions:
REMARK  status: ('A' for Active; 'I' for Inactive)
REMARK    1  A    between atoms: C2_2  and  C6_6 
REMARK    2  A    between atoms: C6_6  and  C7_7 
REMARK    3  A    between atoms: C7_7  and  C8_8 
ROOT
HETATM    1  C6  UNL     1     -33.087   6.348   2.852  1.00 20.00     0.027 C 
ENDROOT
BRANCH   1   2
HETATM    2  C2  UNL     1     -32.270   7.513   3.330  1.00 20.00    -0.031 C 
HETATM    3  C1  UNL     1     -31.933   8.554   2.555  1.00 20.00    -0.035 C 
HETATM    4  C3  UNL     1     -32.327   8.685   1.121  1.00 20.00     0.035 C 
ENDBRANCH   1   2
BRANCH   1   5
HETATM    5  C7  UNL     1     -34.541   6.394   3.339  1.00 20.00     0.007 C 
BRANCH   5   6
HETATM    6  C8  UNL     1     -34.861   5.505   4.558  1.00 20.00    -0.022 C 
HETATM    7  C4  UNL     1     -34.218   4.127   4.373  1.00 20.00     0.009 C 
HETATM    8  C5  UNL     1     -34.383   6.125   5.872  1.00 20.00     0.009 C 
ENDBRANCH   5   6
ENDBRANCH   1   5
TORSDOF 3
ENDMDL
MODEL 3
REMARK VINA RESULT:      -5.6      0.935      4.424
REMARK  3 active torsions:
REMARK  status: ('A' for Active; 'I' for Inactive)
REMARK    1  A    between atoms: C2_2  and  C6_6 
REMARK    2  A    between atoms: C6_6  and  C7_7 
REMARK    3  A    between atoms: C7_7  and  C8_8 
ROOT
HETATM    1  C6  UNL     1     -34.507   6.098   3.170  1.00 20.00     0.027 C 
ENDROOT
BRANCH   1   2
HETATM    2  C2  UNL     1     -34.602   5.147   4.328  1.00 20.00    -0.031 C 
HETATM    3  C1  UNL     1     -34.414   5.507   5.605  1.00 20.00    -0.035 C 
HETATM    4  C3  UNL     1     -34.088   6.898   6.038  1.00 20.00     0.035 C 
ENDBRANCH   1   2
BRANCH   1   5
HETATM    5  C7  UNL     1     -33.060   6.418   2.772  1.00 20.00     0.007 C 
BRANCH   5   6
HETATM    6  C8  UNL     1     -32.687   7.914   2.774  1.00 20.00    -0.022 C 
HETATM    7  C4  UNL     1     -31.484   8.144   3.694  1.00 20.00     0.009 C 
HETATM    8  C5  UNL     1     -32.370   8.437   1.372  1.00 20.00     0.009 C 
ENDBRANCH   5   6
ENDBRANCH   1   5
TORSDOF 3
ENDMDL
MODEL 4
REMARK VINA RESULT:      -5.6      0.974      4.747
REMARK  3 active torsions:
REMARK  status: ('A' for Active; 'I' for Inactive)
REMARK    1  A    between atoms: C2_2  and  C6_6 
REMARK    2  A    between atoms: C6_6  and  C7_7 
REMARK    3  A    between atoms: C7_7  and  C8_8 
ROOT
HETATM    1  C6  UNL     1     -32.068   7.910   3.073  1.00 20.00     0.027 C 
ENDROOT
BRANCH   1   2
HETATM    2  C2  UNL     1     -33.233   6.965   3.102  1.00 20.00    -0.031 C 
HETATM    3  C1  UNL     1     -33.944   6.692   4.206  1.00 20.00    -0.035 C 
HETATM    4  C3  UNL     1     -33.668   7.294   5.543  1.00 20.00     0.035 C 
ENDBRANCH   1   2
BRANCH   1   5
HETATM    5  C7  UNL     1     -31.781   8.467   1.673  1.00 20.00     0.007 C 
BRANCH   5   6
HETATM    6  C8  UNL     1     -32.872   9.389   1.090  1.00 20.00    -0.022 C 
HETATM    7  C4  UNL     1     -32.581  10.841   1.482  1.00 20.00     0.009 C 
HETATM    8  C5  UNL     1     -32.977   9.278  -0.431  1.00 20.00     0.009 C 
ENDBRANCH   5   6
ENDBRANCH   1   5
TORSDOF 3
ENDMDL
MODEL 5
REMARK VINA RESULT:      -5.5      1.008      4.622
REMARK  3 active torsions:
REMARK  status: ('A' for Active; 'I' for Inactive)
REMARK    1  A    between atoms: C2_2  and  C6_6 
REMARK    2  A    between atoms: C6_6  and  C7_7 
REMARK    3  A    between atoms: C7_7  and  C8_8 
ROOT
HETATM    1  C6  UNL     1     -32.282   8.208   2.779  1.00 20.00     0.027 C 
ENDROOT
BRANCH   1   2
HETATM    2  C2  UNL     1     -33.204   7.026   2.860  1.00 20.00    -0.031 C 
HETATM    3  C1  UNL     1     -33.808   6.629   3.989  1.00 20.00    -0.035 C 
HETATM    4  C3  UNL     1     -33.641   7.311   5.306  1.00 20.00     0.035 C 
ENDBRANCH   1   2
BRANCH   1   5
HETATM    5  C7  UNL     1     -31.685   8.408   1.380  1.00 20.00     0.007 C 
BRANCH   5   6
HETATM    6  C8  UNL     1     -32.165   9.668   0.629  1.00 20.00    -0.022 C 
HETATM    7  C4  UNL     1     -33.127   9.263  -0.492  1.00 20.00     0.009 C 
HETATM    8  C5  UNL     1     -32.848  10.674   1.556  1.00 20.00     0.009 C 
ENDBRANCH   5   6
ENDBRANCH   1   5
TORSDOF 3
ENDMDL
MODEL 6
REMARK VINA RESULT:      -5.5      0.799      1.615
REMARK  3 active torsions:
REMARK  status: ('A' for Active; 'I' for Inactive)
REMARK    1  A    between atoms: C2_2  and  C6_6 
REMARK    2  A    between atoms: C6_6  and  C7_7 
REMARK    3  A    between atoms: C7_7  and  C8_8 
ROOT
HETATM    1  C6  UNL     1     -33.284   6.685   2.558  1.00 20.00     0.027 C 
ENDROOT
BRANCH   1   2
HETATM    2  C2  UNL     1     -32.187   7.623   2.969  1.00 20.00    -0.031 C 
HETATM    3  C1  UNL     1     -31.809   8.689   2.249  1.00 20.00    -0.035 C 
HETATM    4  C3  UNL     1     -32.432   9.078   0.949  1.00 20.00     0.035 C 
ENDBRANCH   1   2
BRANCH   1   5
HETATM    5  C7  UNL     1     -34.369   6.523   3.630  1.00 20.00     0.007 C 
BRANCH   5   6
HETATM    6  C8  UNL     1     -33.867   6.079   5.020  1.00 20.00    -0.022 C 
HETATM    7  C4  UNL     1     -33.903   7.269   5.983  1.00 20.00     0.009 C 
HETATM    8  C5  UNL     1     -34.690   4.926   5.595  1.00 20.00     0.009 C 
ENDBRANCH   5   6
ENDBRANCH   1   5
TORSDOF 3
ENDMDL
MODEL 7
REMARK VINA RESULT:      -5.4      0.520      1.325
REMARK  3 active torsions:
REMARK  status: ('A' for Active; 'I' for Inactive)
REMARK    1  A    between atoms: C2_2  and  C6_6 
REMARK    2  A    between atoms: C6_6  and  C7_7 
REMARK    3  A    between atoms: C7_7  and  C8_8 
ROOT
HETATM    1  C6  UNL     1     -32.453   8.032   3.005  1.00 20.00     0.027 C 
ENDROOT
BRANCH   1   2
HETATM    2  C2  UNL     1     -31.752   8.183   1.686  1.00 20.00    -0.031 C 
HETATM    3  C1  UNL     1     -31.929   9.227   0.863  1.00 20.00    -0.035 C 
HETATM    4  C3  UNL     1     -32.846  10.368   1.154  1.00 20.00     0.035 C 
ENDBRANCH   1   2
BRANCH   1   5
HETATM    5  C7  UNL     1     -33.477   6.889   3.012  1.00 20.00     0.007 C 
BRANCH   5   6
HETATM    6  C8  UNL     1     -33.731   6.235   4.386  1.00 20.00    -0.022 C 
HETATM    7  C4  UNL     1     -33.716   7.310   5.477  1.00 20.00     0.009 C 
HETATM    8  C5  UNL     1     -35.056   5.474   4.432  1.00 20.00     0.009 C 
ENDBRANCH   5   6
ENDBRANCH   1   5
TORSDOF 3
ENDMDL
MODEL 8
REMARK VINA RESULT:      -5.2      1.084      4.537
REMARK  3 active torsions:
REMARK  status: ('A' for Active; 'I' for Inactive)
REMARK    1  A    between atoms: C2_2  and  C6_6 
REMARK    2  A    between atoms: C6_6  and  C7_7 
REMARK    3  A    between atoms: C7_7  and  C8_8 
ROOT
HETATM    1  C6  UNL     1     -34.184   7.233   4.626  1.00 20.00     0.027 C 
ENDROOT
BRANCH   1   2
HETATM    2  C2  UNL     1     -34.314   6.363   5.843  1.00 20.00    -0.031 C 
HETATM    3  C1  UNL     1     -34.460   5.031   5.794  1.00 20.00    -0.035 C 
HETATM    4  C3  UNL     1     -34.511   4.246   4.526  1.00 20.00     0.035 C 
ENDBRANCH   1   2
BRANCH   1   5
HETATM    5  C7  UNL     1     -32.753   7.737   4.399  1.00 20.00     0.007 C 
BRANCH   5   6
HETATM    6  C8  UNL     1     -32.162   7.448   3.004  1.00 20.00    -0.022 C 
HETATM    7  C4  UNL     1     -33.023   6.405   2.286  1.00 20.00     0.009 C 
HETATM    8  C5  UNL     1     -32.055   8.708   2.145  1.00 20.00     0.009 C 
ENDBRANCH   5   6
ENDBRANCH   1   5
TORSDOF 3
ENDMDL
MODEL 9
REMARK VINA RESULT:      -4.2      1.707      2.434
REMARK  3 active torsions:
REMARK  status: ('A' for Active; 'I' for Inactive)
REMARK    1  A    between atoms: C2_2  and  C6_6 
REMARK    2  A    between atoms: C6_6  and  C7_7 
REMARK    3  A    between atoms: C7_7  and  C8_8 
ROOT
HETATM    1  C6  UNL     1     -33.270   6.746   2.491  1.00 20.00     0.027 C 
ENDROOT
BRANCH   1   2
HETATM    2  C2  UNL     1     -32.101   7.572   2.943  1.00 20.00    -0.031 C 
HETATM    3  C1  UNL     1     -31.990   8.099   4.170  1.00 20.00    -0.035 C 
HETATM    4  C3  UNL     1     -33.014   7.930   5.243  1.00 20.00     0.035 C 
ENDBRANCH   1   2
BRANCH   1   5
HETATM    5  C7  UNL     1     -33.226   5.305   3.018  1.00 20.00     0.007 C 
BRANCH   5   6
HETATM    6  C8  UNL     1     -34.485   4.839   3.778  1.00 20.00    -0.022 C 
HETATM    7  C4  UNL     1     -34.105   4.442   5.208  1.00 20.00     0.009 C 
HETATM    8  C5  UNL     1     -35.574   5.912   3.814  1.00 20.00     0.009 C 
ENDBRANCH   5   6
ENDBRANCH   1   5
TORSDOF 3
ENDMDL
