MODEL 1
REMARK VINA RESULT:      -5.7      0.000      0.000
REMARK  3 active torsions:
REMARK  status: ('A' for Active; 'I' for Inactive)
REMARK    1  A    between atoms: C5_5  and  C7_7 
REMARK    2  A    between atoms: C5_5  and  N8_8 
REMARK    3  A    between atoms: C6_6  and  C7_7 
ROOT
HETATM    1  C1  UNL     1     -32.403   8.791   1.660  1.00 20.00     0.157 C 
HETATM    2  N8  UNL     1     -32.180   7.726   2.100  1.00 20.00    -0.275 NA
HETATM    3  S9  UNL     1     -32.692  10.229   1.036  1.00 20.00    -0.055 SA
ENDROOT
BRANCH   2   4
HETATM    4  C5  UNL     1     -32.742   7.480   3.430  1.00 20.00     0.155 C 
BRANCH   4   5
HETATM    5  C7  UNL     1     -33.822   6.385   3.374  1.00 20.00     0.005 C 
HETATM    6  C4  UNL     1     -33.209   5.082   2.839  1.00 20.00     0.012 C 
BRANCH   5   7
HETATM    7  C6  UNL     1     -34.557   6.173   4.732  1.00 20.00    -0.017 C 
HETATM    8  C2  UNL     1     -34.566   4.698   5.155  1.00 20.00     0.010 C 
HETATM    9  C3  UNL     1     -33.933   7.001   5.862  1.00 20.00     0.010 C 
ENDBRANCH   5   7
ENDBRANCH   4   5
ENDBRANCH   2   4
TORSDOF 3
ENDMDL
MODEL 2
REMARK VINA RESULT:      -4.9      0.788      1.925
REMARK  3 active torsions:
REMARK  status: ('A' for Active; 'I' for Inactive)
REMARK    1  A    between atoms: C5_5  and  C7_7 
REMARK    2  A    between atoms: C5_5  and  N8_8 
REMARK    3  A    between atoms: C6_6  and  C7_7 
ROOT
HETATM    1  C1  UNL     1     -32.148   8.682   1.814  1.00 20.00     0.157 C 
HETATM    2  N8  UNL     1     -32.113   8.120   2.844  1.00 20.00    -0.275 NA
HETATM    3  S9  UNL     1     -32.167   9.440   0.413  1.00 20.00    -0.055 SA
ENDROOT
BRANCH   2   4
HETATM    4  C5  UNL     1     -33.412   7.954   3.500  1.00 20.00     0.155 C 
BRANCH   4   5
HETATM    5  C7  UNL     1     -33.400   6.735   4.440  1.00 20.00     0.005 C 
HETATM    6  C4  UNL     1     -33.892   7.154   5.834  1.00 20.00     0.012 C 
BRANCH   5   7
HETATM    7  C6  UNL     1     -34.193   5.516   3.881  1.00 20.00    -0.017 C 
HETATM    8  C2  UNL     1     -33.395   4.750   2.818  1.00 20.00     0.010 C 
HETATM    9  C3  UNL     1     -34.599   4.534   4.987  1.00 20.00     0.010 C 
ENDBRANCH   5   7
ENDBRANCH   4   5
ENDBRANCH   2   4
TORSDOF 3
ENDMDL
MODEL 3
REMARK VINA RESULT:      -4.5      2.749      4.734
REMARK  3 active torsions:
REMARK  status: ('A' for Active; 'I' for Inactive)
REMARK    1  A    between atoms: C5_5  and  C7_7 
REMARK    2  A    between atoms: C5_5  and  N8_8 
REMARK    3  A    between atoms: C6_6  and  C7_7 
ROOT
HETATM    1  C1  UNL     1     -34.382   5.806   4.059  1.00 20.00     0.157 C 
HETATM    2  N8  UNL     1     -34.260   6.151   2.943  1.00 20.00    -0.275 NA
HETATM    3  S9  UNL     1     -34.578   5.333   5.568  1.00 20.00    -0.055 SA
ENDROOT
BRANCH   2   4
HETATM    4  C5  UNL     1     -32.898   6.531   2.562  1.00 20.00     0.155 C 
BRANCH   4   5
HETATM    5  C7  UNL     1     -32.702   8.054   2.676  1.00 20.00     0.005 C 
HETATM    6  C4  UNL     1     -31.477   8.353   3.553  1.00 20.00     0.012 C 
BRANCH   5   7
HETATM    7  C6  UNL     1     -32.622   8.771   1.295  1.00 20.00    -0.017 C 
HETATM    8  C2  UNL     1     -32.937  10.268   1.406  1.00 20.00     0.010 C 
HETATM    9  C3  UNL     1     -31.245   8.609   0.638  1.00 20.00     0.010 C 
ENDBRANCH   5   7
ENDBRANCH   4   5
ENDBRANCH   2   4
TORSDOF 3
ENDMDL
MODEL 4
REMARK VINA RESULT:      -3.8      2.575      4.915
REMARK  3 active torsions:
REMARK  status: ('A' for Active; 'I' for Inactive)
REMARK    1  A    between atoms: C5_5  and  C7_7 
REMARK    2  A    between atoms: C5_5  and  N8_8 
REMARK    3  A    between atoms: C6_6  and  C7_7 
ROOT
HETATM    1  C1  UNL     1     -33.812   6.625   3.964  1.00 20.00     0.157 C 
HETATM    2  N8  UNL     1     -33.063   7.452   3.599  1.00 20.00    -0.275 NA
HETATM    3  S9  UNL     1     -34.830   5.515   4.485  1.00 20.00    -0.055 SA
ENDROOT
BRANCH   2   4
HETATM    4  C5  UNL     1     -32.679   7.357   2.189  1.00 20.00     0.155 C 
BRANCH   4   5
HETATM    5  C7  UNL     1     -32.021   8.664   1.711  1.00 20.00     0.005 C 
HETATM    6  C4  UNL     1     -30.972   8.349   0.633  1.00 20.00     0.012 C 
BRANCH   5   7
HETATM    7  C6  UNL     1     -33.048   9.733   1.233  1.00 20.00    -0.017 C 
HETATM    8  C2  UNL     1     -32.658  11.146   1.684  1.00 20.00     0.010 C 
HETATM    9  C3  UNL     1     -33.214   9.736  -0.292  1.00 20.00     0.010 C 
ENDBRANCH   5   7
ENDBRANCH   4   5
ENDBRANCH   2   4
TORSDOF 3
ENDMDL
MODEL 5
REMARK VINA RESULT:      -3.7     11.562     12.200
REMARK  3 active torsions:
REMARK  status: ('A' for Active; 'I' for Inactive)
REMARK    1  A    between atoms: C5_5  and  C7_7 
REMARK    2  A    between atoms: C5_5  and  N8_8 
REMARK    3  A    between atoms: C6_6  and  C7_7 
ROOT
HETATM    1  C1  UNL     1     -31.298  18.651   0.634  1.00 20.00     0.157 C 
HETATM    2  N8  UNL     1     -31.453  18.393  -0.500  1.00 20.00    -0.275 NA
HETATM    3  S9  UNL     1     -31.057  18.993   2.172  1.00 20.00    -0.055 SA
ENDROOT
BRANCH   2   4
HETATM    4  C5  UNL     1     -32.791  18.688  -1.021  1.00 20.00     0.155 C 
BRANCH   4   5
HETATM    5  C7  UNL     1     -33.606  17.395  -1.200  1.00 20.00     0.005 C 
HETATM    6  C4  UNL     1     -35.016  17.589  -0.620  1.00 20.00     0.012 C 
BRANCH   5   7
HETATM    7  C6  UNL     1     -33.643  16.887  -2.672  1.00 20.00    -0.017 C 
HETATM    8  C2  UNL     1     -34.911  16.075  -2.968  1.00 20.00     0.010 C 
HETATM    9  C3  UNL     1     -33.554  18.038  -3.683  1.00 20.00     0.010 C 
ENDBRANCH   5   7
ENDBRANCH   4   5
ENDBRANCH   2   4
TORSDOF 3
ENDMDL
MODEL 6
REMARK VINA RESULT:      -3.6     11.497     12.115
REMARK  3 active torsions:
REMARK  status: ('A' for Active; 'I' for Inactive)
REMARK    1  A    between atoms: C5_5  and  C7_7 
REMARK    2  A    between atoms: C5_5  and  N8_8 
REMARK    3  A    between atoms: C6_6  and  C7_7 
ROOT
HETATM    1  C1  UNL     1     -38.798  14.650  -5.194  1.00 20.00     0.157 C 
HETATM    2  N8  UNL     1     -37.827  14.052  -4.915  1.00 20.00    -0.275 NA
HETATM    3  S9  UNL     1     -40.130  15.436  -5.577  1.00 20.00    -0.055 SA
ENDROOT
BRANCH   2   4
HETATM    4  C5  UNL     1     -36.687  14.882  -4.515  1.00 20.00     0.155 C 
BRANCH   4   5
HETATM    5  C7  UNL     1     -35.365  14.111  -4.678  1.00 20.00     0.005 C 
HETATM    6  C4  UNL     1     -35.099  13.852  -6.169  1.00 20.00     0.012 C 
BRANCH   5   7
HETATM    7  C6  UNL     1     -34.156  14.802  -3.979  1.00 20.00    -0.017 C 
HETATM    8  C2  UNL     1     -33.120  15.308  -4.991  1.00 20.00     0.010 C 
HETATM    9  C3  UNL     1     -34.594  15.981  -3.100  1.00 20.00     0.010 C 
ENDBRANCH   5   7
ENDBRANCH   4   5
ENDBRANCH   2   4
TORSDOF 3
ENDMDL
MODEL 7
REMARK VINA RESULT:      -3.5     11.154     11.668
REMARK  3 active torsions:
REMARK  status: ('A' for Active; 'I' for Inactive)
REMARK    1  A    between atoms: C5_5  and  C7_7 
REMARK    2  A    between atoms: C5_5  and  N8_8 
REMARK    3  A    between atoms: C6_6  and  C7_7 
ROOT
HETATM    1  C1  UNL     1     -34.439  14.683  -4.459  1.00 20.00     0.157 C 
HETATM    2  N8  UNL     1     -33.492  15.243  -4.049  1.00 20.00    -0.275 NA
HETATM    3  S9  UNL     1     -35.708  13.897  -5.018  1.00 20.00    -0.055 SA
ENDROOT
BRANCH   2   4
HETATM    4  C5  UNL     1     -33.720  16.638  -3.665  1.00 20.00     0.155 C 
BRANCH   4   5
HETATM    5  C7  UNL     1     -33.819  16.776  -2.136  1.00 20.00     0.005 C 
HETATM    6  C4  UNL     1     -33.034  18.016  -1.678  1.00 20.00     0.012 C 
BRANCH   5   7
HETATM    7  C6  UNL     1     -35.285  16.785  -1.609  1.00 20.00    -0.017 C 
HETATM    8  C2  UNL     1     -35.400  17.461  -0.237  1.00 20.00     0.010 C 
HETATM    9  C3  UNL     1     -36.244  17.486  -2.581  1.00 20.00     0.010 C 
ENDBRANCH   5   7
ENDBRANCH   4   5
ENDBRANCH   2   4
TORSDOF 3
ENDMDL
MODEL 8
REMARK VINA RESULT:      -3.5     11.525     12.069
REMARK  3 active torsions:
REMARK  status: ('A' for Active; 'I' for Inactive)
REMARK    1  A    between atoms: C5_5  and  C7_7 
REMARK    2  A    between atoms: C5_5  and  N8_8 
REMARK    3  A    between atoms: C6_6  and  C7_7 
ROOT
HETATM    1  C1  UNL     1     -33.383  16.026  -6.058  1.00 20.00     0.157 C 
HETATM    2  N8  UNL     1     -32.853  15.540  -5.130  1.00 20.00    -0.275 NA
HETATM    3  S9  UNL     1     -34.077  16.687  -7.331  1.00 20.00    -0.055 SA
ENDROOT
BRANCH   2   4
HETATM    4  C5  UNL     1     -33.756  15.102  -4.063  1.00 20.00     0.155 C 
BRANCH   4   5
HETATM    5  C7  UNL     1     -34.556  16.291  -3.501  1.00 20.00     0.005 C 
HETATM    6  C4  UNL     1     -36.057  15.959  -3.522  1.00 20.00     0.012 C 
BRANCH   5   7
HETATM    7  C6  UNL     1     -34.077  16.745  -2.090  1.00 20.00    -0.017 C 
HETATM    8  C2  UNL     1     -33.169  17.980  -2.163  1.00 20.00     0.010 C 
HETATM    9  C3  UNL     1     -35.251  17.058  -1.153  1.00 20.00     0.010 C 
ENDBRANCH   5   7
ENDBRANCH   4   5
ENDBRANCH   2   4
TORSDOF 3
ENDMDL
MODEL 9
REMARK VINA RESULT:      -3.5     11.320     11.890
REMARK  3 active torsions:
REMARK  status: ('A' for Active; 'I' for Inactive)
REMARK    1  A    between atoms: C5_5  and  C7_7 
REMARK    2  A    between atoms: C5_5  and  N8_8 
REMARK    3  A    between atoms: C6_6  and  C7_7 
ROOT
HETATM    1  C1  UNL     1     -34.777  13.799  -5.600  1.00 20.00     0.157 C 
HETATM    2  N8  UNL     1     -34.423  13.982  -4.496  1.00 20.00    -0.275 NA
HETATM    3  S9  UNL     1     -35.245  13.524  -7.099  1.00 20.00    -0.055 SA
ENDROOT
BRANCH   2   4
HETATM    4  C5  UNL     1     -34.893  15.235  -3.898  1.00 20.00     0.155 C 
BRANCH   4   5
HETATM    5  C7  UNL     1     -33.710  16.166  -3.578  1.00 20.00     0.005 C 
HETATM    6  C4  UNL     1     -33.602  17.253  -4.659  1.00 20.00     0.012 C 
BRANCH   5   7
HETATM    7  C6  UNL     1     -33.770  16.770  -2.144  1.00 20.00    -0.017 C 
HETATM    8  C2  UNL     1     -33.133  18.164  -2.080  1.00 20.00     0.010 C 
HETATM    9  C3  UNL     1     -35.208  16.866  -1.617  1.00 20.00     0.010 C 
ENDBRANCH   5   7
ENDBRANCH   4   5
ENDBRANCH   2   4
TORSDOF 3
ENDMDL
