MODEL 1
REMARK VINA RESULT:      -4.1      0.000      0.000
REMARK  1 active torsions:
REMARK  status: ('A' for Active; 'I' for Inactive)
REMARK       I    between atoms: C1_1  and  N8_8 
REMARK    1  A    between atoms: C5_5  and  N8_8 
ROOT
HETATM    1  C2  UNL     1     -33.700  16.106  -3.651  1.00 20.00     0.036 C 
HETATM    2  C3  UNL     1     -34.066  16.658  -2.282  1.00 20.00     0.076 C 
HETATM    3  C4  UNL     1     -36.125  16.065  -3.907  1.00 20.00     0.099 C 
HETATM    4  C5  UNL     1     -34.867  15.227  -4.081  1.00 20.00     0.096 C 
HETATM    5  S10 UNL     1     -35.848  16.993  -2.369  1.00 20.00    -0.167 SA
ENDROOT
BRANCH   4   6
HETATM    6  N8  UNL     1     -34.717  14.758  -5.433  1.00 20.00    -0.351 N 
HETATM    7  C1  UNL     1     -35.291  13.553  -5.871  1.00 20.00     0.215 C 
HETATM    8  C6  UNL     1     -35.066  13.164  -7.311  1.00 20.00     0.117 C 
HETATM    9  O9  UNL     1     -35.958  12.812  -5.144  1.00 20.00    -0.274 OA
HETATM   10  C7  UNL     1     -33.929  15.615  -6.327  1.00 20.00     0.153 C 
ENDBRANCH   4   6
TORSDOF 1
ENDMDL
MODEL 2
REMARK VINA RESULT:      -3.8     11.613     12.121
REMARK  1 active torsions:
REMARK  status: ('A' for Active; 'I' for Inactive)
REMARK       I    between atoms: C1_1  and  N8_8 
REMARK    1  A    between atoms: C5_5  and  N8_8 
ROOT
HETATM    1  C2  UNL     1     -31.790   7.857   3.664  1.00 20.00     0.036 C 
HETATM    2  C3  UNL     1     -31.394   9.080   2.851  1.00 20.00     0.076 C 
HETATM    3  C4  UNL     1     -33.356   7.558   1.818  1.00 20.00     0.099 C 
HETATM    4  C5  UNL     1     -33.253   7.583   3.337  1.00 20.00     0.096 C 
HETATM    5  S10 UNL     1     -32.249   8.887   1.261  1.00 20.00    -0.167 SA
ENDROOT
BRANCH   4   6
HETATM    6  N8  UNL     1     -33.715   6.356   3.927  1.00 20.00    -0.351 N 
HETATM    7  C1  UNL     1     -34.132   6.284   5.267  1.00 20.00     0.215 C 
HETATM    8  C6  UNL     1     -34.596   4.942   5.776  1.00 20.00     0.117 C 
HETATM    9  O9  UNL     1     -34.136   7.253   6.031  1.00 20.00    -0.274 OA
HETATM   10  C7  UNL     1     -33.724   5.182   3.045  1.00 20.00     0.153 C 
ENDBRANCH   4   6
TORSDOF 1
ENDMDL
MODEL 3
REMARK VINA RESULT:      -3.7      1.474      1.731
REMARK  1 active torsions:
REMARK  status: ('A' for Active; 'I' for Inactive)
REMARK       I    between atoms: C1_1  and  N8_8 
REMARK    1  A    between atoms: C5_5  and  N8_8 
ROOT
HETATM    1  C2  UNL     1     -33.400  17.406  -2.505  1.00 20.00     0.036 C 
HETATM    2  C3  UNL     1     -33.756  17.705  -1.056  1.00 20.00     0.076 C 
HETATM    3  C4  UNL     1     -35.685  16.552  -2.534  1.00 20.00     0.099 C 
HETATM    4  C5  UNL     1     -34.251  16.210  -2.914  1.00 20.00     0.096 C 
HETATM    5  S10 UNL     1     -35.544  17.412  -0.940  1.00 20.00    -0.167 SA
ENDROOT
BRANCH   4   6
HETATM    6  N8  UNL     1     -34.123  15.915  -4.315  1.00 20.00    -0.351 N 
HETATM    7  C1  UNL     1     -34.277  14.612  -4.819  1.00 20.00     0.215 C 
HETATM    8  C6  UNL     1     -34.120  14.422  -6.307  1.00 20.00     0.117 C 
HETATM    9  O9  UNL     1     -34.532  13.634  -4.111  1.00 20.00    -0.274 OA
HETATM   10  C7  UNL     1     -33.820  17.055  -5.189  1.00 20.00     0.153 C 
ENDBRANCH   4   6
TORSDOF 1
ENDMDL
MODEL 4
REMARK VINA RESULT:      -3.7      3.485      5.349
REMARK  1 active torsions:
REMARK  status: ('A' for Active; 'I' for Inactive)
REMARK       I    between atoms: C1_1  and  N8_8 
REMARK    1  A    between atoms: C5_5  and  N8_8 
ROOT
HETATM    1  C2  UNL     1     -34.384  15.494  -3.436  1.00 20.00     0.036 C 
HETATM    2  C3  UNL     1     -33.942  15.169  -4.855  1.00 20.00     0.076 C 
HETATM    3  C4  UNL     1     -33.790  17.755  -4.132  1.00 20.00     0.099 C 
HETATM    4  C5  UNL     1     -33.601  16.732  -3.020  1.00 20.00     0.096 C 
HETATM    5  S10 UNL     1     -33.733  16.781  -5.665  1.00 20.00    -0.167 SA
ENDROOT
BRANCH   4   6
HETATM    6  N8  UNL     1     -34.035  17.239  -1.746  1.00 20.00    -0.351 N 
HETATM    7  C1  UNL     1     -33.189  17.997  -0.918  1.00 20.00     0.215 C 
HETATM    8  C6  UNL     1     -33.754  18.475   0.396  1.00 20.00     0.117 C 
HETATM    9  O9  UNL     1     -32.026  18.285  -1.214  1.00 20.00    -0.274 OA
HETATM   10  C7  UNL     1     -35.415  16.916  -1.360  1.00 20.00     0.153 C 
ENDBRANCH   4   6
TORSDOF 1
ENDMDL
MODEL 5
REMARK VINA RESULT:      -3.7     11.024     11.522
REMARK  1 active torsions:
REMARK  status: ('A' for Active; 'I' for Inactive)
REMARK       I    between atoms: C1_1  and  N8_8 
REMARK    1  A    between atoms: C5_5  and  N8_8 
ROOT
HETATM    1  C2  UNL     1     -33.439   5.683   3.129  1.00 20.00     0.036 C 
HETATM    2  C3  UNL     1     -34.481   4.990   3.994  1.00 20.00     0.076 C 
HETATM    3  C4  UNL     1     -33.508   7.310   4.945  1.00 20.00     0.099 C 
HETATM    4  C5  UNL     1     -33.558   7.172   3.430  1.00 20.00     0.096 C 
HETATM    5  S10 UNL     1     -34.468   5.898   5.566  1.00 20.00    -0.167 SA
ENDROOT
BRANCH   4   6
HETATM    6  N8  UNL     1     -32.523   7.934   2.787  1.00 20.00    -0.351 N 
HETATM    7  C1  UNL     1     -32.642   8.383   1.460  1.00 20.00     0.215 C 
HETATM    8  C6  UNL     1     -31.491   9.174   0.891  1.00 20.00     0.117 C 
HETATM    9  O9  UNL     1     -33.630   8.163   0.754  1.00 20.00    -0.274 OA
HETATM   10  C7  UNL     1     -31.332   8.216   3.598  1.00 20.00     0.153 C 
ENDBRANCH   4   6
TORSDOF 1
ENDMDL
MODEL 6
REMARK VINA RESULT:      -3.6      2.613      4.394
REMARK  1 active torsions:
REMARK  status: ('A' for Active; 'I' for Inactive)
REMARK       I    between atoms: C1_1  and  N8_8 
REMARK    1  A    between atoms: C5_5  and  N8_8 
ROOT
HETATM    1  C2  UNL     1     -35.788  13.558  -5.937  1.00 20.00     0.036 C 
HETATM    2  C3  UNL     1     -35.087  13.013  -7.172  1.00 20.00     0.076 C 
HETATM    3  C4  UNL     1     -34.453  15.529  -6.466  1.00 20.00     0.099 C 
HETATM    4  C5  UNL     1     -34.845  14.591  -5.333  1.00 20.00     0.096 C 
HETATM    5  S10 UNL     1     -34.250  14.445  -7.910  1.00 20.00    -0.167 SA
ENDROOT
BRANCH   4   6
HETATM    6  N8  UNL     1     -35.453  15.297  -4.238  1.00 20.00    -0.351 N 
HETATM    7  C1  UNL     1     -34.687  15.939  -3.249  1.00 20.00     0.215 C 
HETATM    8  C6  UNL     1     -35.435  16.649  -2.148  1.00 20.00     0.117 C 
HETATM    9  O9  UNL     1     -33.453  15.949  -3.243  1.00 20.00    -0.274 OA
HETATM   10  C7  UNL     1     -36.921  15.307  -4.213  1.00 20.00     0.153 C 
ENDBRANCH   4   6
TORSDOF 1
ENDMDL
MODEL 7
REMARK VINA RESULT:      -3.5      4.770      6.641
REMARK  1 active torsions:
REMARK  status: ('A' for Active; 'I' for Inactive)
REMARK       I    between atoms: C1_1  and  N8_8 
REMARK    1  A    between atoms: C5_5  and  N8_8 
ROOT
HETATM    1  C2  UNL     1     -35.155  17.151  -0.792  1.00 20.00     0.036 C 
HETATM    2  C3  UNL     1     -35.660  16.666  -2.142  1.00 20.00     0.076 C 
HETATM    3  C4  UNL     1     -34.025  18.801  -2.188  1.00 20.00     0.099 C 
HETATM    4  C5  UNL     1     -33.807  17.811  -1.053  1.00 20.00     0.096 C 
HETATM    5  S10 UNL     1     -35.167  17.956  -3.321  1.00 20.00    -0.167 SA
ENDROOT
BRANCH   4   6
HETATM    6  N8  UNL     1     -33.285  18.450   0.124  1.00 20.00    -0.351 N 
HETATM    7  C1  UNL     1     -31.904  18.568   0.357  1.00 20.00     0.215 C 
HETATM    8  C6  UNL     1     -31.473  19.259   1.628  1.00 20.00     0.117 C 
HETATM    9  O9  UNL     1     -31.044  18.140  -0.417  1.00 20.00    -0.274 OA
HETATM   10  C7  UNL     1     -34.280  18.973   1.069  1.00 20.00     0.153 C 
ENDBRANCH   4   6
TORSDOF 1
ENDMDL
MODEL 8
REMARK VINA RESULT:      -3.5     11.605     12.035
REMARK  1 active torsions:
REMARK  status: ('A' for Active; 'I' for Inactive)
REMARK       I    between atoms: C1_1  and  N8_8 
REMARK    1  A    between atoms: C5_5  and  N8_8 
ROOT
HETATM    1  C2  UNL     1     -34.046   7.205   4.828  1.00 20.00     0.036 C 
HETATM    2  C3  UNL     1     -34.329   6.239   5.969  1.00 20.00     0.076 C 
HETATM    3  C4  UNL     1     -33.969   5.133   3.544  1.00 20.00     0.099 C 
HETATM    4  C5  UNL     1     -33.219   6.431   3.810  1.00 20.00     0.096 C 
HETATM    5  S10 UNL     1     -34.612   4.634   5.168  1.00 20.00    -0.167 SA
ENDROOT
BRANCH   4   6
HETATM    6  N8  UNL     1     -33.008   7.186   2.604  1.00 20.00    -0.351 N 
HETATM    7  C1  UNL     1     -32.020   8.181   2.512  1.00 20.00     0.215 C 
HETATM    8  C6  UNL     1     -31.890   8.907   1.196  1.00 20.00     0.117 C 
HETATM    9  O9  UNL     1     -31.266   8.480   3.442  1.00 20.00    -0.274 OA
HETATM   10  C7  UNL     1     -33.887   6.856   1.475  1.00 20.00     0.153 C 
ENDBRANCH   4   6
TORSDOF 1
ENDMDL
MODEL 9
REMARK VINA RESULT:      -3.4      1.677      2.272
REMARK  1 active torsions:
REMARK  status: ('A' for Active; 'I' for Inactive)
REMARK       I    between atoms: C1_1  and  N8_8 
REMARK    1  A    between atoms: C5_5  and  N8_8 
ROOT
HETATM    1  C2  UNL     1     -36.174  15.954  -3.593  1.00 20.00     0.036 C 
HETATM    2  C3  UNL     1     -35.960  17.029  -2.539  1.00 20.00     0.076 C 
HETATM    3  C4  UNL     1     -33.736  15.906  -3.550  1.00 20.00     0.099 C 
HETATM    4  C5  UNL     1     -34.937  15.978  -4.482  1.00 20.00     0.096 C 
HETATM    5  S10 UNL     1     -34.193  16.947  -2.132  1.00 20.00    -0.167 SA
ENDROOT
BRANCH   4   6
HETATM    6  N8  UNL     1     -34.941  14.903  -5.437  1.00 20.00    -0.351 N 
HETATM    7  C1  UNL     1     -34.255  14.990  -6.660  1.00 20.00     0.215 C 
HETATM    8  C6  UNL     1     -34.330  13.799  -7.583  1.00 20.00     0.117 C 
HETATM    9  O9  UNL     1     -33.605  15.980  -7.007  1.00 20.00    -0.274 OA
HETATM   10  C7  UNL     1     -35.704  13.707  -5.057  1.00 20.00     0.153 C 
ENDBRANCH   4   6
TORSDOF 1
ENDMDL
