MODEL 1
REMARK VINA RESULT:      -5.5      0.000      0.000
REMARK  3 active torsions:
REMARK  status: ('A' for Active; 'I' for Inactive)
REMARK    1  A    between atoms: C1_1  and  C8_8 
REMARK       I    between atoms: C1_1  and  N10_10 
REMARK    2  A    between atoms: C4_4  and  C9_9 
REMARK    3  A    between atoms: C9_9  and  N10_10 
ROOT
HETATM    1  C1  UNL     1     -33.958   6.715   4.868  1.00 20.00     0.219 C 
HETATM    2  C7  UNL     1     -32.151   8.448   4.857  1.00 20.00     0.152 C 
HETATM    3  N10 UNL     1     -32.977   7.449   4.191  1.00 20.00    -0.356 N 
HETATM    4  O11 UNL     1     -34.201   6.854   6.069  1.00 20.00    -0.273 OA
ENDROOT
BRANCH   3   5
HETATM    5  C9  UNL     1     -32.706   7.267   2.768  1.00 20.00     0.130 C 
BRANCH   5   6
HETATM    6  C4  UNL     1     -32.006   8.454   2.198  1.00 20.00     0.008 A 
HETATM    7  C2  UNL     1     -31.501   8.426   0.779  1.00 20.00     0.011 A 
HETATM    8  C3  UNL     1     -32.678   9.293   1.142  1.00 20.00    -0.013 A 
HETATM    9  C5  UNL     1     -32.538  10.775   1.163  1.00 20.00     0.010 C 
ENDBRANCH   5   6
ENDBRANCH   3   5
BRANCH   1  10
HETATM   10  C8  UNL     1     -34.736   5.706   4.034  1.00 20.00     0.098 C 
HETATM   11  C6  UNL     1     -34.448   4.268   4.434  1.00 20.00     0.014 C 
ENDBRANCH   1  10
TORSDOF 3
ENDMDL
MODEL 2
REMARK VINA RESULT:      -4.9      2.103      4.862
REMARK  3 active torsions:
REMARK  status: ('A' for Active; 'I' for Inactive)
REMARK    1  A    between atoms: C1_1  and  C8_8 
REMARK       I    between atoms: C1_1  and  N10_10 
REMARK    2  A    between atoms: C4_4  and  C9_9 
REMARK    3  A    between atoms: C9_9  and  N10_10 
ROOT
HETATM    1  C1  UNL     1     -32.448   8.946   1.694  1.00 20.00     0.219 C 
HETATM    2  C7  UNL     1     -31.567   8.323   3.953  1.00 20.00     0.152 C 
HETATM    3  N10 UNL     1     -32.322   8.028   2.742  1.00 20.00    -0.356 N 
HETATM    4  O11 UNL     1     -31.933  10.068   1.708  1.00 20.00    -0.273 OA
ENDROOT
BRANCH   3   5
HETATM    5  C9  UNL     1     -32.941   6.705   2.703  1.00 20.00     0.130 C 
BRANCH   5   6
HETATM    6  C4  UNL     1     -33.921   6.538   3.814  1.00 20.00     0.008 A 
HETATM    7  C2  UNL     1     -35.322   6.066   3.522  1.00 20.00     0.011 A 
HETATM    8  C3  UNL     1     -34.355   5.158   4.236  1.00 20.00    -0.013 A 
HETATM    9  C5  UNL     1     -34.550   4.845   5.679  1.00 20.00     0.010 C 
ENDBRANCH   5   6
ENDBRANCH   3   5
BRANCH   1  10
HETATM   10  C8  UNL     1     -33.271   8.491   0.497  1.00 20.00     0.098 C 
HETATM   11  C6  UNL     1     -33.197   9.463  -0.670  1.00 20.00     0.014 C 
ENDBRANCH   1  10
TORSDOF 3
ENDMDL
MODEL 3
REMARK VINA RESULT:      -4.7      1.496      2.316
REMARK  3 active torsions:
REMARK  status: ('A' for Active; 'I' for Inactive)
REMARK    1  A    between atoms: C1_1  and  C8_8 
REMARK       I    between atoms: C1_1  and  N10_10 
REMARK    2  A    between atoms: C4_4  and  C9_9 
REMARK    3  A    between atoms: C9_9  and  N10_10 
ROOT
HETATM    1  C1  UNL     1     -34.173   6.153   3.996  1.00 20.00     0.219 C 
HETATM    2  C7  UNL     1     -32.990   4.867   2.202  1.00 20.00     0.152 C 
HETATM    3  N10 UNL     1     -33.165   6.054   3.031  1.00 20.00    -0.356 N 
HETATM    4  O11 UNL     1     -34.986   5.253   4.223  1.00 20.00    -0.273 OA
ENDROOT
BRANCH   3   5
HETATM    5  C9  UNL     1     -32.213   7.132   2.779  1.00 20.00     0.130 C 
BRANCH   5   6
HETATM    6  C4  UNL     1     -32.846   8.237   2.002  1.00 20.00     0.008 A 
HETATM    7  C2  UNL     1     -32.284   9.633   2.076  1.00 20.00     0.011 A 
HETATM    8  C3  UNL     1     -32.135   8.828   0.812  1.00 20.00    -0.013 A 
HETATM    9  C5  UNL     1     -32.903   9.202  -0.408  1.00 20.00     0.010 C 
ENDBRANCH   5   6
ENDBRANCH   3   5
BRANCH   1  10
HETATM   10  C8  UNL     1     -34.226   7.457   4.779  1.00 20.00     0.098 C 
HETATM   11  C6  UNL     1     -33.644   7.327   6.177  1.00 20.00     0.014 C 
ENDBRANCH   1  10
TORSDOF 3
ENDMDL
MODEL 4
REMARK VINA RESULT:      -4.4     10.612     11.352
REMARK  3 active torsions:
REMARK  status: ('A' for Active; 'I' for Inactive)
REMARK    1  A    between atoms: C1_1  and  C8_8 
REMARK       I    between atoms: C1_1  and  N10_10 
REMARK    2  A    between atoms: C4_4  and  C9_9 
REMARK    3  A    between atoms: C9_9  and  N10_10 
ROOT
HETATM    1  C1  UNL     1     -35.839  13.935  -4.910  1.00 20.00     0.219 C 
HETATM    2  C7  UNL     1     -33.406  14.313  -4.454  1.00 20.00     0.152 C 
HETATM    3  N10 UNL     1     -34.796  14.752  -4.461  1.00 20.00    -0.356 N 
HETATM    4  O11 UNL     1     -35.669  12.788  -5.331  1.00 20.00    -0.273 OA
ENDROOT
BRANCH   3   5
HETATM    5  C9  UNL     1     -35.021  16.108  -3.966  1.00 20.00     0.130 C 
BRANCH   5   6
HETATM    6  C4  UNL     1     -34.665  16.220  -2.522  1.00 20.00     0.008 A 
HETATM    7  C2  UNL     1     -33.580  17.167  -2.082  1.00 20.00     0.011 A 
HETATM    8  C3  UNL     1     -35.019  17.464  -1.751  1.00 20.00    -0.013 A 
HETATM    9  C5  UNL     1     -35.501  17.362  -0.346  1.00 20.00     0.010 C 
ENDBRANCH   5   6
ENDBRANCH   3   5
BRANCH   1  10
HETATM   10  C8  UNL     1     -37.235  14.538  -4.856  1.00 20.00     0.098 C 
HETATM   11  C6  UNL     1     -37.739  14.973  -6.223  1.00 20.00     0.014 C 
ENDBRANCH   1  10
TORSDOF 3
ENDMDL
MODEL 5
REMARK VINA RESULT:      -4.2     11.000     11.632
REMARK  3 active torsions:
REMARK  status: ('A' for Active; 'I' for Inactive)
REMARK    1  A    between atoms: C1_1  and  C8_8 
REMARK       I    between atoms: C1_1  and  N10_10 
REMARK    2  A    between atoms: C4_4  and  C9_9 
REMARK    3  A    between atoms: C9_9  and  N10_10 
ROOT
HETATM    1  C1  UNL     1     -36.955  14.431  -4.806  1.00 20.00     0.219 C 
HETATM    2  C7  UNL     1     -37.871  16.641  -4.067  1.00 20.00     0.152 C 
HETATM    3  N10 UNL     1     -36.761  15.748  -4.374  1.00 20.00    -0.356 N 
HETATM    4  O11 UNL     1     -38.070  13.925  -4.962  1.00 20.00    -0.273 OA
ENDROOT
BRANCH   3   5
HETATM    5  C9  UNL     1     -35.432  16.326  -4.196  1.00 20.00     0.130 C 
BRANCH   5   6
HETATM    6  C4  UNL     1     -34.985  16.219  -2.777  1.00 20.00     0.008 A 
HETATM    7  C2  UNL     1     -33.679  16.835  -2.347  1.00 20.00     0.011 A 
HETATM    8  C3  UNL     1     -34.982  17.438  -1.892  1.00 20.00    -0.013 A 
HETATM    9  C5  UNL     1     -35.400  17.329  -0.468  1.00 20.00     0.010 C 
ENDBRANCH   5   6
ENDBRANCH   3   5
BRANCH   1  10
HETATM   10  C8  UNL     1     -35.695  13.623  -5.084  1.00 20.00     0.098 C 
HETATM   11  C6  UNL     1     -35.476  13.371  -6.568  1.00 20.00     0.014 C 
ENDBRANCH   1  10
TORSDOF 3
ENDMDL
MODEL 6
REMARK VINA RESULT:      -4.1     10.707     11.454
REMARK  3 active torsions:
REMARK  status: ('A' for Active; 'I' for Inactive)
REMARK    1  A    between atoms: C1_1  and  C8_8 
REMARK       I    between atoms: C1_1  and  N10_10 
REMARK    2  A    between atoms: C4_4  and  C9_9 
REMARK    3  A    between atoms: C9_9  and  N10_10 
ROOT
HETATM    1  C1  UNL     1     -34.963  14.411  -4.493  1.00 20.00     0.219 C 
HETATM    2  C7  UNL     1     -37.299  15.255  -4.173  1.00 20.00     0.152 C 
HETATM    3  N10 UNL     1     -35.852  15.410  -4.081  1.00 20.00    -0.356 N 
HETATM    4  O11 UNL     1     -35.326  13.330  -4.963  1.00 20.00    -0.273 OA
ENDROOT
BRANCH   3   5
HETATM    5  C9  UNL     1     -35.399  16.683  -3.526  1.00 20.00     0.130 C 
BRANCH   5   6
HETATM    6  C4  UNL     1     -35.046  16.544  -2.083  1.00 20.00     0.008 A 
HETATM    7  C2  UNL     1     -33.825  17.234  -1.534  1.00 20.00     0.011 A 
HETATM    8  C3  UNL     1     -35.198  17.719  -1.153  1.00 20.00    -0.013 A 
HETATM    9  C5  UNL     1     -35.706  17.514   0.232  1.00 20.00     0.010 C 
ENDBRANCH   5   6
ENDBRANCH   3   5
BRANCH   1  10
HETATM   10  C8  UNL     1     -33.482  14.723  -4.331  1.00 20.00     0.098 C 
HETATM   11  C6  UNL     1     -32.907  15.475  -5.521  1.00 20.00     0.014 C 
ENDBRANCH   1  10
TORSDOF 3
ENDMDL
MODEL 7
REMARK VINA RESULT:      -4.0     10.716     11.708
REMARK  3 active torsions:
REMARK  status: ('A' for Active; 'I' for Inactive)
REMARK    1  A    between atoms: C1_1  and  C8_8 
REMARK       I    between atoms: C1_1  and  N10_10 
REMARK    2  A    between atoms: C4_4  and  C9_9 
REMARK    3  A    between atoms: C9_9  and  N10_10 
ROOT
HETATM    1  C1  UNL     1     -37.415  14.945  -4.627  1.00 20.00     0.219 C 
HETATM    2  C7  UNL     1     -35.171  13.836  -4.556  1.00 20.00     0.152 C 
HETATM    3  N10 UNL     1     -36.031  15.007  -4.431  1.00 20.00    -0.356 N 
HETATM    4  O11 UNL     1     -38.013  13.906  -4.918  1.00 20.00    -0.273 OA
ENDROOT
BRANCH   3   5
HETATM    5  C9  UNL     1     -35.343  16.249  -4.087  1.00 20.00     0.130 C 
BRANCH   5   6
HETATM    6  C4  UNL     1     -34.865  16.225  -2.674  1.00 20.00     0.008 A 
HETATM    7  C2  UNL     1     -33.644  17.012  -2.276  1.00 20.00     0.011 A 
HETATM    8  C3  UNL     1     -35.007  17.450  -1.809  1.00 20.00    -0.013 A 
HETATM    9  C5  UNL     1     -35.386  17.313  -0.376  1.00 20.00     0.010 C 
ENDBRANCH   5   6
ENDBRANCH   3   5
BRANCH   1  10
HETATM   10  C8  UNL     1     -38.175  16.254  -4.463  1.00 20.00     0.098 C 
HETATM   11  C6  UNL     1     -39.668  16.043  -4.267  1.00 20.00     0.014 C 
ENDBRANCH   1  10
TORSDOF 3
ENDMDL
MODEL 8
REMARK VINA RESULT:      -4.0     10.469     11.389
REMARK  3 active torsions:
REMARK  status: ('A' for Active; 'I' for Inactive)
REMARK    1  A    between atoms: C1_1  and  C8_8 
REMARK       I    between atoms: C1_1  and  N10_10 
REMARK    2  A    between atoms: C4_4  and  C9_9 
REMARK    3  A    between atoms: C9_9  and  N10_10 
ROOT
HETATM    1  C1  UNL     1     -33.471  18.407   0.227  1.00 20.00     0.219 C 
HETATM    2  C7  UNL     1     -35.551  17.284  -0.598  1.00 20.00     0.152 C 
HETATM    3  N10 UNL     1     -34.146  17.648  -0.735  1.00 20.00    -0.356 N 
HETATM    4  O11 UNL     1     -34.003  18.825   1.258  1.00 20.00    -0.273 OA
ENDROOT
BRANCH   3   5
HETATM    5  C9  UNL     1     -33.496  17.164  -1.950  1.00 20.00     0.130 C 
BRANCH   5   6
HETATM    6  C4  UNL     1     -34.437  16.356  -2.779  1.00 20.00     0.008 A 
HETATM    7  C2  UNL     1     -34.710  16.745  -4.208  1.00 20.00     0.011 A 
HETATM    8  C3  UNL     1     -33.912  15.504  -3.904  1.00 20.00    -0.013 A 
HETATM    9  C5  UNL     1     -34.495  14.158  -4.158  1.00 20.00     0.010 C 
ENDBRANCH   5   6
ENDBRANCH   3   5
BRANCH   1  10
HETATM   10  C8  UNL     1     -32.006  18.706  -0.062  1.00 20.00     0.098 C 
HETATM   11  C6  UNL     1     -31.164  18.785   1.202  1.00 20.00     0.014 C 
ENDBRANCH   1  10
TORSDOF 3
ENDMDL
MODEL 9
REMARK VINA RESULT:      -4.0     10.994     11.968
REMARK  3 active torsions:
REMARK  status: ('A' for Active; 'I' for Inactive)
REMARK    1  A    between atoms: C1_1  and  C8_8 
REMARK       I    between atoms: C1_1  and  N10_10 
REMARK    2  A    between atoms: C4_4  and  C9_9 
REMARK    3  A    between atoms: C9_9  and  N10_10 
ROOT
HETATM    1  C1  UNL     1     -33.466  16.203  -4.874  1.00 20.00     0.219 C 
HETATM    2  C7  UNL     1     -33.366  18.683  -4.541  1.00 20.00     0.152 C 
HETATM    3  N10 UNL     1     -33.392  17.317  -4.031  1.00 20.00    -0.356 N 
HETATM    4  O11 UNL     1     -33.513  16.285  -6.104  1.00 20.00    -0.273 OA
ENDROOT
BRANCH   3   5
HETATM    5  C9  UNL     1     -33.339  17.197  -2.576  1.00 20.00     0.130 C 
BRANCH   5   6
HETATM    6  C4  UNL     1     -34.593  17.703  -1.948  1.00 20.00     0.008 A 
HETATM    7  C2  UNL     1     -35.890  16.963  -2.147  1.00 20.00     0.011 A 
HETATM    8  C3  UNL     1     -35.218  16.955  -0.799  1.00 20.00    -0.013 A 
HETATM    9  C5  UNL     1     -35.818  17.702   0.341  1.00 20.00     0.010 C 
ENDBRANCH   5   6
ENDBRANCH   3   5
BRANCH   1  10
HETATM   10  C8  UNL     1     -33.488  14.844  -4.189  1.00 20.00     0.098 C 
HETATM   11  C6  UNL     1     -34.824  14.134  -4.337  1.00 20.00     0.014 C 
ENDBRANCH   1  10
TORSDOF 3
ENDMDL
