MODEL 1
REMARK VINA RESULT:      -6.3      0.000      0.000
REMARK  1 active torsions:
REMARK  status: ('A' for Active; 'I' for Inactive)
REMARK    1  A    between atoms: C8_8  and  C9_9 
ROOT
HETATM    1  C1  UNL     1     -32.380   8.459   5.017  1.00 20.00     0.004 C 
HETATM    2  C2  UNL     1     -33.241   7.209   5.211  1.00 20.00     0.005 C 
HETATM    3  C5  UNL     1     -31.486   8.337   3.785  1.00 20.00     0.040 C 
HETATM    4  C6  UNL     1     -33.180   6.769   2.718  1.00 20.00     0.045 C 
HETATM    5  C7  UNL     1     -32.634   9.038   1.547  1.00 20.00     0.207 A 
HETATM    6  C9  UNL     1     -34.081   6.894   3.959  1.00 20.00    -0.008 C 
HETATM    7  C10 UNL     1     -32.314   7.987   2.585  1.00 20.00     0.083 A 
HETATM    8  O11 UNL     1     -31.602   8.062   1.343  1.00 20.00    -0.375 OA
ENDROOT
BRANCH   6   9
HETATM    9  C8  UNL     1     -34.897   5.645   4.158  1.00 20.00    -0.010 A 
HETATM   10  C3  UNL     1     -34.227   4.299   4.192  1.00 20.00     0.005 A 
HETATM   11  C4  UNL     1     -34.808   4.881   5.450  1.00 20.00     0.005 A 
ENDBRANCH   6   9
TORSDOF 1
ENDMDL
MODEL 2
REMARK VINA RESULT:      -5.8     11.075     12.296
REMARK  1 active torsions:
REMARK  status: ('A' for Active; 'I' for Inactive)
REMARK    1  A    between atoms: C8_8  and  C9_9 
ROOT
HETATM    1  C1  UNL     1     -33.792  15.562  -6.658  1.00 20.00     0.004 C 
HETATM    2  C2  UNL     1     -33.206  16.083  -5.345  1.00 20.00     0.005 C 
HETATM    3  C5  UNL     1     -34.301  14.128  -6.516  1.00 20.00     0.040 C 
HETATM    4  C6  UNL     1     -34.727  14.533  -4.041  1.00 20.00     0.045 C 
HETATM    5  C7  UNL     1     -36.737  13.937  -5.597  1.00 20.00     0.207 A 
HETATM    6  C9  UNL     1     -34.217  15.977  -4.187  1.00 20.00    -0.008 C 
HETATM    7  C10 UNL     1     -35.249  14.036  -5.357  1.00 20.00     0.083 A 
HETATM    8  O11 UNL     1     -35.945  12.785  -5.272  1.00 20.00    -0.375 OA
ENDROOT
BRANCH   6   9
HETATM    9  C8  UNL     1     -33.612  16.466  -2.899  1.00 20.00    -0.010 A 
HETATM   10  C3  UNL     1     -33.732  17.912  -2.504  1.00 20.00     0.005 A 
HETATM   11  C4  UNL     1     -34.496  16.861  -1.748  1.00 20.00     0.005 A 
ENDBRANCH   6   9
TORSDOF 1
ENDMDL
MODEL 3
REMARK VINA RESULT:      -5.7      2.062      4.245
REMARK  1 active torsions:
REMARK  status: ('A' for Active; 'I' for Inactive)
REMARK    1  A    between atoms: C8_8  and  C9_9 
ROOT
HETATM    1  C1  UNL     1     -33.334   7.247   5.724  1.00 20.00     0.004 C 
HETATM    2  C2  UNL     1     -33.151   8.016   4.413  1.00 20.00     0.005 C 
HETATM    3  C5  UNL     1     -34.501   6.265   5.639  1.00 20.00     0.040 C 
HETATM    4  C6  UNL     1     -34.154   6.079   3.127  1.00 20.00     0.045 C 
HETATM    5  C7  UNL     1     -33.885   3.946   4.609  1.00 20.00     0.207 A 
HETATM    6  C9  UNL     1     -32.977   7.066   3.214  1.00 20.00    -0.008 C 
HETATM    7  C10 UNL     1     -34.337   5.378   4.441  1.00 20.00     0.083 A 
HETATM    8  O11 UNL     1     -35.263   4.285   4.394  1.00 20.00    -0.375 OA
ENDROOT
BRANCH   6   9
HETATM    9  C8  UNL     1     -32.829   7.840   1.931  1.00 20.00    -0.010 A 
HETATM   10  C3  UNL     1     -32.603   9.326   1.965  1.00 20.00     0.005 A 
HETATM   11  C4  UNL     1     -31.493   8.407   1.538  1.00 20.00     0.005 A 
ENDBRANCH   6   9
TORSDOF 1
ENDMDL
MODEL 4
REMARK VINA RESULT:      -5.2      1.846      4.296
REMARK  1 active torsions:
REMARK  status: ('A' for Active; 'I' for Inactive)
REMARK    1  A    between atoms: C8_8  and  C9_9 
ROOT
HETATM    1  C1  UNL     1     -31.982   8.028   4.436  1.00 20.00     0.004 C 
HETATM    2  C2  UNL     1     -31.796   8.935   3.218  1.00 20.00     0.005 C 
HETATM    3  C5  UNL     1     -33.341   7.329   4.413  1.00 20.00     0.040 C 
HETATM    4  C6  UNL     1     -33.359   7.465   1.873  1.00 20.00     0.045 C 
HETATM    5  C7  UNL     1     -33.392   5.120   3.022  1.00 20.00     0.207 A 
HETATM    6  C9  UNL     1     -31.990   8.166   1.898  1.00 20.00    -0.008 C 
HETATM    7  C10 UNL     1     -33.530   6.623   3.103  1.00 20.00     0.083 A 
HETATM    8  O11 UNL     1     -34.675   5.762   3.066  1.00 20.00    -0.375 OA
ENDROOT
BRANCH   6   9
HETATM    9  C8  UNL     1     -31.834   9.082   0.714  1.00 20.00    -0.010 A 
HETATM   10  C3  UNL     1     -32.981   9.297  -0.235  1.00 20.00     0.005 A 
HETATM   11  C4  UNL     1     -32.545  10.406   0.681  1.00 20.00     0.005 A 
ENDBRANCH   6   9
TORSDOF 1
ENDMDL
MODEL 5
REMARK VINA RESULT:      -5.1     11.452     12.318
REMARK  1 active torsions:
REMARK  status: ('A' for Active; 'I' for Inactive)
REMARK    1  A    between atoms: C8_8  and  C9_9 
ROOT
HETATM    1  C1  UNL     1     -34.340  14.133  -6.420  1.00 20.00     0.004 C 
HETATM    2  C2  UNL     1     -33.613  14.672  -5.186  1.00 20.00     0.005 C 
HETATM    3  C5  UNL     1     -35.644  13.432  -6.041  1.00 20.00     0.040 C 
HETATM    4  C6  UNL     1     -35.823  14.901  -3.972  1.00 20.00     0.045 C 
HETATM    5  C7  UNL     1     -37.693  15.032  -5.791  1.00 20.00     0.207 A 
HETATM    6  C9  UNL     1     -34.512  15.608  -4.357  1.00 20.00    -0.008 C 
HETATM    7  C10 UNL     1     -36.486  14.342  -5.197  1.00 20.00     0.083 A 
HETATM    8  O11 UNL     1     -37.817  13.861  -4.971  1.00 20.00    -0.375 OA
ENDROOT
BRANCH   6   9
HETATM    9  C8  UNL     1     -33.790  16.102  -3.132  1.00 20.00    -0.010 A 
HETATM   10  C3  UNL     1     -33.586  17.576  -2.916  1.00 20.00     0.005 A 
HETATM   11  C4  UNL     1     -34.543  16.814  -2.043  1.00 20.00     0.005 A 
ENDBRANCH   6   9
TORSDOF 1
ENDMDL
MODEL 6
REMARK VINA RESULT:      -4.8     11.085     11.992
REMARK  1 active torsions:
REMARK  status: ('A' for Active; 'I' for Inactive)
REMARK    1  A    between atoms: C8_8  and  C9_9 
ROOT
HETATM    1  C1  UNL     1     -36.342  15.435  -4.092  1.00 20.00     0.004 C 
HETATM    2  C2  UNL     1     -36.294  16.593  -3.093  1.00 20.00     0.005 C 
HETATM    3  C5  UNL     1     -35.186  15.506  -5.088  1.00 20.00     0.040 C 
HETATM    4  C6  UNL     1     -33.779  16.729  -3.357  1.00 20.00     0.045 C 
HETATM    5  C7  UNL     1     -32.970  14.410  -4.246  1.00 20.00     0.207 A 
HETATM    6  C9  UNL     1     -34.943  16.654  -2.355  1.00 20.00    -0.008 C 
HETATM    7  C10 UNL     1     -33.883  15.610  -4.352  1.00 20.00     0.083 A 
HETATM    8  O11 UNL     1     -32.728  15.465  -5.188  1.00 20.00    -0.375 OA
ENDROOT
BRANCH   6   9
HETATM    9  C8  UNL     1     -34.905  17.817  -1.400  1.00 20.00    -0.010 A 
HETATM   10  C3  UNL     1     -35.043  17.588   0.080  1.00 20.00     0.005 A 
HETATM   11  C4  UNL     1     -33.721  18.014  -0.494  1.00 20.00     0.005 A 
ENDBRANCH   6   9
TORSDOF 1
ENDMDL
MODEL 7
REMARK VINA RESULT:      -4.7     11.509     12.281
REMARK  1 active torsions:
REMARK  status: ('A' for Active; 'I' for Inactive)
REMARK    1  A    between atoms: C8_8  and  C9_9 
ROOT
HETATM    1  C1  UNL     1     -35.787  17.289  -1.366  1.00 20.00     0.004 C 
HETATM    2  C2  UNL     1     -35.642  16.235  -2.466  1.00 20.00     0.005 C 
HETATM    3  C5  UNL     1     -34.464  17.529  -0.641  1.00 20.00     0.040 C 
HETATM    4  C6  UNL     1     -33.199  16.842  -2.738  1.00 20.00     0.045 C 
HETATM    5  C7  UNL     1     -32.897  19.263  -1.806  1.00 20.00     0.207 A 
HETATM    6  C9  UNL     1     -34.532  16.604  -3.468  1.00 20.00    -0.008 C 
HETATM    7  C10 UNL     1     -33.386  17.843  -1.636  1.00 20.00     0.083 A 
HETATM    8  O11 UNL     1     -32.161  18.294  -1.044  1.00 20.00    -0.375 OA
ENDROOT
BRANCH   6   9
HETATM    9  C8  UNL     1     -34.384  15.541  -4.523  1.00 20.00    -0.010 A 
HETATM   10  C3  UNL     1     -34.548  15.887  -5.977  1.00 20.00     0.005 A 
HETATM   11  C4  UNL     1     -33.189  15.540  -5.435  1.00 20.00     0.005 A 
ENDBRANCH   6   9
TORSDOF 1
ENDMDL
MODEL 8
REMARK VINA RESULT:      -4.7     10.757     12.440
REMARK  1 active torsions:
REMARK  status: ('A' for Active; 'I' for Inactive)
REMARK    1  A    between atoms: C8_8  and  C9_9 
ROOT
HETATM    1  C1  UNL     1     -33.620  15.398  -4.016  1.00 20.00     0.004 C 
HETATM    2  C2  UNL     1     -34.656  16.357  -3.426  1.00 20.00     0.005 C 
HETATM    3  C5  UNL     1     -34.173  13.979  -4.134  1.00 20.00     0.040 C 
HETATM    4  C6  UNL     1     -36.525  14.921  -4.352  1.00 20.00     0.045 C 
HETATM    5  C7  UNL     1     -35.525  13.528  -6.322  1.00 20.00     0.207 A 
HETATM    6  C9  UNL     1     -35.966  16.349  -4.236  1.00 20.00    -0.008 C 
HETATM    7  C10 UNL     1     -35.470  13.997  -4.886  1.00 20.00     0.083 A 
HETATM    8  O11 UNL     1     -35.959  12.695  -5.237  1.00 20.00    -0.375 OA
ENDROOT
BRANCH   6   9
HETATM    9  C8  UNL     1     -36.983  17.275  -3.623  1.00 20.00    -0.010 A 
HETATM   10  C3  UNL     1     -37.461  18.484  -4.380  1.00 20.00     0.005 A 
HETATM   11  C4  UNL     1     -38.387  17.320  -4.159  1.00 20.00     0.005 A 
ENDBRANCH   6   9
TORSDOF 1
ENDMDL
MODEL 9
REMARK VINA RESULT:      -4.6     11.427     12.878
REMARK  1 active torsions:
REMARK  status: ('A' for Active; 'I' for Inactive)
REMARK    1  A    between atoms: C8_8  and  C9_9 
ROOT
HETATM    1  C1  UNL     1     -34.843  15.808  -3.044  1.00 20.00     0.004 C 
HETATM    2  C2  UNL     1     -34.523  14.688  -4.035  1.00 20.00     0.005 C 
HETATM    3  C5  UNL     1     -33.854  16.966  -3.167  1.00 20.00     0.040 C 
HETATM    4  C6  UNL     1     -33.472  16.369  -5.610  1.00 20.00     0.045 C 
HETATM    5  C7  UNL     1     -34.464  18.710  -5.013  1.00 20.00     0.207 A 
HETATM    6  C9  UNL     1     -34.470  15.206  -5.485  1.00 20.00    -0.008 C 
HETATM    7  C10 UNL     1     -33.784  17.428  -4.593  1.00 20.00     0.083 A 
HETATM    8  O11 UNL     1     -33.050  18.646  -4.776  1.00 20.00    -0.375 OA
ENDROOT
BRANCH   6   9
HETATM    9  C8  UNL     1     -34.123  14.095  -6.440  1.00 20.00    -0.010 A 
HETATM   10  C3  UNL     1     -35.167  13.541  -7.370  1.00 20.00     0.005 A 
HETATM   11  C4  UNL     1     -34.036  14.366  -7.916  1.00 20.00     0.005 A 
ENDBRANCH   6   9
TORSDOF 1
ENDMDL
