MODEL 1
REMARK VINA RESULT:      -5.1      0.000      0.000
REMARK  1 active torsions:
REMARK  status: ('A' for Active; 'I' for Inactive)
REMARK    1  A    between atoms: C8_8  and  C9_9 
ROOT
HETATM    1  C1  UNL     1     -32.934   8.211   5.048  1.00 20.00     0.004 C 
HETATM    2  C2  UNL     1     -31.768   8.169   4.054  1.00 20.00     0.005 C 
HETATM    3  C5  UNL     1     -33.559   6.831   5.237  1.00 20.00     0.040 C 
HETATM    4  C6  UNL     1     -32.820   6.169   2.894  1.00 20.00     0.045 C 
HETATM    5  C7  UNL     1     -35.372   6.196   3.466  1.00 20.00     0.207 A 
HETATM    6  C9  UNL     1     -32.147   7.538   2.701  1.00 20.00    -0.008 C 
HETATM    7  C10 UNL     1     -33.927   6.245   3.906  1.00 20.00     0.083 A 
HETATM    8  O11 UNL     1     -34.707   5.044   4.001  1.00 20.00    -0.375 OA
ENDROOT
BRANCH   6   9
HETATM    9  C8  UNL     1     -33.000   8.467   1.869  1.00 20.00    -0.010 A 
HETATM   10  C3  UNL     1     -32.596   9.903   1.684  1.00 20.00     0.005 A 
HETATM   11  C4  UNL     1     -32.513   8.944   0.529  1.00 20.00     0.005 A 
ENDBRANCH   6   9
TORSDOF 1
ENDMDL
MODEL 2
REMARK VINA RESULT:      -4.5     10.161     12.015
REMARK  1 active torsions:
REMARK  status: ('A' for Active; 'I' for Inactive)
REMARK    1  A    between atoms: C8_8  and  C9_9 
ROOT
HETATM    1  C1  UNL     1     -33.781  15.536  -3.952  1.00 20.00     0.004 C 
HETATM    2  C2  UNL     1     -32.931  15.780  -5.205  1.00 20.00     0.005 C 
HETATM    3  C5  UNL     1     -34.419  14.150  -3.970  1.00 20.00     0.040 C 
HETATM    4  C6  UNL     1     -34.384  14.159  -6.514  1.00 20.00     0.045 C 
HETATM    5  C7  UNL     1     -36.679  13.999  -5.271  1.00 20.00     0.207 A 
HETATM    6  C9  UNL     1     -33.701  15.537  -6.517  1.00 20.00    -0.008 C 
HETATM    7  C10 UNL     1     -35.169  13.944  -5.252  1.00 20.00     0.083 A 
HETATM    8  O11 UNL     1     -35.970  12.753  -5.266  1.00 20.00    -0.375 OA
ENDROOT
BRANCH   6   9
HETATM    9  C8  UNL     1     -34.686  16.647  -6.803  1.00 20.00    -0.010 A 
HETATM   10  C3  UNL     1     -34.331  18.073  -6.487  1.00 20.00     0.005 A 
HETATM   11  C4  UNL     1     -34.424  17.621  -7.918  1.00 20.00     0.005 A 
ENDBRANCH   6   9
TORSDOF 1
ENDMDL
MODEL 3
REMARK VINA RESULT:      -4.4     10.670     12.191
REMARK  1 active torsions:
REMARK  status: ('A' for Active; 'I' for Inactive)
REMARK    1  A    between atoms: C8_8  and  C9_9 
ROOT
HETATM    1  C1  UNL     1     -35.574  14.227  -4.970  1.00 20.00     0.004 C 
HETATM    2  C2  UNL     1     -34.405  14.157  -3.980  1.00 20.00     0.005 C 
HETATM    3  C5  UNL     1     -35.088  14.479  -6.394  1.00 20.00     0.040 C 
HETATM    4  C6  UNL     1     -33.029  15.668  -5.488  1.00 20.00     0.045 C 
HETATM    5  C7  UNL     1     -34.706  16.992  -6.995  1.00 20.00     0.207 A 
HETATM    6  C9  UNL     1     -33.481  15.387  -4.045  1.00 20.00    -0.008 C 
HETATM    7  C10 UNL     1     -34.198  15.686  -6.430  1.00 20.00     0.083 A 
HETATM    8  O11 UNL     1     -33.864  16.117  -7.757  1.00 20.00    -0.375 OA
ENDROOT
BRANCH   6   9
HETATM    9  C8  UNL     1     -34.118  16.602  -3.413  1.00 20.00    -0.010 A 
HETATM   10  C3  UNL     1     -34.873  16.473  -2.120  1.00 20.00     0.005 A 
HETATM   11  C4  UNL     1     -33.549  17.184  -2.149  1.00 20.00     0.005 A 
ENDBRANCH   6   9
TORSDOF 1
ENDMDL
MODEL 4
REMARK VINA RESULT:      -4.3     10.838     11.883
REMARK  1 active torsions:
REMARK  status: ('A' for Active; 'I' for Inactive)
REMARK    1  A    between atoms: C8_8  and  C9_9 
ROOT
HETATM    1  C1  UNL     1     -32.978  15.602  -5.402  1.00 20.00     0.004 C 
HETATM    2  C2  UNL     1     -33.508  16.957  -4.920  1.00 20.00     0.005 C 
HETATM    3  C5  UNL     1     -33.973  14.906  -6.326  1.00 20.00     0.040 C 
HETATM    4  C6  UNL     1     -35.893  16.125  -5.184  1.00 20.00     0.045 C 
HETATM    5  C7  UNL     1     -35.815  13.512  -5.105  1.00 20.00     0.207 A 
HETATM    6  C9  UNL     1     -34.902  16.867  -4.272  1.00 20.00    -0.008 C 
HETATM    7  C10 UNL     1     -35.318  14.824  -5.667  1.00 20.00     0.083 A 
HETATM    8  O11 UNL     1     -36.258  14.005  -6.376  1.00 20.00    -0.375 OA
ENDROOT
BRANCH   6   9
HETATM    9  C8  UNL     1     -34.842  16.250  -2.894  1.00 20.00    -0.010 A 
HETATM   10  C3  UNL     1     -34.044  16.910  -1.805  1.00 20.00     0.005 A 
HETATM   11  C4  UNL     1     -35.546  16.907  -1.740  1.00 20.00     0.005 A 
ENDBRANCH   6   9
TORSDOF 1
ENDMDL
MODEL 5
REMARK VINA RESULT:      -4.1     10.453     11.839
REMARK  1 active torsions:
REMARK  status: ('A' for Active; 'I' for Inactive)
REMARK    1  A    between atoms: C8_8  and  C9_9 
ROOT
HETATM    1  C1  UNL     1     -33.531  17.685  -5.084  1.00 20.00     0.004 C 
HETATM    2  C2  UNL     1     -34.722  17.994  -4.170  1.00 20.00     0.005 C 
HETATM    3  C5  UNL     1     -33.668  16.313  -5.739  1.00 20.00     0.040 C 
HETATM    4  C6  UNL     1     -35.072  15.510  -3.774  1.00 20.00     0.045 C 
HETATM    5  C7  UNL     1     -32.803  14.316  -4.294  1.00 20.00     0.207 A 
HETATM    6  C9  UNL     1     -34.980  16.898  -3.119  1.00 20.00    -0.008 C 
HETATM    7  C10 UNL     1     -33.909  15.265  -4.694  1.00 20.00     0.083 A 
HETATM    8  O11 UNL     1     -33.844  13.923  -5.198  1.00 20.00    -0.375 OA
ENDROOT
BRANCH   6   9
HETATM    9  C8  UNL     1     -33.951  16.926  -2.013  1.00 20.00    -0.010 A 
HETATM   10  C3  UNL     1     -33.290  18.220  -1.629  1.00 20.00     0.005 A 
HETATM   11  C4  UNL     1     -34.275  17.573  -0.695  1.00 20.00     0.005 A 
ENDBRANCH   6   9
TORSDOF 1
ENDMDL
MODEL 6
REMARK VINA RESULT:      -4.0     10.501     11.789
REMARK  1 active torsions:
REMARK  status: ('A' for Active; 'I' for Inactive)
REMARK    1  A    between atoms: C8_8  and  C9_9 
ROOT
HETATM    1  C1  UNL     1     -37.119  15.599  -5.764  1.00 20.00     0.004 C 
HETATM    2  C2  UNL     1     -36.842  15.623  -4.256  1.00 20.00     0.005 C 
HETATM    3  C5  UNL     1     -36.880  14.213  -6.356  1.00 20.00     0.040 C 
HETATM    4  C6  UNL     1     -35.186  13.716  -4.524  1.00 20.00     0.045 C 
HETATM    5  C7  UNL     1     -34.403  13.715  -7.019  1.00 20.00     0.207 A 
HETATM    6  C9  UNL     1     -35.444  15.092  -3.888  1.00 20.00    -0.008 C 
HETATM    7  C10 UNL     1     -35.510  13.725  -5.991  1.00 20.00     0.083 A 
HETATM    8  O11 UNL     1     -35.124  12.525  -6.675  1.00 20.00    -0.375 OA
ENDROOT
BRANCH   6   9
HETATM    9  C8  UNL     1     -34.358  16.082  -4.239  1.00 20.00    -0.010 A 
HETATM   10  C3  UNL     1     -34.547  17.545  -3.952  1.00 20.00     0.005 A 
HETATM   11  C4  UNL     1     -33.558  16.744  -3.152  1.00 20.00     0.005 A 
ENDBRANCH   6   9
TORSDOF 1
ENDMDL
MODEL 7
REMARK VINA RESULT:      -4.0     10.509     11.864
REMARK  1 active torsions:
REMARK  status: ('A' for Active; 'I' for Inactive)
REMARK    1  A    between atoms: C8_8  and  C9_9 
ROOT
HETATM    1  C1  UNL     1     -34.090  15.440  -3.727  1.00 20.00     0.004 C 
HETATM    2  C2  UNL     1     -34.517  14.034  -4.162  1.00 20.00     0.005 C 
HETATM    3  C5  UNL     1     -35.250  16.210  -3.102  1.00 20.00     0.040 C 
HETATM    4  C6  UNL     1     -36.902  14.849  -4.478  1.00 20.00     0.045 C 
HETATM    5  C7  UNL     1     -36.796  17.441  -4.810  1.00 20.00     0.207 A 
HETATM    6  C9  UNL     1     -35.749  14.033  -5.087  1.00 20.00    -0.008 C 
HETATM    7  C10 UNL     1     -36.431  16.202  -4.026  1.00 20.00     0.083 A 
HETATM    8  O11 UNL     1     -37.493  17.074  -3.612  1.00 20.00    -0.375 OA
ENDROOT
BRANCH   6   9
HETATM    9  C8  UNL     1     -35.405  14.507  -6.480  1.00 20.00    -0.010 A 
HETATM   10  C3  UNL     1     -34.301  13.842  -7.254  1.00 20.00     0.005 A 
HETATM   11  C4  UNL     1     -35.733  13.652  -7.672  1.00 20.00     0.005 A 
ENDBRANCH   6   9
TORSDOF 1
ENDMDL
MODEL 8
REMARK VINA RESULT:      -3.9     11.210     12.280
REMARK  1 active torsions:
REMARK  status: ('A' for Active; 'I' for Inactive)
REMARK    1  A    between atoms: C8_8  and  C9_9 
ROOT
HETATM    1  C1  UNL     1     -36.211  17.772  -2.446  1.00 20.00     0.004 C 
HETATM    2  C2  UNL     1     -35.379  17.006  -1.411  1.00 20.00     0.005 C 
HETATM    3  C5  UNL     1     -35.972  17.246  -3.858  1.00 20.00     0.040 C 
HETATM    4  C6  UNL     1     -33.638  16.486  -3.186  1.00 20.00     0.045 C 
HETATM    5  C7  UNL     1     -33.902  18.274  -5.077  1.00 20.00     0.207 A 
HETATM    6  C9  UNL     1     -33.876  16.972  -1.747  1.00 20.00    -0.008 C 
HETATM    7  C10 UNL     1     -34.503  17.232  -4.162  1.00 20.00     0.083 A 
HETATM    8  O11 UNL     1     -34.201  16.949  -5.536  1.00 20.00    -0.375 OA
ENDROOT
BRANCH   6   9
HETATM    9  C8  UNL     1     -33.214  18.305  -1.491  1.00 20.00    -0.010 A 
HETATM   10  C3  UNL     1     -33.431  19.020  -0.187  1.00 20.00     0.005 A 
HETATM   11  C4  UNL     1     -32.091  18.414  -0.497  1.00 20.00     0.005 A 
ENDBRANCH   6   9
TORSDOF 1
ENDMDL
MODEL 9
REMARK VINA RESULT:      -3.9     10.565     11.881
REMARK  1 active torsions:
REMARK  status: ('A' for Active; 'I' for Inactive)
REMARK    1  A    between atoms: C8_8  and  C9_9 
ROOT
HETATM    1  C1  UNL     1     -33.471  16.960  -5.385  1.00 20.00     0.004 C 
HETATM    2  C2  UNL     1     -32.909  15.545  -5.565  1.00 20.00     0.005 C 
HETATM    3  C5  UNL     1     -34.120  17.135  -4.015  1.00 20.00     0.040 C 
HETATM    4  C6  UNL     1     -34.636  14.645  -3.935  1.00 20.00     0.045 C 
HETATM    5  C7  UNL     1     -36.610  16.359  -3.873  1.00 20.00     0.207 A 
HETATM    6  C9  UNL     1     -33.949  14.441  -5.295  1.00 20.00    -0.008 C 
HETATM    7  C10 UNL     1     -35.133  16.054  -3.782  1.00 20.00     0.083 A 
HETATM    8  O11 UNL     1     -35.937  16.259  -2.611  1.00 20.00    -0.375 OA
ENDROOT
BRANCH   6   9
HETATM    9  C8  UNL     1     -34.954  14.331  -6.418  1.00 20.00    -0.010 A 
HETATM   10  C3  UNL     1     -34.490  14.281  -7.846  1.00 20.00     0.005 A 
HETATM   11  C4  UNL     1     -35.073  13.054  -7.203  1.00 20.00     0.005 A 
ENDBRANCH   6   9
TORSDOF 1
ENDMDL
