MODEL 1
REMARK VINA RESULT:      -6.5      0.000      0.000
REMARK  1 active torsions:
REMARK  status: ('A' for Active; 'I' for Inactive)
REMARK    1  A    between atoms: C9_9  and  C10_10 
ROOT
HETATM    1  C1  UNL     1     -32.618   8.776   1.748  1.00 20.00     0.064 C 
HETATM    2  C2  UNL     1     -32.291   8.552   4.855  1.00 20.00     0.002 C 
HETATM    3  C3  UNL     1     -31.292   8.184   3.758  1.00 20.00     0.019 C 
HETATM    4  C4  UNL     1     -33.249   7.403   5.155  1.00 20.00     0.005 C 
HETATM    5  C7  UNL     1     -32.969   6.551   2.788  1.00 20.00     0.024 C 
HETATM    6  C8  UNL     1     -31.968   7.672   2.481  1.00 20.00     0.093 C 
HETATM    7  C10 UNL     1     -33.977   6.924   3.891  1.00 20.00    -0.009 C 
HETATM    8  N11 UNL     1     -33.129   9.643   1.171  1.00 20.00    -0.197 NA
ENDROOT
BRANCH   7   9
HETATM    9  C9  UNL     1     -34.881   5.760   4.204  1.00 20.00    -0.010 A 
HETATM   10  C5  UNL     1     -34.331   4.361   4.238  1.00 20.00     0.005 A 
HETATM   11  C6  UNL     1     -34.753   5.033   5.515  1.00 20.00     0.005 A 
ENDBRANCH   7   9
TORSDOF 1
ENDMDL
MODEL 2
REMARK VINA RESULT:      -6.1      2.360      4.335
REMARK  1 active torsions:
REMARK  status: ('A' for Active; 'I' for Inactive)
REMARK    1  A    between atoms: C9_9  and  C10_10 
ROOT
HETATM    1  C1  UNL     1     -34.315   4.271   4.349  1.00 20.00     0.064 C 
HETATM    2  C2  UNL     1     -33.361   6.841   5.865  1.00 20.00     0.002 C 
HETATM    3  C3  UNL     1     -34.770   6.255   5.765  1.00 20.00     0.019 C 
HETATM    4  C4  UNL     1     -33.048   7.759   4.688  1.00 20.00     0.005 C 
HETATM    5  C7  UNL     1     -34.670   6.462   3.242  1.00 20.00     0.024 C 
HETATM    6  C8  UNL     1     -35.034   5.557   4.427  1.00 20.00     0.093 C 
HETATM    7  C10 UNL     1     -33.250   7.050   3.342  1.00 20.00    -0.009 C 
HETATM    8  N11 UNL     1     -33.750   3.259   4.289  1.00 20.00    -0.197 NA
ENDROOT
BRANCH   7   9
HETATM    9  C9  UNL     1     -32.979   7.989   2.196  1.00 20.00    -0.010 A 
HETATM   10  C5  UNL     1     -32.177   9.241   2.416  1.00 20.00     0.005 A 
HETATM   11  C6  UNL     1     -31.593   8.105   1.623  1.00 20.00     0.005 A 
ENDBRANCH   7   9
TORSDOF 1
ENDMDL
MODEL 3
REMARK VINA RESULT:      -5.5     10.984     12.299
REMARK  1 active torsions:
REMARK  status: ('A' for Active; 'I' for Inactive)
REMARK    1  A    between atoms: C9_9  and  C10_10 
ROOT
HETATM    1  C1  UNL     1     -36.737  13.887  -5.174  1.00 20.00     0.064 C 
HETATM    2  C2  UNL     1     -34.859  15.990  -6.538  1.00 20.00     0.002 C 
HETATM    3  C3  UNL     1     -34.834  14.466  -6.654  1.00 20.00     0.019 C 
HETATM    4  C4  UNL     1     -34.063  16.478  -5.332  1.00 20.00     0.005 C 
HETATM    5  C7  UNL     1     -34.514  14.288  -4.147  1.00 20.00     0.024 C 
HETATM    6  C8  UNL     1     -35.280  13.761  -5.369  1.00 20.00     0.093 C 
HETATM    7  C10 UNL     1     -34.543  15.823  -4.030  1.00 20.00    -0.009 C 
HETATM    8  N11 UNL     1     -37.883  13.986  -5.021  1.00 20.00    -0.197 NA
ENDROOT
BRANCH   7   9
HETATM    9  C9  UNL     1     -33.712  16.284  -2.861  1.00 20.00    -0.010 A 
HETATM   10  C5  UNL     1     -33.434  17.748  -2.660  1.00 20.00     0.005 A 
HETATM   11  C6  UNL     1     -34.356  17.023  -1.719  1.00 20.00     0.005 A 
ENDBRANCH   7   9
TORSDOF 1
ENDMDL
MODEL 4
REMARK VINA RESULT:      -5.2      2.143      4.365
REMARK  1 active torsions:
REMARK  status: ('A' for Active; 'I' for Inactive)
REMARK    1  A    between atoms: C9_9  and  C10_10 
ROOT
HETATM    1  C1  UNL     1     -33.367   5.372   2.872  1.00 20.00     0.064 C 
HETATM    2  C2  UNL     1     -32.120   7.778   4.443  1.00 20.00     0.002 C 
HETATM    3  C3  UNL     1     -33.573   7.306   4.410  1.00 20.00     0.019 C 
HETATM    4  C4  UNL     1     -31.810   8.731   3.294  1.00 20.00     0.005 C 
HETATM    5  C7  UNL     1     -33.618   7.640   1.899  1.00 20.00     0.024 C 
HETATM    6  C8  UNL     1     -33.976   6.703   3.060  1.00 20.00     0.093 C 
HETATM    7  C10 UNL     1     -32.152   8.112   1.932  1.00 20.00    -0.009 C 
HETATM    8  N11 UNL     1     -32.889   4.325   2.724  1.00 20.00    -0.197 NA
ENDROOT
BRANCH   7   9
HETATM    9  C9  UNL     1     -31.881   9.089   0.817  1.00 20.00    -0.010 A 
HETATM   10  C5  UNL     1     -32.946   9.391  -0.201  1.00 20.00     0.005 A 
HETATM   11  C6  UNL     1     -32.555  10.434   0.809  1.00 20.00     0.005 A 
ENDBRANCH   7   9
TORSDOF 1
ENDMDL
MODEL 5
REMARK VINA RESULT:      -5.1     11.310     12.438
REMARK  1 active torsions:
REMARK  status: ('A' for Active; 'I' for Inactive)
REMARK    1  A    between atoms: C9_9  and  C10_10 
ROOT
HETATM    1  C1  UNL     1     -36.699  14.469  -6.448  1.00 20.00     0.064 C 
HETATM    2  C2  UNL     1     -33.731  15.351  -6.923  1.00 20.00     0.002 C 
HETATM    3  C3  UNL     1     -34.342  13.953  -7.022  1.00 20.00     0.019 C 
HETATM    4  C4  UNL     1     -33.306  15.681  -5.496  1.00 20.00     0.005 C 
HETATM    5  C7  UNL     1     -35.079  14.112  -4.603  1.00 20.00     0.024 C 
HETATM    6  C8  UNL     1     -35.491  13.731  -6.032  1.00 20.00     0.093 C 
HETATM    7  C10 UNL     1     -34.466  15.521  -4.504  1.00 20.00    -0.009 C 
HETATM    8  N11 UNL     1     -37.649  15.048  -6.776  1.00 20.00    -0.197 NA
ENDROOT
BRANCH   7   9
HETATM    9  C9  UNL     1     -34.011  15.808  -3.098  1.00 20.00    -0.010 A 
HETATM   10  C5  UNL     1     -33.578  17.195  -2.709  1.00 20.00     0.005 A 
HETATM   11  C6  UNL     1     -34.868  16.635  -2.178  1.00 20.00     0.005 A 
ENDBRANCH   7   9
TORSDOF 1
ENDMDL
MODEL 6
REMARK VINA RESULT:      -5.0     10.993     12.320
REMARK  1 active torsions:
REMARK  status: ('A' for Active; 'I' for Inactive)
REMARK    1  A    between atoms: C9_9  and  C10_10 
ROOT
HETATM    1  C1  UNL     1     -32.503  18.182  -0.921  1.00 20.00     0.064 C 
HETATM    2  C2  UNL     1     -33.391  18.975  -3.819  1.00 20.00     0.002 C 
HETATM    3  C3  UNL     1     -34.090  19.263  -2.490  1.00 20.00     0.019 C 
HETATM    4  C4  UNL     1     -33.779  17.609  -4.376  1.00 20.00     0.005 C 
HETATM    5  C7  UNL     1     -34.222  16.775  -2.028  1.00 20.00     0.024 C 
HETATM    6  C8  UNL     1     -33.880  18.156  -1.451  1.00 20.00     0.093 C 
HETATM    7  C10 UNL     1     -33.515  16.485  -3.364  1.00 20.00    -0.009 C 
HETATM    8  N11 UNL     1     -31.421  18.203  -0.504  1.00 20.00    -0.197 NA
ENDROOT
BRANCH   7   9
HETATM    9  C9  UNL     1     -33.948  15.153  -3.919  1.00 20.00    -0.010 A 
HETATM   10  C5  UNL     1     -33.792  14.856  -5.385  1.00 20.00     0.005 A 
HETATM   11  C6  UNL     1     -32.921  14.155  -4.380  1.00 20.00     0.005 A 
ENDBRANCH   7   9
TORSDOF 1
ENDMDL
MODEL 7
REMARK VINA RESULT:      -4.9     11.178     12.027
REMARK  1 active torsions:
REMARK  status: ('A' for Active; 'I' for Inactive)
REMARK    1  A    between atoms: C9_9  and  C10_10 
ROOT
HETATM    1  C1  UNL     1     -33.146  14.756  -4.438  1.00 20.00     0.064 C 
HETATM    2  C2  UNL     1     -35.856  15.650  -3.147  1.00 20.00     0.002 C 
HETATM    3  C3  UNL     1     -35.408  15.758  -4.604  1.00 20.00     0.019 C 
HETATM    4  C4  UNL     1     -35.392  16.847  -2.324  1.00 20.00     0.005 C 
HETATM    5  C7  UNL     1     -33.423  17.158  -3.884  1.00 20.00     0.024 C 
HETATM    6  C8  UNL     1     -33.899  15.985  -4.751  1.00 20.00     0.093 C 
HETATM    7  C10 UNL     1     -33.873  17.047  -2.415  1.00 20.00    -0.009 C 
HETATM    8  N11 UNL     1     -32.553  13.789  -4.192  1.00 20.00    -0.197 NA
ENDROOT
BRANCH   7   9
HETATM    9  C9  UNL     1     -33.445  18.261  -1.633  1.00 20.00    -0.010 A 
HETATM   10  C5  UNL     1     -33.635  18.307  -0.142  1.00 20.00     0.005 A 
HETATM   11  C6  UNL     1     -32.251  18.191  -0.719  1.00 20.00     0.005 A 
ENDBRANCH   7   9
TORSDOF 1
ENDMDL
MODEL 8
REMARK VINA RESULT:      -4.9     11.591     12.343
REMARK  1 active torsions:
REMARK  status: ('A' for Active; 'I' for Inactive)
REMARK    1  A    between atoms: C9_9  and  C10_10 
ROOT
HETATM    1  C1  UNL     1     -33.511  17.783  -3.845  1.00 20.00     0.064 C 
HETATM    2  C2  UNL     1     -36.179  16.179  -3.496  1.00 20.00     0.002 C 
HETATM    3  C3  UNL     1     -35.030  16.353  -2.503  1.00 20.00     0.019 C 
HETATM    4  C4  UNL     1     -35.931  15.014  -4.448  1.00 20.00     0.005 C 
HETATM    5  C7  UNL     1     -33.434  15.326  -4.182  1.00 20.00     0.024 C 
HETATM    6  C8  UNL     1     -33.662  16.471  -3.186  1.00 20.00     0.093 C 
HETATM    7  C10 UNL     1     -34.591  15.153  -5.183  1.00 20.00    -0.009 C 
HETATM    8  N11 UNL     1     -33.391  18.814  -4.362  1.00 20.00    -0.197 NA
ENDROOT
BRANCH   7   9
HETATM    9  C9  UNL     1     -34.347  13.969  -6.081  1.00 20.00    -0.010 A 
HETATM   10  C5  UNL     1     -35.430  13.484  -7.006  1.00 20.00     0.005 A 
HETATM   11  C6  UNL     1     -34.210  14.161  -7.567  1.00 20.00     0.005 A 
ENDBRANCH   7   9
TORSDOF 1
ENDMDL
MODEL 9
REMARK VINA RESULT:      -4.9     10.879     13.054
REMARK  1 active torsions:
REMARK  status: ('A' for Active; 'I' for Inactive)
REMARK    1  A    between atoms: C9_9  and  C10_10 
ROOT
HETATM    1  C1  UNL     1     -35.268  13.661  -4.695  1.00 20.00     0.064 C 
HETATM    2  C2  UNL     1     -33.149  15.695  -5.784  1.00 20.00     0.002 C 
HETATM    3  C3  UNL     1     -33.066  14.792  -4.553  1.00 20.00     0.019 C 
HETATM    4  C4  UNL     1     -33.843  17.016  -5.468  1.00 20.00     0.005 C 
HETATM    5  C7  UNL     1     -35.147  15.891  -3.615  1.00 20.00     0.024 C 
HETATM    6  C8  UNL     1     -34.427  14.563  -3.886  1.00 20.00     0.093 C 
HETATM    7  C10 UNL     1     -35.233  16.798  -4.856  1.00 20.00    -0.009 C 
HETATM    8  N11 UNL     1     -35.929  12.951  -5.332  1.00 20.00    -0.197 NA
ENDROOT
BRANCH   7   9
HETATM    9  C9  UNL     1     -35.878  18.115  -4.511  1.00 20.00    -0.010 A 
HETATM   10  C5  UNL     1     -35.831  19.260  -5.485  1.00 20.00     0.005 A 
HETATM   11  C6  UNL     1     -37.131  18.553  -5.220  1.00 20.00     0.005 A 
ENDBRANCH   7   9
TORSDOF 1
ENDMDL
