MODEL 1
REMARK VINA RESULT:      -5.0      0.000      0.000
REMARK  1 active torsions:
REMARK  status: ('A' for Active; 'I' for Inactive)
REMARK    1  A    between atoms: C8_8  and  C9_9 
ROOT
HETATM    1  C1  UNL     1     -35.689  13.903  -5.078  1.00 20.00     0.085 C 
HETATM    2  C2  UNL     1     -34.272  17.413  -5.732  1.00 20.00     0.003 C 
HETATM    3  C3  UNL     1     -33.505  17.553  -4.422  1.00 20.00     0.005 C 
HETATM    4  C6  UNL     1     -34.683  15.963  -5.993  1.00 20.00     0.041 C 
HETATM    5  C7  UNL     1     -34.703  15.526  -3.498  1.00 20.00     0.046 C 
HETATM    6  C9  UNL     1     -34.291  16.986  -3.233  1.00 20.00    -0.008 C 
HETATM    7  C10 UNL     1     -35.458  15.336  -4.824  1.00 20.00     0.125 C 
HETATM    8  N11 UNL     1     -35.871  12.775  -5.277  1.00 20.00    -0.195 NA
HETATM    9 CL12 UNL     1     -37.093  16.080  -4.706  1.00 20.00    -0.103 Cl
ENDROOT
BRANCH   6  10
HETATM   10  C8  UNL     1     -33.485  17.090  -1.962  1.00 20.00    -0.010 A 
HETATM   11  C4  UNL     1     -32.952  18.422  -1.511  1.00 20.00     0.005 A 
HETATM   12  C5  UNL     1     -34.068  17.762  -0.750  1.00 20.00     0.005 A 
ENDBRANCH   6  10
TORSDOF 1
ENDMDL
MODEL 2
REMARK VINA RESULT:      -4.9      1.588      1.941
REMARK  1 active torsions:
REMARK  status: ('A' for Active; 'I' for Inactive)
REMARK    1  A    between atoms: C8_8  and  C9_9 
ROOT
HETATM    1  C1  UNL     1     -37.266  14.520  -4.964  1.00 20.00     0.085 C 
HETATM    2  C2  UNL     1     -33.490  14.850  -4.337  1.00 20.00     0.003 C 
HETATM    3  C3  UNL     1     -33.580  15.802  -3.149  1.00 20.00     0.005 C 
HETATM    4  C6  UNL     1     -34.840  14.198  -4.641  1.00 20.00     0.041 C 
HETATM    5  C7  UNL     1     -36.026  16.205  -3.650  1.00 20.00     0.046 C 
HETATM    6  C9  UNL     1     -34.669  16.864  -3.345  1.00 20.00    -0.008 C 
HETATM    7  C10 UNL     1     -35.975  15.217  -4.827  1.00 20.00     0.125 C 
HETATM    8  N11 UNL     1     -38.283  13.973  -5.073  1.00 20.00    -0.195 NA
HETATM    9 CL12 UNL     1     -35.740  16.117  -6.368  1.00 20.00    -0.103 Cl
ENDROOT
BRANCH   6  10
HETATM   10  C8  UNL     1     -34.768  17.756  -2.132  1.00 20.00    -0.010 A 
HETATM   11  C4  UNL     1     -35.069  17.167  -0.782  1.00 20.00     0.005 A 
HETATM   12  C5  UNL     1     -33.700  17.717  -1.075  1.00 20.00     0.005 A 
ENDBRANCH   6  10
TORSDOF 1
ENDMDL
MODEL 3
REMARK VINA RESULT:      -4.8      0.980      1.232
REMARK  1 active torsions:
REMARK  status: ('A' for Active; 'I' for Inactive)
REMARK    1  A    between atoms: C8_8  and  C9_9 
ROOT
HETATM    1  C1  UNL     1     -35.641  13.922  -5.018  1.00 20.00     0.085 C 
HETATM    2  C2  UNL     1     -33.454  17.059  -4.658  1.00 20.00     0.003 C 
HETATM    3  C3  UNL     1     -33.551  17.183  -3.141  1.00 20.00     0.005 C 
HETATM    4  C6  UNL     1     -33.918  15.685  -5.143  1.00 20.00     0.041 C 
HETATM    5  C7  UNL     1     -35.427  15.487  -3.119  1.00 20.00     0.046 C 
HETATM    6  C9  UNL     1     -34.963  16.871  -2.629  1.00 20.00    -0.008 C 
HETATM    7  C10 UNL     1     -35.321  15.310  -4.642  1.00 20.00     0.125 C 
HETATM    8  N11 UNL     1     -35.893  12.829  -5.314  1.00 20.00    -0.195 NA
HETATM    9 CL12 UNL     1     -36.555  16.334  -5.462  1.00 20.00    -0.103 Cl
ENDROOT
BRANCH   6  10
HETATM   10  C8  UNL     1     -35.015  16.950  -1.123  1.00 20.00    -0.010 A 
HETATM   11  C4  UNL     1     -34.525  18.181  -0.413  1.00 20.00     0.005 A 
HETATM   12  C5  UNL     1     -35.995  17.867  -0.448  1.00 20.00     0.005 A 
ENDBRANCH   6  10
TORSDOF 1
ENDMDL
MODEL 4
REMARK VINA RESULT:      -4.7      1.273      1.402
REMARK  1 active torsions:
REMARK  status: ('A' for Active; 'I' for Inactive)
REMARK    1  A    between atoms: C8_8  and  C9_9 
ROOT
HETATM    1  C1  UNL     1     -35.484  13.384  -6.236  1.00 20.00     0.085 C 
HETATM    2  C2  UNL     1     -35.981  17.161  -5.743  1.00 20.00     0.003 C 
HETATM    3  C3  UNL     1     -35.123  17.302  -4.490  1.00 20.00     0.005 C 
HETATM    4  C6  UNL     1     -35.728  15.831  -6.454  1.00 20.00     0.041 C 
HETATM    5  C7  UNL     1     -35.059  14.785  -4.246  1.00 20.00     0.046 C 
HETATM    6  C9  UNL     1     -35.314  16.122  -3.528  1.00 20.00    -0.008 C 
HETATM    7  C10 UNL     1     -35.887  14.613  -5.530  1.00 20.00     0.125 C 
HETATM    8  N11 UNL     1     -35.167  12.416  -6.791  1.00 20.00    -0.195 NA
HETATM    9 CL12 UNL     1     -37.623  14.388  -5.111  1.00 20.00    -0.103 Cl
ENDROOT
BRANCH   6  10
HETATM   10  C8  UNL     1     -34.414  16.263  -2.325  1.00 20.00    -0.010 A 
HETATM   11  C4  UNL     1     -33.669  17.546  -2.083  1.00 20.00     0.005 A 
HETATM   12  C5  UNL     1     -34.811  17.159  -1.185  1.00 20.00     0.005 A 
ENDBRANCH   6  10
TORSDOF 1
ENDMDL
MODEL 5
REMARK VINA RESULT:      -4.7     10.293     11.265
REMARK  1 active torsions:
REMARK  status: ('A' for Active; 'I' for Inactive)
REMARK    1  A    between atoms: C8_8  and  C9_9 
ROOT
HETATM    1  C1  UNL     1     -34.827   6.261   3.416  1.00 20.00     0.085 C 
HETATM    2  C2  UNL     1     -31.508   8.047   4.157  1.00 20.00     0.003 C 
HETATM    3  C3  UNL     1     -31.487   8.928   2.913  1.00 20.00     0.005 C 
HETATM    4  C6  UNL     1     -32.891   7.439   4.394  1.00 20.00     0.041 C 
HETATM    5  C7  UNL     1     -33.366   7.564   1.909  1.00 20.00     0.046 C 
HETATM    6  C9  UNL     1     -31.973   8.175   1.668  1.00 20.00    -0.008 C 
HETATM    7  C10 UNL     1     -33.438   6.688   3.171  1.00 20.00     0.125 C 
HETATM    8  N11 UNL     1     -35.920   5.924   3.608  1.00 20.00    -0.195 NA
HETATM    9 CL12 UNL     1     -32.500   5.173   2.915  1.00 20.00    -0.103 Cl
ENDROOT
BRANCH   6  10
HETATM   10  C8  UNL     1     -31.991   9.086   0.465  1.00 20.00    -0.010 A 
HETATM   11  C4  UNL     1     -33.271   9.321  -0.288  1.00 20.00     0.005 A 
HETATM   12  C5  UNL     1     -32.672  10.424   0.541  1.00 20.00     0.005 A 
ENDBRANCH   6  10
TORSDOF 1
ENDMDL
MODEL 6
REMARK VINA RESULT:      -4.5     10.985     12.083
REMARK  1 active torsions:
REMARK  status: ('A' for Active; 'I' for Inactive)
REMARK    1  A    between atoms: C8_8  and  C9_9 
ROOT
HETATM    1  C1  UNL     1     -31.600   8.370   1.077  1.00 20.00     0.085 C 
HETATM    2  C2  UNL     1     -32.270   8.507   4.857  1.00 20.00     0.003 C 
HETATM    3  C3  UNL     1     -33.091   7.225   4.948  1.00 20.00     0.005 C 
HETATM    4  C6  UNL     1     -31.509   8.596   3.533  1.00 20.00     0.041 C 
HETATM    5  C7  UNL     1     -33.276   7.157   2.427  1.00 20.00     0.046 C 
HETATM    6  C9  UNL     1     -34.045   7.067   3.757  1.00 20.00    -0.008 C 
HETATM    7  C10 UNL     1     -32.414   8.425   2.303  1.00 20.00     0.125 C 
HETATM    8  N11 UNL     1     -30.959   8.327   0.110  1.00 20.00    -0.195 NA
HETATM    9 CL12 UNL     1     -33.475   9.867   2.120  1.00 20.00    -0.103 Cl
ENDROOT
BRANCH   6  10
HETATM   10  C8  UNL     1     -34.803   5.766   3.849  1.00 20.00    -0.010 A 
HETATM   11  C4  UNL     1     -34.061   4.464   3.961  1.00 20.00     0.005 A 
HETATM   12  C5  UNL     1     -34.829   4.996   5.140  1.00 20.00     0.005 A 
ENDBRANCH   6  10
TORSDOF 1
ENDMDL
MODEL 7
REMARK VINA RESULT:      -4.5      1.777      2.144
REMARK  1 active torsions:
REMARK  status: ('A' for Active; 'I' for Inactive)
REMARK    1  A    between atoms: C8_8  and  C9_9 
ROOT
HETATM    1  C1  UNL     1     -37.176  14.851  -4.596  1.00 20.00     0.085 C 
HETATM    2  C2  UNL     1     -33.510  15.748  -3.878  1.00 20.00     0.003 C 
HETATM    3  C3  UNL     1     -33.760  16.558  -2.610  1.00 20.00     0.005 C 
HETATM    4  C6  UNL     1     -34.731  14.910  -4.262  1.00 20.00     0.041 C 
HETATM    5  C7  UNL     1     -36.238  16.591  -3.114  1.00 20.00     0.046 C 
HETATM    6  C9  UNL     1     -35.012  17.437  -2.728  1.00 20.00    -0.008 C 
HETATM    7  C10 UNL     1     -36.021  15.738  -4.375  1.00 20.00     0.125 C 
HETATM    8  N11 UNL     1     -38.086  14.154  -4.771  1.00 20.00    -0.195 NA
HETATM    9 CL12 UNL     1     -35.937  16.803  -5.824  1.00 20.00    -0.103 Cl
ENDROOT
BRANCH   6  10
HETATM   10  C8  UNL     1     -35.262  18.184  -1.441  1.00 20.00    -0.010 A 
HETATM   11  C4  UNL     1     -36.625  18.167  -0.808  1.00 20.00     0.005 A 
HETATM   12  C5  UNL     1     -35.485  17.431  -0.160  1.00 20.00     0.005 A 
ENDBRANCH   6  10
TORSDOF 1
ENDMDL
MODEL 8
REMARK VINA RESULT:      -4.5      2.069      2.701
REMARK  1 active torsions:
REMARK  status: ('A' for Active; 'I' for Inactive)
REMARK    1  A    between atoms: C8_8  and  C9_9 
ROOT
HETATM    1  C1  UNL     1     -38.662  15.588  -4.495  1.00 20.00     0.085 C 
HETATM    2  C2  UNL     1     -35.333  13.838  -5.277  1.00 20.00     0.003 C 
HETATM    3  C3  UNL     1     -34.553  14.377  -4.083  1.00 20.00     0.005 C 
HETATM    4  C6  UNL     1     -36.840  14.039  -5.103  1.00 20.00     0.041 C 
HETATM    5  C7  UNL     1     -36.396  16.049  -3.627  1.00 20.00     0.046 C 
HETATM    6  C9  UNL     1     -34.879  15.850  -3.801  1.00 20.00    -0.008 C 
HETATM    7  C10 UNL     1     -37.224  15.495  -4.799  1.00 20.00     0.125 C 
HETATM    8  N11 UNL     1     -39.795  15.663  -4.257  1.00 20.00    -0.195 NA
HETATM    9 CL12 UNL     1     -36.966  16.512  -6.261  1.00 20.00    -0.103 Cl
ENDROOT
BRANCH   6  10
HETATM   10  C8  UNL     1     -34.133  16.339  -2.585  1.00 20.00    -0.010 A 
HETATM   11  C4  UNL     1     -34.019  17.813  -2.308  1.00 20.00     0.005 A 
HETATM   12  C5  UNL     1     -34.882  16.947  -1.432  1.00 20.00     0.005 A 
ENDBRANCH   6  10
TORSDOF 1
ENDMDL
MODEL 9
REMARK VINA RESULT:      -4.4      1.955      2.429
REMARK  1 active torsions:
REMARK  status: ('A' for Active; 'I' for Inactive)
REMARK    1  A    between atoms: C8_8  and  C9_9 
ROOT
HETATM    1  C1  UNL     1     -33.828  15.790  -5.849  1.00 20.00     0.085 C 
HETATM    2  C2  UNL     1     -36.638  16.401  -3.302  1.00 20.00     0.003 C 
HETATM    3  C3  UNL     1     -35.822  17.232  -2.318  1.00 20.00     0.005 C 
HETATM    4  C6  UNL     1     -35.932  16.273  -4.653  1.00 20.00     0.041 C 
HETATM    5  C7  UNL     1     -33.693  16.554  -3.503  1.00 20.00     0.046 C 
HETATM    6  C9  UNL     1     -34.400  16.681  -2.142  1.00 20.00    -0.008 C 
HETATM    7  C10 UNL     1     -34.494  15.744  -4.536  1.00 20.00     0.125 C 
HETATM    8  N11 UNL     1     -33.302  15.825  -6.882  1.00 20.00    -0.195 NA
HETATM    9 CL12 UNL     1     -34.521  14.008  -4.062  1.00 20.00    -0.103 Cl
ENDROOT
BRANCH   6  10
HETATM   10  C8  UNL     1     -33.602  17.553  -1.205  1.00 20.00    -0.010 A 
HETATM   11  C4  UNL     1     -33.881  19.028  -1.120  1.00 20.00     0.005 A 
HETATM   12  C5  UNL     1     -34.246  18.126   0.027  1.00 20.00     0.005 A 
ENDBRANCH   6  10
TORSDOF 1
ENDMDL
