MODEL 1
REMARK VINA RESULT:      -6.6      0.000      0.000
REMARK  1 active torsions:
REMARK  status: ('A' for Active; 'I' for Inactive)
REMARK    1  A    between atoms: C10_10  and  C11_11 
ROOT
HETATM    1  C1  UNL     1     -32.886   9.348   0.173  1.00 20.00     0.088 C 
HETATM    2  C2  UNL     1     -32.103   8.458   2.270  1.00 20.00    -0.070 C 
HETATM    3  C3  UNL     1     -32.084   9.423   1.338  1.00 20.00     0.096 C 
HETATM    4  C4  UNL     1     -31.258   8.524   3.511  1.00 20.00     0.035 C 
HETATM    5  C5  UNL     1     -33.011   7.259   2.142  1.00 20.00     0.039 C 
HETATM    6  C6  UNL     1     -32.113   8.391   4.772  1.00 20.00     0.005 C 
HETATM    7  C7  UNL     1     -33.250   7.368   4.657  1.00 20.00     0.005 C 
HETATM    8  C10 UNL     1     -33.098   6.441   3.444  1.00 20.00    -0.007 C 
HETATM    9  N12 UNL     1     -33.540   9.293  -0.784  1.00 20.00    -0.192 NA
ENDROOT
BRANCH   8  10
HETATM   10  C11 UNL     1     -34.246   5.435   3.373  1.00 20.00    -0.010 A 
HETATM   11  C8  UNL     1     -34.228   4.228   4.255  1.00 20.00     0.005 A 
HETATM   12  C9  UNL     1     -35.212   5.335   4.510  1.00 20.00     0.005 A 
ENDBRANCH   8  10
TORSDOF 1
ENDMDL
MODEL 2
REMARK VINA RESULT:      -5.2     10.642     11.323
REMARK  1 active torsions:
REMARK  status: ('A' for Active; 'I' for Inactive)
REMARK    1  A    between atoms: C10_10  and  C11_11 
ROOT
HETATM    1  C1  UNL     1     -37.492  14.117  -5.139  1.00 20.00     0.088 C 
HETATM    2  C2  UNL     1     -35.164  14.502  -4.655  1.00 20.00    -0.070 C 
HETATM    3  C3  UNL     1     -36.114  13.909  -5.394  1.00 20.00     0.096 C 
HETATM    4  C4  UNL     1     -33.698  14.290  -4.914  1.00 20.00     0.035 C 
HETATM    5  C5  UNL     1     -35.516  15.454  -3.538  1.00 20.00     0.039 C 
HETATM    6  C6  UNL     1     -32.975  15.622  -5.125  1.00 20.00     0.005 C 
HETATM    7  C7  UNL     1     -33.448  16.751  -4.201  1.00 20.00     0.005 C 
HETATM    8  C10 UNL     1     -34.297  16.244  -3.027  1.00 20.00    -0.007 C 
HETATM    9  N12 UNL     1     -38.622  14.283  -4.937  1.00 20.00    -0.192 NA
ENDROOT
BRANCH   8  10
HETATM   10  C11 UNL     1     -34.739  17.399  -2.130  1.00 20.00    -0.010 A 
HETATM   11  C8  UNL     1     -35.341  17.109  -0.793  1.00 20.00     0.005 A 
HETATM   12  C9  UNL     1     -33.967  17.709  -0.889  1.00 20.00     0.005 A 
ENDBRANCH   8  10
TORSDOF 1
ENDMDL
MODEL 3
REMARK VINA RESULT:      -5.0     10.515     11.459
REMARK  1 active torsions:
REMARK  status: ('A' for Active; 'I' for Inactive)
REMARK    1  A    between atoms: C10_10  and  C11_11 
ROOT
HETATM    1  C1  UNL     1     -32.345  18.499   0.051  1.00 20.00     0.088 C 
HETATM    2  C2  UNL     1     -34.604  17.795  -0.403  1.00 20.00    -0.070 C 
HETATM    3  C3  UNL     1     -33.732  18.497   0.338  1.00 20.00     0.096 C 
HETATM    4  C4  UNL     1     -36.078  17.784  -0.110  1.00 20.00     0.035 C 
HETATM    5  C5  UNL     1     -34.154  17.002  -1.606  1.00 20.00     0.039 C 
HETATM    6  C6  UNL     1     -36.890  18.205  -1.336  1.00 20.00     0.005 C 
HETATM    7  C7  UNL     1     -36.355  17.658  -2.665  1.00 20.00     0.005 C 
HETATM    8  C10 UNL     1     -35.332  16.529  -2.477  1.00 20.00    -0.007 C 
HETATM    9  N12 UNL     1     -31.207  18.505  -0.178  1.00 20.00    -0.192 NA
ENDROOT
BRANCH   8  10
HETATM   10  C11 UNL     1     -34.833  16.009  -3.824  1.00 20.00    -0.010 A 
HETATM   11  C8  UNL     1     -33.469  15.405  -3.925  1.00 20.00     0.005 A 
HETATM   12  C9  UNL     1     -34.690  14.537  -4.042  1.00 20.00     0.005 A 
ENDBRANCH   8  10
TORSDOF 1
ENDMDL
MODEL 4
REMARK VINA RESULT:      -4.8     10.714     11.949
REMARK  1 active torsions:
REMARK  status: ('A' for Active; 'I' for Inactive)
REMARK    1  A    between atoms: C10_10  and  C11_11 
ROOT
HETATM    1  C1  UNL     1     -35.462  13.829  -5.740  1.00 20.00     0.088 C 
HETATM    2  C2  UNL     1     -34.310  15.934  -5.526  1.00 20.00    -0.070 C 
HETATM    3  C3  UNL     1     -34.920  15.016  -6.291  1.00 20.00     0.096 C 
HETATM    4  C4  UNL     1     -33.731  17.198  -6.097  1.00 20.00     0.035 C 
HETATM    5  C5  UNL     1     -34.203  15.765  -4.030  1.00 20.00     0.039 C 
HETATM    6  C6  UNL     1     -34.300  18.433  -5.398  1.00 20.00     0.005 C 
HETATM    7  C7  UNL     1     -34.481  18.274  -3.883  1.00 20.00     0.005 C 
HETATM    8  C10 UNL     1     -33.743  17.052  -3.320  1.00 20.00    -0.007 C 
HETATM    9  N12 UNL     1     -35.908  12.854  -5.296  1.00 20.00    -0.192 NA
ENDROOT
BRANCH   8  10
HETATM   10  C11 UNL     1     -33.944  16.937  -1.810  1.00 20.00    -0.010 A 
HETATM   11  C8  UNL     1     -34.450  18.113  -1.039  1.00 20.00     0.005 A 
HETATM   12  C9  UNL     1     -35.329  16.913  -1.248  1.00 20.00     0.005 A 
ENDBRANCH   8  10
TORSDOF 1
ENDMDL
MODEL 5
REMARK VINA RESULT:      -4.8      2.383      4.721
REMARK  1 active torsions:
REMARK  status: ('A' for Active; 'I' for Inactive)
REMARK    1  A    between atoms: C10_10  and  C11_11 
ROOT
HETATM    1  C1  UNL     1     -34.274   4.393   4.640  1.00 20.00     0.088 C 
HETATM    2  C2  UNL     1     -33.727   6.736   4.762  1.00 20.00    -0.070 C 
HETATM    3  C3  UNL     1     -34.036   5.582   5.372  1.00 20.00     0.096 C 
HETATM    4  C4  UNL     1     -33.472   8.005   5.526  1.00 20.00     0.035 C 
HETATM    5  C5  UNL     1     -33.579   6.817   3.262  1.00 20.00     0.039 C 
HETATM    6  C6  UNL     1     -32.106   8.597   5.176  1.00 20.00     0.005 C 
HETATM    7  C7  UNL     1     -31.736   8.494   3.691  1.00 20.00     0.005 C 
HETATM    8  C10 UNL     1     -32.934   8.137   2.801  1.00 20.00    -0.007 C 
HETATM    9  N12 UNL     1     -34.471   3.415   4.046  1.00 20.00    -0.192 NA
ENDROOT
BRANCH   8  10
HETATM   10  C11 UNL     1     -32.522   8.053   1.332  1.00 20.00    -0.010 A 
HETATM   11  C8  UNL     1     -32.651   9.258   0.457  1.00 20.00     0.005 A 
HETATM   12  C9  UNL     1     -31.292   8.765   0.868  1.00 20.00     0.005 A 
ENDBRANCH   8  10
TORSDOF 1
ENDMDL
MODEL 6
REMARK VINA RESULT:      -4.7     10.411     11.317
REMARK  1 active torsions:
REMARK  status: ('A' for Active; 'I' for Inactive)
REMARK    1  A    between atoms: C10_10  and  C11_11 
ROOT
HETATM    1  C1  UNL     1     -35.141  17.258  -0.860  1.00 20.00     0.088 C 
HETATM    2  C2  UNL     1     -34.472  16.333  -2.981  1.00 20.00    -0.070 C 
HETATM    3  C3  UNL     1     -34.151  16.890  -1.803  1.00 20.00     0.096 C 
HETATM    4  C4  UNL     1     -33.432  15.938  -3.991  1.00 20.00     0.035 C 
HETATM    5  C5  UNL     1     -35.906  16.034  -3.344  1.00 20.00     0.039 C 
HETATM    6  C6  UNL     1     -33.567  14.464  -4.379  1.00 20.00     0.005 C 
HETATM    7  C7  UNL     1     -35.016  13.980  -4.521  1.00 20.00     0.005 C 
HETATM    8  C10 UNL     1     -36.026  15.133  -4.588  1.00 20.00    -0.007 C 
HETATM    9  N12 UNL     1     -35.947  17.562  -0.082  1.00 20.00    -0.192 NA
ENDROOT
BRANCH   8  10
HETATM   10  C11 UNL     1     -37.453  14.606  -4.737  1.00 20.00    -0.010 A 
HETATM   11  C8  UNL     1     -38.609  15.505  -4.437  1.00 20.00     0.005 A 
HETATM   12  C9  UNL     1     -38.311  15.104  -5.854  1.00 20.00     0.005 A 
ENDBRANCH   8  10
TORSDOF 1
ENDMDL
MODEL 7
REMARK VINA RESULT:      -4.6     10.711     11.912
REMARK  1 active torsions:
REMARK  status: ('A' for Active; 'I' for Inactive)
REMARK    1  A    between atoms: C10_10  and  C11_11 
ROOT
HETATM    1  C1  UNL     1     -36.343  13.833  -5.273  1.00 20.00     0.088 C 
HETATM    2  C2  UNL     1     -36.500  16.156  -4.655  1.00 20.00    -0.070 C 
HETATM    3  C3  UNL     1     -36.968  15.102  -5.342  1.00 20.00     0.096 C 
HETATM    4  C4  UNL     1     -37.153  17.508  -4.718  1.00 20.00     0.035 C 
HETATM    5  C5  UNL     1     -35.304  16.032  -3.744  1.00 20.00     0.039 C 
HETATM    6  C6  UNL     1     -37.517  18.013  -3.321  1.00 20.00     0.005 C 
HETATM    7  C7  UNL     1     -36.469  17.703  -2.245  1.00 20.00     0.005 C 
HETATM    8  C10 UNL     1     -35.122  17.262  -2.834  1.00 20.00    -0.007 C 
HETATM    9  N12 UNL     1     -35.836  12.790  -5.223  1.00 20.00    -0.192 NA
ENDROOT
BRANCH   8  10
HETATM   10  C11 UNL     1     -34.108  16.971  -1.729  1.00 20.00    -0.010 A 
HETATM   11  C8  UNL     1     -32.963  17.907  -1.511  1.00 20.00     0.005 A 
HETATM   12  C9  UNL     1     -34.079  17.832  -0.508  1.00 20.00     0.005 A 
ENDBRANCH   8  10
TORSDOF 1
ENDMDL
MODEL 8
REMARK VINA RESULT:      -4.6     10.811     11.677
REMARK  1 active torsions:
REMARK  status: ('A' for Active; 'I' for Inactive)
REMARK    1  A    between atoms: C10_10  and  C11_11 
ROOT
HETATM    1  C1  UNL     1     -38.630  15.127  -4.684  1.00 20.00     0.088 C 
HETATM    2  C2  UNL     1     -36.303  14.534  -4.875  1.00 20.00    -0.070 C 
HETATM    3  C3  UNL     1     -37.563  14.455  -5.329  1.00 20.00     0.096 C 
HETATM    4  C4  UNL     1     -35.162  13.825  -5.550  1.00 20.00     0.035 C 
HETATM    5  C5  UNL     1     -35.951  15.376  -3.674  1.00 20.00     0.039 C 
HETATM    6  C6  UNL     1     -34.043  14.801  -5.917  1.00 20.00     0.005 C 
HETATM    7  C7  UNL     1     -33.775  15.880  -4.860  1.00 20.00     0.005 C 
HETATM    8  C10 UNL     1     -34.432  15.567  -3.508  1.00 20.00    -0.007 C 
HETATM    9  N12 UNL     1     -39.509  15.675  -4.160  1.00 20.00    -0.192 NA
ENDROOT
BRANCH   8  10
HETATM   10  C11 UNL     1     -34.133  16.662  -2.485  1.00 20.00    -0.010 A 
HETATM   11  C8  UNL     1     -34.927  17.928  -2.504  1.00 20.00     0.005 A 
HETATM   12  C9  UNL     1     -35.112  16.937  -1.390  1.00 20.00     0.005 A 
ENDBRANCH   8  10
TORSDOF 1
ENDMDL
MODEL 9
REMARK VINA RESULT:      -4.5     11.089     12.043
REMARK  1 active torsions:
REMARK  status: ('A' for Active; 'I' for Inactive)
REMARK    1  A    between atoms: C10_10  and  C11_11 
ROOT
HETATM    1  C1  UNL     1     -37.294  18.597   0.111  1.00 20.00     0.088 C 
HETATM    2  C2  UNL     1     -35.212  17.707  -0.710  1.00 20.00    -0.070 C 
HETATM    3  C3  UNL     1     -36.539  17.860  -0.835  1.00 20.00     0.096 C 
HETATM    4  C4  UNL     1     -34.398  16.928  -1.706  1.00 20.00     0.035 C 
HETATM    5  C5  UNL     1     -34.449  18.345   0.424  1.00 20.00     0.039 C 
HETATM    6  C6  UNL     1     -33.253  17.772  -2.267  1.00 20.00     0.005 C 
HETATM    7  C7  UNL     1     -32.566  18.671  -1.232  1.00 20.00     0.005 C 
HETATM    8  C10 UNL     1     -32.924  18.298   0.214  1.00 20.00    -0.007 C 
HETATM    9  N12 UNL     1     -37.919  19.199   0.881  1.00 20.00    -0.192 NA
ENDROOT
BRANCH   8  10
HETATM   10  C11 UNL     1     -32.213  19.213   1.210  1.00 20.00    -0.010 A 
HETATM   11  C8  UNL     1     -32.032  18.767   2.625  1.00 20.00     0.005 A 
HETATM   12  C9  UNL     1     -30.849  18.850   1.702  1.00 20.00     0.005 A 
ENDBRANCH   8  10
TORSDOF 1
ENDMDL
