MODEL 1
REMARK VINA RESULT:      -4.5      0.000      0.000
REMARK  1 active torsions:
REMARK  status: ('A' for Active; 'I' for Inactive)
REMARK    1  A    between atoms: C1_1  and  C2_2 
ROOT
HETATM    1  C1  UNL     1     -34.694   4.675   4.752  1.00 20.00     0.385 C 
HETATM    2  F3  UNL     1     -34.273   4.579   6.038  1.00 20.00    -0.212 F 
HETATM    3  F4  UNL     1     -33.992   3.756   4.040  1.00 20.00    -0.212 F 
ENDROOT
BRANCH   1   4
HETATM    4  C2  UNL     1     -34.429   6.062   4.201  1.00 20.00     0.242 C 
HETATM    5 CL5  UNL     1     -33.868   7.146   5.493  1.00 20.00    -0.102 Cl
HETATM    6 CL6  UNL     1     -33.215   6.001   2.898  1.00 20.00    -0.102 Cl
ENDBRANCH   1   4
TORSDOF 1
ENDMDL
MODEL 2
REMARK VINA RESULT:      -4.4      1.468      1.804
REMARK  1 active torsions:
REMARK  status: ('A' for Active; 'I' for Inactive)
REMARK    1  A    between atoms: C1_1  and  C2_2 
ROOT
HETATM    1  C1  UNL     1     -34.761   5.706   4.202  1.00 20.00     0.385 C 
HETATM    2  F3  UNL     1     -36.002   5.870   3.680  1.00 20.00    -0.212 F 
HETATM    3  F4  UNL     1     -34.926   5.235   5.464  1.00 20.00    -0.212 F 
ENDROOT
BRANCH   1   4
HETATM    4  C2  UNL     1     -34.014   7.025   4.239  1.00 20.00     0.242 C 
HETATM    5 CL5  UNL     1     -33.476   7.386   5.894  1.00 20.00    -0.102 Cl
HETATM    6 CL6  UNL     1     -32.608   6.983   3.145  1.00 20.00    -0.102 Cl
ENDBRANCH   1   4
TORSDOF 1
ENDMDL
MODEL 3
REMARK VINA RESULT:      -4.4      2.157      2.899
REMARK  1 active torsions:
REMARK  status: ('A' for Active; 'I' for Inactive)
REMARK    1  A    between atoms: C1_1  and  C2_2 
ROOT
HETATM    1  C1  UNL     1     -33.494   6.160   2.957  1.00 20.00     0.385 C 
HETATM    2  F3  UNL     1     -33.034   4.936   2.597  1.00 20.00    -0.212 F 
HETATM    3  F4  UNL     1     -32.408   6.908   3.278  1.00 20.00    -0.212 F 
ENDROOT
BRANCH   1   4
HETATM    4  C2  UNL     1     -34.419   6.058   4.154  1.00 20.00     0.242 C 
HETATM    5 CL5  UNL     1     -34.528   4.373   4.711  1.00 20.00    -0.102 Cl
HETATM    6 CL6  UNL     1     -33.845   7.096   5.484  1.00 20.00    -0.102 Cl
ENDBRANCH   1   4
TORSDOF 1
ENDMDL
MODEL 4
REMARK VINA RESULT:      -4.3      2.041      2.652
REMARK  1 active torsions:
REMARK  status: ('A' for Active; 'I' for Inactive)
REMARK    1  A    between atoms: C1_1  and  C2_2 
ROOT
HETATM    1  C1  UNL     1     -34.195   6.892   5.200  1.00 20.00     0.385 C 
HETATM    2  F3  UNL     1     -32.934   7.382   5.291  1.00 20.00    -0.212 F 
HETATM    3  F4  UNL     1     -34.416   6.167   6.325  1.00 20.00    -0.212 F 
ENDROOT
BRANCH   1   4
HETATM    4  C2  UNL     1     -34.340   6.004   3.979  1.00 20.00     0.242 C 
HETATM    5 CL5  UNL     1     -32.976   6.248   2.867  1.00 20.00    -0.102 Cl
HETATM    6 CL6  UNL     1     -34.428   4.289   4.456  1.00 20.00    -0.102 Cl
ENDBRANCH   1   4
TORSDOF 1
ENDMDL
MODEL 5
REMARK VINA RESULT:      -4.3      1.756      2.052
REMARK  1 active torsions:
REMARK  status: ('A' for Active; 'I' for Inactive)
REMARK    1  A    between atoms: C1_1  and  C2_2 
ROOT
HETATM    1  C1  UNL     1     -34.388   5.762   3.907  1.00 20.00     0.385 C 
HETATM    2  F3  UNL     1     -33.802   5.213   2.814  1.00 20.00    -0.212 F 
HETATM    3  F4  UNL     1     -35.717   5.839   3.643  1.00 20.00    -0.212 F 
ENDROOT
BRANCH   1   4
HETATM    4  C2  UNL     1     -33.836   7.149   4.174  1.00 20.00     0.242 C 
HETATM    5 CL5  UNL     1     -33.541   7.375   5.913  1.00 20.00    -0.102 Cl
HETATM    6 CL6  UNL     1     -32.324   7.411   3.268  1.00 20.00    -0.102 Cl
ENDBRANCH   1   4
TORSDOF 1
ENDMDL
MODEL 6
REMARK VINA RESULT:      -4.3      2.415      2.970
REMARK  1 active torsions:
REMARK  status: ('A' for Active; 'I' for Inactive)
REMARK    1  A    between atoms: C1_1  and  C2_2 
ROOT
HETATM    1  C1  UNL     1     -33.520   6.460   3.346  1.00 20.00     0.385 C 
HETATM    2  F3  UNL     1     -33.370   7.778   3.063  1.00 20.00    -0.212 F 
HETATM    3  F4  UNL     1     -34.084   5.886   2.253  1.00 20.00    -0.212 F 
ENDROOT
BRANCH   1   4
HETATM    4  C2  UNL     1     -34.424   6.268   4.549  1.00 20.00     0.242 C 
HETATM    5 CL5  UNL     1     -34.543   4.545   4.967  1.00 20.00    -0.102 Cl
HETATM    6 CL6  UNL     1     -33.812   7.185   5.949  1.00 20.00    -0.102 Cl
ENDBRANCH   1   4
TORSDOF 1
ENDMDL
MODEL 7
REMARK VINA RESULT:      -4.1      1.362      2.244
REMARK  1 active torsions:
REMARK  status: ('A' for Active; 'I' for Inactive)
REMARK    1  A    between atoms: C1_1  and  C2_2 
ROOT
HETATM    1  C1  UNL     1     -34.955   5.359   4.633  1.00 20.00     0.385 C 
HETATM    2  F3  UNL     1     -34.677   4.079   4.283  1.00 20.00    -0.212 F 
HETATM    3  F4  UNL     1     -35.812   5.844   3.699  1.00 20.00    -0.212 F 
ENDROOT
BRANCH   1   4
HETATM    4  C2  UNL     1     -33.692   6.198   4.655  1.00 20.00     0.242 C 
HETATM    5 CL5  UNL     1     -33.453   7.001   3.088  1.00 20.00    -0.102 Cl
HETATM    6 CL6  UNL     1     -33.769   7.418   5.951  1.00 20.00    -0.102 Cl
ENDBRANCH   1   4
TORSDOF 1
ENDMDL
MODEL 8
REMARK VINA RESULT:      -4.1      2.428      3.037
REMARK  1 active torsions:
REMARK  status: ('A' for Active; 'I' for Inactive)
REMARK    1  A    between atoms: C1_1  and  C2_2 
ROOT
HETATM    1  C1  UNL     1     -33.683   6.996   4.466  1.00 20.00     0.385 C 
HETATM    2  F3  UNL     1     -34.153   7.354   5.686  1.00 20.00    -0.212 F 
HETATM    3  F4  UNL     1     -34.020   7.993   3.608  1.00 20.00    -0.212 F 
ENDROOT
BRANCH   1   4
HETATM    4  C2  UNL     1     -34.307   5.692   4.008  1.00 20.00     0.242 C 
HETATM    5 CL5  UNL     1     -33.263   4.889   2.816  1.00 20.00    -0.102 Cl
HETATM    6 CL6  UNL     1     -34.585   4.607   5.393  1.00 20.00    -0.102 Cl
ENDBRANCH   1   4
TORSDOF 1
ENDMDL
MODEL 9
REMARK VINA RESULT:      -4.1      3.103      3.601
REMARK  1 active torsions:
REMARK  status: ('A' for Active; 'I' for Inactive)
REMARK    1  A    between atoms: C1_1  and  C2_2 
ROOT
HETATM    1  C1  UNL     1     -32.613   7.347   3.282  1.00 20.00     0.385 C 
HETATM    2  F3  UNL     1     -31.738   8.116   3.976  1.00 20.00    -0.212 F 
HETATM    3  F4  UNL     1     -32.887   8.008   2.129  1.00 20.00    -0.212 F 
ENDROOT
BRANCH   1   4
HETATM    4  C2  UNL     1     -33.891   7.138   4.071  1.00 20.00     0.242 C 
HETATM    5 CL5  UNL     1     -34.553   5.518   3.762  1.00 20.00    -0.102 Cl
HETATM    6 CL6  UNL     1     -33.594   7.345   5.815  1.00 20.00    -0.102 Cl
ENDBRANCH   1   4
TORSDOF 1
ENDMDL
