MODEL 1
REMARK VINA RESULT:      -4.5      0.000      0.000
REMARK  1 active torsions:
REMARK  status: ('A' for Active; 'I' for Inactive)
REMARK    1  A    between atoms: C1_1  and  C2_2 
ROOT
HETATM    1  C1  UNL     1     -34.670   5.519   4.151  1.00 20.00     0.401 C 
HETATM    2  F3  UNL     1     -35.870   5.885   3.635  1.00 20.00    -0.210 F 
HETATM    3  F4  UNL     1     -34.572   4.175   3.995  1.00 20.00    -0.210 F 
ENDROOT
BRANCH   1   4
HETATM    4  C2  UNL     1     -34.614   5.855   5.621  1.00 20.00     0.330 C 
HETATM    5  F5  UNL     1     -34.078   4.798   6.288  1.00 20.00    -0.227 F 
HETATM    6 CL6  UNL     1     -33.613   7.288   5.910  1.00 20.00    -0.084 Cl
ENDBRANCH   1   4
TORSDOF 1
ENDMDL
MODEL 2
REMARK VINA RESULT:      -4.4      0.865      2.189
REMARK  1 active torsions:
REMARK  status: ('A' for Active; 'I' for Inactive)
REMARK    1  A    between atoms: C1_1  and  C2_2 
ROOT
HETATM    1  C1  UNL     1     -34.689   4.580   4.942  1.00 20.00     0.401 C 
HETATM    2  F3  UNL     1     -34.180   4.886   6.162  1.00 20.00    -0.210 F 
HETATM    3  F4  UNL     1     -33.967   3.533   4.470  1.00 20.00    -0.210 F 
ENDROOT
BRANCH   1   4
HETATM    4  C2  UNL     1     -34.534   5.754   4.007  1.00 20.00     0.330 C 
HETATM    5  F5  UNL     1     -35.758   6.079   3.512  1.00 20.00    -0.227 F 
HETATM    6 CL6  UNL     1     -33.860   7.158   4.852  1.00 20.00    -0.084 Cl
ENDBRANCH   1   4
TORSDOF 1
ENDMDL
MODEL 3
REMARK VINA RESULT:      -4.4      1.655      1.848
REMARK  1 active torsions:
REMARK  status: ('A' for Active; 'I' for Inactive)
REMARK    1  A    between atoms: C1_1  and  C2_2 
ROOT
HETATM    1  C1  UNL     1     -34.551   5.706   4.714  1.00 20.00     0.401 C 
HETATM    2  F3  UNL     1     -35.692   5.783   3.984  1.00 20.00    -0.210 F 
HETATM    3  F4  UNL     1     -34.903   5.248   5.942  1.00 20.00    -0.210 F 
ENDROOT
BRANCH   1   4
HETATM    4  C2  UNL     1     -33.931   7.075   4.852  1.00 20.00     0.330 C 
HETATM    5  F5  UNL     1     -33.337   7.161   6.073  1.00 20.00    -0.227 F 
HETATM    6 CL6  UNL     1     -32.713   7.353   3.595  1.00 20.00    -0.084 Cl
ENDBRANCH   1   4
TORSDOF 1
ENDMDL
MODEL 4
REMARK VINA RESULT:      -4.3      2.167      2.928
REMARK  1 active torsions:
REMARK  status: ('A' for Active; 'I' for Inactive)
REMARK    1  A    between atoms: C1_1  and  C2_2 
ROOT
HETATM    1  C1  UNL     1     -33.921   6.675   4.898  1.00 20.00     0.401 C 
HETATM    2  F3  UNL     1     -34.134   7.287   6.089  1.00 20.00    -0.210 F 
HETATM    3  F4  UNL     1     -34.037   7.630   3.942  1.00 20.00    -0.210 F 
ENDROOT
BRANCH   1   4
HETATM    4  C2  UNL     1     -34.966   5.610   4.668  1.00 20.00     0.330 C 
HETATM    5  F5  UNL     1     -35.719   5.966   3.592  1.00 20.00    -0.227 F 
HETATM    6 CL6  UNL     1     -34.215   4.037   4.354  1.00 20.00    -0.084 Cl
ENDBRANCH   1   4
TORSDOF 1
ENDMDL
MODEL 5
REMARK VINA RESULT:      -4.3      1.343      2.492
REMARK  1 active torsions:
REMARK  status: ('A' for Active; 'I' for Inactive)
REMARK    1  A    between atoms: C1_1  and  C2_2 
ROOT
HETATM    1  C1  UNL     1     -34.702   5.691   5.575  1.00 20.00     0.401 C 
HETATM    2  F3  UNL     1     -34.018   6.745   6.084  1.00 20.00    -0.210 F 
HETATM    3  F4  UNL     1     -34.108   4.571   6.058  1.00 20.00    -0.210 F 
ENDROOT
BRANCH   1   4
HETATM    4  C2  UNL     1     -34.612   5.693   4.069  1.00 20.00     0.330 C 
HETATM    5  F5  UNL     1     -35.837   5.996   3.561  1.00 20.00    -0.227 F 
HETATM    6 CL6  UNL     1     -33.437   6.891   3.501  1.00 20.00    -0.084 Cl
ENDBRANCH   1   4
TORSDOF 1
ENDMDL
MODEL 6
REMARK VINA RESULT:      -4.3      1.834      2.327
REMARK  1 active torsions:
REMARK  status: ('A' for Active; 'I' for Inactive)
REMARK    1  A    between atoms: C1_1  and  C2_2 
ROOT
HETATM    1  C1  UNL     1     -34.780   4.678   4.880  1.00 20.00     0.401 C 
HETATM    2  F3  UNL     1     -34.192   4.799   6.096  1.00 20.00    -0.210 F 
HETATM    3  F4  UNL     1     -34.149   3.661   4.241  1.00 20.00    -0.210 F 
ENDROOT
BRANCH   1   4
HETATM    4  C2  UNL     1     -34.601   5.951   4.089  1.00 20.00     0.330 C 
HETATM    5  F5  UNL     1     -34.211   6.939   4.939  1.00 20.00    -0.227 F 
HETATM    6 CL6  UNL     1     -33.371   5.751   2.830  1.00 20.00    -0.084 Cl
ENDBRANCH   1   4
TORSDOF 1
ENDMDL
MODEL 7
REMARK VINA RESULT:      -4.3      1.253      1.907
REMARK  1 active torsions:
REMARK  status: ('A' for Active; 'I' for Inactive)
REMARK    1  A    between atoms: C1_1  and  C2_2 
ROOT
HETATM    1  C1  UNL     1     -34.686   5.477   4.347  1.00 20.00     0.401 C 
HETATM    2  F3  UNL     1     -35.885   5.860   3.841  1.00 20.00    -0.210 F 
HETATM    3  F4  UNL     1     -34.922   5.012   5.600  1.00 20.00    -0.210 F 
ENDROOT
BRANCH   1   4
HETATM    4  C2  UNL     1     -33.753   6.661   4.423  1.00 20.00     0.330 C 
HETATM    5  F5  UNL     1     -34.166   7.597   3.526  1.00 20.00    -0.227 F 
HETATM    6 CL6  UNL     1     -33.757   7.372   6.045  1.00 20.00    -0.084 Cl
ENDBRANCH   1   4
TORSDOF 1
ENDMDL
MODEL 8
REMARK VINA RESULT:      -4.3      1.677      2.212
REMARK  1 active torsions:
REMARK  status: ('A' for Active; 'I' for Inactive)
REMARK    1  A    between atoms: C1_1  and  C2_2 
ROOT
HETATM    1  C1  UNL     1     -33.970   5.819   3.170  1.00 20.00     0.401 C 
HETATM    2  F3  UNL     1     -33.104   4.932   2.621  1.00 20.00    -0.210 F 
HETATM    3  F4  UNL     1     -33.223   6.837   3.666  1.00 20.00    -0.210 F 
ENDROOT
BRANCH   1   4
HETATM    4  C2  UNL     1     -34.735   5.167   4.297  1.00 20.00     0.330 C 
HETATM    5  F5  UNL     1     -34.358   3.862   4.379  1.00 20.00    -0.227 F 
HETATM    6 CL6  UNL     1     -34.398   5.966   5.842  1.00 20.00    -0.084 Cl
ENDBRANCH   1   4
TORSDOF 1
ENDMDL
MODEL 9
REMARK VINA RESULT:      -4.3      2.271      2.910
REMARK  1 active torsions:
REMARK  status: ('A' for Active; 'I' for Inactive)
REMARK    1  A    between atoms: C1_1  and  C2_2 
ROOT
HETATM    1  C1  UNL     1     -33.587   5.943   2.821  1.00 20.00     0.401 C 
HETATM    2  F3  UNL     1     -33.091   4.718   2.517  1.00 20.00    -0.210 F 
HETATM    3  F4  UNL     1     -32.530   6.714   3.182  1.00 20.00    -0.210 F 
ENDROOT
BRANCH   1   4
HETATM    4  C2  UNL     1     -34.548   5.840   3.980  1.00 20.00     0.330 C 
HETATM    5  F5  UNL     1     -35.813   6.017   3.513  1.00 20.00    -0.227 F 
HETATM    6 CL6  UNL     1     -34.436   4.255   4.763  1.00 20.00    -0.084 Cl
ENDBRANCH   1   4
TORSDOF 1
ENDMDL
