MODEL 1
REMARK VINA RESULT:      -5.2      0.000      0.000
REMARK  2 active torsions:
REMARK  status: ('A' for Active; 'I' for Inactive)
REMARK    1  A    between atoms: C3_3  and  C6_6 
REMARK    2  A    between atoms: C3_3  and  O8_8 
ROOT
HETATM    1  C1  UNL     1     -33.742   7.448   6.086  1.00 20.00     0.013 C 
HETATM    2  C2  UNL     1     -34.059   6.696   5.205  1.00 20.00    -0.103 C 
HETATM    3  C4  UNL     1     -34.550   4.348   4.647  1.00 20.00     0.034 C 
HETATM    4  C6  UNL     1     -34.452   5.777   4.121  1.00 20.00     0.159 C 
ENDROOT
BRANCH   4   5
HETATM    5  C3  UNL     1     -33.466   5.838   2.967  1.00 20.00     0.273 C 
HETATM    6  O7  UNL     1     -32.840   4.883   2.526  1.00 20.00    -0.264 OA
BRANCH   5   7
HETATM    7  O8  UNL     1     -33.395   7.120   2.498  1.00 20.00    -0.326 OA
HETATM    8  C5  UNL     1     -32.094   7.716   2.525  1.00 20.00     0.213 C 
ENDBRANCH   5   7
ENDBRANCH   4   5
TORSDOF 2
ENDMDL
MODEL 2
REMARK VINA RESULT:      -5.1      1.826      2.228
REMARK  2 active torsions:
REMARK  status: ('A' for Active; 'I' for Inactive)
REMARK    1  A    between atoms: C3_3  and  C6_6 
REMARK    2  A    between atoms: C3_3  and  O8_8 
ROOT
HETATM    1  C1  UNL     1     -33.798   7.228   5.930  1.00 20.00     0.013 C 
HETATM    2  C2  UNL     1     -33.659   7.168   4.739  1.00 20.00    -0.103 C 
HETATM    3  C4  UNL     1     -33.297   5.650   2.833  1.00 20.00     0.034 C 
HETATM    4  C6  UNL     1     -33.492   7.097   3.275  1.00 20.00     0.159 C 
ENDROOT
BRANCH   4   5
HETATM    5  C3  UNL     1     -32.315   7.941   2.818  1.00 20.00     0.273 C 
HETATM    6  O7  UNL     1     -31.340   8.219   3.504  1.00 20.00    -0.264 OA
BRANCH   5   7
HETATM    7  O8  UNL     1     -32.512   8.334   1.524  1.00 20.00    -0.326 OA
HETATM    8  C5  UNL     1     -32.470   9.747   1.294  1.00 20.00     0.213 C 
ENDBRANCH   5   7
ENDBRANCH   4   5
TORSDOF 2
ENDMDL
MODEL 3
REMARK VINA RESULT:      -4.9      1.630      2.017
REMARK  2 active torsions:
REMARK  status: ('A' for Active; 'I' for Inactive)
REMARK    1  A    between atoms: C3_3  and  C6_6 
REMARK    2  A    between atoms: C3_3  and  O8_8 
ROOT
HETATM    1  C1  UNL     1     -34.750   5.028   5.623  1.00 20.00     0.013 C 
HETATM    2  C2  UNL     1     -34.374   5.429   4.556  1.00 20.00    -0.103 C 
HETATM    3  C4  UNL     1     -33.067   4.867   2.545  1.00 20.00     0.034 C 
HETATM    4  C6  UNL     1     -33.918   5.923   3.243  1.00 20.00     0.159 C 
ENDROOT
BRANCH   4   5
HETATM    5  C3  UNL     1     -33.128   7.212   3.389  1.00 20.00     0.273 C 
HETATM    6  O7  UNL     1     -32.682   7.649   4.442  1.00 20.00    -0.264 OA
BRANCH   5   7
HETATM    7  O8  UNL     1     -32.987   7.800   2.163  1.00 20.00    -0.326 OA
HETATM    8  C5  UNL     1     -31.788   8.559   1.976  1.00 20.00     0.213 C 
ENDBRANCH   5   7
ENDBRANCH   4   5
TORSDOF 2
ENDMDL
MODEL 4
REMARK VINA RESULT:      -4.6      1.247      3.139
REMARK  2 active torsions:
REMARK  status: ('A' for Active; 'I' for Inactive)
REMARK    1  A    between atoms: C3_3  and  C6_6 
REMARK    2  A    between atoms: C3_3  and  O8_8 
ROOT
HETATM    1  C1  UNL     1     -31.825   8.384   1.965  1.00 20.00     0.013 C 
HETATM    2  C2  UNL     1     -32.632   7.903   2.713  1.00 20.00    -0.103 C 
HETATM    3  C4  UNL     1     -33.219   7.551   5.079  1.00 20.00     0.034 C 
HETATM    4  C6  UNL     1     -33.628   7.315   3.628  1.00 20.00     0.159 C 
ENDROOT
BRANCH   4   5
HETATM    5  C3  UNL     1     -33.795   5.828   3.371  1.00 20.00     0.273 C 
HETATM    6  O7  UNL     1     -33.075   5.154   2.645  1.00 20.00    -0.264 OA
BRANCH   5   7
HETATM    7  O8  UNL     1     -34.865   5.361   4.082  1.00 20.00    -0.326 OA
HETATM    8  C5  UNL     1     -34.577   4.317   5.018  1.00 20.00     0.213 C 
ENDBRANCH   5   7
ENDBRANCH   4   5
TORSDOF 2
ENDMDL
MODEL 5
REMARK VINA RESULT:      -4.6      1.842      3.723
REMARK  2 active torsions:
REMARK  status: ('A' for Active; 'I' for Inactive)
REMARK    1  A    between atoms: C3_3  and  C6_6 
REMARK    2  A    between atoms: C3_3  and  O8_8 
ROOT
HETATM    1  C1  UNL     1     -32.944   4.626   2.341  1.00 20.00     0.013 C 
HETATM    2  C2  UNL     1     -33.114   5.719   2.808  1.00 20.00    -0.103 C 
HETATM    3  C4  UNL     1     -32.049   7.887   3.288  1.00 20.00     0.034 C 
HETATM    4  C6  UNL     1     -33.329   7.062   3.378  1.00 20.00     0.159 C 
ENDROOT
BRANCH   4   5
HETATM    5  C3  UNL     1     -33.789   6.974   4.823  1.00 20.00     0.273 C 
HETATM    6  O7  UNL     1     -33.307   7.607   5.754  1.00 20.00    -0.264 OA
BRANCH   5   7
HETATM    7  O8  UNL     1     -34.823   6.086   4.918  1.00 20.00    -0.326 OA
HETATM    8  C5  UNL     1     -34.624   5.000   5.828  1.00 20.00     0.213 C 
ENDBRANCH   5   7
ENDBRANCH   4   5
TORSDOF 2
ENDMDL
MODEL 6
REMARK VINA RESULT:      -4.5      1.359      3.032
REMARK  2 active torsions:
REMARK  status: ('A' for Active; 'I' for Inactive)
REMARK    1  A    between atoms: C3_3  and  C6_6 
REMARK    2  A    between atoms: C3_3  and  O8_8 
ROOT
HETATM    1  C1  UNL     1     -31.757   7.859   2.930  1.00 20.00     0.013 C 
HETATM    2  C2  UNL     1     -32.752   7.629   3.563  1.00 20.00    -0.103 C 
HETATM    3  C4  UNL     1     -33.645   7.206   5.818  1.00 20.00     0.034 C 
HETATM    4  C6  UNL     1     -33.976   7.351   4.336  1.00 20.00     0.159 C 
ENDROOT
BRANCH   4   5
HETATM    5  C3  UNL     1     -34.666   6.094   3.834  1.00 20.00     0.273 C 
HETATM    6  O7  UNL     1     -35.866   5.989   3.616  1.00 20.00    -0.264 OA
BRANCH   5   7
HETATM    7  O8  UNL     1     -33.738   5.106   3.658  1.00 20.00    -0.326 OA
HETATM    8  C5  UNL     1     -34.031   3.861   4.299  1.00 20.00     0.213 C 
ENDBRANCH   5   7
ENDBRANCH   4   5
TORSDOF 2
ENDMDL
MODEL 7
REMARK VINA RESULT:      -4.5      1.666      3.008
REMARK  2 active torsions:
REMARK  status: ('A' for Active; 'I' for Inactive)
REMARK    1  A    between atoms: C3_3  and  C6_6 
REMARK    2  A    between atoms: C3_3  and  O8_8 
ROOT
HETATM    1  C1  UNL     1     -32.623   8.222   2.121  1.00 20.00     0.013 C 
HETATM    2  C2  UNL     1     -32.863   7.212   2.723  1.00 20.00    -0.103 C 
HETATM    3  C4  UNL     1     -33.069   4.764   2.540  1.00 20.00     0.034 C 
HETATM    4  C6  UNL     1     -33.154   5.972   3.468  1.00 20.00     0.159 C 
ENDROOT
BRANCH   4   5
HETATM    5  C3  UNL     1     -34.526   6.033   4.115  1.00 20.00     0.273 C 
HETATM    6  O7  UNL     1     -35.591   6.019   3.510  1.00 20.00    -0.264 OA
BRANCH   5   7
HETATM    7  O8  UNL     1     -34.386   6.099   5.473  1.00 20.00    -0.326 OA
HETATM    8  C5  UNL     1     -33.752   7.282   5.972  1.00 20.00     0.213 C 
ENDBRANCH   5   7
ENDBRANCH   4   5
TORSDOF 2
ENDMDL
MODEL 8
REMARK VINA RESULT:      -4.4      1.783      3.435
REMARK  2 active torsions:
REMARK  status: ('A' for Active; 'I' for Inactive)
REMARK    1  A    between atoms: C3_3  and  C6_6 
REMARK    2  A    between atoms: C3_3  and  O8_8 
ROOT
HETATM    1  C1  UNL     1     -32.144   8.857   2.031  1.00 20.00     0.013 C 
HETATM    2  C2  UNL     1     -32.495   7.845   2.573  1.00 20.00    -0.103 C 
HETATM    3  C4  UNL     1     -33.896   5.831   2.356  1.00 20.00     0.034 C 
HETATM    4  C6  UNL     1     -32.919   6.600   3.240  1.00 20.00     0.159 C 
ENDROOT
BRANCH   4   5
HETATM    5  C3  UNL     1     -33.559   6.893   4.586  1.00 20.00     0.273 C 
HETATM    6  O7  UNL     1     -33.127   7.686   5.413  1.00 20.00    -0.264 OA
BRANCH   5   7
HETATM    7  O8  UNL     1     -34.691   6.139   4.725  1.00 20.00    -0.326 OA
HETATM    8  C5  UNL     1     -34.630   5.110   5.718  1.00 20.00     0.213 C 
ENDBRANCH   5   7
ENDBRANCH   4   5
TORSDOF 2
ENDMDL
MODEL 9
REMARK VINA RESULT:      -4.3      1.598      2.007
REMARK  2 active torsions:
REMARK  status: ('A' for Active; 'I' for Inactive)
REMARK    1  A    between atoms: C3_3  and  C6_6 
REMARK    2  A    between atoms: C3_3  and  O8_8 
ROOT
HETATM    1  C1  UNL     1     -34.692   5.615   5.518  1.00 20.00     0.013 C 
HETATM    2  C2  UNL     1     -34.334   5.752   4.380  1.00 20.00    -0.103 C 
HETATM    3  C4  UNL     1     -33.038   4.742   2.546  1.00 20.00     0.034 C 
HETATM    4  C6  UNL     1     -33.900   5.923   2.981  1.00 20.00     0.159 C 
ENDROOT
BRANCH   4   5
HETATM    5  C3  UNL     1     -33.131   7.220   2.802  1.00 20.00     0.273 C 
HETATM    6  O7  UNL     1     -33.097   7.881   1.772  1.00 20.00    -0.264 OA
BRANCH   5   7
HETATM    7  O8  UNL     1     -32.493   7.535   3.969  1.00 20.00    -0.326 OA
HETATM    8  C5  UNL     1     -31.323   8.348   3.833  1.00 20.00     0.213 C 
ENDBRANCH   5   7
ENDBRANCH   4   5
TORSDOF 2
ENDMDL
