MODEL 1
REMARK VINA RESULT:      -5.7      0.000      0.000
REMARK  0 active torsions:
REMARK  status: ('A' for Active; 'I' for Inactive)
ROOT
HETATM    1  C1  UNL     1     -34.400   5.132   4.187  1.00 20.00     0.127 C 
HETATM    2  C2  UNL     1     -34.583   6.489   4.830  1.00 20.00     0.079 C 
HETATM    3  C3  UNL     1     -33.760   5.118   2.816  1.00 20.00     0.079 C 
HETATM    4  C4  UNL     1     -33.277   7.271   4.804  1.00 20.00     0.017 C 
HETATM    5  C5  UNL     1     -32.475   5.937   2.813  1.00 20.00     0.017 C 
HETATM    6  C6  UNL     1     -32.092   8.819   1.929  1.00 20.00     0.002 C 
HETATM    7  C7  UNL     1     -31.492   8.292   3.245  1.00 20.00     0.009 C 
HETATM    8  C8  UNL     1     -33.469   8.339   2.424  1.00 20.00     0.009 C 
HETATM    9  C9  UNL     1     -32.726   7.347   3.375  1.00 20.00    -0.040 C 
HETATM   10  O10 UNL     1     -34.841   4.107   4.703  1.00 20.00    -0.298 OA
ENDROOT
TORSDOF 0
ENDMDL
MODEL 2
REMARK VINA RESULT:      -5.2      0.766      1.982
REMARK  0 active torsions:
REMARK  status: ('A' for Active; 'I' for Inactive)
ROOT
HETATM    1  C1  UNL     1     -34.271   5.082   4.368  1.00 20.00     0.127 C 
HETATM    2  C2  UNL     1     -33.375   4.790   3.185  1.00 20.00     0.079 C 
HETATM    3  C3  UNL     1     -34.086   6.426   5.037  1.00 20.00     0.079 C 
HETATM    4  C4  UNL     1     -33.426   5.936   2.183  1.00 20.00     0.017 C 
HETATM    5  C5  UNL     1     -34.105   7.548   4.007  1.00 20.00     0.017 C 
HETATM    6  C6  UNL     1     -31.738   8.930   2.695  1.00 20.00     0.002 C 
HETATM    7  C7  UNL     1     -32.951   8.454   1.875  1.00 20.00     0.009 C 
HETATM    8  C8  UNL     1     -31.597   7.490   3.225  1.00 20.00     0.009 C 
HETATM    9  C9  UNL     1     -33.103   7.266   2.875  1.00 20.00    -0.040 C 
HETATM   10  O10 UNL     1     -35.035   4.234   4.825  1.00 20.00    -0.298 OA
ENDROOT
TORSDOF 0
ENDMDL
MODEL 3
REMARK VINA RESULT:      -4.4     11.275     11.879
REMARK  0 active torsions:
REMARK  status: ('A' for Active; 'I' for Inactive)
ROOT
HETATM    1  C1  UNL     1     -35.504  13.916  -4.925  1.00 20.00     0.127 C 
HETATM    2  C2  UNL     1     -36.442  14.995  -4.432  1.00 20.00     0.079 C 
HETATM    3  C3  UNL     1     -34.067  14.326  -5.156  1.00 20.00     0.079 C 
HETATM    4  C4  UNL     1     -35.850  15.701  -3.219  1.00 20.00     0.017 C 
HETATM    5  C5  UNL     1     -33.514  15.060  -3.940  1.00 20.00     0.017 C 
HETATM    6  C6  UNL     1     -33.313  18.058  -3.493  1.00 20.00     0.002 C 
HETATM    7  C7  UNL     1     -33.851  17.114  -2.403  1.00 20.00     0.009 C 
HETATM    8  C8  UNL     1     -34.383  17.488  -4.443  1.00 20.00     0.009 C 
HETATM    9  C9  UNL     1     -34.441  16.218  -3.536  1.00 20.00    -0.040 C 
HETATM   10  O10 UNL     1     -35.910  12.793  -5.221  1.00 20.00    -0.298 OA
ENDROOT
TORSDOF 0
ENDMDL
MODEL 4
REMARK VINA RESULT:      -4.3     10.862     12.070
REMARK  0 active torsions:
REMARK  status: ('A' for Active; 'I' for Inactive)
ROOT
HETATM    1  C1  UNL     1     -35.276  13.925  -4.672  1.00 20.00     0.127 C 
HETATM    2  C2  UNL     1     -33.839  14.015  -4.210  1.00 20.00     0.079 C 
HETATM    3  C3  UNL     1     -36.188  15.059  -4.260  1.00 20.00     0.079 C 
HETATM    4  C4  UNL     1     -33.251  15.375  -4.563  1.00 20.00     0.017 C 
HETATM    5  C5  UNL     1     -35.558  16.406  -4.593  1.00 20.00     0.017 C 
HETATM    6  C6  UNL     1     -33.990  18.247  -2.754  1.00 20.00     0.002 C 
HETATM    7  C7  UNL     1     -33.497  17.914  -4.173  1.00 20.00     0.009 C 
HETATM    8  C8  UNL     1     -34.042  16.734  -2.472  1.00 20.00     0.009 C 
HETATM    9  C9  UNL     1     -34.137  16.500  -4.013  1.00 20.00    -0.040 C 
HETATM   10  O10 UNL     1     -35.705  12.935  -5.261  1.00 20.00    -0.298 OA
ENDROOT
TORSDOF 0
ENDMDL
MODEL 5
REMARK VINA RESULT:      -4.2      2.299      3.882
REMARK  0 active torsions:
REMARK  status: ('A' for Active; 'I' for Inactive)
ROOT
HETATM    1  C1  UNL     1     -32.513   8.160   2.376  1.00 20.00     0.127 C 
HETATM    2  C2  UNL     1     -32.016   7.852   3.770  1.00 20.00     0.079 C 
HETATM    3  C3  UNL     1     -33.329   7.081   1.699  1.00 20.00     0.079 C 
HETATM    4  C4  UNL     1     -33.161   7.369   4.650  1.00 20.00     0.017 C 
HETATM    5  C5  UNL     1     -34.444   6.594   2.615  1.00 20.00     0.017 C 
HETATM    6  C6  UNL     1     -34.451   4.151   4.422  1.00 20.00     0.002 C 
HETATM    7  C7  UNL     1     -34.944   5.523   4.917  1.00 20.00     0.009 C 
HETATM    8  C8  UNL     1     -33.121   4.825   4.039  1.00 20.00     0.009 C 
HETATM    9  C9  UNL     1     -33.883   6.188   3.988  1.00 20.00    -0.040 C 
HETATM   10  O10 UNL     1     -32.186   9.187   1.785  1.00 20.00    -0.298 OA
ENDROOT
TORSDOF 0
ENDMDL
MODEL 6
REMARK VINA RESULT:      -4.2     11.640     12.791
REMARK  0 active torsions:
REMARK  status: ('A' for Active; 'I' for Inactive)
ROOT
HETATM    1  C1  UNL     1     -33.297  18.088  -3.032  1.00 20.00     0.127 C 
HETATM    2  C2  UNL     1     -33.711  17.062  -2.002  1.00 20.00     0.079 C 
HETATM    3  C3  UNL     1     -33.457  17.689  -4.482  1.00 20.00     0.079 C 
HETATM    4  C4  UNL     1     -35.113  16.545  -2.298  1.00 20.00     0.017 C 
HETATM    5  C5  UNL     1     -34.856  17.145  -4.740  1.00 20.00     0.017 C 
HETATM    6  C6  UNL     1     -35.752  14.243  -4.820  1.00 20.00     0.002 C 
HETATM    7  C7  UNL     1     -36.549  15.313  -4.052  1.00 20.00     0.009 C 
HETATM    8  C8  UNL     1     -34.516  14.647  -3.996  1.00 20.00     0.009 C 
HETATM    9  C9  UNL     1     -35.199  16.028  -3.740  1.00 20.00    -0.040 C 
HETATM   10  O10 UNL     1     -32.763  19.148  -2.709  1.00 20.00    -0.298 OA
ENDROOT
TORSDOF 0
ENDMDL
MODEL 7
REMARK VINA RESULT:      -4.2     10.956     12.552
REMARK  0 active torsions:
REMARK  status: ('A' for Active; 'I' for Inactive)
ROOT
HETATM    1  C1  UNL     1     -35.448  13.847  -5.153  1.00 20.00     0.127 C 
HETATM    2  C2  UNL     1     -35.790  14.909  -6.175  1.00 20.00     0.079 C 
HETATM    3  C3  UNL     1     -34.371  14.200  -4.151  1.00 20.00     0.079 C 
HETATM    4  C4  UNL     1     -36.066  16.240  -5.488  1.00 20.00     0.017 C 
HETATM    5  C5  UNL     1     -34.656  15.551  -3.507  1.00 20.00     0.017 C 
HETATM    6  C6  UNL     1     -33.521  18.265  -4.268  1.00 20.00     0.002 C 
HETATM    7  C7  UNL     1     -35.023  18.066  -3.994  1.00 20.00     0.009 C 
HETATM    8  C8  UNL     1     -33.618  17.145  -5.320  1.00 20.00     0.009 C 
HETATM    9  C9  UNL     1     -34.892  16.627  -4.581  1.00 20.00    -0.040 C 
HETATM   10  O10 UNL     1     -35.944  12.723  -5.199  1.00 20.00    -0.298 OA
ENDROOT
TORSDOF 0
ENDMDL
MODEL 8
REMARK VINA RESULT:      -4.1     11.227     12.381
REMARK  0 active torsions:
REMARK  status: ('A' for Active; 'I' for Inactive)
ROOT
HETATM    1  C1  UNL     1     -34.032  14.450  -5.442  1.00 20.00     0.127 C 
HETATM    2  C2  UNL     1     -33.104  15.644  -5.470  1.00 20.00     0.079 C 
HETATM    3  C3  UNL     1     -34.823  14.242  -4.170  1.00 20.00     0.079 C 
HETATM    4  C4  UNL     1     -33.847  16.905  -5.049  1.00 20.00     0.017 C 
HETATM    5  C5  UNL     1     -35.526  15.529  -3.756  1.00 20.00     0.017 C 
HETATM    6  C6  UNL     1     -34.606  17.598  -1.731  1.00 20.00     0.002 C 
HETATM    7  C7  UNL     1     -35.148  18.006  -3.112  1.00 20.00     0.009 C 
HETATM    8  C8  UNL     1     -33.575  16.713  -2.455  1.00 20.00     0.009 C 
HETATM    9  C9  UNL     1     -34.529  16.697  -3.691  1.00 20.00    -0.040 C 
HETATM   10  O10 UNL     1     -34.063  13.635  -6.362  1.00 20.00    -0.298 OA
ENDROOT
TORSDOF 0
ENDMDL
MODEL 9
REMARK VINA RESULT:      -4.1     11.375     12.362
REMARK  0 active torsions:
REMARK  status: ('A' for Active; 'I' for Inactive)
ROOT
HETATM    1  C1  UNL     1     -36.240  17.413  -2.243  1.00 20.00     0.127 C 
HETATM    2  C2  UNL     1     -36.676  16.898  -3.596  1.00 20.00     0.079 C 
HETATM    3  C3  UNL     1     -35.018  16.761  -1.636  1.00 20.00     0.079 C 
HETATM    4  C4  UNL     1     -35.500  16.882  -4.564  1.00 20.00     0.017 C 
HETATM    5  C5  UNL     1     -33.871  16.729  -2.638  1.00 20.00     0.017 C 
HETATM    6  C6  UNL     1     -33.032  14.440  -4.452  1.00 20.00     0.002 C 
HETATM    7  C7  UNL     1     -33.158  15.881  -4.977  1.00 20.00     0.009 C 
HETATM    8  C8  UNL     1     -34.489  14.545  -3.964  1.00 20.00     0.009 C 
HETATM    9  C9  UNL     1     -34.325  16.099  -3.965  1.00 20.00    -0.040 C 
HETATM   10  O10 UNL     1     -36.903  18.244  -1.624  1.00 20.00    -0.298 OA
ENDROOT
TORSDOF 0
ENDMDL
