MODEL 1
REMARK VINA RESULT:      -4.5      0.000      0.000
REMARK  0 active torsions:
REMARK  status: ('A' for Active; 'I' for Inactive)
ROOT
HETATM    1  C1  UNL     1     -34.709   6.293   4.530  1.00 20.00     0.005 C 
HETATM    2  C2  UNL     1     -34.289   4.893   4.088  1.00 20.00     0.026 C 
HETATM    3  C3  UNL     1     -33.494   7.208   4.651  1.00 20.00     0.042 C 
HETATM    4  C4  UNL     1     -33.279   8.115   2.201  1.00 20.00     0.309 C 
HETATM    5  C5  UNL     1     -31.524   8.206   3.319  1.00 20.00     0.309 C 
HETATM    6  C6  UNL     1     -33.468   4.955   2.807  1.00 20.00     0.169 C 
HETATM    7  C7  UNL     1     -32.717   7.216   3.335  1.00 20.00     0.113 C 
HETATM    8  N8  UNL     1     -31.904   8.582   1.945  1.00 20.00     0.089 N 
HETATM    9  O9  UNL     1     -32.372   5.855   2.964  1.00 20.00    -0.377 OA
HETATM   10  H22 UNL     1     -31.423   8.030   1.234  1.00 20.00     0.316 HD
ENDROOT
TORSDOF 0
ENDMDL
MODEL 2
REMARK VINA RESULT:      -4.4      1.222      2.064
REMARK  0 active torsions:
REMARK  status: ('A' for Active; 'I' for Inactive)
ROOT
HETATM    1  C1  UNL     1     -33.969   4.891   3.905  1.00 20.00     0.005 C 
HETATM    2  C2  UNL     1     -34.640   5.480   5.143  1.00 20.00     0.026 C 
HETATM    3  C3  UNL     1     -33.965   5.901   2.760  1.00 20.00     0.042 C 
HETATM    4  C4  UNL     1     -31.758   7.228   3.247  1.00 20.00     0.309 C 
HETATM    5  C5  UNL     1     -33.155   8.256   2.093  1.00 20.00     0.309 C 
HETATM    6  C6  UNL     1     -33.994   6.804   5.528  1.00 20.00     0.169 C 
HETATM    7  C7  UNL     1     -33.310   7.202   3.220  1.00 20.00     0.113 C 
HETATM    8  N8  UNL     1     -31.809   8.559   2.614  1.00 20.00     0.089 N 
HETATM    9  O9  UNL     1     -33.981   7.692   4.411  1.00 20.00    -0.377 OA
HETATM   10  H22 UNL     1     -31.808   9.322   3.292  1.00 20.00     0.316 HD
ENDROOT
TORSDOF 0
ENDMDL
MODEL 3
REMARK VINA RESULT:      -3.9      2.263      3.681
REMARK  0 active torsions:
REMARK  status: ('A' for Active; 'I' for Inactive)
ROOT
HETATM    1  C1  UNL     1     -32.664   7.445   2.464  1.00 20.00     0.005 C 
HETATM    2  C2  UNL     1     -32.087   8.138   3.696  1.00 20.00     0.026 C 
HETATM    3  C3  UNL     1     -32.885   5.959   2.735  1.00 20.00     0.042 C 
HETATM    4  C4  UNL     1     -35.291   5.973   3.776  1.00 20.00     0.309 C 
HETATM    5  C5  UNL     1     -34.140   4.308   4.269  1.00 20.00     0.309 C 
HETATM    6  C6  UNL     1     -32.962   7.886   4.916  1.00 20.00     0.169 C 
HETATM    7  C7  UNL     1     -33.763   5.783   3.974  1.00 20.00     0.113 C 
HETATM    8  N8  UNL     1     -35.506   4.761   4.590  1.00 20.00     0.089 N 
HETATM    9  O9  UNL     1     -33.168   6.486   5.097  1.00 20.00    -0.377 OA
HETATM   10  H22 UNL     1     -35.634   4.966   5.581  1.00 20.00     0.316 HD
ENDROOT
TORSDOF 0
ENDMDL
MODEL 4
REMARK VINA RESULT:      -3.8     11.144     12.650
REMARK  0 active torsions:
REMARK  status: ('A' for Active; 'I' for Inactive)
ROOT
HETATM    1  C1  UNL     1     -33.249  15.806  -5.587  1.00 20.00     0.005 C 
HETATM    2  C2  UNL     1     -33.143  14.821  -4.425  1.00 20.00     0.026 C 
HETATM    3  C3  UNL     1     -33.792  15.113  -6.834  1.00 20.00     0.042 C 
HETATM    4  C4  UNL     1     -36.378  15.354  -6.477  1.00 20.00     0.309 C 
HETATM    5  C5  UNL     1     -35.816  13.801  -7.746  1.00 20.00     0.309 C 
HETATM    6  C6  UNL     1     -34.477  14.130  -4.181  1.00 20.00     0.169 C 
HETATM    7  C7  UNL     1     -35.125  14.438  -6.513  1.00 20.00     0.113 C 
HETATM    8  N8  UNL     1     -37.101  14.327  -7.251  1.00 20.00     0.089 N 
HETATM    9  O9  UNL     1     -34.956  13.537  -5.387  1.00 20.00    -0.377 OA
HETATM   10  H22 UNL     1     -37.601  13.663  -6.658  1.00 20.00     0.316 HD
ENDROOT
TORSDOF 0
ENDMDL
MODEL 5
REMARK VINA RESULT:      -3.7     11.465     12.336
REMARK  0 active torsions:
REMARK  status: ('A' for Active; 'I' for Inactive)
ROOT
HETATM    1  C1  UNL     1     -33.802  17.116  -2.412  1.00 20.00     0.005 C 
HETATM    2  C2  UNL     1     -33.852  18.288  -3.389  1.00 20.00     0.026 C 
HETATM    3  C3  UNL     1     -34.680  15.968  -2.902  1.00 20.00     0.042 C 
HETATM    4  C4  UNL     1     -33.015  14.665  -4.452  1.00 20.00     0.309 C 
HETATM    5  C5  UNL     1     -35.030  14.333  -4.865  1.00 20.00     0.309 C 
HETATM    6  C6  UNL     1     -33.495  17.833  -4.797  1.00 20.00     0.169 C 
HETATM    7  C7  UNL     1     -34.270  15.570  -4.319  1.00 20.00     0.113 C 
HETATM    8  N8  UNL     1     -33.757  13.848  -5.431  1.00 20.00     0.089 N 
HETATM    9  O9  UNL     1     -34.317  16.734  -5.186  1.00 20.00    -0.377 OA
HETATM   10  H22 UNL     1     -33.609  14.152  -6.394  1.00 20.00     0.316 HD
ENDROOT
TORSDOF 0
ENDMDL
MODEL 6
REMARK VINA RESULT:      -3.7     11.170     12.644
REMARK  0 active torsions:
REMARK  status: ('A' for Active; 'I' for Inactive)
ROOT
HETATM    1  C1  UNL     1     -33.565  16.490  -5.000  1.00 20.00     0.005 C 
HETATM    2  C2  UNL     1     -33.462  15.469  -3.870  1.00 20.00     0.026 C 
HETATM    3  C3  UNL     1     -33.341  15.821  -6.354  1.00 20.00     0.042 C 
HETATM    4  C4  UNL     1     -35.766  15.020  -6.944  1.00 20.00     0.309 C 
HETATM    5  C5  UNL     1     -34.245  13.981  -7.918  1.00 20.00     0.309 C 
HETATM    6  C6  UNL     1     -34.407  14.300  -4.112  1.00 20.00     0.169 C 
HETATM    7  C7  UNL     1     -34.316  14.657  -6.524  1.00 20.00     0.113 C 
HETATM    8  N8  UNL     1     -35.718  13.912  -7.917  1.00 20.00     0.089 N 
HETATM    9  O9  UNL     1     -34.182  13.741  -5.406  1.00 20.00    -0.377 OA
HETATM   10  H22 UNL     1     -36.075  13.034  -7.538  1.00 20.00     0.316 HD
ENDROOT
TORSDOF 0
ENDMDL
MODEL 7
REMARK VINA RESULT:      -3.7     11.283     11.787
REMARK  0 active torsions:
REMARK  status: ('A' for Active; 'I' for Inactive)
ROOT
HETATM    1  C1  UNL     1     -36.805  15.691  -4.410  1.00 20.00     0.005 C 
HETATM    2  C2  UNL     1     -37.350  14.365  -4.934  1.00 20.00     0.026 C 
HETATM    3  C3  UNL     1     -35.420  15.502  -3.797  1.00 20.00     0.042 C 
HETATM    4  C4  UNL     1     -33.881  15.775  -5.902  1.00 20.00     0.309 C 
HETATM    5  C5  UNL     1     -33.023  14.713  -4.329  1.00 20.00     0.309 C 
HETATM    6  C6  UNL     1     -36.363  13.721  -5.898  1.00 20.00     0.169 C 
HETATM    7  C7  UNL     1     -34.489  14.846  -4.816  1.00 20.00     0.113 C 
HETATM    8  N8  UNL     1     -32.578  15.122  -5.673  1.00 20.00     0.089 N 
HETATM    9  O9  UNL     1     -35.078  13.606  -5.289  1.00 20.00    -0.377 OA
HETATM   10  H22 UNL     1     -32.416  14.331  -6.297  1.00 20.00     0.316 HD
ENDROOT
TORSDOF 0
ENDMDL
MODEL 8
REMARK VINA RESULT:      -3.6     11.266     12.047
REMARK  0 active torsions:
REMARK  status: ('A' for Active; 'I' for Inactive)
ROOT
HETATM    1  C1  UNL     1     -33.721  15.775  -3.548  1.00 20.00     0.005 C 
HETATM    2  C2  UNL     1     -34.749  16.399  -2.609  1.00 20.00     0.026 C 
HETATM    3  C3  UNL     1     -34.239  14.455  -4.116  1.00 20.00     0.042 C 
HETATM    4  C4  UNL     1     -35.564  15.281  -6.221  1.00 20.00     0.309 C 
HETATM    5  C5  UNL     1     -36.151  13.417  -5.500  1.00 20.00     0.309 C 
HETATM    6  C6  UNL     1     -36.095  16.546  -3.305  1.00 20.00     0.169 C 
HETATM    7  C7  UNL     1     -35.591  14.678  -4.791  1.00 20.00     0.113 C 
HETATM    8  N8  UNL     1     -36.572  14.279  -6.619  1.00 20.00     0.089 N 
HETATM    9  O9  UNL     1     -36.511  15.295  -3.851  1.00 20.00    -0.377 OA
HETATM   10  H22 UNL     1     -37.529  14.619  -6.522  1.00 20.00     0.316 HD
ENDROOT
TORSDOF 0
ENDMDL
MODEL 9
REMARK VINA RESULT:      -3.6      9.862     10.697
REMARK  0 active torsions:
REMARK  status: ('A' for Active; 'I' for Inactive)
ROOT
HETATM    1  C1  UNL     1     -42.717   7.891  -0.419  1.00 20.00     0.005 C 
HETATM    2  C2  UNL     1     -41.194   7.840  -0.505  1.00 20.00     0.026 C 
HETATM    3  C3  UNL     1     -43.340   6.710  -1.160  1.00 20.00     0.042 C 
HETATM    4  C4  UNL     1     -43.359   4.875   0.711  1.00 20.00     0.309 C 
HETATM    5  C5  UNL     1     -43.417   4.134  -1.235  1.00 20.00     0.309 C 
HETATM    6  C6  UNL     1     -40.671   6.497  -0.016  1.00 20.00     0.169 C 
HETATM    7  C7  UNL     1     -42.765   5.401  -0.623  1.00 20.00     0.113 C 
HETATM    8  N8  UNL     1     -43.414   3.529   0.110  1.00 20.00     0.089 N 
HETATM    9  O9  UNL     1     -41.315   5.431  -0.713  1.00 20.00    -0.377 OA
HETATM   10  H22 UNL     1     -42.576   2.977   0.295  1.00 20.00     0.316 HD
ENDROOT
TORSDOF 0
ENDMDL
