MODEL 1
REMARK VINA RESULT:      -5.6      0.000      0.000
REMARK  1 active torsions:
REMARK  status: ('A' for Active; 'I' for Inactive)
REMARK    1  A    between atoms: C7_7  and  C10_10 
ROOT
HETATM    1  C1  UNL     1     -34.377   5.199   4.136  1.00 20.00     0.127 C 
HETATM    2  C2  UNL     1     -34.548   6.260   5.199  1.00 20.00     0.078 C 
HETATM    3  C3  UNL     1     -34.049   5.646   2.728  1.00 20.00     0.079 C 
HETATM    4  C4  UNL     1     -33.350   7.193   5.336  1.00 20.00     0.008 C 
HETATM    5  C5  UNL     1     -32.604   6.114   2.638  1.00 20.00     0.012 C 
HETATM    6  C6  UNL     1     -33.208   8.147   4.150  1.00 20.00     0.005 C 
HETATM    7  C7  UNL     1     -32.383   7.599   2.971  1.00 20.00    -0.011 C 
HETATM    8  O11 UNL     1     -34.542   4.007   4.400  1.00 20.00    -0.298 OA
ENDROOT
BRANCH   7   9
HETATM    9  C10 UNL     1     -32.615   8.476   1.736  1.00 20.00    -0.019 C 
HETATM   10  C8  UNL     1     -32.888   9.917   2.153  1.00 20.00     0.010 C 
HETATM   11  C9  UNL     1     -31.414   8.402   0.799  1.00 20.00     0.010 C 
ENDBRANCH   7   9
TORSDOF 1
ENDMDL
MODEL 2
REMARK VINA RESULT:      -5.1      1.235      2.378
REMARK  1 active torsions:
REMARK  status: ('A' for Active; 'I' for Inactive)
REMARK    1  A    between atoms: C7_7  and  C10_10 
ROOT
HETATM    1  C1  UNL     1     -34.342   5.712   5.620  1.00 20.00     0.127 C 
HETATM    2  C2  UNL     1     -33.964   4.438   4.900  1.00 20.00     0.078 C 
HETATM    3  C3  UNL     1     -33.606   6.983   5.256  1.00 20.00     0.079 C 
HETATM    4  C4  UNL     1     -34.052   4.541   3.381  1.00 20.00     0.008 C 
HETATM    5  C5  UNL     1     -34.063   7.496   3.898  1.00 20.00     0.012 C 
HETATM    6  C6  UNL     1     -32.953   5.419   2.784  1.00 20.00     0.005 C 
HETATM    7  C7  UNL     1     -33.294   6.918   2.697  1.00 20.00    -0.011 C 
HETATM    8  O11 UNL     1     -35.196   5.707   6.508  1.00 20.00    -0.298 OA
ENDROOT
BRANCH   7   9
HETATM    9  C10 UNL     1     -32.014   7.718   2.432  1.00 20.00    -0.019 C 
HETATM   10  C8  UNL     1     -32.286   8.838   1.434  1.00 20.00     0.010 C 
HETATM   11  C9  UNL     1     -31.459   8.278   3.738  1.00 20.00     0.010 C 
ENDBRANCH   7   9
TORSDOF 1
ENDMDL
MODEL 3
REMARK VINA RESULT:      -4.9     10.862     12.141
REMARK  1 active torsions:
REMARK  status: ('A' for Active; 'I' for Inactive)
REMARK    1  A    between atoms: C7_7  and  C10_10 
ROOT
HETATM    1  C1  UNL     1     -34.014  14.433  -5.611  1.00 20.00     0.127 C 
HETATM    2  C2  UNL     1     -33.241  15.608  -6.164  1.00 20.00     0.078 C 
HETATM    3  C3  UNL     1     -34.221  14.355  -4.114  1.00 20.00     0.079 C 
HETATM    4  C4  UNL     1     -33.811  16.964  -5.761  1.00 20.00     0.008 C 
HETATM    5  C5  UNL     1     -35.255  15.377  -3.664  1.00 20.00     0.012 C 
HETATM    6  C6  UNL     1     -33.587  17.280  -4.282  1.00 20.00     0.005 C 
HETATM    7  C7  UNL     1     -34.688  16.769  -3.335  1.00 20.00    -0.011 C 
HETATM    8  O11 UNL     1     -34.427  13.541  -6.355  1.00 20.00    -0.298 OA
ENDROOT
BRANCH   7   9
HETATM    9  C10 UNL     1     -34.183  16.825  -1.889  1.00 20.00    -0.019 C 
HETATM   10  C8  UNL     1     -33.084  17.872  -1.752  1.00 20.00     0.010 C 
HETATM   11  C9  UNL     1     -35.336  17.121  -0.935  1.00 20.00     0.010 C 
ENDBRANCH   7   9
TORSDOF 1
ENDMDL
MODEL 4
REMARK VINA RESULT:      -4.7     10.741     11.784
REMARK  1 active torsions:
REMARK  status: ('A' for Active; 'I' for Inactive)
REMARK    1  A    between atoms: C7_7  and  C10_10 
ROOT
HETATM    1  C1  UNL     1     -35.304  13.585  -6.144  1.00 20.00     0.127 C 
HETATM    2  C2  UNL     1     -36.630  14.301  -6.029  1.00 20.00     0.078 C 
HETATM    3  C3  UNL     1     -34.068  14.282  -5.618  1.00 20.00     0.079 C 
HETATM    4  C4  UNL     1     -36.977  14.729  -4.607  1.00 20.00     0.008 C 
HETATM    5  C5  UNL     1     -34.056  14.273  -4.096  1.00 20.00     0.012 C 
HETATM    6  C6  UNL     1     -36.105  15.881  -4.109  1.00 20.00     0.005 C 
HETATM    7  C7  UNL     1     -34.787  15.455  -3.437  1.00 20.00    -0.011 C 
HETATM    8  O11 UNL     1     -35.226  12.483  -6.689  1.00 20.00    -0.298 OA
ENDROOT
BRANCH   7   9
HETATM    9  C10 UNL     1     -33.860  16.671  -3.315  1.00 20.00    -0.019 C 
HETATM   10  C8  UNL     1     -34.341  17.795  -4.226  1.00 20.00     0.010 C 
HETATM   11  C9  UNL     1     -33.789  17.140  -1.866  1.00 20.00     0.010 C 
ENDBRANCH   7   9
TORSDOF 1
ENDMDL
MODEL 5
REMARK VINA RESULT:      -4.6      2.121      4.231
REMARK  1 active torsions:
REMARK  status: ('A' for Active; 'I' for Inactive)
REMARK    1  A    between atoms: C7_7  and  C10_10 
ROOT
HETATM    1  C1  UNL     1     -32.086   7.685   2.618  1.00 20.00     0.127 C 
HETATM    2  C2  UNL     1     -31.736   8.190   3.999  1.00 20.00     0.078 C 
HETATM    3  C3  UNL     1     -32.875   6.399   2.507  1.00 20.00     0.079 C 
HETATM    4  C4  UNL     1     -32.944   8.372   4.911  1.00 20.00     0.008 C 
HETATM    5  C5  UNL     1     -34.327   6.626   2.901  1.00 20.00     0.012 C 
HETATM    6  C6  UNL     1     -33.554   7.042   5.354  1.00 20.00     0.005 C 
HETATM    7  C7  UNL     1     -34.621   6.468   4.403  1.00 20.00    -0.011 C 
HETATM    8  O11 UNL     1     -31.702   8.282   1.610  1.00 20.00    -0.298 OA
ENDROOT
BRANCH   7   9
HETATM    9  C10 UNL     1     -34.882   5.000   4.757  1.00 20.00    -0.019 C 
HETATM   10  C8  UNL     1     -34.014   4.086   3.899  1.00 20.00     0.010 C 
HETATM   11  C9  UNL     1     -34.622   4.758   6.240  1.00 20.00     0.010 C 
ENDBRANCH   7   9
TORSDOF 1
ENDMDL
MODEL 6
REMARK VINA RESULT:      -4.3     11.040     12.060
REMARK  1 active torsions:
REMARK  status: ('A' for Active; 'I' for Inactive)
REMARK    1  A    between atoms: C7_7  and  C10_10 
ROOT
HETATM    1  C1  UNL     1     -33.845  18.228  -0.502  1.00 20.00     0.127 C 
HETATM    2  C2  UNL     1     -35.151  17.492  -0.309  1.00 20.00     0.078 C 
HETATM    3  C3  UNL     1     -32.875  17.703  -1.537  1.00 20.00     0.079 C 
HETATM    4  C4  UNL     1     -35.965  17.337  -1.589  1.00 20.00     0.008 C 
HETATM    5  C5  UNL     1     -33.372  18.011  -2.941  1.00 20.00     0.012 C 
HETATM    6  C6  UNL     1     -35.339  16.344  -2.569  1.00 20.00     0.005 C 
HETATM    7  C7  UNL     1     -34.312  16.951  -3.542  1.00 20.00    -0.011 C 
HETATM    8  O11 UNL     1     -33.561  19.205   0.195  1.00 20.00    -0.298 OA
ENDROOT
BRANCH   7   9
HETATM    9  C10 UNL     1     -33.511  15.824  -4.205  1.00 20.00    -0.019 C 
HETATM   10  C8  UNL     1     -34.205  14.484  -3.989  1.00 20.00     0.010 C 
HETATM   11  C9  UNL     1     -33.329  16.107  -5.692  1.00 20.00     0.010 C 
ENDBRANCH   7   9
TORSDOF 1
ENDMDL
MODEL 7
REMARK VINA RESULT:      -4.2     10.789     12.853
REMARK  1 active torsions:
REMARK  status: ('A' for Active; 'I' for Inactive)
REMARK    1  A    between atoms: C7_7  and  C10_10 
ROOT
HETATM    1  C1  UNL     1     -35.433  13.914  -5.184  1.00 20.00     0.127 C 
HETATM    2  C2  UNL     1     -34.353  14.195  -4.165  1.00 20.00     0.078 C 
HETATM    3  C3  UNL     1     -35.938  15.067  -6.025  1.00 20.00     0.079 C 
HETATM    4  C4  UNL     1     -33.107  14.848  -4.752  1.00 20.00     0.008 C 
HETATM    5  C5  UNL     1     -34.907  15.455  -7.074  1.00 20.00     0.012 C 
HETATM    6  C6  UNL     1     -33.343  16.299  -5.170  1.00 20.00     0.005 C 
HETATM    7  C7  UNL     1     -33.864  16.485  -6.607  1.00 20.00    -0.011 C 
HETATM    8  O11 UNL     1     -35.918  12.787  -5.298  1.00 20.00    -0.298 OA
ENDROOT
BRANCH   7   9
HETATM    9  C10 UNL     1     -34.394  17.914  -6.775  1.00 20.00    -0.019 C 
HETATM   10  C8  UNL     1     -34.239  18.693  -5.474  1.00 20.00     0.010 C 
HETATM   11  C9  UNL     1     -33.669  18.617  -7.918  1.00 20.00     0.010 C 
ENDBRANCH   7   9
TORSDOF 1
ENDMDL
MODEL 8
REMARK VINA RESULT:      -4.2     11.528     12.054
REMARK  1 active torsions:
REMARK  status: ('A' for Active; 'I' for Inactive)
REMARK    1  A    between atoms: C7_7  and  C10_10 
ROOT
HETATM    1  C1  UNL     1     -31.418  18.663   1.946  1.00 20.00     0.127 C 
HETATM    2  C2  UNL     1     -32.664  18.459   2.777  1.00 20.00     0.078 C 
HETATM    3  C3  UNL     1     -31.389  18.082   0.549  1.00 20.00     0.079 C 
HETATM    4  C4  UNL     1     -33.940  18.952   2.103  1.00 20.00     0.008 C 
HETATM    5  C5  UNL     1     -32.269  18.896  -0.388  1.00 20.00     0.012 C 
HETATM    6  C6  UNL     1     -34.362  18.073   0.926  1.00 20.00     0.005 C 
HETATM    7  C7  UNL     1     -33.744  18.462  -0.430  1.00 20.00    -0.011 C 
HETATM    8  O11 UNL     1     -30.438  19.249   2.409  1.00 20.00    -0.298 OA
ENDROOT
BRANCH   7   9
HETATM    9  C10 UNL     1     -33.948  17.318  -1.430  1.00 20.00    -0.019 C 
HETATM   10  C8  UNL     1     -35.397  16.843  -1.402  1.00 20.00     0.010 C 
HETATM   11  C9  UNL     1     -33.551  17.764  -2.833  1.00 20.00     0.010 C 
ENDBRANCH   7   9
TORSDOF 1
ENDMDL
MODEL 9
REMARK VINA RESULT:      -4.1     11.188     12.081
REMARK  1 active torsions:
REMARK  status: ('A' for Active; 'I' for Inactive)
REMARK    1  A    between atoms: C7_7  and  C10_10 
ROOT
HETATM    1  C1  UNL     1     -35.295  17.784   0.117  1.00 20.00     0.127 C 
HETATM    2  C2  UNL     1     -34.109  18.696   0.325  1.00 20.00     0.078 C 
HETATM    3  C3  UNL     1     -35.715  17.471  -1.302  1.00 20.00     0.079 C 
HETATM    4  C4  UNL     1     -32.841  18.228  -0.381  1.00 20.00     0.008 C 
HETATM    5  C5  UNL     1     -34.732  16.507  -1.951  1.00 20.00     0.012 C 
HETATM    6  C6  UNL     1     -32.922  18.381  -1.900  1.00 20.00     0.005 C 
HETATM    7  C7  UNL     1     -33.531  17.177  -2.642  1.00 20.00    -0.011 C 
HETATM    8  O11 UNL     1     -35.929  17.341   1.077  1.00 20.00    -0.298 OA
ENDROOT
BRANCH   7   9
HETATM    9  C10 UNL     1     -33.885  17.588  -4.076  1.00 20.00    -0.019 C 
HETATM   10  C8  UNL     1     -33.284  18.951  -4.399  1.00 20.00     0.010 C 
HETATM   11  C9  UNL     1     -33.401  16.533  -5.065  1.00 20.00     0.010 C 
ENDBRANCH   7   9
TORSDOF 1
ENDMDL
