MODEL 1
REMARK VINA RESULT:      -6.0      0.000      0.000
REMARK  1 active torsions:
REMARK  status: ('A' for Active; 'I' for Inactive)
REMARK    1  A    between atoms: C7_7  and  C10_10 
ROOT
HETATM    1  C1  UNL     1     -34.670   5.146   4.858  1.00 20.00     0.127 C 
HETATM    2  C2  UNL     1     -34.430   6.223   5.891  1.00 20.00     0.078 C 
HETATM    3  C3  UNL     1     -34.949   5.572   3.434  1.00 20.00     0.079 C 
HETATM    4  C4  UNL     1     -33.305   7.186   5.524  1.00 20.00     0.008 C 
HETATM    5  C5  UNL     1     -33.677   6.066   2.765  1.00 20.00     0.012 C 
HETATM    6  C6  UNL     1     -33.677   8.117   4.370  1.00 20.00     0.005 C 
HETATM    7  C7  UNL     1     -33.399   7.566   2.959  1.00 20.00    -0.011 C 
HETATM    8  O11 UNL     1     -34.681   3.955   5.176  1.00 20.00    -0.298 OA
ENDROOT
BRANCH   7   9
HETATM    9  C10 UNL     1     -31.961   7.877   2.528  1.00 20.00    -0.019 C 
HETATM   10  C8  UNL     1     -31.958   8.796   1.313  1.00 20.00     0.010 C 
HETATM   11  C9  UNL     1     -31.185   8.501   3.682  1.00 20.00     0.010 C 
ENDBRANCH   7   9
TORSDOF 1
ENDMDL
MODEL 2
REMARK VINA RESULT:      -5.1     11.421     12.100
REMARK  1 active torsions:
REMARK  status: ('A' for Active; 'I' for Inactive)
REMARK    1  A    between atoms: C7_7  and  C10_10 
ROOT
HETATM    1  C1  UNL     1     -35.799  13.803  -5.218  1.00 20.00     0.127 C 
HETATM    2  C2  UNL     1     -37.067  14.624  -5.152  1.00 20.00     0.078 C 
HETATM    3  C3  UNL     1     -34.474  14.529  -5.180  1.00 20.00     0.079 C 
HETATM    4  C4  UNL     1     -37.140  15.544  -3.938  1.00 20.00     0.008 C 
HETATM    5  C5  UNL     1     -34.185  15.040  -3.777  1.00 20.00     0.012 C 
HETATM    6  C6  UNL     1     -36.163  16.717  -4.024  1.00 20.00     0.005 C 
HETATM    7  C7  UNL     1     -34.748  16.442  -3.485  1.00 20.00    -0.011 C 
HETATM    8  O11 UNL     1     -35.846  12.577  -5.343  1.00 20.00    -0.298 OA
ENDROOT
BRANCH   7   9
HETATM    9  C10 UNL     1     -34.680  16.712  -1.977  1.00 20.00    -0.019 C 
HETATM   10  C8  UNL     1     -33.402  17.466  -1.630  1.00 20.00     0.010 C 
HETATM   11  C9  UNL     1     -35.909  17.491  -1.522  1.00 20.00     0.010 C 
ENDBRANCH   7   9
TORSDOF 1
ENDMDL
MODEL 3
REMARK VINA RESULT:      -4.9     11.380     12.427
REMARK  1 active torsions:
REMARK  status: ('A' for Active; 'I' for Inactive)
REMARK    1  A    between atoms: C7_7  and  C10_10 
ROOT
HETATM    1  C1  UNL     1     -35.429  13.958  -5.313  1.00 20.00     0.127 C 
HETATM    2  C2  UNL     1     -36.184  15.061  -6.019  1.00 20.00     0.078 C 
HETATM    3  C3  UNL     1     -34.022  14.245  -4.839  1.00 20.00     0.079 C 
HETATM    4  C4  UNL     1     -36.279  16.353  -5.214  1.00 20.00     0.008 C 
HETATM    5  C5  UNL     1     -34.043  15.147  -3.616  1.00 20.00     0.012 C 
HETATM    6  C6  UNL     1     -34.940  17.084  -5.108  1.00 20.00     0.005 C 
HETATM    7  C7  UNL     1     -34.040  16.651  -3.936  1.00 20.00    -0.011 C 
HETATM    8  O11 UNL     1     -35.932  12.842  -5.165  1.00 20.00    -0.298 OA
ENDROOT
BRANCH   7   9
HETATM    9  C10 UNL     1     -34.383  17.442  -2.668  1.00 20.00    -0.019 C 
HETATM   10  C8  UNL     1     -35.340  16.645  -1.788  1.00 20.00     0.010 C 
HETATM   11  C9  UNL     1     -33.113  17.797  -1.904  1.00 20.00     0.010 C 
ENDBRANCH   7   9
TORSDOF 1
ENDMDL
MODEL 4
REMARK VINA RESULT:      -4.9     11.806     12.595
REMARK  1 active torsions:
REMARK  status: ('A' for Active; 'I' for Inactive)
REMARK    1  A    between atoms: C7_7  and  C10_10 
ROOT
HETATM    1  C1  UNL     1     -35.452  14.290  -6.438  1.00 20.00     0.127 C 
HETATM    2  C2  UNL     1     -34.059  14.757  -6.794  1.00 20.00     0.078 C 
HETATM    3  C3  UNL     1     -35.715  13.844  -5.017  1.00 20.00     0.079 C 
HETATM    4  C4  UNL     1     -33.545  15.887  -5.909  1.00 20.00     0.008 C 
HETATM    5  C5  UNL     1     -35.772  15.042  -4.083  1.00 20.00     0.012 C 
HETATM    6  C6  UNL     1     -33.227  15.427  -4.486  1.00 20.00     0.005 C 
HETATM    7  C7  UNL     1     -34.410  15.458  -3.501  1.00 20.00    -0.011 C 
HETATM    8  O11 UNL     1     -36.339  14.234  -7.293  1.00 20.00    -0.298 OA
ENDROOT
BRANCH   7   9
HETATM    9  C10 UNL     1     -34.537  16.840  -2.849  1.00 20.00    -0.019 C 
HETATM   10  C8  UNL     1     -35.642  16.832  -1.799  1.00 20.00     0.010 C 
HETATM   11  C9  UNL     1     -33.208  17.260  -2.232  1.00 20.00     0.010 C 
ENDBRANCH   7   9
TORSDOF 1
ENDMDL
MODEL 5
REMARK VINA RESULT:      -4.9     11.275     12.139
REMARK  1 active torsions:
REMARK  status: ('A' for Active; 'I' for Inactive)
REMARK    1  A    between atoms: C7_7  and  C10_10 
ROOT
HETATM    1  C1  UNL     1     -35.164  17.717  -0.324  1.00 20.00     0.127 C 
HETATM    2  C2  UNL     1     -33.825  18.397  -0.496  1.00 20.00     0.078 C 
HETATM    3  C3  UNL     1     -36.006  17.474  -1.557  1.00 20.00     0.079 C 
HETATM    4  C4  UNL     1     -32.903  17.695  -1.489  1.00 20.00     0.008 C 
HETATM    5  C5  UNL     1     -35.426  16.338  -2.384  1.00 20.00     0.012 C 
HETATM    6  C6  UNL     1     -33.372  17.841  -2.937  1.00 20.00     0.005 C 
HETATM    7  C7  UNL     1     -34.376  16.778  -3.418  1.00 20.00    -0.011 C 
HETATM    8  O11 UNL     1     -35.577  17.408   0.796  1.00 20.00    -0.298 OA
ENDROOT
BRANCH   7   9
HETATM    9  C10 UNL     1     -33.643  15.543  -3.954  1.00 20.00    -0.019 C 
HETATM   10  C8  UNL     1     -34.599  14.361  -4.060  1.00 20.00     0.010 C 
HETATM   11  C9  UNL     1     -33.007  15.848  -5.306  1.00 20.00     0.010 C 
ENDBRANCH   7   9
TORSDOF 1
ENDMDL
MODEL 6
REMARK VINA RESULT:      -4.9     11.602     12.230
REMARK  1 active torsions:
REMARK  status: ('A' for Active; 'I' for Inactive)
REMARK    1  A    between atoms: C7_7  and  C10_10 
ROOT
HETATM    1  C1  UNL     1     -33.255  18.621   3.144  1.00 20.00     0.127 C 
HETATM    2  C2  UNL     1     -31.972  19.125   2.524  1.00 20.00     0.078 C 
HETATM    3  C3  UNL     1     -34.553  18.876   2.410  1.00 20.00     0.079 C 
HETATM    4  C4  UNL     1     -31.741  18.628   1.101  1.00 20.00     0.008 C 
HETATM    5  C5  UNL     1     -34.667  17.967   1.197  1.00 20.00     0.012 C 
HETATM    6  C6  UNL     1     -32.696  19.262   0.090  1.00 20.00     0.005 C 
HETATM    7  C7  UNL     1     -34.046  18.542  -0.088  1.00 20.00    -0.011 C 
HETATM    8  O11 UNL     1     -33.249  18.056   4.240  1.00 20.00    -0.298 OA
ENDROOT
BRANCH   7   9
HETATM    9  C10 UNL     1     -33.934  17.431  -1.139  1.00 20.00    -0.019 C 
HETATM   10  C8  UNL     1     -35.311  16.861  -1.458  1.00 20.00     0.010 C 
HETATM   11  C9  UNL     1     -33.262  17.960  -2.400  1.00 20.00     0.010 C 
ENDBRANCH   7   9
TORSDOF 1
ENDMDL
MODEL 7
REMARK VINA RESULT:      -4.8     11.841     12.880
REMARK  1 active torsions:
REMARK  status: ('A' for Active; 'I' for Inactive)
REMARK    1  A    between atoms: C7_7  and  C10_10 
ROOT
HETATM    1  C1  UNL     1     -34.690  16.956  -4.346  1.00 20.00     0.127 C 
HETATM    2  C2  UNL     1     -33.562  17.961  -4.395  1.00 20.00     0.078 C 
HETATM    3  C3  UNL     1     -34.730  15.983  -3.189  1.00 20.00     0.079 C 
HETATM    4  C4  UNL     1     -33.446  18.817  -3.138  1.00 20.00     0.008 C 
HETATM    5  C5  UNL     1     -35.171  16.686  -1.915  1.00 20.00     0.012 C 
HETATM    6  C6  UNL     1     -32.938  18.028  -1.930  1.00 20.00     0.005 C 
HETATM    7  C7  UNL     1     -34.022  17.310  -1.105  1.00 20.00    -0.011 C 
HETATM    8  O11 UNL     1     -35.529  16.903  -5.247  1.00 20.00    -0.298 OA
ENDROOT
BRANCH   7   9
HETATM    9  C10 UNL     1     -34.602  18.248  -0.040  1.00 20.00    -0.019 C 
HETATM   10  C8  UNL     1     -35.746  17.566   0.701  1.00 20.00     0.010 C 
HETATM   11  C9  UNL     1     -33.512  18.686   0.932  1.00 20.00     0.010 C 
ENDBRANCH   7   9
TORSDOF 1
ENDMDL
MODEL 8
REMARK VINA RESULT:      -4.7     11.058     12.885
REMARK  1 active torsions:
REMARK  status: ('A' for Active; 'I' for Inactive)
REMARK    1  A    between atoms: C7_7  and  C10_10 
ROOT
HETATM    1  C1  UNL     1     -35.091  13.568  -5.319  1.00 20.00     0.127 C 
HETATM    2  C2  UNL     1     -34.534  13.918  -6.680  1.00 20.00     0.078 C 
HETATM    3  C3  UNL     1     -34.357  14.071  -4.095  1.00 20.00     0.079 C 
HETATM    4  C4  UNL     1     -34.349  15.416  -6.901  1.00 20.00     0.008 C 
HETATM    5  C5  UNL     1     -34.584  15.563  -3.912  1.00 20.00     0.012 C 
HETATM    6  C6  UNL     1     -33.201  15.999  -6.076  1.00 20.00     0.005 C 
HETATM    7  C7  UNL     1     -33.573  16.454  -4.653  1.00 20.00    -0.011 C 
HETATM    8  O11 UNL     1     -36.091  12.856  -5.208  1.00 20.00    -0.298 OA
ENDROOT
BRANCH   7   9
HETATM    9  C10 UNL     1     -34.081  17.900  -4.662  1.00 20.00    -0.019 C 
HETATM   10  C8  UNL     1     -35.581  17.938  -4.395  1.00 20.00     0.010 C 
HETATM   11  C9  UNL     1     -33.327  18.734  -3.633  1.00 20.00     0.010 C 
ENDBRANCH   7   9
TORSDOF 1
ENDMDL
MODEL 9
REMARK VINA RESULT:      -4.6      2.054      4.332
REMARK  1 active torsions:
REMARK  status: ('A' for Active; 'I' for Inactive)
REMARK    1  A    between atoms: C7_7  and  C10_10 
ROOT
HETATM    1  C1  UNL     1     -32.117   8.016   3.511  1.00 20.00     0.127 C 
HETATM    2  C2  UNL     1     -32.229   7.242   2.218  1.00 20.00     0.078 C 
HETATM    3  C3  UNL     1     -33.381   8.277   4.300  1.00 20.00     0.079 C 
HETATM    4  C4  UNL     1     -32.903   5.883   2.372  1.00 20.00     0.008 C 
HETATM    5  C5  UNL     1     -33.853   7.006   4.988  1.00 20.00     0.012 C 
HETATM    6  C6  UNL     1     -34.402   5.993   2.652  1.00 20.00     0.005 C 
HETATM    7  C7  UNL     1     -34.790   6.134   4.135  1.00 20.00    -0.011 C 
HETATM    8  O11 UNL     1     -31.031   8.459   3.891  1.00 20.00    -0.298 OA
ENDROOT
BRANCH   7   9
HETATM    9  C10 UNL     1     -34.938   4.756   4.790  1.00 20.00    -0.019 C 
HETATM   10  C8  UNL     1     -33.983   3.757   4.146  1.00 20.00     0.010 C 
HETATM   11  C9  UNL     1     -34.689   4.852   6.291  1.00 20.00     0.010 C 
ENDBRANCH   7   9
TORSDOF 1
ENDMDL
