MODEL 1
REMARK VINA RESULT:      -6.6      0.000      0.000
REMARK  0 active torsions:
REMARK  status: ('A' for Active; 'I' for Inactive)
ROOT
HETATM    1  C1  UNL     1     -33.737   7.025   5.899  1.00 20.00     0.013 C 
HETATM    2  C2  UNL     1     -34.661   5.775   5.896  1.00 20.00     0.080 C 
HETATM    3  C3  UNL     1     -32.373   7.970   3.798  1.00 20.00     0.274 C 
HETATM    4  C4  UNL     1     -33.343   6.284   2.369  1.00 20.00     0.280 C 
HETATM    5  C5  UNL     1     -33.585   7.334   4.425  1.00 20.00     0.025 C 
HETATM    6  C6  UNL     1     -33.519   5.948   3.824  1.00 20.00     0.092 C 
HETATM    7  C7  UNL     1     -34.742   5.318   4.428  1.00 20.00     0.249 C 
HETATM    8  N8  UNL     1     -32.374   7.413   2.417  1.00 20.00     0.084 N 
HETATM    9  F9  UNL     1     -34.751   3.981   4.308  1.00 20.00    -0.206 F 
HETATM   10  F10 UNL     1     -35.870   5.798   3.858  1.00 20.00    -0.206 F 
HETATM   11  H21 UNL     1     -32.671   8.131   1.757  1.00 20.00     0.315 HD
ENDROOT
TORSDOF 0
ENDMDL
MODEL 2
REMARK VINA RESULT:      -5.8      1.532      2.015
REMARK  0 active torsions:
REMARK  status: ('A' for Active; 'I' for Inactive)
ROOT
HETATM    1  C1  UNL     1     -34.621   5.158   5.550  1.00 20.00     0.013 C 
HETATM    2  C2  UNL     1     -34.579   4.332   4.234  1.00 20.00     0.080 C 
HETATM    3  C3  UNL     1     -33.400   7.504   5.968  1.00 20.00     0.274 C 
HETATM    4  C4  UNL     1     -32.621   7.542   3.683  1.00 20.00     0.280 C 
HETATM    5  C5  UNL     1     -34.151   6.527   5.104  1.00 20.00     0.025 C 
HETATM    6  C6  UNL     1     -33.088   6.171   4.089  1.00 20.00     0.092 C 
HETATM    7  C7  UNL     1     -33.842   5.214   3.209  1.00 20.00     0.249 C 
HETATM    8  N8  UNL     1     -32.578   8.263   4.985  1.00 20.00     0.084 N 
HETATM    9  F9  UNL     1     -33.036   4.502   2.406  1.00 20.00    -0.206 F 
HETATM   10  F10 UNL     1     -34.737   5.867   2.435  1.00 20.00    -0.206 F 
HETATM   11  H21 UNL     1     -32.968   9.196   4.858  1.00 20.00     0.315 HD
ENDROOT
TORSDOF 0
ENDMDL
MODEL 3
REMARK VINA RESULT:      -5.6      2.449      3.676
REMARK  0 active torsions:
REMARK  status: ('A' for Active; 'I' for Inactive)
ROOT
HETATM    1  C1  UNL     1     -33.128   5.409   2.557  1.00 20.00     0.013 C 
HETATM    2  C2  UNL     1     -32.509   6.834   2.596  1.00 20.00     0.080 C 
HETATM    3  C3  UNL     1     -34.549   4.264   4.517  1.00 20.00     0.274 C 
HETATM    4  C4  UNL     1     -34.420   6.283   5.834  1.00 20.00     0.280 C 
HETATM    5  C5  UNL     1     -34.137   5.449   3.686  1.00 20.00     0.025 C 
HETATM    6  C6  UNL     1     -33.410   6.280   4.719  1.00 20.00     0.092 C 
HETATM    7  C7  UNL     1     -33.018   7.477   3.899  1.00 20.00     0.249 C 
HETATM    8  N8  UNL     1     -34.907   4.876   5.826  1.00 20.00     0.084 N 
HETATM    9  F9  UNL     1     -32.085   8.233   4.496  1.00 20.00    -0.206 F 
HETATM   10  F10 UNL     1     -34.090   8.260   3.638  1.00 20.00    -0.206 F 
HETATM   11  H21 UNL     1     -35.920   4.877   5.939  1.00 20.00     0.315 HD
ENDROOT
TORSDOF 0
ENDMDL
MODEL 4
REMARK VINA RESULT:      -5.5      2.070      3.087
REMARK  0 active torsions:
REMARK  status: ('A' for Active; 'I' for Inactive)
ROOT
HETATM    1  C1  UNL     1     -32.792   7.876   3.960  1.00 20.00     0.013 C 
HETATM    2  C2  UNL     1     -32.795   7.364   2.493  1.00 20.00     0.080 C 
HETATM    3  C3  UNL     1     -34.097   6.758   6.013  1.00 20.00     0.274 C 
HETATM    4  C4  UNL     1     -34.857   4.960   4.592  1.00 20.00     0.280 C 
HETATM    5  C5  UNL     1     -33.306   6.681   4.735  1.00 20.00     0.025 C 
HETATM    6  C6  UNL     1     -34.348   6.126   3.790  1.00 20.00     0.092 C 
HETATM    7  C7  UNL     1     -33.554   6.025   2.518  1.00 20.00     0.249 C 
HETATM    8  N8  UNL     1     -34.936   5.529   5.966  1.00 20.00     0.084 N 
HETATM    9  F9  UNL     1     -34.328   5.854   1.435  1.00 20.00    -0.206 F 
HETATM   10  F10 UNL     1     -32.675   4.998   2.573  1.00 20.00    -0.206 F 
HETATM   11  H21 UNL     1     -34.578   4.842   6.628  1.00 20.00     0.315 HD
ENDROOT
TORSDOF 0
ENDMDL
MODEL 5
REMARK VINA RESULT:      -4.9      2.430      3.235
REMARK  0 active torsions:
REMARK  status: ('A' for Active; 'I' for Inactive)
ROOT
HETATM    1  C1  UNL     1     -33.320   7.572   5.923  1.00 20.00     0.013 C 
HETATM    2  C2  UNL     1     -32.698   8.345   4.726  1.00 20.00     0.080 C 
HETATM    3  C3  UNL     1     -34.774   5.330   5.753  1.00 20.00     0.274 C 
HETATM    4  C4  UNL     1     -34.431   5.250   3.365  1.00 20.00     0.280 C 
HETATM    5  C5  UNL     1     -33.640   6.220   5.320  1.00 20.00     0.025 C 
HETATM    6  C6  UNL     1     -34.097   6.602   3.930  1.00 20.00     0.092 C 
HETATM    7  C7  UNL     1     -32.955   7.472   3.484  1.00 20.00     0.249 C 
HETATM    8  N8  UNL     1     -35.116   4.587   4.509  1.00 20.00     0.084 N 
HETATM    9  F9  UNL     1     -33.251   8.202   2.398  1.00 20.00    -0.206 F 
HETATM   10  F10 UNL     1     -31.858   6.731   3.207  1.00 20.00    -0.206 F 
HETATM   11  H21 UNL     1     -34.783   3.626   4.580  1.00 20.00     0.315 HD
ENDROOT
TORSDOF 0
ENDMDL
MODEL 6
REMARK VINA RESULT:      -4.9      1.343      2.533
REMARK  0 active torsions:
REMARK  status: ('A' for Active; 'I' for Inactive)
ROOT
HETATM    1  C1  UNL     1     -33.014   6.724   2.189  1.00 20.00     0.013 C 
HETATM    2  C2  UNL     1     -34.242   5.777   2.292  1.00 20.00     0.080 C 
HETATM    3  C3  UNL     1     -32.011   8.212   4.176  1.00 20.00     0.274 C 
HETATM    4  C4  UNL     1     -33.614   7.284   5.724  1.00 20.00     0.280 C 
HETATM    5  C5  UNL     1     -32.646   6.958   3.639  1.00 20.00     0.025 C 
HETATM    6  C6  UNL     1     -34.006   7.027   4.295  1.00 20.00     0.092 C 
HETATM    7  C7  UNL     1     -34.635   5.762   3.781  1.00 20.00     0.249 C 
HETATM    8  N8  UNL     1     -32.509   8.271   5.577  1.00 20.00     0.084 N 
HETATM    9  F9  UNL     1     -35.965   5.733   3.959  1.00 20.00    -0.206 F 
HETATM   10  F10 UNL     1     -34.106   4.675   4.386  1.00 20.00    -0.206 F 
HETATM   11  H21 UNL     1     -31.758   8.022   6.220  1.00 20.00     0.315 HD
ENDROOT
TORSDOF 0
ENDMDL
MODEL 7
REMARK VINA RESULT:      -4.8      1.605      2.455
REMARK  0 active torsions:
REMARK  status: ('A' for Active; 'I' for Inactive)
ROOT
HETATM    1  C1  UNL     1     -34.578   5.907   3.041  1.00 20.00     0.013 C 
HETATM    2  C2  UNL     1     -35.031   5.741   4.519  1.00 20.00     0.080 C 
HETATM    3  C3  UNL     1     -32.604   7.495   2.177  1.00 20.00     0.274 C 
HETATM    4  C4  UNL     1     -32.074   8.126   4.446  1.00 20.00     0.280 C 
HETATM    5  C5  UNL     1     -33.215   6.551   3.177  1.00 20.00     0.025 C 
HETATM    6  C6  UNL     1     -33.430   7.482   4.349  1.00 20.00     0.092 C 
HETATM    7  C7  UNL     1     -34.018   6.538   5.360  1.00 20.00     0.249 C 
HETATM    8  N8  UNL     1     -31.731   8.360   3.016  1.00 20.00     0.084 N 
HETATM    9  F9  UNL     1     -34.596   7.174   6.391  1.00 20.00    -0.206 F 
HETATM   10  F10 UNL     1     -33.074   5.706   5.854  1.00 20.00    -0.206 F 
HETATM   11  H21 UNL     1     -30.753   8.110   2.867  1.00 20.00     0.315 HD
ENDROOT
TORSDOF 0
ENDMDL
MODEL 8
REMARK VINA RESULT:      -4.2     12.357     13.213
REMARK  0 active torsions:
REMARK  status: ('A' for Active; 'I' for Inactive)
ROOT
HETATM    1  C1  UNL     1     -35.067  15.403  -3.601  1.00 20.00     0.013 C 
HETATM    2  C2  UNL     1     -34.001  16.457  -4.014  1.00 20.00     0.080 C 
HETATM    3  C3  UNL     1     -35.904  13.350  -5.101  1.00 20.00     0.274 C 
HETATM    4  C4  UNL     1     -34.321  13.927  -6.830  1.00 20.00     0.280 C 
HETATM    5  C5  UNL     1     -34.838  14.285  -4.596  1.00 20.00     0.025 C 
HETATM    6  C6  UNL     1     -34.517  15.056  -5.857  1.00 20.00     0.092 C 
HETATM    7  C7  UNL     1     -33.436  15.975  -5.362  1.00 20.00     0.249 C 
HETATM    8  N8  UNL     1     -35.424  12.996  -6.465  1.00 20.00     0.084 N 
HETATM    9  F9  UNL     1     -33.189  16.988  -6.207  1.00 20.00    -0.206 F 
HETATM   10  F10 UNL     1     -32.280  15.302  -5.164  1.00 20.00    -0.206 F 
HETATM   11  H21 UNL     1     -35.065  12.042  -6.467  1.00 20.00     0.315 HD
ENDROOT
TORSDOF 0
ENDMDL
MODEL 9
REMARK VINA RESULT:      -4.2     12.129     13.069
REMARK  0 active torsions:
REMARK  status: ('A' for Active; 'I' for Inactive)
ROOT
HETATM    1  C1  UNL     1     -33.193  15.876  -6.088  1.00 20.00     0.013 C 
HETATM    2  C2  UNL     1     -33.510  16.518  -4.707  1.00 20.00     0.080 C 
HETATM    3  C3  UNL     1     -34.331  13.669  -7.087  1.00 20.00     0.274 C 
HETATM    4  C4  UNL     1     -35.788  13.512  -5.169  1.00 20.00     0.280 C 
HETATM    5  C5  UNL     1     -34.376  14.958  -6.311  1.00 20.00     0.025 C 
HETATM    6  C6  UNL     1     -34.630  14.437  -4.914  1.00 20.00     0.092 C 
HETATM    7  C7  UNL     1     -34.700  15.723  -4.139  1.00 20.00     0.249 C 
HETATM    8  N8  UNL     1     -35.391  12.847  -6.440  1.00 20.00     0.084 N 
HETATM    9  F9  UNL     1     -34.605  15.537  -2.814  1.00 20.00    -0.206 F 
HETATM   10  F10 UNL     1     -35.855  16.380  -4.390  1.00 20.00    -0.206 F 
HETATM   11  H21 UNL     1     -36.205  12.792  -7.051  1.00 20.00     0.315 HD
ENDROOT
TORSDOF 0
ENDMDL
