MODEL 1
REMARK VINA RESULT:      -5.0      0.000      0.000
REMARK  1 active torsions:
REMARK  status: ('A' for Active; 'I' for Inactive)
REMARK    1  A    between atoms: C6_6  and  O8_8 
ROOT
HETATM    1  C1  UNL     1     -32.893   7.091   2.852  1.00 20.00     0.064 C 
HETATM    2  C2  UNL     1     -33.214   4.678   3.333  1.00 20.00     0.022 C 
HETATM    3  C3  UNL     1     -34.233   4.109   4.316  1.00 20.00     0.033 C 
HETATM    4  C4  UNL     1     -35.093   6.228   3.634  1.00 20.00     0.051 C 
HETATM    5  C5  UNL     1     -33.839   5.968   2.782  1.00 20.00     0.095 C 
HETATM    6  C6  UNL     1     -34.935   5.340   4.864  1.00 20.00     0.119 C 
HETATM    7  N7  UNL     1     -32.147   7.978   2.908  1.00 20.00    -0.197 NA
ENDROOT
BRANCH   6   8
HETATM    8  O8  UNL     1     -34.103   5.973   5.828  1.00 20.00    -0.396 OA
HETATM    9  H17 UNL     1     -34.538   5.861   6.689  1.00 20.00     0.210 HD
ENDBRANCH   6   8
TORSDOF 1
ENDMDL
MODEL 2
REMARK VINA RESULT:      -4.5      1.568      2.029
REMARK  1 active torsions:
REMARK  status: ('A' for Active; 'I' for Inactive)
REMARK    1  A    between atoms: C6_6  and  O8_8 
ROOT
HETATM    1  C1  UNL     1     -32.837   7.817   2.589  1.00 20.00     0.064 C 
HETATM    2  C2  UNL     1     -33.477   7.262   4.921  1.00 20.00     0.022 C 
HETATM    3  C3  UNL     1     -34.385   6.103   5.329  1.00 20.00     0.033 C 
HETATM    4  C4  UNL     1     -33.440   5.487   3.226  1.00 20.00     0.051 C 
HETATM    5  C5  UNL     1     -32.755   6.799   3.647  1.00 20.00     0.095 C 
HETATM    6  C6  UNL     1     -34.748   5.446   4.008  1.00 20.00     0.119 C 
HETATM    7  N7  UNL     1     -32.902   8.619   1.754  1.00 20.00    -0.197 NA
ENDROOT
BRANCH   6   8
HETATM    8  O8  UNL     1     -35.744   6.219   3.349  1.00 20.00    -0.396 OA
HETATM    9  H17 UNL     1     -35.536   6.194   2.401  1.00 20.00     0.210 HD
ENDBRANCH   6   8
TORSDOF 1
ENDMDL
MODEL 3
REMARK VINA RESULT:      -4.4      2.467      3.283
REMARK  1 active torsions:
REMARK  status: ('A' for Active; 'I' for Inactive)
REMARK    1  A    between atoms: C6_6  and  O8_8 
ROOT
HETATM    1  C1  UNL     1     -34.364   4.274   4.440  1.00 20.00     0.064 C 
HETATM    2  C2  UNL     1     -33.980   6.308   5.808  1.00 20.00     0.022 C 
HETATM    3  C3  UNL     1     -33.644   7.689   5.249  1.00 20.00     0.033 C 
HETATM    4  C4  UNL     1     -34.799   6.539   3.505  1.00 20.00     0.051 C 
HETATM    5  C5  UNL     1     -34.853   5.627   4.743  1.00 20.00     0.095 C 
HETATM    6  C6  UNL     1     -33.619   7.475   3.745  1.00 20.00     0.119 C 
HETATM    7  N7  UNL     1     -33.978   3.206   4.200  1.00 20.00    -0.197 NA
ENDROOT
BRANCH   6   8
HETATM    8  O8  UNL     1     -32.401   6.840   3.375  1.00 20.00    -0.396 OA
HETATM    9  H17 UNL     1     -32.587   6.323   2.575  1.00 20.00     0.210 HD
ENDBRANCH   6   8
TORSDOF 1
ENDMDL
MODEL 4
REMARK VINA RESULT:      -4.1      1.852      2.123
REMARK  1 active torsions:
REMARK  status: ('A' for Active; 'I' for Inactive)
REMARK    1  A    between atoms: C6_6  and  O8_8 
ROOT
HETATM    1  C1  UNL     1     -33.733   7.304   5.228  1.00 20.00     0.064 C 
HETATM    2  C2  UNL     1     -32.883   6.176   3.187  1.00 20.00     0.022 C 
HETATM    3  C3  UNL     1     -33.334   4.804   2.693  1.00 20.00     0.033 C 
HETATM    4  C4  UNL     1     -35.137   5.652   4.006  1.00 20.00     0.051 C 
HETATM    5  C5  UNL     1     -34.100   6.783   3.903  1.00 20.00     0.095 C 
HETATM    6  C6  UNL     1     -34.364   4.368   3.721  1.00 20.00     0.119 C 
HETATM    7  N7  UNL     1     -33.444   7.714   6.274  1.00 20.00    -0.197 NA
ENDROOT
BRANCH   6   8
HETATM    8  O8  UNL     1     -33.703   3.918   4.896  1.00 20.00    -0.396 OA
HETATM    9  H17 UNL     1     -34.297   4.104   5.641  1.00 20.00     0.210 HD
ENDBRANCH   6   8
TORSDOF 1
ENDMDL
MODEL 5
REMARK VINA RESULT:      -4.0     12.296     13.106
REMARK  1 active torsions:
REMARK  status: ('A' for Active; 'I' for Inactive)
REMARK    1  A    between atoms: C6_6  and  O8_8 
ROOT
HETATM    1  C1  UNL     1     -35.693  13.923  -5.016  1.00 20.00     0.064 C 
HETATM    2  C2  UNL     1     -34.682  15.528  -3.417  1.00 20.00     0.022 C 
HETATM    3  C3  UNL     1     -33.580  16.528  -3.759  1.00 20.00     0.033 C 
HETATM    4  C4  UNL     1     -34.703  16.063  -5.812  1.00 20.00     0.051 C 
HETATM    5  C5  UNL     1     -35.496  15.346  -4.707  1.00 20.00     0.095 C 
HETATM    6  C6  UNL     1     -33.309  16.280  -5.233  1.00 20.00     0.119 C 
HETATM    7  N7  UNL     1     -35.847  12.799  -5.262  1.00 20.00    -0.197 NA
ENDROOT
BRANCH   6   8
HETATM    8  O8  UNL     1     -32.523  15.104  -5.381  1.00 20.00    -0.396 OA
HETATM    9  H17 UNL     1     -32.730  14.533  -4.624  1.00 20.00     0.210 HD
ENDBRANCH   6   8
TORSDOF 1
ENDMDL
MODEL 6
REMARK VINA RESULT:      -4.0      2.471      3.324
REMARK  1 active torsions:
REMARK  status: ('A' for Active; 'I' for Inactive)
REMARK    1  A    between atoms: C6_6  and  O8_8 
ROOT
HETATM    1  C1  UNL     1     -34.571   5.660   5.454  1.00 20.00     0.064 C 
HETATM    2  C2  UNL     1     -33.036   7.306   4.409  1.00 20.00     0.022 C 
HETATM    3  C3  UNL     1     -32.642   7.324   2.934  1.00 20.00     0.033 C 
HETATM    4  C4  UNL     1     -34.756   6.220   3.036  1.00 20.00     0.051 C 
HETATM    5  C5  UNL     1     -34.460   6.733   4.455  1.00 20.00     0.095 C 
HETATM    6  C6  UNL     1     -33.399   6.146   2.343  1.00 20.00     0.119 C 
HETATM    7  N7  UNL     1     -34.658   4.812   6.241  1.00 20.00    -0.197 NA
ENDROOT
BRANCH   6   8
HETATM    8  O8  UNL     1     -32.735   4.935   2.682  1.00 20.00    -0.396 OA
HETATM    9  H17 UNL     1     -33.005   4.712   3.587  1.00 20.00     0.210 HD
ENDBRANCH   6   8
TORSDOF 1
ENDMDL
MODEL 7
REMARK VINA RESULT:      -3.8     11.912     12.505
REMARK  1 active torsions:
REMARK  status: ('A' for Active; 'I' for Inactive)
REMARK    1  A    between atoms: C6_6  and  O8_8 
ROOT
HETATM    1  C1  UNL     1     -33.183  14.400  -4.542  1.00 20.00     0.064 C 
HETATM    2  C2  UNL     1     -34.587  14.679  -6.569  1.00 20.00     0.022 C 
HETATM    3  C3  UNL     1     -36.088  14.407  -6.640  1.00 20.00     0.033 C 
HETATM    4  C4  UNL     1     -35.616  14.889  -4.351  1.00 20.00     0.051 C 
HETATM    5  C5  UNL     1     -34.313  15.137  -5.128  1.00 20.00     0.095 C 
HETATM    6  C6  UNL     1     -36.441  13.957  -5.232  1.00 20.00     0.119 C 
HETATM    7  N7  UNL     1     -32.293  13.819  -4.079  1.00 20.00    -0.197 NA
ENDROOT
BRANCH   6   8
HETATM    8  O8  UNL     1     -36.031  12.608  -5.046  1.00 20.00    -0.396 OA
HETATM    9  H17 UNL     1     -35.996  12.456  -4.088  1.00 20.00     0.210 HD
ENDBRANCH   6   8
TORSDOF 1
ENDMDL
MODEL 8
REMARK VINA RESULT:      -3.7     12.288     13.107
REMARK  1 active torsions:
REMARK  status: ('A' for Active; 'I' for Inactive)
REMARK    1  A    between atoms: C6_6  and  O8_8 
ROOT
HETATM    1  C1  UNL     1     -36.824  14.580  -4.902  1.00 20.00     0.064 C 
HETATM    2  C2  UNL     1     -34.602  14.896  -3.844  1.00 20.00     0.022 C 
HETATM    3  C3  UNL     1     -33.283  15.033  -4.601  1.00 20.00     0.033 C 
HETATM    4  C4  UNL     1     -34.986  15.735  -6.119  1.00 20.00     0.051 C 
HETATM    5  C5  UNL     1     -35.678  15.490  -4.767  1.00 20.00     0.095 C 
HETATM    6  C6  UNL     1     -33.691  14.932  -6.061  1.00 20.00     0.119 C 
HETATM    7  N7  UNL     1     -37.729  13.862  -5.010  1.00 20.00    -0.197 NA
ENDROOT
BRANCH   6   8
HETATM    8  O8  UNL     1     -33.937  13.571  -6.393  1.00 20.00    -0.396 OA
HETATM    9  H17 UNL     1     -34.577  13.236  -5.744  1.00 20.00     0.210 HD
ENDBRANCH   6   8
TORSDOF 1
ENDMDL
MODEL 9
REMARK VINA RESULT:      -3.7     12.219     13.134
REMARK  1 active torsions:
REMARK  status: ('A' for Active; 'I' for Inactive)
REMARK    1  A    between atoms: C6_6  and  O8_8 
ROOT
HETATM    1  C1  UNL     1     -35.233  13.678  -4.727  1.00 20.00     0.064 C 
HETATM    2  C2  UNL     1     -33.329  15.243  -5.015  1.00 20.00     0.022 C 
HETATM    3  C3  UNL     1     -33.405  16.758  -4.834  1.00 20.00     0.033 C 
HETATM    4  C4  UNL     1     -35.173  15.850  -3.513  1.00 20.00     0.051 C 
HETATM    5  C5  UNL     1     -34.368  14.654  -4.048  1.00 20.00     0.095 C 
HETATM    6  C6  UNL     1     -34.856  17.006  -4.456  1.00 20.00     0.119 C 
HETATM    7  N7  UNL     1     -35.917  12.909  -5.262  1.00 20.00    -0.197 NA
ENDROOT
BRANCH   6   8
HETATM    8  O8  UNL     1     -35.670  16.932  -5.620  1.00 20.00    -0.396 OA
HETATM    9  H17 UNL     1     -35.452  17.707  -6.163  1.00 20.00     0.210 HD
ENDBRANCH   6   8
TORSDOF 1
ENDMDL
