MODEL 1
REMARK VINA RESULT:      -5.2      0.000      0.000
REMARK  2 active torsions:
REMARK  status: ('A' for Active; 'I' for Inactive)
REMARK    1  A    between atoms: C2_2  and  C7_7 
REMARK    2  A    between atoms: C7_7  and  C8_8 
ROOT
HETATM    1  C7  UNL     1     -33.275   6.367   2.992  1.00 20.00     0.035 C 
ENDROOT
BRANCH   1   2
HETATM    2  C2  UNL     1     -32.307   7.427   3.445  1.00 20.00    -0.030 C 
HETATM    3  C1  UNL     1     -31.902   8.445   2.672  1.00 20.00    -0.035 C 
HETATM    4  C3  UNL     1     -32.358   8.655   1.267  1.00 20.00     0.035 C 
ENDBRANCH   1   2
BRANCH   1   5
HETATM    5  C8  UNL     1     -34.267   5.863   4.075  1.00 20.00    -0.048 C 
HETATM    6  C4  UNL     1     -34.061   6.600   5.409  1.00 20.00     0.014 C 
HETATM    7  C5  UNL     1     -34.111   4.349   4.302  1.00 20.00     0.014 C 
HETATM    8  C6  UNL     1     -35.701   6.139   3.582  1.00 20.00     0.014 C 
ENDBRANCH   1   5
TORSDOF 2
ENDMDL
MODEL 2
REMARK VINA RESULT:      -5.2      0.780      1.099
REMARK  2 active torsions:
REMARK  status: ('A' for Active; 'I' for Inactive)
REMARK    1  A    between atoms: C2_2  and  C7_7 
REMARK    2  A    between atoms: C7_7  and  C8_8 
ROOT
HETATM    1  C7  UNL     1     -33.130   5.813   3.348  1.00 20.00     0.035 C 
ENDROOT
BRANCH   1   2
HETATM    2  C2  UNL     1     -33.240   6.941   2.357  1.00 20.00    -0.030 C 
HETATM    3  C1  UNL     1     -32.489   8.050   2.404  1.00 20.00    -0.035 C 
HETATM    4  C3  UNL     1     -31.449   8.306   3.443  1.00 20.00     0.035 C 
ENDBRANCH   1   2
BRANCH   1   5
HETATM    5  C8  UNL     1     -34.283   5.721   4.385  1.00 20.00    -0.048 C 
HETATM    6  C4  UNL     1     -34.063   6.696   5.554  1.00 20.00     0.014 C 
HETATM    7  C5  UNL     1     -34.414   4.290   4.935  1.00 20.00     0.014 C 
HETATM    8  C6  UNL     1     -35.599   6.097   3.677  1.00 20.00     0.014 C 
ENDBRANCH   1   5
TORSDOF 2
ENDMDL
MODEL 3
REMARK VINA RESULT:      -5.1      0.219      1.554
REMARK  2 active torsions:
REMARK  status: ('A' for Active; 'I' for Inactive)
REMARK    1  A    between atoms: C2_2  and  C7_7 
REMARK    2  A    between atoms: C7_7  and  C8_8 
ROOT
HETATM    1  C7  UNL     1     -33.225   6.378   3.113  1.00 20.00     0.035 C 
ENDROOT
BRANCH   1   2
HETATM    2  C2  UNL     1     -32.385   7.509   3.641  1.00 20.00    -0.030 C 
HETATM    3  C1  UNL     1     -31.800   8.430   2.861  1.00 20.00    -0.035 C 
HETATM    4  C3  UNL     1     -31.910   8.449   1.373  1.00 20.00     0.035 C 
ENDBRANCH   1   2
BRANCH   1   5
HETATM    5  C8  UNL     1     -34.293   5.826   4.096  1.00 20.00    -0.048 C 
HETATM    6  C4  UNL     1     -34.136   4.309   4.299  1.00 20.00     0.014 C 
HETATM    7  C5  UNL     1     -35.714   6.125   3.588  1.00 20.00     0.014 C 
HETATM    8  C6  UNL     1     -34.102   6.522   5.457  1.00 20.00     0.014 C 
ENDBRANCH   1   5
TORSDOF 2
ENDMDL
MODEL 4
REMARK VINA RESULT:      -5.1      0.775      1.845
REMARK  2 active torsions:
REMARK  status: ('A' for Active; 'I' for Inactive)
REMARK    1  A    between atoms: C2_2  and  C7_7 
REMARK    2  A    between atoms: C7_7  and  C8_8 
ROOT
HETATM    1  C7  UNL     1     -33.110   5.834   3.371  1.00 20.00     0.035 C 
ENDROOT
BRANCH   1   2
HETATM    2  C2  UNL     1     -33.213   6.942   2.357  1.00 20.00    -0.030 C 
HETATM    3  C1  UNL     1     -32.466   8.055   2.392  1.00 20.00    -0.035 C 
HETATM    4  C3  UNL     1     -31.439   8.335   3.438  1.00 20.00     0.035 C 
ENDBRANCH   1   2
BRANCH   1   5
HETATM    5  C8  UNL     1     -34.302   5.723   4.361  1.00 20.00    -0.048 C 
HETATM    6  C4  UNL     1     -34.422   4.301   4.934  1.00 20.00     0.014 C 
HETATM    7  C5  UNL     1     -35.625   6.106   3.674  1.00 20.00     0.014 C 
HETATM    8  C6  UNL     1     -34.054   6.700   5.526  1.00 20.00     0.014 C 
ENDBRANCH   1   5
TORSDOF 2
ENDMDL
MODEL 5
REMARK VINA RESULT:      -4.8      1.232      3.846
REMARK  2 active torsions:
REMARK  status: ('A' for Active; 'I' for Inactive)
REMARK    1  A    between atoms: C2_2  and  C7_7 
REMARK    2  A    between atoms: C7_7  and  C8_8 
ROOT
HETATM    1  C7  UNL     1     -33.975   7.658   3.957  1.00 20.00     0.035 C 
ENDROOT
BRANCH   1   2
HETATM    2  C2  UNL     1     -33.746   7.273   5.394  1.00 20.00    -0.030 C 
HETATM    3  C1  UNL     1     -34.134   6.104   5.924  1.00 20.00    -0.035 C 
HETATM    4  C3  UNL     1     -34.840   5.037   5.155  1.00 20.00     0.035 C 
ENDBRANCH   1   2
BRANCH   1   5
HETATM    5  C8  UNL     1     -32.719   7.604   3.045  1.00 20.00    -0.048 C 
HETATM    6  C4  UNL     1     -31.461   8.073   3.795  1.00 20.00     0.014 C 
HETATM    7  C5  UNL     1     -32.914   8.473   1.789  1.00 20.00     0.014 C 
HETATM    8  C6  UNL     1     -32.507   6.144   2.601  1.00 20.00     0.014 C 
ENDBRANCH   1   5
TORSDOF 2
ENDMDL
MODEL 6
REMARK VINA RESULT:      -4.7      1.226      3.846
REMARK  2 active torsions:
REMARK  status: ('A' for Active; 'I' for Inactive)
REMARK    1  A    between atoms: C2_2  and  C7_7 
REMARK    2  A    between atoms: C7_7  and  C8_8 
ROOT
HETATM    1  C7  UNL     1     -34.004   7.668   3.956  1.00 20.00     0.035 C 
ENDROOT
BRANCH   1   2
HETATM    2  C2  UNL     1     -33.767   7.259   5.385  1.00 20.00    -0.030 C 
HETATM    3  C1  UNL     1     -34.148   6.080   5.896  1.00 20.00    -0.035 C 
HETATM    4  C3  UNL     1     -34.855   5.025   5.112  1.00 20.00     0.035 C 
ENDBRANCH   1   2
BRANCH   1   5
HETATM    5  C8  UNL     1     -32.767   7.576   3.022  1.00 20.00    -0.048 C 
HETATM    6  C4  UNL     1     -32.930   8.479   1.787  1.00 20.00     0.014 C 
HETATM    7  C5  UNL     1     -32.530   6.127   2.563  1.00 20.00     0.014 C 
HETATM    8  C6  UNL     1     -31.530   8.048   3.811  1.00 20.00     0.014 C 
ENDBRANCH   1   5
TORSDOF 2
ENDMDL
MODEL 7
REMARK VINA RESULT:      -4.7      1.234      3.845
REMARK  2 active torsions:
REMARK  status: ('A' for Active; 'I' for Inactive)
REMARK    1  A    between atoms: C2_2  and  C7_7 
REMARK    2  A    between atoms: C7_7  and  C8_8 
ROOT
HETATM    1  C7  UNL     1     -34.009   7.649   3.955  1.00 20.00     0.035 C 
ENDROOT
BRANCH   1   2
HETATM    2  C2  UNL     1     -33.797   7.260   5.393  1.00 20.00    -0.030 C 
HETATM    3  C1  UNL     1     -34.171   6.080   5.909  1.00 20.00    -0.035 C 
HETATM    4  C3  UNL     1     -34.842   5.004   5.121  1.00 20.00     0.035 C 
ENDBRANCH   1   2
BRANCH   1   5
HETATM    5  C8  UNL     1     -32.753   7.552   3.046  1.00 20.00    -0.048 C 
HETATM    6  C4  UNL     1     -32.523   6.110   2.562  1.00 20.00     0.014 C 
HETATM    7  C5  UNL     1     -31.498   8.044   3.787  1.00 20.00     0.014 C 
HETATM    8  C6  UNL     1     -32.978   8.450   1.814  1.00 20.00     0.014 C 
ENDBRANCH   1   5
TORSDOF 2
ENDMDL
MODEL 8
REMARK VINA RESULT:      -4.5      1.345      4.658
REMARK  2 active torsions:
REMARK  status: ('A' for Active; 'I' for Inactive)
REMARK    1  A    between atoms: C2_2  and  C7_7 
REMARK    2  A    between atoms: C7_7  and  C8_8 
ROOT
HETATM    1  C7  UNL     1     -33.288   8.472   1.940  1.00 20.00     0.035 C 
ENDROOT
BRANCH   1   2
HETATM    2  C2  UNL     1     -32.452   7.401   2.588  1.00 20.00    -0.030 C 
HETATM    3  C1  UNL     1     -32.964   6.309   3.175  1.00 20.00    -0.035 C 
HETATM    4  C3  UNL     1     -34.425   6.018   3.259  1.00 20.00     0.035 C 
ENDBRANCH   1   2
BRANCH   1   5
HETATM    5  C8  UNL     1     -32.553   9.347   0.888  1.00 20.00    -0.048 C 
HETATM    6  C4  UNL     1     -32.435  10.806   1.359  1.00 20.00     0.014 C 
HETATM    7  C5  UNL     1     -33.282   9.307  -0.466  1.00 20.00     0.014 C 
HETATM    8  C6  UNL     1     -31.133   8.780   0.696  1.00 20.00     0.014 C 
ENDBRANCH   1   5
TORSDOF 2
ENDMDL
MODEL 9
REMARK VINA RESULT:      -4.5      1.331      4.650
REMARK  2 active torsions:
REMARK  status: ('A' for Active; 'I' for Inactive)
REMARK    1  A    between atoms: C2_2  and  C7_7 
REMARK    2  A    between atoms: C7_7  and  C8_8 
ROOT
HETATM    1  C7  UNL     1     -33.285   8.456   1.972  1.00 20.00     0.035 C 
ENDROOT
BRANCH   1   2
HETATM    2  C2  UNL     1     -32.475   7.358   2.606  1.00 20.00    -0.030 C 
HETATM    3  C1  UNL     1     -33.013   6.280   3.195  1.00 20.00    -0.035 C 
HETATM    4  C3  UNL     1     -34.482   6.034   3.296  1.00 20.00     0.035 C 
ENDBRANCH   1   2
BRANCH   1   5
HETATM    5  C8  UNL     1     -32.542   9.300   0.901  1.00 20.00    -0.048 C 
HETATM    6  C4  UNL     1     -33.291   9.285  -0.442  1.00 20.00     0.014 C 
HETATM    7  C5  UNL     1     -31.108   8.782   0.690  1.00 20.00     0.014 C 
HETATM    8  C6  UNL     1     -32.467  10.757   1.401  1.00 20.00     0.014 C 
ENDBRANCH   1   5
TORSDOF 2
ENDMDL
