MODEL 1
REMARK VINA RESULT:      -5.2      0.000      0.000
REMARK  3 active torsions:
REMARK  status: ('A' for Active; 'I' for Inactive)
REMARK    1  A    between atoms: C2_2  and  C6_6 
REMARK    2  A    between atoms: C6_6  and  C7_7 
REMARK    3  A    between atoms: C7_7  and  C8_8 
ROOT
HETATM    1  C4  UNL     1     -32.941   5.321   2.481  1.00 20.00     0.011 C 
HETATM    2  C7  UNL     1     -33.459   6.724   2.834  1.00 20.00    -0.001 C 
ENDROOT
BRANCH   2   3
HETATM    3  C6  UNL     1     -32.305   7.750   2.948  1.00 20.00     0.038 C 
BRANCH   3   4
HETATM    4  C2  UNL     1     -32.170   8.682   1.762  1.00 20.00    -0.093 C 
HETATM    5  C1  UNL     1     -31.344   8.401   0.741  1.00 20.00     0.014 C 
HETATM    6  C3  UNL     1     -33.029   9.913   1.755  1.00 20.00     0.042 C 
ENDBRANCH   3   4
ENDBRANCH   2   3
BRANCH   2   7
HETATM    7  C8  UNL     1     -34.385   6.690   4.073  1.00 20.00     0.057 C 
HETATM    8  C5  UNL     1     -34.907   5.300   4.416  1.00 20.00     0.022 C 
HETATM    9 BR9  UNL     1     -33.526   7.431   5.672  1.00 20.00    -0.091 Br
ENDBRANCH   2   7
TORSDOF 3
ENDMDL
MODEL 2
REMARK VINA RESULT:      -4.9      1.276      1.471
REMARK  3 active torsions:
REMARK  status: ('A' for Active; 'I' for Inactive)
REMARK    1  A    between atoms: C2_2  and  C6_6 
REMARK    2  A    between atoms: C6_6  and  C7_7 
REMARK    3  A    between atoms: C7_7  and  C8_8 
ROOT
HETATM    1  C4  UNL     1     -33.636   6.171   2.220  1.00 20.00     0.011 C 
HETATM    2  C7  UNL     1     -33.344   7.227   3.297  1.00 20.00    -0.001 C 
ENDROOT
BRANCH   2   3
HETATM    3  C6  UNL     1     -32.046   8.015   2.991  1.00 20.00     0.038 C 
BRANCH   3   4
HETATM    4  C2  UNL     1     -32.093   8.842   1.723  1.00 20.00    -0.093 C 
HETATM    5  C1  UNL     1     -31.369   8.510   0.642  1.00 20.00     0.014 C 
HETATM    6  C3  UNL     1     -33.017  10.026   1.710  1.00 20.00     0.042 C 
ENDBRANCH   3   4
ENDBRANCH   2   3
BRANCH   2   7
HETATM    7  C8  UNL     1     -33.379   6.614   4.716  1.00 20.00     0.057 C 
HETATM    8  C5  UNL     1     -33.651   7.628   5.821  1.00 20.00     0.022 C 
HETATM    9 BR9  UNL     1     -34.694   5.168   4.878  1.00 20.00    -0.091 Br
ENDBRANCH   2   7
TORSDOF 3
ENDMDL
MODEL 3
REMARK VINA RESULT:      -4.8      1.506      2.116
REMARK  3 active torsions:
REMARK  status: ('A' for Active; 'I' for Inactive)
REMARK    1  A    between atoms: C2_2  and  C6_6 
REMARK    2  A    between atoms: C6_6  and  C7_7 
REMARK    3  A    between atoms: C7_7  and  C8_8 
ROOT
HETATM    1  C4  UNL     1     -33.685   7.345   5.440  1.00 20.00     0.011 C 
HETATM    2  C7  UNL     1     -33.341   6.903   4.010  1.00 20.00    -0.001 C 
ENDROOT
BRANCH   2   3
HETATM    3  C6  UNL     1     -33.553   8.048   2.989  1.00 20.00     0.038 C 
BRANCH   3   4
HETATM    4  C2  UNL     1     -32.287   8.543   2.322  1.00 20.00    -0.093 C 
HETATM    5  C1  UNL     1     -31.087   8.406   2.908  1.00 20.00     0.014 C 
HETATM    6  C3  UNL     1     -32.425   9.156   0.958  1.00 20.00     0.042 C 
ENDBRANCH   3   4
ENDBRANCH   2   3
BRANCH   2   7
HETATM    7  C8  UNL     1     -34.067   5.591   3.632  1.00 20.00     0.057 C 
HETATM    8  C5  UNL     1     -33.253   4.672   2.729  1.00 20.00     0.022 C 
HETATM    9 BR9  UNL     1     -34.625   4.561   5.205  1.00 20.00    -0.091 Br
ENDBRANCH   2   7
TORSDOF 3
ENDMDL
MODEL 4
REMARK VINA RESULT:      -4.8      0.904      1.406
REMARK  3 active torsions:
REMARK  status: ('A' for Active; 'I' for Inactive)
REMARK    1  A    between atoms: C2_2  and  C6_6 
REMARK    2  A    between atoms: C6_6  and  C7_7 
REMARK    3  A    between atoms: C7_7  and  C8_8 
ROOT
HETATM    1  C4  UNL     1     -31.752   8.138   3.802  1.00 20.00     0.011 C 
HETATM    2  C7  UNL     1     -32.793   7.374   2.969  1.00 20.00    -0.001 C 
ENDROOT
BRANCH   2   3
HETATM    3  C6  UNL     1     -33.316   8.224   1.785  1.00 20.00     0.038 C 
BRANCH   3   4
HETATM    4  C2  UNL     1     -32.283   9.133   1.155  1.00 20.00    -0.093 C 
HETATM    5  C1  UNL     1     -31.212   8.639   0.512  1.00 20.00     0.014 C 
HETATM    6  C3  UNL     1     -32.526  10.613   1.241  1.00 20.00     0.042 C 
ENDBRANCH   3   4
ENDBRANCH   2   3
BRANCH   2   7
HETATM    7  C8  UNL     1     -33.915   6.792   3.860  1.00 20.00     0.057 C 
HETATM    8  C5  UNL     1     -34.084   5.283   3.733  1.00 20.00     0.022 C 
HETATM    9 BR9  UNL     1     -33.665   7.220   5.758  1.00 20.00    -0.091 Br
ENDBRANCH   2   7
TORSDOF 3
ENDMDL
MODEL 5
REMARK VINA RESULT:      -4.6      2.159      4.382
REMARK  3 active torsions:
REMARK  status: ('A' for Active; 'I' for Inactive)
REMARK    1  A    between atoms: C2_2  and  C6_6 
REMARK    2  A    between atoms: C6_6  and  C7_7 
REMARK    3  A    between atoms: C7_7  and  C8_8 
ROOT
HETATM    1  C4  UNL     1     -31.222   8.349   3.402  1.00 20.00     0.011 C 
HETATM    2  C7  UNL     1     -32.664   8.242   2.883  1.00 20.00    -0.001 C 
ENDROOT
BRANCH   2   3
HETATM    3  C6  UNL     1     -33.198   6.791   2.965  1.00 20.00     0.038 C 
BRANCH   3   4
HETATM    4  C2  UNL     1     -34.107   6.519   4.145  1.00 20.00    -0.093 C 
HETATM    5  C1  UNL     1     -35.152   5.680   4.047  1.00 20.00     0.014 C 
HETATM    6  C3  UNL     1     -33.768   7.193   5.443  1.00 20.00     0.042 C 
ENDBRANCH   3   4
ENDBRANCH   2   3
BRANCH   2   7
HETATM    7  C8  UNL     1     -32.809   8.879   1.480  1.00 20.00     0.057 C 
HETATM    8  C5  UNL     1     -33.025  10.387   1.507  1.00 20.00     0.022 C 
HETATM    9 BR9  UNL     1     -31.272   8.503   0.323  1.00 20.00    -0.091 Br
ENDBRANCH   2   7
TORSDOF 3
ENDMDL
MODEL 6
REMARK VINA RESULT:      -4.6      2.126      4.236
REMARK  3 active torsions:
REMARK  status: ('A' for Active; 'I' for Inactive)
REMARK    1  A    between atoms: C2_2  and  C6_6 
REMARK    2  A    between atoms: C6_6  and  C7_7 
REMARK    3  A    between atoms: C7_7  and  C8_8 
ROOT
HETATM    1  C4  UNL     1     -33.019   5.738   1.803  1.00 20.00     0.011 C 
HETATM    2  C7  UNL     1     -33.063   6.552   3.105  1.00 20.00    -0.001 C 
ENDROOT
BRANCH   2   3
HETATM    3  C6  UNL     1     -34.438   6.437   3.809  1.00 20.00     0.038 C 
BRANCH   3   4
HETATM    4  C2  UNL     1     -34.366   6.127   5.289  1.00 20.00    -0.093 C 
HETATM    5  C1  UNL     1     -34.662   4.906   5.765  1.00 20.00     0.014 C 
HETATM    6  C3  UNL     1     -33.909   7.230   6.200  1.00 20.00     0.042 C 
ENDBRANCH   3   4
ENDBRANCH   2   3
BRANCH   2   7
HETATM    7  C8  UNL     1     -32.603   8.011   2.876  1.00 20.00     0.057 C 
HETATM    8  C5  UNL     1     -31.362   8.399   3.671  1.00 20.00     0.022 C 
HETATM    9 BR9  UNL     1     -32.262   8.403   0.985  1.00 20.00    -0.091 Br
ENDBRANCH   2   7
TORSDOF 3
ENDMDL
MODEL 7
REMARK VINA RESULT:      -4.4      1.369      2.300
REMARK  3 active torsions:
REMARK  status: ('A' for Active; 'I' for Inactive)
REMARK    1  A    between atoms: C2_2  and  C6_6 
REMARK    2  A    between atoms: C6_6  and  C7_7 
REMARK    3  A    between atoms: C7_7  and  C8_8 
ROOT
HETATM    1  C4  UNL     1     -33.455   6.238   2.231  1.00 20.00     0.011 C 
HETATM    2  C7  UNL     1     -32.957   7.623   2.674  1.00 20.00    -0.001 C 
ENDROOT
BRANCH   2   3
HETATM    3  C6  UNL     1     -32.014   8.257   1.622  1.00 20.00     0.038 C 
BRANCH   3   4
HETATM    4  C2  UNL     1     -32.608   9.425   0.863  1.00 20.00    -0.093 C 
HETATM    5  C1  UNL     1     -32.685  10.650   1.409  1.00 20.00     0.014 C 
HETATM    6  C3  UNL     1     -33.070   9.166  -0.542  1.00 20.00     0.042 C 
ENDBRANCH   3   4
ENDBRANCH   2   3
BRANCH   2   7
HETATM    7  C8  UNL     1     -32.359   7.581   4.100  1.00 20.00     0.057 C 
HETATM    8  C5  UNL     1     -31.582   8.835   4.481  1.00 20.00     0.022 C 
HETATM    9 BR9  UNL     1     -33.721   7.266   5.476  1.00 20.00    -0.091 Br
ENDBRANCH   2   7
TORSDOF 3
ENDMDL
MODEL 8
REMARK VINA RESULT:      -4.2      2.188      4.535
REMARK  3 active torsions:
REMARK  status: ('A' for Active; 'I' for Inactive)
REMARK    1  A    between atoms: C2_2  and  C6_6 
REMARK    2  A    between atoms: C6_6  and  C7_7 
REMARK    3  A    between atoms: C7_7  and  C8_8 
ROOT
HETATM    1  C4  UNL     1     -33.334   7.573   5.443  1.00 20.00     0.011 C 
HETATM    2  C7  UNL     1     -33.835   7.281   4.021  1.00 20.00    -0.001 C 
ENDROOT
BRANCH   2   3
HETATM    3  C6  UNL     1     -34.902   6.159   4.006  1.00 20.00     0.038 C 
BRANCH   3   4
HETATM    4  C2  UNL     1     -34.588   4.977   4.899  1.00 20.00    -0.093 C 
HETATM    5  C1  UNL     1     -34.812   5.018   6.222  1.00 20.00     0.014 C 
HETATM    6  C3  UNL     1     -34.053   3.740   4.236  1.00 20.00     0.042 C 
ENDBRANCH   3   4
ENDBRANCH   2   3
BRANCH   2   7
HETATM    7  C8  UNL     1     -32.660   7.033   3.046  1.00 20.00     0.057 C 
HETATM    8  C5  UNL     1     -32.916   5.916   2.041  1.00 20.00     0.022 C 
HETATM    9 BR9  UNL     1     -32.156   8.646   2.050  1.00 20.00    -0.091 Br
ENDBRANCH   2   7
TORSDOF 3
ENDMDL
MODEL 9
REMARK VINA RESULT:      -3.8     10.667     11.756
REMARK  3 active torsions:
REMARK  status: ('A' for Active; 'I' for Inactive)
REMARK    1  A    between atoms: C2_2  and  C6_6 
REMARK    2  A    between atoms: C6_6  and  C7_7 
REMARK    3  A    between atoms: C7_7  and  C8_8 
ROOT
HETATM    1  C4  UNL     1     -34.188  14.272  -4.073  1.00 20.00     0.011 C 
HETATM    2  C7  UNL     1     -33.862  15.722  -3.685  1.00 20.00    -0.001 C 
ENDROOT
BRANCH   2   3
HETATM    3  C6  UNL     1     -34.960  16.335  -2.782  1.00 20.00     0.038 C 
BRANCH   3   4
HETATM    4  C2  UNL     1     -34.438  17.095  -1.581  1.00 20.00    -0.093 C 
HETATM    5  C1  UNL     1     -33.194  17.600  -1.556  1.00 20.00     0.014 C 
HETATM    6  C3  UNL     1     -35.385  17.298  -0.433  1.00 20.00     0.042 C 
ENDBRANCH   3   4
ENDBRANCH   2   3
BRANCH   2   7
HETATM    7  C8  UNL     1     -33.532  16.580  -4.930  1.00 20.00     0.057 C 
HETATM    8  C5  UNL     1     -33.283  15.765  -6.193  1.00 20.00     0.022 C 
HETATM    9 BR9  UNL     1     -34.926  17.902  -5.322  1.00 20.00    -0.091 Br
ENDBRANCH   2   7
TORSDOF 3
ENDMDL
