MODEL 1
REMARK VINA RESULT:      -6.1      0.000      0.000
REMARK  2 active torsions:
REMARK  status: ('A' for Active; 'I' for Inactive)
REMARK    1  A    between atoms: C2_2  and  C9_9 
REMARK    2  A    between atoms: C6_6  and  C9_9 
ROOT
HETATM    1  C3  UNL     1     -34.042   4.830   3.643  1.00 20.00     0.002 C 
HETATM    2  C4  UNL     1     -32.898   5.582   2.956  1.00 20.00     0.006 C 
HETATM    3  C5  UNL     1     -35.050   5.894   4.083  1.00 20.00     0.020 C 
HETATM    4  C6  UNL     1     -33.324   7.053   2.941  1.00 20.00     0.008 C 
HETATM    5  C7  UNL     1     -34.245   7.189   4.159  1.00 20.00     0.086 C 
HETATM    6 CL10 UNL     1     -33.365   7.263   5.715  1.00 20.00    -0.125 Cl
ENDROOT
BRANCH   4   7
HETATM    7  C9  UNL     1     -32.175   8.013   2.880  1.00 20.00     0.039 C 
BRANCH   7   8
HETATM    8  C2  UNL     1     -32.139   8.801   1.593  1.00 20.00    -0.093 C 
HETATM    9  C1  UNL     1     -31.417   8.389   0.539  1.00 20.00     0.014 C 
HETATM   10  C8  UNL     1     -32.918  10.084   1.555  1.00 20.00     0.042 C 
ENDBRANCH   7   8
ENDBRANCH   4   7
TORSDOF 2
ENDMDL
MODEL 2
REMARK VINA RESULT:      -5.3      1.643      2.294
REMARK  2 active torsions:
REMARK  status: ('A' for Active; 'I' for Inactive)
REMARK    1  A    between atoms: C2_2  and  C9_9 
REMARK    2  A    between atoms: C6_6  and  C9_9 
ROOT
HETATM    1  C3  UNL     1     -34.365   6.054   6.087  1.00 20.00     0.002 C 
HETATM    2  C4  UNL     1     -33.771   7.219   5.290  1.00 20.00     0.006 C 
HETATM    3  C5  UNL     1     -34.484   4.883   5.110  1.00 20.00     0.020 C 
HETATM    4  C6  UNL     1     -33.480   6.656   3.895  1.00 20.00     0.008 C 
HETATM    5  C7  UNL     1     -34.504   5.528   3.726  1.00 20.00     0.086 C 
HETATM    6 CL10 UNL     1     -36.154   6.110   3.354  1.00 20.00    -0.125 Cl
ENDROOT
BRANCH   4   7
HETATM    7  C9  UNL     1     -33.469   7.696   2.817  1.00 20.00     0.039 C 
BRANCH   7   8
HETATM    8  C2  UNL     1     -32.085   8.227   2.531  1.00 20.00    -0.093 C 
HETATM    9  C1  UNL     1     -31.143   8.278   3.487  1.00 20.00     0.014 C 
HETATM   10  C8  UNL     1     -31.818   8.729   1.142  1.00 20.00     0.042 C 
ENDBRANCH   7   8
ENDBRANCH   4   7
TORSDOF 2
ENDMDL
MODEL 3
REMARK VINA RESULT:      -4.5      1.149      4.160
REMARK  2 active torsions:
REMARK  status: ('A' for Active; 'I' for Inactive)
REMARK    1  A    between atoms: C2_2  and  C9_9 
REMARK    2  A    between atoms: C6_6  and  C9_9 
ROOT
HETATM    1  C3  UNL     1     -32.236   8.749   2.165  1.00 20.00     0.002 C 
HETATM    2  C4  UNL     1     -33.501   7.899   2.003  1.00 20.00     0.006 C 
HETATM    3  C5  UNL     1     -31.392   8.058   3.237  1.00 20.00     0.020 C 
HETATM    4  C6  UNL     1     -33.306   6.692   2.925  1.00 20.00     0.008 C 
HETATM    5  C7  UNL     1     -32.384   7.213   4.033  1.00 20.00     0.086 C 
HETATM    6 CL10 UNL     1     -33.222   8.237   5.237  1.00 20.00    -0.125 Cl
ENDROOT
BRANCH   4   7
HETATM    7  C9  UNL     1     -34.590   6.070   3.381  1.00 20.00     0.039 C 
BRANCH   7   8
HETATM    8  C2  UNL     1     -34.376   4.935   4.353  1.00 20.00    -0.093 C 
HETATM    9  C1  UNL     1     -33.899   3.746   3.949  1.00 20.00     0.014 C 
HETATM   10  C8  UNL     1     -34.754   5.180   5.785  1.00 20.00     0.042 C 
ENDBRANCH   7   8
ENDBRANCH   4   7
TORSDOF 2
ENDMDL
MODEL 4
REMARK VINA RESULT:      -4.4      1.684      2.337
REMARK  2 active torsions:
REMARK  status: ('A' for Active; 'I' for Inactive)
REMARK    1  A    between atoms: C2_2  and  C9_9 
REMARK    2  A    between atoms: C6_6  and  C9_9 
ROOT
HETATM    1  C3  UNL     1     -34.800   4.616   4.767  1.00 20.00     0.002 C 
HETATM    2  C4  UNL     1     -34.623   6.126   4.954  1.00 20.00     0.006 C 
HETATM    3  C5  UNL     1     -33.769   4.190   3.722  1.00 20.00     0.020 C 
HETATM    4  C6  UNL     1     -33.430   6.511   4.074  1.00 20.00     0.008 C 
HETATM    5  C7  UNL     1     -33.441   5.467   2.952  1.00 20.00     0.086 C 
HETATM    6 CL10 UNL     1     -34.695   5.765   1.711  1.00 20.00    -0.125 Cl
ENDROOT
BRANCH   4   7
HETATM    7  C9  UNL     1     -33.443   7.943   3.635  1.00 20.00     0.039 C 
BRANCH   7   8
HETATM    8  C2  UNL     1     -32.217   8.322   2.840  1.00 20.00    -0.093 C 
HETATM    9  C1  UNL     1     -30.987   8.262   3.376  1.00 20.00     0.014 C 
HETATM   10  C8  UNL     1     -32.435   8.803   1.434  1.00 20.00     0.042 C 
ENDBRANCH   7   8
ENDBRANCH   4   7
TORSDOF 2
ENDMDL
MODEL 5
REMARK VINA RESULT:      -4.4      1.831      4.504
REMARK  2 active torsions:
REMARK  status: ('A' for Active; 'I' for Inactive)
REMARK    1  A    between atoms: C2_2  and  C9_9 
REMARK    2  A    between atoms: C6_6  and  C9_9 
ROOT
HETATM    1  C3  UNL     1     -31.896   7.976   3.939  1.00 20.00     0.002 C 
HETATM    2  C4  UNL     1     -33.143   7.426   4.638  1.00 20.00     0.006 C 
HETATM    3  C5  UNL     1     -32.197   7.944   2.440  1.00 20.00     0.020 C 
HETATM    4  C6  UNL     1     -34.163   7.177   3.523  1.00 20.00     0.008 C 
HETATM    5  C7  UNL     1     -33.303   6.903   2.284  1.00 20.00     0.086 C 
HETATM    6 CL10 UNL     1     -32.590   5.262   2.258  1.00 20.00    -0.125 Cl
ENDROOT
BRANCH   4   7
HETATM    7  C9  UNL     1     -35.178   6.128   3.859  1.00 20.00     0.039 C 
BRANCH   7   8
HETATM    8  C2  UNL     1     -34.701   5.171   4.924  1.00 20.00    -0.093 C 
HETATM    9  C1  UNL     1     -34.727   5.502   6.225  1.00 20.00     0.014 C 
HETATM   10  C8  UNL     1     -34.164   3.848   4.463  1.00 20.00     0.042 C 
ENDBRANCH   7   8
ENDBRANCH   4   7
TORSDOF 2
ENDMDL
MODEL 6
REMARK VINA RESULT:      -4.3     10.593     11.379
REMARK  2 active torsions:
REMARK  status: ('A' for Active; 'I' for Inactive)
REMARK    1  A    between atoms: C2_2  and  C9_9 
REMARK    2  A    between atoms: C6_6  and  C9_9 
ROOT
HETATM    1  C3  UNL     1     -36.078  14.824  -4.663  1.00 20.00     0.002 C 
HETATM    2  C4  UNL     1     -35.806  16.133  -3.915  1.00 20.00     0.006 C 
HETATM    3  C5  UNL     1     -34.854  13.937  -4.430  1.00 20.00     0.020 C 
HETATM    4  C6  UNL     1     -34.470  15.926  -3.197  1.00 20.00     0.008 C 
HETATM    5  C7  UNL     1     -33.730  14.905  -4.069  1.00 20.00     0.086 C 
HETATM    6 CL10 UNL     1     -33.036  15.609  -5.560  1.00 20.00    -0.125 Cl
ENDROOT
BRANCH   4   7
HETATM    7  C9  UNL     1     -33.734  17.200  -2.915  1.00 20.00     0.039 C 
BRANCH   7   8
HETATM    8  C2  UNL     1     -33.752  17.575  -1.453  1.00 20.00    -0.093 C 
HETATM    9  C1  UNL     1     -34.826  17.338  -0.682  1.00 20.00     0.014 C 
HETATM   10  C8  UNL     1     -32.532  18.256  -0.906  1.00 20.00     0.042 C 
ENDBRANCH   7   8
ENDBRANCH   4   7
TORSDOF 2
ENDMDL
MODEL 7
REMARK VINA RESULT:      -4.3     10.559     11.373
REMARK  2 active torsions:
REMARK  status: ('A' for Active; 'I' for Inactive)
REMARK    1  A    between atoms: C2_2  and  C9_9 
REMARK    2  A    between atoms: C6_6  and  C9_9 
ROOT
HETATM    1  C3  UNL     1     -36.010  14.830  -4.493  1.00 20.00     0.002 C 
HETATM    2  C4  UNL     1     -35.750  16.157  -3.774  1.00 20.00     0.006 C 
HETATM    3  C5  UNL     1     -34.738  13.997  -4.326  1.00 20.00     0.020 C 
HETATM    4  C6  UNL     1     -34.366  16.014  -3.134  1.00 20.00     0.008 C 
HETATM    5  C7  UNL     1     -33.637  15.015  -4.040  1.00 20.00     0.086 C 
HETATM    6 CL10 UNL     1     -33.062  15.731  -5.575  1.00 20.00    -0.125 Cl
ENDROOT
BRANCH   4   7
HETATM    7  C9  UNL     1     -33.669  17.320  -2.906  1.00 20.00     0.039 C 
BRANCH   7   8
HETATM    8  C2  UNL     1     -33.599  17.699  -1.447  1.00 20.00    -0.093 C 
HETATM    9  C1  UNL     1     -32.495  18.254  -0.920  1.00 20.00     0.014 C 
HETATM   10  C8  UNL     1     -34.803  17.398  -0.603  1.00 20.00     0.042 C 
ENDBRANCH   7   8
ENDBRANCH   4   7
TORSDOF 2
ENDMDL
MODEL 8
REMARK VINA RESULT:      -4.2     10.801     11.732
REMARK  2 active torsions:
REMARK  status: ('A' for Active; 'I' for Inactive)
REMARK    1  A    between atoms: C2_2  and  C9_9 
REMARK    2  A    between atoms: C6_6  and  C9_9 
ROOT
HETATM    1  C3  UNL     1     -33.795  14.441  -5.493  1.00 20.00     0.002 C 
HETATM    2  C4  UNL     1     -34.412  14.474  -4.091  1.00 20.00     0.006 C 
HETATM    3  C5  UNL     1     -33.297  15.860  -5.775  1.00 20.00     0.020 C 
HETATM    4  C6  UNL     1     -34.170  15.894  -3.569  1.00 20.00     0.008 C 
HETATM    5  C7  UNL     1     -34.106  16.753  -4.838  1.00 20.00     0.086 C 
HETATM    6 CL10 UNL     1     -35.711  17.086  -5.555  1.00 20.00    -0.125 Cl
ENDROOT
BRANCH   4   7
HETATM    7  C9  UNL     1     -35.158  16.331  -2.532  1.00 20.00     0.039 C 
BRANCH   7   8
HETATM    8  C2  UNL     1     -34.528  17.150  -1.432  1.00 20.00    -0.093 C 
HETATM    9  C1  UNL     1     -33.267  17.602  -1.529  1.00 20.00     0.014 C 
HETATM   10  C8  UNL     1     -35.359  17.408  -0.209  1.00 20.00     0.042 C 
ENDBRANCH   7   8
ENDBRANCH   4   7
TORSDOF 2
ENDMDL
MODEL 9
REMARK VINA RESULT:      -4.2     10.607     11.292
REMARK  2 active torsions:
REMARK  status: ('A' for Active; 'I' for Inactive)
REMARK    1  A    between atoms: C2_2  and  C9_9 
REMARK    2  A    between atoms: C6_6  and  C9_9 
ROOT
HETATM    1  C3  UNL     1     -33.923  18.095  -0.406  1.00 20.00     0.002 C 
HETATM    2  C4  UNL     1     -33.239  17.620  -1.692  1.00 20.00     0.006 C 
HETATM    3  C5  UNL     1     -35.263  17.362  -0.338  1.00 20.00     0.020 C 
HETATM    4  C6  UNL     1     -34.169  16.556  -2.282  1.00 20.00     0.008 C 
HETATM    5  C7  UNL     1     -35.561  16.955  -1.779  1.00 20.00     0.086 C 
HETATM    6 CL10 UNL     1     -36.271  18.338  -2.664  1.00 20.00    -0.125 Cl
ENDROOT
BRANCH   4   7
HETATM    7  C9  UNL     1     -34.032  16.392  -3.765  1.00 20.00     0.039 C 
BRANCH   7   8
HETATM    8  C2  UNL     1     -34.001  14.945  -4.193  1.00 20.00    -0.093 C 
HETATM    9  C1  UNL     1     -32.845  14.271  -4.304  1.00 20.00     0.014 C 
HETATM   10  C8  UNL     1     -35.317  14.301  -4.522  1.00 20.00     0.042 C 
ENDBRANCH   7   8
ENDBRANCH   4   7
TORSDOF 2
ENDMDL
