MODEL 1
REMARK VINA RESULT:      -5.7      0.000      0.000
REMARK  3 active torsions:
REMARK  status: ('A' for Active; 'I' for Inactive)
REMARK    1  A    between atoms: C1_1  and  C3_3 
REMARK       I    between atoms: C3_3  and  N10_10 
REMARK    2  A    between atoms: C8_8  and  C9_9 
REMARK    3  A    between atoms: C8_8  and  N10_10 
ROOT
HETATM    1  C3  UNL     1     -32.123   8.084   2.776  1.00 20.00     0.240 C 
HETATM    2  N10 UNL     1     -33.009   7.032   2.582  1.00 20.00    -0.357 N 
HETATM    3  O11 UNL     1     -31.277   8.145   3.661  1.00 20.00    -0.269 OA
HETATM    4  H28 UNL     1     -33.695   7.088   1.831  1.00 20.00     0.162 HD
ENDROOT
BRANCH   2   5
HETATM    5  C8  UNL     1     -33.035   5.863   3.420  1.00 20.00     0.131 C 
BRANCH   5   6
HETATM    6  C9  UNL     1     -34.235   5.804   4.390  1.00 20.00    -0.035 C 
HETATM    7  C5  UNL     1     -34.405   4.387   4.963  1.00 20.00     0.016 C 
HETATM    8  C6  UNL     1     -34.061   6.805   5.546  1.00 20.00     0.016 C 
HETATM    9  C7  UNL     1     -35.508   6.176   3.607  1.00 20.00     0.016 C 
ENDBRANCH   5   6
ENDBRANCH   2   5
BRANCH   1  10
HETATM   10  C1  UNL     1     -32.312   9.166   1.771  1.00 20.00     0.070 C 
HETATM   11  C2  UNL     1     -32.814   8.885   0.560  1.00 20.00    -0.026 C 
HETATM   12  C4  UNL     1     -33.032   9.918  -0.497  1.00 20.00     0.036 C 
ENDBRANCH   1  10
TORSDOF 3
ENDMDL
MODEL 2
REMARK VINA RESULT:      -5.7      0.052      1.294
REMARK  3 active torsions:
REMARK  status: ('A' for Active; 'I' for Inactive)
REMARK    1  A    between atoms: C1_1  and  C3_3 
REMARK       I    between atoms: C3_3  and  N10_10 
REMARK    2  A    between atoms: C8_8  and  C9_9 
REMARK    3  A    between atoms: C8_8  and  N10_10 
ROOT
HETATM    1  C3  UNL     1     -32.116   8.082   2.774  1.00 20.00     0.240 C 
HETATM    2  N10 UNL     1     -32.998   7.029   2.571  1.00 20.00    -0.357 N 
HETATM    3  O11 UNL     1     -31.277   8.145   3.668  1.00 20.00    -0.269 OA
HETATM    4  H28 UNL     1     -33.677   7.085   1.814  1.00 20.00     0.162 HD
ENDROOT
BRANCH   2   5
HETATM    5  C8  UNL     1     -33.029   5.860   3.408  1.00 20.00     0.131 C 
BRANCH   5   6
HETATM    6  C9  UNL     1     -34.252   5.785   4.349  1.00 20.00    -0.035 C 
HETATM    7  C5  UNL     1     -34.063   6.710   5.563  1.00 20.00     0.016 C 
HETATM    8  C6  UNL     1     -35.543   6.173   3.608  1.00 20.00     0.016 C 
HETATM    9  C7  UNL     1     -34.390   4.335   4.848  1.00 20.00     0.016 C 
ENDBRANCH   5   6
ENDBRANCH   2   5
BRANCH   1  10
HETATM   10  C1  UNL     1     -32.297   9.165   1.769  1.00 20.00     0.070 C 
HETATM   11  C2  UNL     1     -32.811   8.888   0.562  1.00 20.00    -0.026 C 
HETATM   12  C4  UNL     1     -33.022   9.921  -0.496  1.00 20.00     0.036 C 
ENDBRANCH   1  10
TORSDOF 3
ENDMDL
MODEL 3
REMARK VINA RESULT:      -4.1     10.596     11.494
REMARK  3 active torsions:
REMARK  status: ('A' for Active; 'I' for Inactive)
REMARK    1  A    between atoms: C1_1  and  C3_3 
REMARK       I    between atoms: C3_3  and  N10_10 
REMARK    2  A    between atoms: C8_8  and  C9_9 
REMARK    3  A    between atoms: C8_8  and  N10_10 
ROOT
HETATM    1  C3  UNL     1     -34.774  14.453  -4.262  1.00 20.00     0.240 C 
HETATM    2  N10 UNL     1     -34.811  15.721  -3.697  1.00 20.00    -0.357 N 
HETATM    3  O11 UNL     1     -33.800  13.708  -4.270  1.00 20.00    -0.269 OA
HETATM    4  H28 UNL     1     -35.664  16.274  -3.767  1.00 20.00     0.162 HD
ENDROOT
BRANCH   2   5
HETATM    5  C8  UNL     1     -33.681  16.321  -3.039  1.00 20.00     0.131 C 
BRANCH   5   6
HETATM    6  C9  UNL     1     -34.044  17.479  -2.083  1.00 20.00    -0.035 C 
HETATM    7  C5  UNL     1     -35.132  17.044  -1.088  1.00 20.00     0.016 C 
HETATM    8  C6  UNL     1     -32.807  17.963  -1.308  1.00 20.00     0.016 C 
HETATM    9  C7  UNL     1     -34.584  18.650  -2.925  1.00 20.00     0.016 C 
ENDBRANCH   5   6
ENDBRANCH   2   5
BRANCH   1  10
HETATM   10  C1  UNL     1     -36.075  14.078  -4.880  1.00 20.00     0.070 C 
HETATM   11  C2  UNL     1     -37.159  14.845  -4.694  1.00 20.00    -0.026 C 
HETATM   12  C4  UNL     1     -38.496  14.532  -5.282  1.00 20.00     0.036 C 
ENDBRANCH   1  10
TORSDOF 3
ENDMDL
MODEL 4
REMARK VINA RESULT:      -4.1     10.947     11.772
REMARK  3 active torsions:
REMARK  status: ('A' for Active; 'I' for Inactive)
REMARK    1  A    between atoms: C1_1  and  C3_3 
REMARK       I    between atoms: C3_3  and  N10_10 
REMARK    2  A    between atoms: C8_8  and  C9_9 
REMARK    3  A    between atoms: C8_8  and  N10_10 
ROOT
HETATM    1  C3  UNL     1     -33.663  16.612  -3.682  1.00 20.00     0.240 C 
HETATM    2  N10 UNL     1     -33.808  15.265  -3.987  1.00 20.00    -0.357 N 
HETATM    3  O11 UNL     1     -33.372  17.494  -4.483  1.00 20.00    -0.269 OA
HETATM    4  H28 UNL     1     -34.027  14.605  -3.243  1.00 20.00     0.162 HD
ENDROOT
BRANCH   2   5
HETATM    5  C8  UNL     1     -33.629  14.737  -5.313  1.00 20.00     0.131 C 
BRANCH   5   6
HETATM    6  C9  UNL     1     -34.945  14.364  -6.031  1.00 20.00    -0.035 C 
HETATM    7  C5  UNL     1     -35.895  13.621  -5.077  1.00 20.00     0.016 C 
HETATM    8  C6  UNL     1     -35.649  15.617  -6.581  1.00 20.00     0.016 C 
HETATM    9  C7  UNL     1     -34.605  13.435  -7.212  1.00 20.00     0.016 C 
ENDBRANCH   5   6
ENDBRANCH   2   5
BRANCH   1  10
HETATM   10  C1  UNL     1     -33.900  16.886  -2.239  1.00 20.00     0.070 C 
HETATM   11  C2  UNL     1     -35.150  16.975  -1.763  1.00 20.00    -0.026 C 
HETATM   12  C4  UNL     1     -35.465  17.248  -0.328  1.00 20.00     0.036 C 
ENDBRANCH   1  10
TORSDOF 3
ENDMDL
MODEL 5
REMARK VINA RESULT:      -4.1     10.942     11.943
REMARK  3 active torsions:
REMARK  status: ('A' for Active; 'I' for Inactive)
REMARK    1  A    between atoms: C1_1  and  C3_3 
REMARK       I    between atoms: C3_3  and  N10_10 
REMARK    2  A    between atoms: C8_8  and  C9_9 
REMARK    3  A    between atoms: C8_8  and  N10_10 
ROOT
HETATM    1  C3  UNL     1     -35.320  16.170  -2.886  1.00 20.00     0.240 C 
HETATM    2  N10 UNL     1     -34.502  15.267  -3.553  1.00 20.00    -0.357 N 
HETATM    3  O11 UNL     1     -36.505  16.370  -3.132  1.00 20.00    -0.269 OA
HETATM    4  H28 UNL     1     -33.520  15.194  -3.290  1.00 20.00     0.162 HD
ENDROOT
BRANCH   2   5
HETATM    5  C8  UNL     1     -34.964  14.440  -4.635  1.00 20.00     0.131 C 
BRANCH   5   6
HETATM    6  C9  UNL     1     -34.582  14.960  -6.039  1.00 20.00    -0.035 C 
HETATM    7  C5  UNL     1     -35.675  15.890  -6.592  1.00 20.00     0.016 C 
HETATM    8  C6  UNL     1     -33.241  15.714  -6.002  1.00 20.00     0.016 C 
HETATM    9  C7  UNL     1     -34.439  13.750  -6.980  1.00 20.00     0.016 C 
ENDBRANCH   5   6
ENDBRANCH   2   5
BRANCH   1  10
HETATM   10  C1  UNL     1     -34.590  16.898  -1.813  1.00 20.00     0.070 C 
HETATM   11  C2  UNL     1     -33.379  17.421  -2.052  1.00 20.00    -0.026 C 
HETATM   12  C4  UNL     1     -32.588  18.164  -1.025  1.00 20.00     0.036 C 
ENDBRANCH   1  10
TORSDOF 3
ENDMDL
MODEL 6
REMARK VINA RESULT:      -4.0     10.733     11.658
REMARK  3 active torsions:
REMARK  status: ('A' for Active; 'I' for Inactive)
REMARK    1  A    between atoms: C1_1  and  C3_3 
REMARK       I    between atoms: C3_3  and  N10_10 
REMARK    2  A    between atoms: C8_8  and  C9_9 
REMARK    3  A    between atoms: C8_8  and  N10_10 
ROOT
HETATM    1  C3  UNL     1     -34.802  16.867  -2.359  1.00 20.00     0.240 C 
HETATM    2  N10 UNL     1     -34.024  16.773  -3.505  1.00 20.00    -0.357 N 
HETATM    3  O11 UNL     1     -35.997  16.597  -2.287  1.00 20.00    -0.269 OA
HETATM    4  H28 UNL     1     -33.044  17.048  -3.467  1.00 20.00     0.162 HD
ENDROOT
BRANCH   2   5
HETATM    5  C8  UNL     1     -34.544  16.335  -4.772  1.00 20.00     0.131 C 
BRANCH   5   6
HETATM    6  C9  UNL     1     -34.225  14.862  -5.115  1.00 20.00    -0.035 C 
HETATM    7  C5  UNL     1     -32.937  14.405  -4.410  1.00 20.00     0.016 C 
HETATM    8  C6  UNL     1     -35.385  13.937  -4.708  1.00 20.00     0.016 C 
HETATM    9  C7  UNL     1     -34.021  14.753  -6.637  1.00 20.00     0.016 C 
ENDBRANCH   5   6
ENDBRANCH   2   5
BRANCH   1  10
HETATM   10  C1  UNL     1     -34.018  17.349  -1.189  1.00 20.00     0.070 C 
HETATM   11  C2  UNL     1     -32.889  18.048  -1.372  1.00 20.00    -0.026 C 
HETATM   12  C4  UNL     1     -32.051  18.563  -0.248  1.00 20.00     0.036 C 
ENDBRANCH   1  10
TORSDOF 3
ENDMDL
MODEL 7
REMARK VINA RESULT:      -4.0     11.150     12.113
REMARK  3 active torsions:
REMARK  status: ('A' for Active; 'I' for Inactive)
REMARK    1  A    between atoms: C1_1  and  C3_3 
REMARK       I    between atoms: C3_3  and  N10_10 
REMARK    2  A    between atoms: C8_8  and  C9_9 
REMARK    3  A    between atoms: C8_8  and  N10_10 
ROOT
HETATM    1  C3  UNL     1     -32.029  18.687   0.357  1.00 20.00     0.240 C 
HETATM    2  N10 UNL     1     -33.259  19.024  -0.192  1.00 20.00    -0.357 N 
HETATM    3  O11 UNL     1     -31.053  18.295  -0.275  1.00 20.00    -0.269 OA
HETATM    4  H28 UNL     1     -34.018  19.315   0.423  1.00 20.00     0.162 HD
ENDROOT
BRANCH   2   5
HETATM    5  C8  UNL     1     -33.536  18.949  -1.602  1.00 20.00     0.131 C 
BRANCH   5   6
HETATM    6  C9  UNL     1     -34.493  17.803  -2.000  1.00 20.00    -0.035 C 
HETATM    7  C5  UNL     1     -35.207  17.233  -0.763  1.00 20.00     0.016 C 
HETATM    8  C6  UNL     1     -35.541  18.288  -3.017  1.00 20.00     0.016 C 
HETATM    9  C7  UNL     1     -33.660  16.683  -2.651  1.00 20.00     0.016 C 
ENDBRANCH   5   6
ENDBRANCH   2   5
BRANCH   1  10
HETATM   10  C1  UNL     1     -32.013  18.851   1.836  1.00 20.00     0.070 C 
HETATM   11  C2  UNL     1     -33.056  18.445   2.574  1.00 20.00    -0.026 C 
HETATM   12  C4  UNL     1     -33.111  18.577   4.060  1.00 20.00     0.036 C 
ENDBRANCH   1  10
TORSDOF 3
ENDMDL
MODEL 8
REMARK VINA RESULT:      -4.0     11.139     12.110
REMARK  3 active torsions:
REMARK  status: ('A' for Active; 'I' for Inactive)
REMARK    1  A    between atoms: C1_1  and  C3_3 
REMARK       I    between atoms: C3_3  and  N10_10 
REMARK    2  A    between atoms: C8_8  and  C9_9 
REMARK    3  A    between atoms: C8_8  and  N10_10 
ROOT
HETATM    1  C3  UNL     1     -33.759  15.941  -4.500  1.00 20.00     0.240 C 
HETATM    2  N10 UNL     1     -34.967  16.114  -5.164  1.00 20.00    -0.357 N 
HETATM    3  O11 UNL     1     -32.731  15.495  -5.000  1.00 20.00    -0.269 OA
HETATM    4  H28 UNL     1     -35.772  16.469  -4.651  1.00 20.00     0.162 HD
ENDROOT
BRANCH   2   5
HETATM    5  C8  UNL     1     -35.154  15.781  -6.551  1.00 20.00     0.131 C 
BRANCH   5   6
HETATM    6  C9  UNL     1     -35.721  14.364  -6.792  1.00 20.00    -0.035 C 
HETATM    7  C5  UNL     1     -34.608  13.399  -7.233  1.00 20.00     0.016 C 
HETATM    8  C6  UNL     1     -36.398  13.817  -5.523  1.00 20.00     0.016 C 
HETATM    9  C7  UNL     1     -36.775  14.449  -7.911  1.00 20.00     0.016 C 
ENDBRANCH   5   6
ENDBRANCH   2   5
BRANCH   1  10
HETATM   10  C1  UNL     1     -33.840  16.361  -3.075  1.00 20.00     0.070 C 
HETATM   11  C2  UNL     1     -35.031  16.563  -2.495  1.00 20.00    -0.026 C 
HETATM   12  C4  UNL     1     -35.190  16.985  -1.071  1.00 20.00     0.036 C 
ENDBRANCH   1  10
TORSDOF 3
ENDMDL
MODEL 9
REMARK VINA RESULT:      -3.9      1.126      4.943
REMARK  3 active torsions:
REMARK  status: ('A' for Active; 'I' for Inactive)
REMARK    1  A    between atoms: C1_1  and  C3_3 
REMARK       I    between atoms: C3_3  and  N10_10 
REMARK    2  A    between atoms: C8_8  and  C9_9 
REMARK    3  A    between atoms: C8_8  and  N10_10 
ROOT
HETATM    1  C3  UNL     1     -32.519   7.773   3.676  1.00 20.00     0.240 C 
HETATM    2  N10 UNL     1     -32.762   7.820   2.310  1.00 20.00    -0.357 N 
HETATM    3  O11 UNL     1     -31.576   8.309   4.249  1.00 20.00    -0.269 OA
HETATM    4  H28 UNL     1     -33.561   7.317   1.927  1.00 20.00     0.162 HD
ENDROOT
BRANCH   2   5
HETATM    5  C8  UNL     1     -31.913   8.523   1.386  1.00 20.00     0.131 C 
BRANCH   5   6
HETATM    6  C9  UNL     1     -32.602   9.699   0.659  1.00 20.00    -0.035 C 
HETATM    7  C5  UNL     1     -33.233   9.229  -0.663  1.00 20.00     0.016 C 
HETATM    8  C6  UNL     1     -33.687  10.336   1.544  1.00 20.00     0.016 C 
HETATM    9  C7  UNL     1     -31.536  10.766   0.347  1.00 20.00     0.016 C 
ENDBRANCH   5   6
ENDBRANCH   2   5
BRANCH   1  10
HETATM   10  C1  UNL     1     -33.548   6.977   4.400  1.00 20.00     0.070 C 
HETATM   11  C2  UNL     1     -33.957   5.797   3.914  1.00 20.00    -0.026 C 
HETATM   12  C4  UNL     1     -34.984   4.944   4.584  1.00 20.00     0.036 C 
ENDBRANCH   1  10
TORSDOF 3
ENDMDL
