MODEL 1
REMARK VINA RESULT:      -5.9      0.000      0.000
REMARK  2 active torsions:
REMARK  status: ('A' for Active; 'I' for Inactive)
REMARK    1  A    between atoms: C5_5  and  C6_6 
REMARK    2  A    between atoms: C6_6  and  C7_7 
ROOT
HETATM    1  C1  UNL     1     -32.155   8.944   1.284  1.00 20.00     0.012 C 
HETATM    2  C2  UNL     1     -32.321   8.260   2.257  1.00 20.00    -0.117 C 
HETATM    3  C5  UNL     1     -32.518   7.423   3.452  1.00 20.00     0.098 C 
ENDROOT
BRANCH   3   4
HETATM    4  C6  UNL     1     -33.675   6.414   3.272  1.00 20.00     0.011 C 
HETATM    5  C3  UNL     1     -33.157   5.081   2.708  1.00 20.00     0.012 C 
BRANCH   4   6
HETATM    6  C7  UNL     1     -34.472   6.259   4.594  1.00 20.00     0.082 C 
HETATM    7  C4  UNL     1     -34.587   4.813   5.066  1.00 20.00     0.027 C 
HETATM    8 CL8  UNL     1     -33.785   7.249   5.920  1.00 20.00    -0.125 Cl
ENDBRANCH   4   6
ENDBRANCH   3   4
TORSDOF 2
ENDMDL
MODEL 2
REMARK VINA RESULT:      -5.3      1.263      1.480
REMARK  2 active torsions:
REMARK  status: ('A' for Active; 'I' for Inactive)
REMARK    1  A    between atoms: C5_5  and  C6_6 
REMARK    2  A    between atoms: C6_6  and  C7_7 
ROOT
HETATM    1  C1  UNL     1     -32.243   9.146   1.020  1.00 20.00     0.012 C 
HETATM    2  C2  UNL     1     -32.213   8.474   2.014  1.00 20.00    -0.117 C 
HETATM    3  C5  UNL     1     -32.170   7.650   3.233  1.00 20.00     0.098 C 
ENDROOT
BRANCH   3   4
HETATM    4  C6  UNL     1     -33.508   6.921   3.492  1.00 20.00     0.011 C 
HETATM    5  C3  UNL     1     -33.753   5.835   2.432  1.00 20.00     0.012 C 
BRANCH   4   6
HETATM    6  C7  UNL     1     -33.566   6.390   4.948  1.00 20.00     0.082 C 
HETATM    7  C4  UNL     1     -33.701   7.496   5.990  1.00 20.00     0.027 C 
HETATM    8 CL8  UNL     1     -34.887   5.204   5.185  1.00 20.00    -0.125 Cl
ENDBRANCH   4   6
ENDBRANCH   3   4
TORSDOF 2
ENDMDL
MODEL 3
REMARK VINA RESULT:      -5.0      1.140      1.941
REMARK  2 active torsions:
REMARK  status: ('A' for Active; 'I' for Inactive)
REMARK    1  A    between atoms: C5_5  and  C6_6 
REMARK    2  A    between atoms: C6_6  and  C7_7 
ROOT
HETATM    1  C1  UNL     1     -32.578  10.254   1.134  1.00 20.00     0.012 C 
HETATM    2  C2  UNL     1     -32.576   9.082   1.394  1.00 20.00    -0.117 C 
HETATM    3  C5  UNL     1     -32.577   7.643   1.707  1.00 20.00     0.098 C 
ENDROOT
BRANCH   3   4
HETATM    4  C6  UNL     1     -32.394   7.375   3.218  1.00 20.00     0.011 C 
HETATM    5  C3  UNL     1     -31.480   8.434   3.856  1.00 20.00     0.012 C 
BRANCH   4   6
HETATM    6  C7  UNL     1     -33.771   7.243   3.918  1.00 20.00     0.082 C 
HETATM    7  C4  UNL     1     -34.530   5.979   3.528  1.00 20.00     0.027 C 
HETATM    8 CL8  UNL     1     -33.634   7.309   5.703  1.00 20.00    -0.125 Cl
ENDBRANCH   4   6
ENDBRANCH   3   4
TORSDOF 2
ENDMDL
MODEL 4
REMARK VINA RESULT:      -4.9      1.621      3.890
REMARK  2 active torsions:
REMARK  status: ('A' for Active; 'I' for Inactive)
REMARK    1  A    between atoms: C5_5  and  C6_6 
REMARK    2  A    between atoms: C6_6  and  C7_7 
ROOT
HETATM    1  C1  UNL     1     -34.045   3.837   4.493  1.00 20.00     0.012 C 
HETATM    2  C2  UNL     1     -34.420   4.930   4.166  1.00 20.00    -0.117 C 
HETATM    3  C5  UNL     1     -34.884   6.267   3.761  1.00 20.00     0.098 C 
ENDROOT
BRANCH   3   4
HETATM    4  C6  UNL     1     -33.915   7.383   4.213  1.00 20.00     0.011 C 
HETATM    5  C3  UNL     1     -33.639   7.290   5.722  1.00 20.00     0.012 C 
BRANCH   4   6
HETATM    6  C7  UNL     1     -32.629   7.371   3.346  1.00 20.00     0.082 C 
HETATM    7  C4  UNL     1     -32.873   7.774   1.895  1.00 20.00     0.027 C 
HETATM    8 CL8  UNL     1     -31.342   8.413   4.029  1.00 20.00    -0.125 Cl
ENDBRANCH   4   6
ENDBRANCH   3   4
TORSDOF 2
ENDMDL
MODEL 5
REMARK VINA RESULT:      -4.9      2.389      4.482
REMARK  2 active torsions:
REMARK  status: ('A' for Active; 'I' for Inactive)
REMARK    1  A    between atoms: C5_5  and  C6_6 
REMARK    2  A    between atoms: C6_6  and  C7_7 
ROOT
HETATM    1  C1  UNL     1     -34.993   5.759   4.114  1.00 20.00     0.012 C 
HETATM    2  C2  UNL     1     -34.108   6.133   3.394  1.00 20.00    -0.117 C 
HETATM    3  C5  UNL     1     -33.022   6.587   2.511  1.00 20.00     0.098 C 
ENDROOT
BRANCH   3   4
HETATM    4  C6  UNL     1     -32.717   8.092   2.686  1.00 20.00     0.011 C 
HETATM    5  C3  UNL     1     -31.449   8.300   3.530  1.00 20.00     0.012 C 
BRANCH   4   6
HETATM    6  C7  UNL     1     -32.667   8.801   1.307  1.00 20.00     0.082 C 
HETATM    7  C4  UNL     1     -32.896  10.307   1.392  1.00 20.00     0.027 C 
HETATM    8 CL8  UNL     1     -31.127   8.496   0.444  1.00 20.00    -0.125 Cl
ENDBRANCH   4   6
ENDBRANCH   3   4
TORSDOF 2
ENDMDL
MODEL 6
REMARK VINA RESULT:      -4.8      1.444      2.094
REMARK  2 active torsions:
REMARK  status: ('A' for Active; 'I' for Inactive)
REMARK    1  A    between atoms: C5_5  and  C6_6 
REMARK    2  A    between atoms: C6_6  and  C7_7 
ROOT
HETATM    1  C1  UNL     1     -31.619   8.453   1.572  1.00 20.00     0.012 C 
HETATM    2  C2  UNL     1     -32.533   8.260   2.326  1.00 20.00    -0.117 C 
HETATM    3  C5  UNL     1     -33.655   8.028   3.249  1.00 20.00     0.098 C 
ENDROOT
BRANCH   3   4
HETATM    4  C6  UNL     1     -33.384   6.853   4.215  1.00 20.00     0.011 C 
HETATM    5  C3  UNL     1     -33.776   7.224   5.654  1.00 20.00     0.012 C 
BRANCH   4   6
HETATM    6  C7  UNL     1     -34.065   5.557   3.702  1.00 20.00     0.082 C 
HETATM    7  C4  UNL     1     -33.200   4.764   2.727  1.00 20.00     0.027 C 
HETATM    8 CL8  UNL     1     -34.568   4.480   5.041  1.00 20.00    -0.125 Cl
ENDBRANCH   4   6
ENDBRANCH   3   4
TORSDOF 2
ENDMDL
MODEL 7
REMARK VINA RESULT:      -4.5      1.502      3.873
REMARK  2 active torsions:
REMARK  status: ('A' for Active; 'I' for Inactive)
REMARK    1  A    between atoms: C5_5  and  C6_6 
REMARK    2  A    between atoms: C6_6  and  C7_7 
ROOT
HETATM    1  C1  UNL     1     -34.741   5.078   5.852  1.00 20.00     0.012 C 
HETATM    2  C2  UNL     1     -34.274   5.987   5.223  1.00 20.00    -0.117 C 
HETATM    3  C5  UNL     1     -33.705   7.106   4.454  1.00 20.00     0.098 C 
ENDROOT
BRANCH   3   4
HETATM    4  C6  UNL     1     -33.020   6.632   3.153  1.00 20.00     0.011 C 
HETATM    5  C3  UNL     1     -34.063   6.202   2.110  1.00 20.00     0.012 C 
BRANCH   4   6
HETATM    6  C7  UNL     1     -32.031   7.709   2.635  1.00 20.00     0.082 C 
HETATM    7  C4  UNL     1     -32.658   8.672   1.631  1.00 20.00     0.027 C 
HETATM    8 CL8  UNL     1     -31.299   8.656   3.968  1.00 20.00    -0.125 Cl
ENDBRANCH   4   6
ENDBRANCH   3   4
TORSDOF 2
ENDMDL
MODEL 8
REMARK VINA RESULT:      -4.4      2.447      3.474
REMARK  2 active torsions:
REMARK  status: ('A' for Active; 'I' for Inactive)
REMARK    1  A    between atoms: C5_5  and  C6_6 
REMARK    2  A    between atoms: C6_6  and  C7_7 
ROOT
HETATM    1  C1  UNL     1     -33.565   7.779   6.252  1.00 20.00     0.012 C 
HETATM    2  C2  UNL     1     -33.996   6.705   5.932  1.00 20.00    -0.117 C 
HETATM    3  C5  UNL     1     -34.523   5.386   5.545  1.00 20.00     0.098 C 
ENDROOT
BRANCH   3   4
HETATM    4  C6  UNL     1     -34.634   5.229   4.011  1.00 20.00     0.011 C 
HETATM    5  C3  UNL     1     -35.723   6.153   3.443  1.00 20.00     0.012 C 
BRANCH   4   6
HETATM    6  C7  UNL     1     -33.247   5.422   3.343  1.00 20.00     0.082 C 
HETATM    7  C4  UNL     1     -32.917   4.345   2.313  1.00 20.00     0.027 C 
HETATM    8 CL8  UNL     1     -33.084   7.031   2.573  1.00 20.00    -0.125 Cl
ENDBRANCH   4   6
ENDBRANCH   3   4
TORSDOF 2
ENDMDL
MODEL 9
REMARK VINA RESULT:      -4.1      1.731      3.139
REMARK  2 active torsions:
REMARK  status: ('A' for Active; 'I' for Inactive)
REMARK    1  A    between atoms: C5_5  and  C6_6 
REMARK    2  A    between atoms: C6_6  and  C7_7 
ROOT
HETATM    1  C1  UNL     1     -33.948   7.315   6.347  1.00 20.00     0.012 C 
HETATM    2  C2  UNL     1     -33.269   7.414   5.363  1.00 20.00    -0.117 C 
HETATM    3  C5  UNL     1     -32.430   7.538   4.159  1.00 20.00     0.098 C 
ENDROOT
BRANCH   3   4
HETATM    4  C6  UNL     1     -33.272   7.598   2.865  1.00 20.00     0.011 C 
HETATM    5  C3  UNL     1     -32.449   8.173   1.702  1.00 20.00     0.012 C 
BRANCH   4   6
HETATM    6  C7  UNL     1     -33.896   6.211   2.557  1.00 20.00     0.082 C 
HETATM    7  C4  UNL     1     -32.926   5.052   2.762  1.00 20.00     0.027 C 
HETATM    8 CL8  UNL     1     -35.377   5.906   3.518  1.00 20.00    -0.125 Cl
ENDBRANCH   4   6
ENDBRANCH   3   4
TORSDOF 2
ENDMDL
