MODEL 1
REMARK VINA RESULT:      -5.8      0.000      0.000
REMARK  2 active torsions:
REMARK  status: ('A' for Active; 'I' for Inactive)
REMARK    1  A    between atoms: C5_5  and  C6_6 
REMARK    2  A    between atoms: C6_6  and  C7_7 
ROOT
HETATM    1  C1  UNL     1     -32.385   9.147   1.285  1.00 20.00     0.012 C 
HETATM    2  C2  UNL     1     -32.333   8.413   2.234  1.00 20.00    -0.117 C 
HETATM    3  C5  UNL     1     -32.261   7.510   3.395  1.00 20.00     0.098 C 
ENDROOT
BRANCH   3   4
HETATM    4  C6  UNL     1     -33.657   7.206   3.984  1.00 20.00     0.011 C 
HETATM    5  C3  UNL     1     -33.651   7.367   5.512  1.00 20.00     0.012 C 
BRANCH   4   6
HETATM    6  C7  UNL     1     -34.169   5.818   3.514  1.00 20.00     0.082 C 
HETATM    7  C4  UNL     1     -34.774   4.986   4.641  1.00 20.00     0.027 C 
HETATM    8 CL8  UNL     1     -32.894   4.855   2.704  1.00 20.00    -0.125 Cl
ENDBRANCH   4   6
ENDBRANCH   3   4
TORSDOF 2
ENDMDL
MODEL 2
REMARK VINA RESULT:      -5.3      1.888      4.000
REMARK  2 active torsions:
REMARK  status: ('A' for Active; 'I' for Inactive)
REMARK    1  A    between atoms: C5_5  and  C6_6 
REMARK    2  A    between atoms: C6_6  and  C7_7 
ROOT
HETATM    1  C1  UNL     1     -34.736   4.978   5.712  1.00 20.00     0.012 C 
HETATM    2  C2  UNL     1     -34.323   5.945   5.135  1.00 20.00    -0.117 C 
HETATM    3  C5  UNL     1     -33.818   7.137   4.432  1.00 20.00     0.098 C 
ENDROOT
BRANCH   3   4
HETATM    4  C6  UNL     1     -33.464   6.839   2.958  1.00 20.00     0.011 C 
HETATM    5  C3  UNL     1     -33.274   5.330   2.736  1.00 20.00     0.012 C 
BRANCH   4   6
HETATM    6  C7  UNL     1     -32.249   7.686   2.495  1.00 20.00     0.082 C 
HETATM    7  C4  UNL     1     -31.425   8.240   3.654  1.00 20.00     0.027 C 
HETATM    8 CL8  UNL     1     -32.725   9.041   1.424  1.00 20.00    -0.125 Cl
ENDBRANCH   4   6
ENDBRANCH   3   4
TORSDOF 2
ENDMDL
MODEL 3
REMARK VINA RESULT:      -5.0      1.379      2.047
REMARK  2 active torsions:
REMARK  status: ('A' for Active; 'I' for Inactive)
REMARK    1  A    between atoms: C5_5  and  C6_6 
REMARK    2  A    between atoms: C6_6  and  C7_7 
ROOT
HETATM    1  C1  UNL     1     -32.180   8.868   1.094  1.00 20.00     0.012 C 
HETATM    2  C2  UNL     1     -32.215   8.359   2.181  1.00 20.00    -0.117 C 
HETATM    3  C5  UNL     1     -32.251   7.740   3.516  1.00 20.00     0.098 C 
ENDROOT
BRANCH   3   4
HETATM    4  C6  UNL     1     -33.114   6.458   3.541  1.00 20.00     0.011 C 
HETATM    5  C3  UNL     1     -33.742   6.196   2.163  1.00 20.00     0.012 C 
BRANCH   4   6
HETATM    6  C7  UNL     1     -34.156   6.512   4.690  1.00 20.00     0.082 C 
HETATM    7  C4  UNL     1     -33.686   7.328   5.891  1.00 20.00     0.027 C 
HETATM    8 CL8  UNL     1     -34.641   4.881   5.253  1.00 20.00    -0.125 Cl
ENDBRANCH   4   6
ENDBRANCH   3   4
TORSDOF 2
ENDMDL
MODEL 4
REMARK VINA RESULT:      -4.8      1.758      4.083
REMARK  2 active torsions:
REMARK  status: ('A' for Active; 'I' for Inactive)
REMARK    1  A    between atoms: C5_5  and  C6_6 
REMARK    2  A    between atoms: C6_6  and  C7_7 
ROOT
HETATM    1  C1  UNL     1     -34.561   4.722   5.860  1.00 20.00     0.012 C 
HETATM    2  C2  UNL     1     -34.824   5.296   4.839  1.00 20.00    -0.117 C 
HETATM    3  C5  UNL     1     -35.153   5.998   3.588  1.00 20.00     0.098 C 
ENDROOT
BRANCH   3   4
HETATM    4  C6  UNL     1     -33.902   6.263   2.721  1.00 20.00     0.011 C 
HETATM    5  C3  UNL     1     -32.932   5.073   2.783  1.00 20.00     0.012 C 
BRANCH   4   6
HETATM    6  C7  UNL     1     -33.240   7.615   3.098  1.00 20.00     0.082 C 
HETATM    7  C4  UNL     1     -32.013   7.942   2.252  1.00 20.00     0.027 C 
HETATM    8 CL8  UNL     1     -32.787   7.697   4.830  1.00 20.00    -0.125 Cl
ENDBRANCH   4   6
ENDBRANCH   3   4
TORSDOF 2
ENDMDL
MODEL 5
REMARK VINA RESULT:      -4.6      1.679      2.138
REMARK  2 active torsions:
REMARK  status: ('A' for Active; 'I' for Inactive)
REMARK    1  A    between atoms: C5_5  and  C6_6 
REMARK    2  A    between atoms: C6_6  and  C7_7 
ROOT
HETATM    1  C1  UNL     1     -32.539  10.177   0.565  1.00 20.00     0.012 C 
HETATM    2  C2  UNL     1     -32.577   9.115   1.124  1.00 20.00    -0.117 C 
HETATM    3  C5  UNL     1     -32.626   7.810   1.803  1.00 20.00     0.098 C 
ENDROOT
BRANCH   3   4
HETATM    4  C6  UNL     1     -32.691   7.954   3.340  1.00 20.00     0.011 C 
HETATM    5  C3  UNL     1     -31.308   8.296   3.915  1.00 20.00     0.012 C 
BRANCH   4   6
HETATM    6  C7  UNL     1     -33.333   6.699   3.989  1.00 20.00     0.082 C 
HETATM    7  C4  UNL     1     -34.480   6.115   3.168  1.00 20.00     0.027 C 
HETATM    8 CL8  UNL     1     -33.915   7.010   5.655  1.00 20.00    -0.125 Cl
ENDBRANCH   4   6
ENDBRANCH   3   4
TORSDOF 2
ENDMDL
MODEL 6
REMARK VINA RESULT:      -4.5      2.262      4.162
REMARK  2 active torsions:
REMARK  status: ('A' for Active; 'I' for Inactive)
REMARK    1  A    between atoms: C5_5  and  C6_6 
REMARK    2  A    between atoms: C6_6  and  C7_7 
ROOT
HETATM    1  C1  UNL     1     -33.736   7.235   5.856  1.00 20.00     0.012 C 
HETATM    2  C2  UNL     1     -33.679   7.213   4.657  1.00 20.00    -0.117 C 
HETATM    3  C5  UNL     1     -33.615   7.182   3.187  1.00 20.00     0.098 C 
ENDROOT
BRANCH   3   4
HETATM    4  C6  UNL     1     -32.275   7.733   2.649  1.00 20.00     0.011 C 
HETATM    5  C3  UNL     1     -31.510   8.480   3.753  1.00 20.00     0.012 C 
BRANCH   4   6
HETATM    6  C7  UNL     1     -32.497   8.585   1.371  1.00 20.00     0.082 C 
HETATM    7  C4  UNL     1     -31.291   8.594   0.436  1.00 20.00     0.027 C 
HETATM    8 CL8  UNL     1     -32.953  10.277   1.745  1.00 20.00    -0.125 Cl
ENDBRANCH   4   6
ENDBRANCH   3   4
TORSDOF 2
ENDMDL
MODEL 7
REMARK VINA RESULT:      -4.5      2.471      4.260
REMARK  2 active torsions:
REMARK  status: ('A' for Active; 'I' for Inactive)
REMARK    1  A    between atoms: C5_5  and  C6_6 
REMARK    2  A    between atoms: C6_6  and  C7_7 
ROOT
HETATM    1  C1  UNL     1     -33.326   5.037   2.983  1.00 20.00     0.012 C 
HETATM    2  C2  UNL     1     -33.376   6.189   2.648  1.00 20.00    -0.117 C 
HETATM    3  C5  UNL     1     -33.444   7.601   2.236  1.00 20.00     0.098 C 
ENDROOT
BRANCH   3   4
HETATM    4  C6  UNL     1     -32.046   8.195   1.956  1.00 20.00     0.011 C 
HETATM    5  C3  UNL     1     -31.324   8.536   3.269  1.00 20.00     0.012 C 
BRANCH   4   6
HETATM    6  C7  UNL     1     -32.138   9.396   0.976  1.00 20.00     0.082 C 
HETATM    7  C4  UNL     1     -32.773  10.635   1.601  1.00 20.00     0.027 C 
HETATM    8 CL8  UNL     1     -33.022   8.988  -0.528  1.00 20.00    -0.125 Cl
ENDBRANCH   4   6
ENDBRANCH   3   4
TORSDOF 2
ENDMDL
MODEL 8
REMARK VINA RESULT:      -4.3      1.889      3.544
REMARK  2 active torsions:
REMARK  status: ('A' for Active; 'I' for Inactive)
REMARK    1  A    between atoms: C5_5  and  C6_6 
REMARK    2  A    between atoms: C6_6  and  C7_7 
ROOT
HETATM    1  C1  UNL     1     -34.765   4.997   5.724  1.00 20.00     0.012 C 
HETATM    2  C2  UNL     1     -34.250   6.067   5.550  1.00 20.00    -0.117 C 
HETATM    3  C5  UNL     1     -33.624   7.383   5.341  1.00 20.00     0.098 C 
ENDROOT
BRANCH   3   4
HETATM    4  C6  UNL     1     -32.579   7.358   4.204  1.00 20.00     0.011 C 
HETATM    5  C3  UNL     1     -31.723   8.634   4.221  1.00 20.00     0.012 C 
BRANCH   4   6
HETATM    6  C7  UNL     1     -33.255   7.090   2.833  1.00 20.00     0.082 C 
HETATM    7  C4  UNL     1     -33.105   5.647   2.360  1.00 20.00     0.027 C 
HETATM    8 CL8  UNL     1     -32.656   8.185   1.547  1.00 20.00    -0.125 Cl
ENDBRANCH   4   6
ENDBRANCH   3   4
TORSDOF 2
ENDMDL
MODEL 9
REMARK VINA RESULT:      -4.1      1.778      3.744
REMARK  2 active torsions:
REMARK  status: ('A' for Active; 'I' for Inactive)
REMARK    1  A    between atoms: C5_5  and  C6_6 
REMARK    2  A    between atoms: C6_6  and  C7_7 
ROOT
HETATM    1  C1  UNL     1     -34.466   4.206   4.616  1.00 20.00     0.012 C 
HETATM    2  C2  UNL     1     -34.041   4.893   3.728  1.00 20.00    -0.117 C 
HETATM    3  C5  UNL     1     -33.518   5.730   2.636  1.00 20.00     0.098 C 
ENDROOT
BRANCH   3   4
HETATM    4  C6  UNL     1     -33.416   7.218   3.037  1.00 20.00     0.011 C 
HETATM    5  C3  UNL     1     -32.822   8.053   1.892  1.00 20.00     0.012 C 
BRANCH   4   6
HETATM    6  C7  UNL     1     -32.651   7.382   4.378  1.00 20.00     0.082 C 
HETATM    7  C4  UNL     1     -33.568   7.670   5.563  1.00 20.00     0.027 C 
HETATM    8 CL8  UNL     1     -31.391   8.653   4.298  1.00 20.00    -0.125 Cl
ENDBRANCH   4   6
ENDBRANCH   3   4
TORSDOF 2
ENDMDL
