MODEL 1
REMARK VINA RESULT:      -4.4      0.000      0.000
REMARK  0 active torsions:
REMARK  status: ('A' for Active; 'I' for Inactive)
ROOT
HETATM    1  C1  UNL     1     -32.803   7.255   2.752  1.00 20.00     0.101 C 
HETATM    2  C2  UNL     1     -34.710   5.975   5.817  1.00 20.00     0.005 C 
HETATM    3  C3  UNL     1     -34.227   4.537   5.678  1.00 20.00     0.030 C 
HETATM    4  C4  UNL     1     -33.885   6.907   4.930  1.00 20.00     0.057 C 
HETATM    5  C5  UNL     1     -34.170   4.110   4.214  1.00 20.00     0.272 C 
HETATM    6  C6  UNL     1     -33.801   6.422   3.464  1.00 20.00     0.240 C 
HETATM    7  C7  UNL     1     -35.149   6.597   2.737  1.00 20.00     0.066 C 
HETATM    8  N8  UNL     1     -32.022   7.908   2.194  1.00 20.00    -0.195 NA
HETATM    9  N9  UNL     1     -33.351   5.019   3.406  1.00 20.00     0.106 N 
HETATM   10  H21 UNL     1     -32.374   4.949   3.687  1.00 20.00     0.318 HD
ENDROOT
TORSDOF 0
ENDMDL
MODEL 2
REMARK VINA RESULT:      -4.3     11.991     12.657
REMARK  0 active torsions:
REMARK  status: ('A' for Active; 'I' for Inactive)
ROOT
HETATM    1  C1  UNL     1     -35.706  13.949  -4.896  1.00 20.00     0.101 C 
HETATM    2  C2  UNL     1     -33.742  16.543  -2.874  1.00 20.00     0.005 C 
HETATM    3  C3  UNL     1     -34.899  16.883  -1.943  1.00 20.00     0.030 C 
HETATM    4  C4  UNL     1     -34.042  15.265  -3.658  1.00 20.00     0.057 C 
HETATM    5  C5  UNL     1     -36.227  16.912  -2.694  1.00 20.00     0.272 C 
HETATM    6  C6  UNL     1     -35.415  15.303  -4.367  1.00 20.00     0.240 C 
HETATM    7  C7  UNL     1     -35.403  16.272  -5.565  1.00 20.00     0.066 C 
HETATM    8  N8  UNL     1     -35.935  12.890  -5.311  1.00 20.00    -0.195 NA
HETATM    9  N9  UNL     1     -36.482  15.661  -3.413  1.00 20.00     0.106 N 
HETATM   10  H21 UNL     1     -36.630  14.902  -2.748  1.00 20.00     0.318 HD
ENDROOT
TORSDOF 0
ENDMDL
MODEL 3
REMARK VINA RESULT:      -4.2     12.021     13.188
REMARK  0 active torsions:
REMARK  status: ('A' for Active; 'I' for Inactive)
ROOT
HETATM    1  C1  UNL     1     -37.002  14.178  -5.244  1.00 20.00     0.101 C 
HETATM    2  C2  UNL     1     -33.256  14.478  -4.507  1.00 20.00     0.005 C 
HETATM    3  C3  UNL     1     -33.126  15.887  -5.074  1.00 20.00     0.030 C 
HETATM    4  C4  UNL     1     -34.727  14.109  -4.321  1.00 20.00     0.057 C 
HETATM    5  C5  UNL     1     -33.973  16.060  -6.331  1.00 20.00     0.272 C 
HETATM    6  C6  UNL     1     -35.572  14.343  -5.594  1.00 20.00     0.240 C 
HETATM    7  C7  UNL     1     -35.243  13.305  -6.685  1.00 20.00     0.066 C 
HETATM    8  N8  UNL     1     -38.123  14.049  -4.970  1.00 20.00    -0.195 NA
HETATM    9  N9  UNL     1     -35.379  15.715  -6.099  1.00 20.00     0.106 N 
HETATM   10  H21 UNL     1     -35.802  16.389  -5.463  1.00 20.00     0.318 HD
ENDROOT
TORSDOF 0
ENDMDL
MODEL 4
REMARK VINA RESULT:      -4.0     11.890     13.045
REMARK  0 active torsions:
REMARK  status: ('A' for Active; 'I' for Inactive)
ROOT
HETATM    1  C1  UNL     1     -35.247  13.846  -4.912  1.00 20.00     0.101 C 
HETATM    2  C2  UNL     1     -34.132  16.895  -2.881  1.00 20.00     0.005 C 
HETATM    3  C3  UNL     1     -34.139  17.850  -4.068  1.00 20.00     0.030 C 
HETATM    4  C4  UNL     1     -34.855  15.596  -3.233  1.00 20.00     0.057 C 
HETATM    5  C5  UNL     1     -33.615  17.172  -5.330  1.00 20.00     0.272 C 
HETATM    6  C6  UNL     1     -34.339  14.957  -4.543  1.00 20.00     0.240 C 
HETATM    7  C7  UNL     1     -32.930  14.358  -4.359  1.00 20.00     0.066 C 
HETATM    8  N8  UNL     1     -35.958  12.975  -5.202  1.00 20.00    -0.195 NA
HETATM    9  N9  UNL     1     -34.351  15.943  -5.640  1.00 20.00     0.106 N 
HETATM   10  H21 UNL     1     -35.310  16.168  -5.903  1.00 20.00     0.318 HD
ENDROOT
TORSDOF 0
ENDMDL
MODEL 5
REMARK VINA RESULT:      -3.8      1.770      2.793
REMARK  0 active torsions:
REMARK  status: ('A' for Active; 'I' for Inactive)
ROOT
HETATM    1  C1  UNL     1     -32.752   8.861   1.774  1.00 20.00     0.101 C 
HETATM    2  C2  UNL     1     -33.177   5.249   2.976  1.00 20.00     0.005 C 
HETATM    3  C3  UNL     1     -34.298   5.571   3.956  1.00 20.00     0.030 C 
HETATM    4  C4  UNL     1     -32.938   6.425   2.029  1.00 20.00     0.057 C 
HETATM    5  C5  UNL     1     -34.053   6.899   4.665  1.00 20.00     0.272 C 
HETATM    6  C6  UNL     1     -32.744   7.766   2.773  1.00 20.00     0.240 C 
HETATM    7  C7  UNL     1     -31.384   7.814   3.497  1.00 20.00     0.066 C 
HETATM    8  N8  UNL     1     -32.759   9.719   0.992  1.00 20.00    -0.195 NA
HETATM    9  N9  UNL     1     -33.851   8.000   3.719  1.00 20.00     0.106 N 
HETATM   10  H21 UNL     1     -34.716   8.186   3.212  1.00 20.00     0.318 HD
ENDROOT
TORSDOF 0
ENDMDL
MODEL 6
REMARK VINA RESULT:      -3.8     11.980     13.090
REMARK  0 active torsions:
REMARK  status: ('A' for Active; 'I' for Inactive)
ROOT
HETATM    1  C1  UNL     1     -36.984  14.540  -4.734  1.00 20.00     0.101 C 
HETATM    2  C2  UNL     1     -33.924  16.629  -5.706  1.00 20.00     0.005 C 
HETATM    3  C3  UNL     1     -32.919  15.514  -5.445  1.00 20.00     0.030 C 
HETATM    4  C4  UNL     1     -35.347  16.072  -5.738  1.00 20.00     0.057 C 
HETATM    5  C5  UNL     1     -33.296  14.704  -4.209  1.00 20.00     0.272 C 
HETATM    6  C6  UNL     1     -35.684  15.214  -4.498  1.00 20.00     0.240 C 
HETATM    7  C7  UNL     1     -35.841  16.086  -3.237  1.00 20.00     0.066 C 
HETATM    8  N8  UNL     1     -38.001  14.013  -4.918  1.00 20.00    -0.195 NA
HETATM    9  N9  UNL     1     -34.660  14.173  -4.293  1.00 20.00     0.106 N 
HETATM   10  H21 UNL     1     -34.715  13.472  -5.031  1.00 20.00     0.318 HD
ENDROOT
TORSDOF 0
ENDMDL
MODEL 7
REMARK VINA RESULT:      -3.8      8.837     10.361
REMARK  0 active torsions:
REMARK  status: ('A' for Active; 'I' for Inactive)
ROOT
HETATM    1  C1  UNL     1     -43.132   4.111  -1.850  1.00 20.00     0.101 C 
HETATM    2  C2  UNL     1     -42.893   7.616  -0.326  1.00 20.00     0.005 C 
HETATM    3  C3  UNL     1     -41.370   7.636  -0.286  1.00 20.00     0.030 C 
HETATM    4  C4  UNL     1     -43.392   6.465  -1.198  1.00 20.00     0.057 C 
HETATM    5  C5  UNL     1     -40.807   6.273   0.104  1.00 20.00     0.272 C 
HETATM    6  C6  UNL     1     -42.767   5.104  -0.813  1.00 20.00     0.240 C 
HETATM    7  C7  UNL     1     -43.320   4.591   0.531  1.00 20.00     0.066 C 
HETATM    8  N8  UNL     1     -43.417   3.332  -2.662  1.00 20.00    -0.195 NA
HETATM    9  N9  UNL     1     -41.296   5.203  -0.771  1.00 20.00     0.106 N 
HETATM   10  H21 UNL     1     -40.923   5.326  -1.712  1.00 20.00     0.318 HD
ENDROOT
TORSDOF 0
ENDMDL
MODEL 8
REMARK VINA RESULT:      -3.7     12.023     13.160
REMARK  0 active torsions:
REMARK  status: ('A' for Active; 'I' for Inactive)
ROOT
HETATM    1  C1  UNL     1     -36.719  15.198  -4.209  1.00 20.00     0.101 C 
HETATM    2  C2  UNL     1     -33.810  16.903  -2.392  1.00 20.00     0.005 C 
HETATM    3  C3  UNL     1     -33.478  17.848  -3.540  1.00 20.00     0.030 C 
HETATM    4  C4  UNL     1     -35.173  16.247  -2.615  1.00 20.00     0.057 C 
HETATM    5  C5  UNL     1     -33.618  17.152  -4.891  1.00 20.00     0.272 C 
HETATM    6  C6  UNL     1     -35.305  15.595  -4.010  1.00 20.00     0.240 C 
HETATM    7  C7  UNL     1     -34.450  14.317  -4.116  1.00 20.00     0.066 C 
HETATM    8  N8  UNL     1     -37.827  14.887  -4.366  1.00 20.00    -0.195 NA
HETATM    9  N9  UNL     1     -34.946  16.557  -5.069  1.00 20.00     0.106 N 
HETATM   10  H21 UNL     1     -35.650  17.291  -5.133  1.00 20.00     0.318 HD
ENDROOT
TORSDOF 0
ENDMDL
MODEL 9
REMARK VINA RESULT:      -3.7     11.958     13.544
REMARK  0 active torsions:
REMARK  status: ('A' for Active; 'I' for Inactive)
ROOT
HETATM    1  C1  UNL     1     -37.000  14.646  -4.838  1.00 20.00     0.101 C 
HETATM    2  C2  UNL     1     -33.937  15.858  -6.791  1.00 20.00     0.005 C 
HETATM    3  C3  UNL     1     -34.028  14.775  -7.858  1.00 20.00     0.030 C 
HETATM    4  C4  UNL     1     -35.224  15.911  -5.969  1.00 20.00     0.057 C 
HETATM    5  C5  UNL     1     -34.434  13.434  -7.255  1.00 20.00     0.272 C 
HETATM    6  C6  UNL     1     -35.640  14.529  -5.413  1.00 20.00     0.240 C 
HETATM    7  C7  UNL     1     -34.699  14.074  -4.280  1.00 20.00     0.066 C 
HETATM    8  N8  UNL     1     -38.066  14.736  -4.387  1.00 20.00    -0.195 NA
HETATM    9  N9  UNL     1     -35.684  13.527  -6.494  1.00 20.00     0.106 N 
HETATM   10  H21 UNL     1     -36.461  13.721  -7.125  1.00 20.00     0.318 HD
ENDROOT
TORSDOF 0
ENDMDL
