MODEL 1
REMARK VINA RESULT:      -5.9      0.000      0.000
REMARK  6 active torsions:
REMARK  status: ('A' for Active; 'I' for Inactive)
REMARK    1  A    between atoms: C4_4  and  C6_6 
REMARK    2  A    between atoms: C5_5  and  C7_7 
REMARK    3  A    between atoms: C6_6  and  C8_8 
REMARK    4  A    between atoms: C7_7  and  C9_9 
REMARK    5  A    between atoms: C8_8  and  C9_9 
REMARK    6  A    between atoms: C9_9  and  O10_10 
ROOT
HETATM    1  C1  UNL     1     -33.802   7.279   6.106  1.00 20.00     0.012 C 
HETATM    2  C2  UNL     1     -34.184   6.588   5.201  1.00 20.00    -0.117 C 
HETATM    3  C4  UNL     1     -34.654   5.741   4.096  1.00 20.00     0.093 C 
ENDROOT
BRANCH   3   4
HETATM    4  C6  UNL     1     -34.131   6.213   2.738  1.00 20.00     0.014 C 
BRANCH   4   5
HETATM    5  C8  UNL     1     -32.623   6.512   2.753  1.00 20.00     0.032 C 
BRANCH   5   6
HETATM    6  C9  UNL     1     -32.333   8.018   2.697  1.00 20.00     0.118 C 
BRANCH   6   7
HETATM    7  C7  UNL     1     -31.757   8.481   1.353  1.00 20.00     0.031 C 
BRANCH   7   8
HETATM    8  C5  UNL     1     -32.431   9.733   0.794  1.00 20.00    -0.002 C 
HETATM    9  C3  UNL     1     -33.192   9.429  -0.487  1.00 20.00     0.005 C 
ENDBRANCH   7   8
ENDBRANCH   6   7
BRANCH   6  10
HETATM   10  O10 UNL     1     -31.389   8.354   3.716  1.00 20.00    -0.396 OA
HETATM   11  H26 UNL     1     -31.259   9.313   3.663  1.00 20.00     0.210 HD
ENDBRANCH   6  10
ENDBRANCH   5   6
ENDBRANCH   4   5
ENDBRANCH   3   4
TORSDOF 6
ENDMDL
MODEL 2
REMARK VINA RESULT:      -5.8      1.898      4.840
REMARK  6 active torsions:
REMARK  status: ('A' for Active; 'I' for Inactive)
REMARK    1  A    between atoms: C4_4  and  C6_6 
REMARK    2  A    between atoms: C5_5  and  C7_7 
REMARK    3  A    between atoms: C6_6  and  C8_8 
REMARK    4  A    between atoms: C7_7  and  C9_9 
REMARK    5  A    between atoms: C8_8  and  C9_9 
REMARK    6  A    between atoms: C9_9  and  O10_10 
ROOT
HETATM    1  C1  UNL     1     -32.288   9.782   0.953  1.00 20.00     0.012 C 
HETATM    2  C2  UNL     1     -32.247   8.826   1.678  1.00 20.00    -0.117 C 
HETATM    3  C4  UNL     1     -32.194   7.657   2.568  1.00 20.00     0.093 C 
ENDROOT
BRANCH   3   4
HETATM    4  C6  UNL     1     -33.351   6.687   2.325  1.00 20.00     0.014 C 
BRANCH   4   5
HETATM    5  C8  UNL     1     -33.101   5.298   2.933  1.00 20.00     0.032 C 
BRANCH   5   6
HETATM    6  C9  UNL     1     -34.347   4.744   3.637  1.00 20.00     0.118 C 
BRANCH   6   7
HETATM    7  C7  UNL     1     -35.067   5.778   4.512  1.00 20.00     0.031 C 
BRANCH   7   8
HETATM    8  C5  UNL     1     -34.413   5.990   5.876  1.00 20.00    -0.002 C 
HETATM    9  C3  UNL     1     -33.723   7.343   5.956  1.00 20.00     0.005 C 
ENDBRANCH   7   8
ENDBRANCH   6   7
BRANCH   6  10
HETATM   10  O10 UNL     1     -33.967   3.650   4.475  1.00 20.00    -0.396 OA
HETATM   11  H26 UNL     1     -34.765   3.385   4.956  1.00 20.00     0.210 HD
ENDBRANCH   6  10
ENDBRANCH   5   6
ENDBRANCH   4   5
ENDBRANCH   3   4
TORSDOF 6
ENDMDL
MODEL 3
REMARK VINA RESULT:      -5.8      1.597      5.128
REMARK  6 active torsions:
REMARK  status: ('A' for Active; 'I' for Inactive)
REMARK    1  A    between atoms: C4_4  and  C6_6 
REMARK    2  A    between atoms: C5_5  and  C7_7 
REMARK    3  A    between atoms: C6_6  and  C8_8 
REMARK    4  A    between atoms: C7_7  and  C9_9 
REMARK    5  A    between atoms: C8_8  and  C9_9 
REMARK    6  A    between atoms: C9_9  and  O10_10 
ROOT
HETATM    1  C1  UNL     1     -33.205   9.463  -0.641  1.00 20.00     0.012 C 
HETATM    2  C2  UNL     1     -32.737   9.430   0.464  1.00 20.00    -0.117 C 
HETATM    3  C4  UNL     1     -32.165   9.393   1.818  1.00 20.00     0.093 C 
ENDROOT
BRANCH   3   4
HETATM    4  C6  UNL     1     -31.783   7.976   2.249  1.00 20.00     0.014 C 
BRANCH   4   5
HETATM    5  C8  UNL     1     -32.738   7.398   3.305  1.00 20.00     0.032 C 
BRANCH   5   6
HETATM    6  C9  UNL     1     -33.590   6.250   2.745  1.00 20.00     0.118 C 
BRANCH   6   7
HETATM    7  C7  UNL     1     -34.844   5.955   3.579  1.00 20.00     0.031 C 
BRANCH   7   8
HETATM    8  C5  UNL     1     -34.708   4.729   4.480  1.00 20.00    -0.002 C 
HETATM    9  C3  UNL     1     -34.568   5.126   5.941  1.00 20.00     0.005 C 
ENDBRANCH   7   8
ENDBRANCH   6   7
BRANCH   6  10
HETATM   10  O10 UNL     1     -32.804   5.058   2.700  1.00 20.00    -0.396 OA
HETATM   11  H26 UNL     1     -33.211   4.438   3.324  1.00 20.00     0.210 HD
ENDBRANCH   6  10
ENDBRANCH   5   6
ENDBRANCH   4   5
ENDBRANCH   3   4
TORSDOF 6
ENDMDL
MODEL 4
REMARK VINA RESULT:      -5.7      1.417      2.213
REMARK  6 active torsions:
REMARK  status: ('A' for Active; 'I' for Inactive)
REMARK    1  A    between atoms: C4_4  and  C6_6 
REMARK    2  A    between atoms: C5_5  and  C7_7 
REMARK    3  A    between atoms: C6_6  and  C8_8 
REMARK    4  A    between atoms: C7_7  and  C9_9 
REMARK    5  A    between atoms: C8_8  and  C9_9 
REMARK    6  A    between atoms: C9_9  and  O10_10 
ROOT
HETATM    1  C1  UNL     1     -34.287   3.985   4.400  1.00 20.00     0.012 C 
HETATM    2  C2  UNL     1     -34.430   4.951   5.098  1.00 20.00    -0.117 C 
HETATM    3  C4  UNL     1     -34.608   6.132   5.955  1.00 20.00     0.093 C 
ENDROOT
BRANCH   3   4
HETATM    4  C6  UNL     1     -33.642   7.263   5.595  1.00 20.00     0.014 C 
BRANCH   4   5
HETATM    5  C8  UNL     1     -33.726   7.667   4.114  1.00 20.00     0.032 C 
BRANCH   5   6
HETATM    6  C9  UNL     1     -32.434   7.341   3.353  1.00 20.00     0.118 C 
BRANCH   6   7
HETATM    7  C7  UNL     1     -31.763   8.571   2.729  1.00 20.00     0.031 C 
BRANCH   7   8
HETATM    8  C5  UNL     1     -32.135   8.799   1.266  1.00 20.00    -0.002 C 
HETATM    9  C3  UNL     1     -32.704  10.192   1.048  1.00 20.00     0.005 C 
ENDBRANCH   7   8
ENDBRANCH   6   7
BRANCH   6  10
HETATM   10  O10 UNL     1     -32.728   6.421   2.299  1.00 20.00    -0.396 OA
HETATM   11  H26 UNL     1     -32.556   6.892   1.470  1.00 20.00     0.210 HD
ENDBRANCH   6  10
ENDBRANCH   5   6
ENDBRANCH   4   5
ENDBRANCH   3   4
TORSDOF 6
ENDMDL
MODEL 5
REMARK VINA RESULT:      -5.6      1.358      4.911
REMARK  6 active torsions:
REMARK  status: ('A' for Active; 'I' for Inactive)
REMARK    1  A    between atoms: C4_4  and  C6_6 
REMARK    2  A    between atoms: C5_5  and  C7_7 
REMARK    3  A    between atoms: C6_6  and  C8_8 
REMARK    4  A    between atoms: C7_7  and  C9_9 
REMARK    5  A    between atoms: C8_8  and  C9_9 
REMARK    6  A    between atoms: C9_9  and  O10_10 
ROOT
HETATM    1  C1  UNL     1     -32.899   9.568  -0.063  1.00 20.00     0.012 C 
HETATM    2  C2  UNL     1     -32.423   9.102   0.936  1.00 20.00    -0.117 C 
HETATM    3  C4  UNL     1     -31.837   8.535   2.159  1.00 20.00     0.093 C 
ENDROOT
BRANCH   3   4
HETATM    4  C6  UNL     1     -32.586   7.291   2.640  1.00 20.00     0.014 C 
BRANCH   4   5
HETATM    5  C8  UNL     1     -33.624   7.606   3.729  1.00 20.00     0.032 C 
BRANCH   5   6
HETATM    6  C9  UNL     1     -33.295   6.912   5.058  1.00 20.00     0.118 C 
BRANCH   6   7
HETATM    7  C7  UNL     1     -34.462   6.096   5.629  1.00 20.00     0.031 C 
BRANCH   7   8
HETATM    8  C5  UNL     1     -35.085   5.129   4.626  1.00 20.00    -0.002 C 
HETATM    9  C3  UNL     1     -34.137   3.987   4.293  1.00 20.00     0.005 C 
ENDBRANCH   7   8
ENDBRANCH   6   7
BRANCH   6  10
HETATM   10  O10 UNL     1     -32.933   7.897   6.027  1.00 20.00    -0.396 OA
HETATM   11  H26 UNL     1     -33.543   8.639   5.903  1.00 20.00     0.210 HD
ENDBRANCH   6  10
ENDBRANCH   5   6
ENDBRANCH   4   5
ENDBRANCH   3   4
TORSDOF 6
ENDMDL
MODEL 6
REMARK VINA RESULT:      -5.1      1.643      2.256
REMARK  6 active torsions:
REMARK  status: ('A' for Active; 'I' for Inactive)
REMARK    1  A    between atoms: C4_4  and  C6_6 
REMARK    2  A    between atoms: C5_5  and  C7_7 
REMARK    3  A    between atoms: C6_6  and  C8_8 
REMARK    4  A    between atoms: C7_7  and  C9_9 
REMARK    5  A    between atoms: C8_8  and  C9_9 
REMARK    6  A    between atoms: C9_9  and  O10_10 
ROOT
HETATM    1  C1  UNL     1     -33.638   7.664   6.040  1.00 20.00     0.012 C 
HETATM    2  C2  UNL     1     -34.066   6.544   5.969  1.00 20.00    -0.117 C 
HETATM    3  C4  UNL     1     -34.590   5.174   5.886  1.00 20.00     0.093 C 
ENDROOT
BRANCH   3   4
HETATM    4  C6  UNL     1     -34.818   4.725   4.441  1.00 20.00     0.014 C 
BRANCH   4   5
HETATM    5  C8  UNL     1     -34.604   5.859   3.425  1.00 20.00     0.032 C 
BRANCH   5   6
HETATM    6  C9  UNL     1     -33.149   5.930   2.940  1.00 20.00     0.118 C 
BRANCH   6   7
HETATM    7  C7  UNL     1     -32.902   7.038   1.907  1.00 20.00     0.031 C 
BRANCH   7   8
HETATM    8  C5  UNL     1     -32.137   8.237   2.462  1.00 20.00    -0.002 C 
HETATM    9  C3  UNL     1     -32.213   9.428   1.520  1.00 20.00     0.005 C 
ENDBRANCH   7   8
ENDBRANCH   6   7
BRANCH   6  10
HETATM   10  O10 UNL     1     -32.791   4.684   2.340  1.00 20.00    -0.396 OA
HETATM   11  H26 UNL     1     -33.622   4.231   2.134  1.00 20.00     0.210 HD
ENDBRANCH   6  10
ENDBRANCH   5   6
ENDBRANCH   4   5
ENDBRANCH   3   4
TORSDOF 6
ENDMDL
MODEL 7
REMARK VINA RESULT:      -4.9      2.092      4.372
REMARK  6 active torsions:
REMARK  status: ('A' for Active; 'I' for Inactive)
REMARK    1  A    between atoms: C4_4  and  C6_6 
REMARK    2  A    between atoms: C5_5  and  C7_7 
REMARK    3  A    between atoms: C6_6  and  C8_8 
REMARK    4  A    between atoms: C7_7  and  C9_9 
REMARK    5  A    between atoms: C8_8  and  C9_9 
REMARK    6  A    between atoms: C9_9  and  O10_10 
ROOT
HETATM    1  C1  UNL     1     -31.891   8.606   1.578  1.00 20.00     0.012 C 
HETATM    2  C2  UNL     1     -31.948   8.343   2.748  1.00 20.00    -0.117 C 
HETATM    3  C4  UNL     1     -32.014   8.020   4.180  1.00 20.00     0.093 C 
ENDROOT
BRANCH   3   4
HETATM    4  C6  UNL     1     -33.442   8.080   4.725  1.00 20.00     0.014 C 
BRANCH   4   5
HETATM    5  C8  UNL     1     -33.755   6.935   5.701  1.00 20.00     0.032 C 
BRANCH   5   6
HETATM    6  C9  UNL     1     -34.207   5.662   4.972  1.00 20.00     0.118 C 
BRANCH   6   7
HETATM    7  C7  UNL     1     -35.014   5.941   3.697  1.00 20.00     0.031 C 
BRANCH   7   8
HETATM    8  C5  UNL     1     -34.249   5.647   2.409  1.00 20.00    -0.002 C 
HETATM    9  C3  UNL     1     -33.034   4.771   2.673  1.00 20.00     0.005 C 
ENDBRANCH   7   8
ENDBRANCH   6   7
BRANCH   6  10
HETATM   10  O10 UNL     1     -35.025   4.883   5.846  1.00 20.00    -0.396 OA
HETATM   11  H26 UNL     1     -34.879   3.957   5.603  1.00 20.00     0.210 HD
ENDBRANCH   6  10
ENDBRANCH   5   6
ENDBRANCH   4   5
ENDBRANCH   3   4
TORSDOF 6
ENDMDL
MODEL 8
REMARK VINA RESULT:      -4.6      1.083      4.719
REMARK  6 active torsions:
REMARK  status: ('A' for Active; 'I' for Inactive)
REMARK    1  A    between atoms: C4_4  and  C6_6 
REMARK    2  A    between atoms: C5_5  and  C7_7 
REMARK    3  A    between atoms: C6_6  and  C8_8 
REMARK    4  A    between atoms: C7_7  and  C9_9 
REMARK    5  A    between atoms: C8_8  and  C9_9 
REMARK    6  A    between atoms: C9_9  and  O10_10 
ROOT
HETATM    1  C1  UNL     1     -32.609  11.469   1.858  1.00 20.00     0.012 C 
HETATM    2  C2  UNL     1     -32.442  10.454   1.239  1.00 20.00    -0.117 C 
HETATM    3  C4  UNL     1     -32.238   9.214   0.477  1.00 20.00     0.093 C 
ENDROOT
BRANCH   3   4
HETATM    4  C6  UNL     1     -31.838   8.040   1.373  1.00 20.00     0.014 C 
BRANCH   4   5
HETATM    5  C8  UNL     1     -33.004   7.521   2.230  1.00 20.00     0.032 C 
BRANCH   5   6
HETATM    6  C9  UNL     1     -32.572   7.227   3.674  1.00 20.00     0.118 C 
BRANCH   6   7
HETATM    7  C7  UNL     1     -33.743   7.165   4.663  1.00 20.00     0.031 C 
BRANCH   7   8
HETATM    8  C5  UNL     1     -34.698   6.000   4.411  1.00 20.00    -0.002 C 
HETATM    9  C3  UNL     1     -34.687   5.014   5.569  1.00 20.00     0.005 C 
ENDBRANCH   7   8
ENDBRANCH   6   7
BRANCH   6  10
HETATM   10  O10 UNL     1     -31.679   8.251   4.116  1.00 20.00    -0.396 OA
HETATM   11  H26 UNL     1     -31.458   8.042   5.036  1.00 20.00     0.210 HD
ENDBRANCH   6  10
ENDBRANCH   5   6
ENDBRANCH   4   5
ENDBRANCH   3   4
TORSDOF 6
ENDMDL
MODEL 9
REMARK VINA RESULT:      -4.3     10.034     10.764
REMARK  6 active torsions:
REMARK  status: ('A' for Active; 'I' for Inactive)
REMARK    1  A    between atoms: C4_4  and  C6_6 
REMARK    2  A    between atoms: C5_5  and  C7_7 
REMARK    3  A    between atoms: C6_6  and  C8_8 
REMARK    4  A    between atoms: C7_7  and  C9_9 
REMARK    5  A    between atoms: C8_8  and  C9_9 
REMARK    6  A    between atoms: C9_9  and  O10_10 
ROOT
HETATM    1  C1  UNL     1     -32.723  18.179  -1.271  1.00 20.00     0.012 C 
HETATM    2  C2  UNL     1     -33.683  17.499  -1.515  1.00 20.00    -0.117 C 
HETATM    3  C4  UNL     1     -34.858  16.667  -1.808  1.00 20.00     0.093 C 
ENDROOT
BRANCH   3   4
HETATM    4  C6  UNL     1     -34.927  16.256  -3.281  1.00 20.00     0.014 C 
BRANCH   4   5
HETATM    5  C8  UNL     1     -33.568  15.797  -3.834  1.00 20.00     0.032 C 
BRANCH   5   6
HETATM    6  C9  UNL     1     -33.695  14.535  -4.698  1.00 20.00     0.118 C 
BRANCH   6   7
HETATM    7  C7  UNL     1     -35.012  13.778  -4.488  1.00 20.00     0.031 C 
BRANCH   7   8
HETATM    8  C5  UNL     1     -35.803  13.552  -5.774  1.00 20.00    -0.002 C 
HETATM    9  C3  UNL     1     -34.884  13.461  -6.982  1.00 20.00     0.005 C 
ENDBRANCH   7   8
ENDBRANCH   6   7
BRANCH   6  10
HETATM   10  O10 UNL     1     -32.623  13.642  -4.388  1.00 20.00    -0.396 OA
HETATM   11  H26 UNL     1     -32.947  12.749  -4.579  1.00 20.00     0.210 HD
ENDBRANCH   6  10
ENDBRANCH   5   6
ENDBRANCH   4   5
ENDBRANCH   3   4
TORSDOF 6
ENDMDL
