MODEL 1
REMARK VINA RESULT:      -6.2      0.000      0.000
REMARK  3 active torsions:
REMARK  status: ('A' for Active; 'I' for Inactive)
REMARK    1  A    between atoms: C4_4  and  C9_9 
REMARK    2  A    between atoms: C5_5  and  C10_10 
REMARK    3  A    between atoms: C9_9  and  C11_11 
ROOT
HETATM    1  C1  UNL     1     -31.363   8.177   3.402  1.00 20.00     0.006 C 
HETATM    2  C2  UNL     1     -32.149   8.284   4.706  1.00 20.00     0.021 C 
HETATM    3  C3  UNL     1     -33.283   6.933   2.340  1.00 20.00     0.010 C 
HETATM    4  C4  UNL     1     -32.265   8.069   2.168  1.00 20.00    -0.014 C 
HETATM    5  C5  UNL     1     -34.094   7.023   3.646  1.00 20.00     0.004 C 
HETATM    6  C6  UNL     1     -33.150   7.136   4.859  1.00 20.00     0.086 C 
HETATM    7 CL12 UNL     1     -34.067   7.379   6.380  1.00 20.00    -0.125 Cl
ENDROOT
BRANCH   4   8
HETATM    8  C9  UNL     1     -32.948   9.400   1.843  1.00 20.00     0.004 C 
BRANCH   8   9
HETATM    9  C11 UNL     1     -32.439   9.975   0.527  1.00 20.00    -0.004 C 
HETATM   10  C8  UNL     1     -33.030   9.234  -0.662  1.00 20.00     0.005 C 
ENDBRANCH   8   9
ENDBRANCH   4   8
BRANCH   5  11
HETATM   11  C10 UNL     1     -35.026   5.808   3.743  1.00 20.00     0.001 C 
HETATM   12  C7  UNL     1     -34.294   4.596   4.211  1.00 20.00     0.005 C 
ENDBRANCH   5  11
TORSDOF 3
ENDMDL
MODEL 2
REMARK VINA RESULT:      -4.3     10.517     11.858
REMARK  3 active torsions:
REMARK  status: ('A' for Active; 'I' for Inactive)
REMARK    1  A    between atoms: C4_4  and  C9_9 
REMARK    2  A    between atoms: C5_5  and  C10_10 
REMARK    3  A    between atoms: C9_9  and  C11_11 
ROOT
HETATM    1  C1  UNL     1     -34.502  18.601  -3.401  1.00 20.00     0.006 C 
HETATM    2  C2  UNL     1     -33.761  18.067  -4.624  1.00 20.00     0.021 C 
HETATM    3  C3  UNL     1     -34.787  16.247  -2.541  1.00 20.00     0.010 C 
HETATM    4  C4  UNL     1     -34.378  17.682  -2.181  1.00 20.00    -0.014 C 
HETATM    5  C5  UNL     1     -34.048  15.684  -3.769  1.00 20.00     0.004 C 
HETATM    6  C6  UNL     1     -34.192  16.639  -4.969  1.00 20.00     0.086 C 
HETATM    7 CL12 UNL     1     -33.229  16.077  -6.372  1.00 20.00    -0.125 Cl
ENDROOT
BRANCH   4   8
HETATM    8  C9  UNL     1     -32.978  17.737  -1.566  1.00 20.00     0.004 C 
BRANCH   8   9
HETATM    9  C11 UNL     1     -32.974  18.546  -0.274  1.00 20.00    -0.004 C 
HETATM   10  C8  UNL     1     -34.262  18.341   0.507  1.00 20.00     0.005 C 
ENDBRANCH   8   9
ENDBRANCH   4   8
BRANCH   5  11
HETATM   11  C10 UNL     1     -34.581  14.278  -4.075  1.00 20.00     0.001 C 
HETATM   12  C7  UNL     1     -35.926  14.333  -4.715  1.00 20.00     0.005 C 
ENDBRANCH   5  11
TORSDOF 3
ENDMDL
MODEL 3
REMARK VINA RESULT:      -4.3     10.315     12.380
REMARK  3 active torsions:
REMARK  status: ('A' for Active; 'I' for Inactive)
REMARK    1  A    between atoms: C4_4  and  C9_9 
REMARK    2  A    between atoms: C5_5  and  C10_10 
REMARK    3  A    between atoms: C9_9  and  C11_11 
ROOT
HETATM    1  C1  UNL     1     -34.310  13.953  -4.050  1.00 20.00     0.006 C 
HETATM    2  C2  UNL     1     -35.520  13.948  -4.979  1.00 20.00     0.021 C 
HETATM    3  C3  UNL     1     -33.284  15.830  -5.388  1.00 20.00     0.010 C 
HETATM    4  C4  UNL     1     -33.617  15.319  -3.980  1.00 20.00    -0.014 C 
HETATM    5  C5  UNL     1     -34.493  15.840  -6.343  1.00 20.00     0.004 C 
HETATM    6  C6  UNL     1     -35.162  14.452  -6.380  1.00 20.00     0.086 C 
HETATM    7 CL12 UNL     1     -36.651  14.471  -7.377  1.00 20.00    -0.125 Cl
ENDROOT
BRANCH   4   8
HETATM    8  C9  UNL     1     -34.442  16.335  -3.186  1.00 20.00     0.004 C 
BRANCH   8   9
HETATM    9  C11 UNL     1     -33.581  17.065  -2.161  1.00 20.00    -0.004 C 
HETATM   10  C8  UNL     1     -34.392  17.445  -0.933  1.00 20.00     0.005 C 
ENDBRANCH   8   9
ENDBRANCH   4   8
BRANCH   5  11
HETATM   11  C10 UNL     1     -34.031  16.302  -7.732  1.00 20.00     0.001 C 
HETATM   12  C7  UNL     1     -33.957  17.788  -7.815  1.00 20.00     0.005 C 
ENDBRANCH   5  11
TORSDOF 3
ENDMDL
MODEL 4
REMARK VINA RESULT:      -4.3     10.994     11.936
REMARK  3 active torsions:
REMARK  status: ('A' for Active; 'I' for Inactive)
REMARK    1  A    between atoms: C4_4  and  C9_9 
REMARK    2  A    between atoms: C5_5  and  C10_10 
REMARK    3  A    between atoms: C9_9  and  C11_11 
ROOT
HETATM    1  C1  UNL     1     -33.809  17.081  -5.479  1.00 20.00     0.006 C 
HETATM    2  C2  UNL     1     -33.512  15.773  -6.207  1.00 20.00     0.021 C 
HETATM    3  C3  UNL     1     -35.879  16.053  -4.468  1.00 20.00     0.010 C 
HETATM    4  C4  UNL     1     -34.614  16.877  -4.191  1.00 20.00    -0.014 C 
HETATM    5  C5  UNL     1     -35.603  14.724  -5.196  1.00 20.00     0.004 C 
HETATM    6  C6  UNL     1     -34.788  14.973  -6.480  1.00 20.00     0.086 C 
HETATM    7 CL12 UNL     1     -34.336  13.432  -7.276  1.00 20.00    -0.125 Cl
ENDROOT
BRANCH   4   8
HETATM    8  C9  UNL     1     -33.763  16.258  -3.080  1.00 20.00     0.004 C 
BRANCH   8   9
HETATM    9  C11 UNL     1     -33.685  17.178  -1.867  1.00 20.00    -0.004 C 
HETATM   10  C8  UNL     1     -34.969  17.128  -1.056  1.00 20.00     0.005 C 
ENDBRANCH   8   9
ENDBRANCH   4   8
BRANCH   5  11
HETATM   11  C10 UNL     1     -36.937  14.021  -5.479  1.00 20.00     0.001 C 
HETATM   12  C7  UNL     1     -38.079  14.746  -4.853  1.00 20.00     0.005 C 
ENDBRANCH   5  11
TORSDOF 3
ENDMDL
MODEL 5
REMARK VINA RESULT:      -4.2     11.097     12.288
REMARK  3 active torsions:
REMARK  status: ('A' for Active; 'I' for Inactive)
REMARK    1  A    between atoms: C4_4  and  C9_9 
REMARK    2  A    between atoms: C5_5  and  C10_10 
REMARK    3  A    between atoms: C9_9  and  C11_11 
ROOT
HETATM    1  C1  UNL     1     -36.001  15.885  -3.645  1.00 20.00     0.006 C 
HETATM    2  C2  UNL     1     -36.259  16.728  -4.891  1.00 20.00     0.021 C 
HETATM    3  C3  UNL     1     -34.116  14.700  -4.832  1.00 20.00     0.010 C 
HETATM    4  C4  UNL     1     -34.549  15.406  -3.539  1.00 20.00    -0.014 C 
HETATM    5  C5  UNL     1     -34.361  15.535  -6.103  1.00 20.00     0.004 C 
HETATM    6  C6  UNL     1     -35.829  16.000  -6.167  1.00 20.00     0.086 C 
HETATM    7 CL12 UNL     1     -36.110  17.086  -7.565  1.00 20.00    -0.125 Cl
ENDROOT
BRANCH   4   8
HETATM    8  C9  UNL     1     -33.598  16.547  -3.169  1.00 20.00     0.004 C 
BRANCH   8   9
HETATM    9  C11 UNL     1     -33.903  17.089  -1.778  1.00 20.00    -0.004 C 
HETATM   10  C8  UNL     1     -32.825  18.057  -1.317  1.00 20.00     0.005 C 
ENDBRANCH   8   9
ENDBRANCH   4   8
BRANCH   5  11
HETATM   11  C10 UNL     1     -33.957  14.709  -7.331  1.00 20.00     0.001 C 
HETATM   12  C7  UNL     1     -34.720  13.430  -7.403  1.00 20.00     0.005 C 
ENDBRANCH   5  11
TORSDOF 3
ENDMDL
MODEL 6
REMARK VINA RESULT:      -4.2     10.811     11.986
REMARK  3 active torsions:
REMARK  status: ('A' for Active; 'I' for Inactive)
REMARK    1  A    between atoms: C4_4  and  C9_9 
REMARK    2  A    between atoms: C5_5  and  C10_10 
REMARK    3  A    between atoms: C9_9  and  C11_11 
ROOT
HETATM    1  C1  UNL     1     -33.229  15.592  -6.248  1.00 20.00     0.006 C 
HETATM    2  C2  UNL     1     -33.887  16.954  -6.047  1.00 20.00     0.021 C 
HETATM    3  C3  UNL     1     -33.506  15.092  -3.790  1.00 20.00     0.010 C 
HETATM    4  C4  UNL     1     -33.684  14.553  -5.216  1.00 20.00    -0.014 C 
HETATM    5  C5  UNL     1     -34.167  16.464  -3.562  1.00 20.00     0.004 C 
HETATM    6  C6  UNL     1     -33.689  17.475  -4.621  1.00 20.00     0.086 C 
HETATM    7 CL12 UNL     1     -34.545  19.042  -4.463  1.00 20.00    -0.125 Cl
ENDROOT
BRANCH   4   8
HETATM    8  C9  UNL     1     -35.118  14.085  -5.473  1.00 20.00     0.004 C 
BRANCH   8   9
HETATM    9  C11 UNL     1     -35.258  13.470  -6.860  1.00 20.00    -0.004 C 
HETATM   10  C8  UNL     1     -36.363  14.148  -7.654  1.00 20.00     0.005 C 
ENDBRANCH   8   9
ENDBRANCH   4   8
BRANCH   5  11
HETATM   11  C10 UNL     1     -33.870  16.932  -2.132  1.00 20.00     0.001 C 
HETATM   12  C7  UNL     1     -35.113  17.004  -1.312  1.00 20.00     0.005 C 
ENDBRANCH   5  11
TORSDOF 3
ENDMDL
MODEL 7
REMARK VINA RESULT:      -4.1     10.607     11.675
REMARK  3 active torsions:
REMARK  status: ('A' for Active; 'I' for Inactive)
REMARK    1  A    between atoms: C4_4  and  C9_9 
REMARK    2  A    between atoms: C5_5  and  C10_10 
REMARK    3  A    between atoms: C9_9  and  C11_11 
ROOT
HETATM    1  C1  UNL     1     -35.428  16.484  -5.463  1.00 20.00     0.006 C 
HETATM    2  C2  UNL     1     -36.506  17.019  -4.525  1.00 20.00     0.021 C 
HETATM    3  C3  UNL     1     -33.949  15.980  -3.482  1.00 20.00     0.010 C 
HETATM    4  C4  UNL     1     -34.524  15.439  -4.798  1.00 20.00    -0.014 C 
HETATM    5  C5  UNL     1     -35.019  16.521  -2.516  1.00 20.00     0.004 C 
HETATM    6  C6  UNL     1     -35.907  17.562  -3.225  1.00 20.00     0.086 C 
HETATM    7 CL12 UNL     1     -37.246  18.108  -2.165  1.00 20.00    -0.125 Cl
ENDROOT
BRANCH   4   8
HETATM    8  C9  UNL     1     -35.248  14.106  -4.596  1.00 20.00     0.004 C 
BRANCH   8   9
HETATM    9  C11 UNL     1     -35.877  13.617  -5.896  1.00 20.00    -0.004 C 
HETATM   10  C8  UNL     1     -34.814  13.300  -6.935  1.00 20.00     0.005 C 
ENDBRANCH   8   9
ENDBRANCH   4   8
BRANCH   5  11
HETATM   11  C10 UNL     1     -34.328  17.094  -1.272  1.00 20.00     0.001 C 
HETATM   12  C7  UNL     1     -33.079  17.825  -1.630  1.00 20.00     0.005 C 
ENDBRANCH   5  11
TORSDOF 3
ENDMDL
MODEL 8
REMARK VINA RESULT:      -4.0     10.667     11.386
REMARK  3 active torsions:
REMARK  status: ('A' for Active; 'I' for Inactive)
REMARK    1  A    between atoms: C4_4  and  C9_9 
REMARK    2  A    between atoms: C5_5  and  C10_10 
REMARK    3  A    between atoms: C9_9  and  C11_11 
ROOT
HETATM    1  C1  UNL     1     -35.413  17.511  -3.308  1.00 20.00     0.006 C 
HETATM    2  C2  UNL     1     -35.957  17.157  -1.927  1.00 20.00     0.021 C 
HETATM    3  C3  UNL     1     -33.187  18.111  -2.282  1.00 20.00     0.010 C 
HETATM    4  C4  UNL     1     -33.893  17.345  -3.410  1.00 20.00    -0.014 C 
HETATM    5  C5  UNL     1     -33.716  17.766  -0.878  1.00 20.00     0.004 C 
HETATM    6  C6  UNL     1     -35.246  17.940  -0.820  1.00 20.00     0.086 C 
HETATM    7 CL12 UNL     1     -35.904  17.415   0.763  1.00 20.00    -0.125 Cl
ENDROOT
BRANCH   4   8
HETATM    8  C9  UNL     1     -33.481  15.872  -3.441  1.00 20.00     0.004 C 
BRANCH   8   9
HETATM    9  C11 UNL     1     -33.073  15.441  -4.845  1.00 20.00    -0.004 C 
HETATM   10  C8  UNL     1     -34.064  14.445  -5.424  1.00 20.00     0.005 C 
ENDBRANCH   8   9
ENDBRANCH   4   8
BRANCH   5  11
HETATM   11  C10 UNL     1     -32.991  18.635   0.159  1.00 20.00     0.001 C 
HETATM   12  C7  UNL     1     -31.513  18.458   0.079  1.00 20.00     0.005 C 
ENDBRANCH   5  11
TORSDOF 3
ENDMDL
MODEL 9
REMARK VINA RESULT:      -4.0     10.376     11.896
REMARK  3 active torsions:
REMARK  status: ('A' for Active; 'I' for Inactive)
REMARK    1  A    between atoms: C4_4  and  C9_9 
REMARK    2  A    between atoms: C5_5  and  C10_10 
REMARK    3  A    between atoms: C9_9  and  C11_11 
ROOT
HETATM    1  C1  UNL     1     -33.320  15.630  -3.807  1.00 20.00     0.006 C 
HETATM    2  C2  UNL     1     -34.243  14.456  -4.123  1.00 20.00     0.021 C 
HETATM    3  C3  UNL     1     -35.198  17.243  -4.298  1.00 20.00     0.010 C 
HETATM    4  C4  UNL     1     -34.078  16.869  -3.316  1.00 20.00    -0.014 C 
HETATM    5  C5  UNL     1     -36.145  16.074  -4.627  1.00 20.00     0.004 C 
HETATM    6  C6  UNL     1     -35.344  14.850  -5.110  1.00 20.00     0.086 C 
HETATM    7 CL12 UNL     1     -36.409  13.432  -5.371  1.00 20.00    -0.125 Cl
ENDROOT
BRANCH   4   8
HETATM    8  C9  UNL     1     -34.609  16.685  -1.893  1.00 20.00     0.004 C 
BRANCH   8   9
HETATM    9  C11 UNL     1     -34.157  17.823  -0.984  1.00 20.00    -0.004 C 
HETATM   10  C8  UNL     1     -32.685  18.139  -1.191  1.00 20.00     0.005 C 
ENDBRANCH   8   9
ENDBRANCH   4   8
BRANCH   5  11
HETATM   11  C10 UNL     1     -37.177  16.542  -5.663  1.00 20.00     0.001 C 
HETATM   12  C7  UNL     1     -36.552  16.743  -7.001  1.00 20.00     0.005 C 
ENDBRANCH   5  11
TORSDOF 3
ENDMDL
