MODEL 1
REMARK VINA RESULT:      -6.2      0.000      0.000
REMARK  4 active torsions:
REMARK  status: ('A' for Active; 'I' for Inactive)
REMARK    1  A    between atoms: C3_3  and  C7_7 
REMARK    2  A    between atoms: C3_3  and  C9_9 
REMARK    3  A    between atoms: C6_6  and  C8_8 
REMARK    4  A    between atoms: C7_7  and  C8_8 
ROOT
HETATM    1  C1  UNL     1     -33.229   9.447  -0.488  1.00 20.00     0.012 C 
HETATM    2  C2  UNL     1     -32.729   9.407   0.602  1.00 20.00    -0.117 C 
HETATM    3  C6  UNL     1     -32.116   9.361   1.938  1.00 20.00     0.093 C 
ENDROOT
BRANCH   3   4
HETATM    4  C8  UNL     1     -31.864   7.920   2.380  1.00 20.00     0.019 C 
BRANCH   4   5
HETATM    5  C7  UNL     1     -32.593   7.603   3.685  1.00 20.00     0.079 C 
BRANCH   5   6
HETATM    6  C3  UNL     1     -33.687   6.560   3.503  1.00 20.00     0.130 C 
HETATM    7  O10 UNL     1     -33.906   6.024   2.417  1.00 20.00    -0.298 OA
BRANCH   6   8
HETATM    8  C9  UNL     1     -34.521   6.235   4.742  1.00 20.00     0.047 C 
HETATM    9  C4  UNL     1     -33.958   6.935   5.976  1.00 20.00     0.017 C 
HETATM   10  C5  UNL     1     -34.572   4.727   4.946  1.00 20.00     0.017 C 
ENDBRANCH   6   8
ENDBRANCH   5   6
ENDBRANCH   4   5
ENDBRANCH   3   4
TORSDOF 4
ENDMDL
MODEL 2
REMARK VINA RESULT:      -5.8      1.414      1.542
REMARK  4 active torsions:
REMARK  status: ('A' for Active; 'I' for Inactive)
REMARK    1  A    between atoms: C3_3  and  C7_7 
REMARK    2  A    between atoms: C3_3  and  C9_9 
REMARK    3  A    between atoms: C6_6  and  C8_8 
REMARK    4  A    between atoms: C7_7  and  C8_8 
ROOT
HETATM    1  C1  UNL     1     -33.009   9.859  -0.001  1.00 20.00     0.012 C 
HETATM    2  C2  UNL     1     -32.282   9.193   0.683  1.00 20.00    -0.117 C 
HETATM    3  C6  UNL     1     -31.389   8.376   1.517  1.00 20.00     0.093 C 
ENDROOT
BRANCH   3   4
HETATM    4  C8  UNL     1     -31.923   8.257   2.944  1.00 20.00     0.019 C 
BRANCH   4   5
HETATM    5  C7  UNL     1     -33.322   7.644   2.966  1.00 20.00     0.079 C 
BRANCH   5   6
HETATM    6  C3  UNL     1     -33.657   7.001   4.305  1.00 20.00     0.130 C 
HETATM    7  O10 UNL     1     -33.291   7.490   5.374  1.00 20.00    -0.298 OA
BRANCH   6   8
HETATM    8  C9  UNL     1     -34.448   5.696   4.246  1.00 20.00     0.047 C 
HETATM    9  C4  UNL     1     -34.615   5.098   5.640  1.00 20.00     0.017 C 
HETATM   10  C5  UNL     1     -33.754   4.715   3.311  1.00 20.00     0.017 C 
ENDBRANCH   6   8
ENDBRANCH   5   6
ENDBRANCH   4   5
ENDBRANCH   3   4
TORSDOF 4
ENDMDL
MODEL 3
REMARK VINA RESULT:      -5.7      1.564      5.142
REMARK  4 active torsions:
REMARK  status: ('A' for Active; 'I' for Inactive)
REMARK    1  A    between atoms: C3_3  and  C7_7 
REMARK    2  A    between atoms: C3_3  and  C9_9 
REMARK    3  A    between atoms: C6_6  and  C8_8 
REMARK    4  A    between atoms: C7_7  and  C8_8 
ROOT
HETATM    1  C1  UNL     1     -34.827   4.993   5.337  1.00 20.00     0.012 C 
HETATM    2  C2  UNL     1     -34.280   6.007   4.999  1.00 20.00    -0.117 C 
HETATM    3  C6  UNL     1     -33.612   7.250   4.587  1.00 20.00     0.093 C 
ENDROOT
BRANCH   3   4
HETATM    4  C8  UNL     1     -33.104   7.153   3.149  1.00 20.00     0.019 C 
BRANCH   4   5
HETATM    5  C7  UNL     1     -31.908   8.074   2.918  1.00 20.00     0.079 C 
BRANCH   5   6
HETATM    6  C3  UNL     1     -31.860   8.623   1.498  1.00 20.00     0.130 C 
HETATM    7  O10 UNL     1     -30.944   8.350   0.722  1.00 20.00    -0.298 OA
BRANCH   6   8
HETATM    8  C9  UNL     1     -33.001   9.558   1.098  1.00 20.00     0.047 C 
HETATM    9  C4  UNL     1     -33.209   9.547  -0.413  1.00 20.00     0.017 C 
HETATM   10  C5  UNL     1     -32.710  10.967   1.599  1.00 20.00     0.017 C 
ENDBRANCH   6   8
ENDBRANCH   5   6
ENDBRANCH   4   5
ENDBRANCH   3   4
TORSDOF 4
ENDMDL
MODEL 4
REMARK VINA RESULT:      -5.6      1.475      4.879
REMARK  4 active torsions:
REMARK  status: ('A' for Active; 'I' for Inactive)
REMARK    1  A    between atoms: C3_3  and  C7_7 
REMARK    2  A    between atoms: C3_3  and  C9_9 
REMARK    3  A    between atoms: C6_6  and  C8_8 
REMARK    4  A    between atoms: C7_7  and  C8_8 
ROOT
HETATM    1  C1  UNL     1     -33.881   7.237   5.949  1.00 20.00     0.012 C 
HETATM    2  C2  UNL     1     -34.006   6.565   4.963  1.00 20.00    -0.117 C 
HETATM    3  C6  UNL     1     -34.162   5.739   3.756  1.00 20.00     0.093 C 
ENDROOT
BRANCH   3   4
HETATM    4  C8  UNL     1     -33.121   6.105   2.699  1.00 20.00     0.019 C 
BRANCH   4   5
HETATM    5  C7  UNL     1     -33.407   7.476   2.088  1.00 20.00     0.079 C 
BRANCH   5   6
HETATM    6  C3  UNL     1     -32.203   8.407   2.154  1.00 20.00     0.130 C 
HETATM    7  O10 UNL     1     -31.383   8.351   3.071  1.00 20.00    -0.298 OA
BRANCH   6   8
HETATM    8  C9  UNL     1     -32.085   9.436   1.032  1.00 20.00     0.047 C 
HETATM    9  C4  UNL     1     -32.605  10.798   1.485  1.00 20.00     0.017 C 
HETATM   10  C5  UNL     1     -32.839   8.946  -0.197  1.00 20.00     0.017 C 
ENDBRANCH   6   8
ENDBRANCH   5   6
ENDBRANCH   4   5
ENDBRANCH   3   4
TORSDOF 4
ENDMDL
MODEL 5
REMARK VINA RESULT:      -5.6      1.546      5.065
REMARK  4 active torsions:
REMARK  status: ('A' for Active; 'I' for Inactive)
REMARK    1  A    between atoms: C3_3  and  C7_7 
REMARK    2  A    between atoms: C3_3  and  C9_9 
REMARK    3  A    between atoms: C6_6  and  C8_8 
REMARK    4  A    between atoms: C7_7  and  C8_8 
ROOT
HETATM    1  C1  UNL     1     -34.407   4.123   4.502  1.00 20.00     0.012 C 
HETATM    2  C2  UNL     1     -34.373   5.220   4.988  1.00 20.00    -0.117 C 
HETATM    3  C6  UNL     1     -34.335   6.563   5.585  1.00 20.00     0.093 C 
ENDROOT
BRANCH   3   4
HETATM    4  C8  UNL     1     -33.232   7.413   4.958  1.00 20.00     0.019 C 
BRANCH   4   5
HETATM    5  C7  UNL     1     -33.333   7.421   3.433  1.00 20.00     0.079 C 
BRANCH   5   6
HETATM    6  C3  UNL     1     -32.203   8.203   2.778  1.00 20.00     0.130 C 
HETATM    7  O10 UNL     1     -31.116   8.370   3.332  1.00 20.00    -0.298 OA
BRANCH   6   8
HETATM    8  C9  UNL     1     -32.502   8.795   1.402  1.00 20.00     0.047 C 
HETATM    9  C4  UNL     1     -31.333   8.573   0.447  1.00 20.00     0.017 C 
HETATM   10  C5  UNL     1     -32.821  10.278   1.539  1.00 20.00     0.017 C 
ENDBRANCH   6   8
ENDBRANCH   5   6
ENDBRANCH   4   5
ENDBRANCH   3   4
TORSDOF 4
ENDMDL
MODEL 6
REMARK VINA RESULT:      -5.6      1.497      1.829
REMARK  4 active torsions:
REMARK  status: ('A' for Active; 'I' for Inactive)
REMARK    1  A    between atoms: C3_3  and  C7_7 
REMARK    2  A    between atoms: C3_3  and  C9_9 
REMARK    3  A    between atoms: C6_6  and  C8_8 
REMARK    4  A    between atoms: C7_7  and  C8_8 
ROOT
HETATM    1  C1  UNL     1     -32.803   9.575   0.276  1.00 20.00     0.012 C 
HETATM    2  C2  UNL     1     -32.247   9.016   1.181  1.00 20.00    -0.117 C 
HETATM    3  C6  UNL     1     -31.562   8.334   2.289  1.00 20.00     0.093 C 
ENDROOT
BRANCH   3   4
HETATM    4  C8  UNL     1     -32.498   7.357   2.998  1.00 20.00     0.019 C 
BRANCH   4   5
HETATM    5  C7  UNL     1     -32.826   7.828   4.414  1.00 20.00     0.079 C 
BRANCH   5   6
HETATM    6  C3  UNL     1     -33.799   6.899   5.128  1.00 20.00     0.130 C 
HETATM    7  O10 UNL     1     -34.135   7.079   6.298  1.00 20.00    -0.298 OA
BRANCH   6   8
HETATM    8  C9  UNL     1     -34.314   5.711   4.317  1.00 20.00     0.047 C 
HETATM    9  C4  UNL     1     -35.633   6.052   3.630  1.00 20.00     0.017 C 
HETATM   10  C5  UNL     1     -34.469   4.498   5.226  1.00 20.00     0.017 C 
ENDBRANCH   6   8
ENDBRANCH   5   6
ENDBRANCH   4   5
ENDBRANCH   3   4
TORSDOF 4
ENDMDL
MODEL 7
REMARK VINA RESULT:      -5.4      1.723      4.911
REMARK  4 active torsions:
REMARK  status: ('A' for Active; 'I' for Inactive)
REMARK    1  A    between atoms: C3_3  and  C7_7 
REMARK    2  A    between atoms: C3_3  and  C9_9 
REMARK    3  A    between atoms: C6_6  and  C8_8 
REMARK    4  A    between atoms: C7_7  and  C8_8 
ROOT
HETATM    1  C1  UNL     1     -33.644   7.309   5.972  1.00 20.00     0.012 C 
HETATM    2  C2  UNL     1     -33.781   7.135   4.793  1.00 20.00    -0.117 C 
HETATM    3  C6  UNL     1     -33.953   6.922   3.348  1.00 20.00     0.093 C 
ENDROOT
BRANCH   3   4
HETATM    4  C8  UNL     1     -32.608   6.945   2.624  1.00 20.00     0.019 C 
BRANCH   4   5
HETATM    5  C7  UNL     1     -32.032   8.359   2.564  1.00 20.00     0.079 C 
BRANCH   5   6
HETATM    6  C3  UNL     1     -31.674   8.784   1.147  1.00 20.00     0.130 C 
HETATM    7  O10 UNL     1     -30.822   8.193   0.482  1.00 20.00    -0.298 OA
BRANCH   6   8
HETATM    8  C9  UNL     1     -32.411  10.006   0.602  1.00 20.00     0.047 C 
HETATM    9  C4  UNL     1     -33.108  10.767   1.727  1.00 20.00     0.017 C 
HETATM   10  C5  UNL     1     -33.410   9.572  -0.462  1.00 20.00     0.017 C 
ENDBRANCH   6   8
ENDBRANCH   5   6
ENDBRANCH   4   5
ENDBRANCH   3   4
TORSDOF 4
ENDMDL
MODEL 8
REMARK VINA RESULT:      -5.3      1.250      4.637
REMARK  4 active torsions:
REMARK  status: ('A' for Active; 'I' for Inactive)
REMARK    1  A    between atoms: C3_3  and  C7_7 
REMARK    2  A    between atoms: C3_3  and  C9_9 
REMARK    3  A    between atoms: C6_6  and  C8_8 
REMARK    4  A    between atoms: C7_7  and  C8_8 
ROOT
HETATM    1  C1  UNL     1     -33.694   7.593   6.257  1.00 20.00     0.012 C 
HETATM    2  C2  UNL     1     -34.156   6.517   5.997  1.00 20.00    -0.117 C 
HETATM    3  C6  UNL     1     -34.723   5.197   5.682  1.00 20.00     0.093 C 
ENDROOT
BRANCH   3   4
HETATM    4  C8  UNL     1     -34.593   4.882   4.193  1.00 20.00     0.019 C 
BRANCH   4   5
HETATM    5  C7  UNL     1     -34.565   6.159   3.354  1.00 20.00     0.079 C 
BRANCH   5   6
HETATM    6  C3  UNL     1     -33.185   6.451   2.782  1.00 20.00     0.130 C 
HETATM    7  O10 UNL     1     -32.429   5.555   2.407  1.00 20.00    -0.298 OA
BRANCH   6   8
HETATM    8  C9  UNL     1     -32.777   7.923   2.725  1.00 20.00     0.047 C 
HETATM    9  C4  UNL     1     -32.589   8.380   1.281  1.00 20.00     0.017 C 
HETATM   10  C5  UNL     1     -31.503   8.134   3.534  1.00 20.00     0.017 C 
ENDBRANCH   6   8
ENDBRANCH   5   6
ENDBRANCH   4   5
ENDBRANCH   3   4
TORSDOF 4
ENDMDL
MODEL 9
REMARK VINA RESULT:      -5.0      1.247      4.774
REMARK  4 active torsions:
REMARK  status: ('A' for Active; 'I' for Inactive)
REMARK    1  A    between atoms: C3_3  and  C7_7 
REMARK    2  A    between atoms: C3_3  and  C9_9 
REMARK    3  A    between atoms: C6_6  and  C8_8 
REMARK    4  A    between atoms: C7_7  and  C8_8 
ROOT
HETATM    1  C1  UNL     1     -34.490   4.221   4.497  1.00 20.00     0.012 C 
HETATM    2  C2  UNL     1     -34.409   5.256   5.100  1.00 20.00    -0.117 C 
HETATM    3  C6  UNL     1     -34.312   6.522   5.840  1.00 20.00     0.093 C 
ENDROOT
BRANCH   3   4
HETATM    4  C8  UNL     1     -33.291   7.459   5.198  1.00 20.00     0.019 C 
BRANCH   4   5
HETATM    5  C7  UNL     1     -33.721   7.873   3.792  1.00 20.00     0.079 C 
BRANCH   5   6
HETATM    6  C3  UNL     1     -32.642   7.611   2.750  1.00 20.00     0.130 C 
HETATM    7  O10 UNL     1     -32.237   6.476   2.499  1.00 20.00    -0.298 OA
BRANCH   6   8
HETATM    8  C9  UNL     1     -32.066   8.842   2.052  1.00 20.00     0.047 C 
HETATM    9  C4  UNL     1     -33.160   9.867   1.765  1.00 20.00     0.017 C 
HETATM   10  C5  UNL     1     -31.363   8.422   0.767  1.00 20.00     0.017 C 
ENDBRANCH   6   8
ENDBRANCH   5   6
ENDBRANCH   4   5
ENDBRANCH   3   4
TORSDOF 4
ENDMDL
