MODEL 1
REMARK VINA RESULT:      -6.0      0.000      0.000
REMARK  4 active torsions:
REMARK  status: ('A' for Active; 'I' for Inactive)
REMARK    1  A    between atoms: C3_3  and  C6_6 
REMARK    2  A    between atoms: C3_3  and  C7_7 
REMARK    3  A    between atoms: C5_5  and  C8_8 
REMARK    4  A    between atoms: C7_7  and  C8_8 
ROOT
HETATM    1  C1  UNL     1     -32.248   9.166   0.870  1.00 20.00     0.012 C 
HETATM    2  C2  UNL     1     -32.256   8.449   1.834  1.00 20.00    -0.117 C 
HETATM    3  C5  UNL     1     -32.262   7.576   3.015  1.00 20.00     0.093 C 
ENDROOT
BRANCH   3   4
HETATM    4  C8  UNL     1     -32.984   6.258   2.721  1.00 20.00     0.019 C 
BRANCH   4   5
HETATM    5  C7  UNL     1     -34.363   6.189   3.376  1.00 20.00     0.079 C 
BRANCH   5   6
HETATM    6  C3  UNL     1     -34.466   5.155   4.488  1.00 20.00     0.126 C 
HETATM    7  O9  UNL     1     -34.543   3.949   4.259  1.00 20.00    -0.298 OA
BRANCH   6   8
HETATM    8  C6  UNL     1     -34.502   5.715   5.900  1.00 20.00     0.074 C 
HETATM    9  C4  UNL     1     -33.934   7.121   5.988  1.00 20.00     0.013 C 
ENDBRANCH   6   8
ENDBRANCH   5   6
ENDBRANCH   4   5
ENDBRANCH   3   4
TORSDOF 4
ENDMDL
MODEL 2
REMARK VINA RESULT:      -6.0      1.534      1.913
REMARK  4 active torsions:
REMARK  status: ('A' for Active; 'I' for Inactive)
REMARK    1  A    between atoms: C3_3  and  C6_6 
REMARK    2  A    between atoms: C3_3  and  C7_7 
REMARK    3  A    between atoms: C5_5  and  C8_8 
REMARK    4  A    between atoms: C7_7  and  C8_8 
ROOT
HETATM    1  C1  UNL     1     -32.524   9.631   0.635  1.00 20.00     0.012 C 
HETATM    2  C2  UNL     1     -32.227   9.007   1.617  1.00 20.00    -0.117 C 
HETATM    3  C5  UNL     1     -31.861   8.246   2.820  1.00 20.00     0.093 C 
ENDROOT
BRANCH   3   4
HETATM    4  C8  UNL     1     -32.651   6.938   2.905  1.00 20.00     0.019 C 
BRANCH   4   5
HETATM    5  C7  UNL     1     -33.986   7.107   3.629  1.00 20.00     0.079 C 
BRANCH   5   6
HETATM    6  C3  UNL     1     -33.936   6.747   5.106  1.00 20.00     0.126 C 
HETATM    7  O9  UNL     1     -33.319   7.423   5.927  1.00 20.00    -0.298 OA
BRANCH   6   8
HETATM    8  C6  UNL     1     -34.672   5.475   5.494  1.00 20.00     0.074 C 
HETATM    9  C4  UNL     1     -34.413   4.331   4.531  1.00 20.00     0.013 C 
ENDBRANCH   6   8
ENDBRANCH   5   6
ENDBRANCH   4   5
ENDBRANCH   3   4
TORSDOF 4
ENDMDL
MODEL 3
REMARK VINA RESULT:      -5.7      1.953      4.583
REMARK  4 active torsions:
REMARK  status: ('A' for Active; 'I' for Inactive)
REMARK    1  A    between atoms: C3_3  and  C6_6 
REMARK    2  A    between atoms: C3_3  and  C7_7 
REMARK    3  A    between atoms: C5_5  and  C8_8 
REMARK    4  A    between atoms: C7_7  and  C8_8 
ROOT
HETATM    1  C1  UNL     1     -33.853   7.309   6.068  1.00 20.00     0.012 C 
HETATM    2  C2  UNL     1     -34.043   6.578   5.134  1.00 20.00    -0.117 C 
HETATM    3  C5  UNL     1     -34.277   5.682   3.993  1.00 20.00     0.093 C 
ENDROOT
BRANCH   3   4
HETATM    4  C8  UNL     1     -33.288   5.964   2.860  1.00 20.00     0.019 C 
BRANCH   4   5
HETATM    5  C7  UNL     1     -33.419   7.383   2.309  1.00 20.00     0.079 C 
BRANCH   5   6
HETATM    6  C3  UNL     1     -32.121   8.177   2.334  1.00 20.00     0.126 C 
HETATM    7  O9  UNL     1     -31.387   8.206   3.320  1.00 20.00    -0.298 OA
BRANCH   6   8
HETATM    8  C6  UNL     1     -31.808   8.959   1.069  1.00 20.00     0.074 C 
HETATM    9  C4  UNL     1     -32.626  10.233   0.950  1.00 20.00     0.013 C 
ENDBRANCH   6   8
ENDBRANCH   5   6
ENDBRANCH   4   5
ENDBRANCH   3   4
TORSDOF 4
ENDMDL
MODEL 4
REMARK VINA RESULT:      -5.6      1.114      1.669
REMARK  4 active torsions:
REMARK  status: ('A' for Active; 'I' for Inactive)
REMARK    1  A    between atoms: C3_3  and  C6_6 
REMARK    2  A    between atoms: C3_3  and  C7_7 
REMARK    3  A    between atoms: C5_5  and  C8_8 
REMARK    4  A    between atoms: C7_7  and  C8_8 
ROOT
HETATM    1  C1  UNL     1     -32.947   9.482  -0.413  1.00 20.00     0.012 C 
HETATM    2  C2  UNL     1     -32.596   9.307   0.722  1.00 20.00    -0.117 C 
HETATM    3  C5  UNL     1     -32.168   9.097   2.112  1.00 20.00     0.093 C 
ENDROOT
BRANCH   3   4
HETATM    4  C8  UNL     1     -32.166   7.608   2.468  1.00 20.00     0.019 C 
BRANCH   4   5
HETATM    5  C7  UNL     1     -33.306   7.233   3.413  1.00 20.00     0.079 C 
BRANCH   5   6
HETATM    6  C3  UNL     1     -33.680   5.758   3.372  1.00 20.00     0.126 C 
HETATM    7  O9  UNL     1     -33.142   4.965   2.602  1.00 20.00    -0.298 OA
BRANCH   6   8
HETATM    8  C6  UNL     1     -34.789   5.338   4.323  1.00 20.00     0.074 C 
HETATM    9  C4  UNL     1     -34.544   5.799   5.749  1.00 20.00     0.013 C 
ENDBRANCH   6   8
ENDBRANCH   5   6
ENDBRANCH   4   5
ENDBRANCH   3   4
TORSDOF 4
ENDMDL
MODEL 5
REMARK VINA RESULT:      -5.5      2.074      4.745
REMARK  4 active torsions:
REMARK  status: ('A' for Active; 'I' for Inactive)
REMARK    1  A    between atoms: C3_3  and  C6_6 
REMARK    2  A    between atoms: C3_3  and  C7_7 
REMARK    3  A    between atoms: C5_5  and  C8_8 
REMARK    4  A    between atoms: C7_7  and  C8_8 
ROOT
HETATM    1  C1  UNL     1     -34.428   4.170   4.493  1.00 20.00     0.012 C 
HETATM    2  C2  UNL     1     -34.397   5.237   5.043  1.00 20.00    -0.117 C 
HETATM    3  C5  UNL     1     -34.363   6.542   5.718  1.00 20.00     0.093 C 
ENDROOT
BRANCH   3   4
HETATM    4  C8  UNL     1     -33.323   7.465   5.078  1.00 20.00     0.019 C 
BRANCH   4   5
HETATM    5  C7  UNL     1     -33.391   7.452   3.551  1.00 20.00     0.079 C 
BRANCH   5   6
HETATM    6  C3  UNL     1     -32.188   8.093   2.875  1.00 20.00     0.126 C 
HETATM    7  O9  UNL     1     -31.121   8.269   3.461  1.00 20.00    -0.298 OA
BRANCH   6   8
HETATM    8  C6  UNL     1     -32.404   8.532   1.437  1.00 20.00     0.074 C 
HETATM    9  C4  UNL     1     -32.545  10.038   1.298  1.00 20.00     0.013 C 
ENDBRANCH   6   8
ENDBRANCH   5   6
ENDBRANCH   4   5
ENDBRANCH   3   4
TORSDOF 4
ENDMDL
MODEL 6
REMARK VINA RESULT:      -5.5      1.368      3.791
REMARK  4 active torsions:
REMARK  status: ('A' for Active; 'I' for Inactive)
REMARK    1  A    between atoms: C3_3  and  C6_6 
REMARK    2  A    between atoms: C3_3  and  C7_7 
REMARK    3  A    between atoms: C5_5  and  C8_8 
REMARK    4  A    between atoms: C7_7  and  C8_8 
ROOT
HETATM    1  C1  UNL     1     -33.684   7.598   6.121  1.00 20.00     0.012 C 
HETATM    2  C2  UNL     1     -34.098   6.476   6.005  1.00 20.00    -0.117 C 
HETATM    3  C5  UNL     1     -34.605   5.104   5.868  1.00 20.00     0.093 C 
ENDROOT
BRANCH   3   4
HETATM    4  C8  UNL     1     -34.832   4.746   4.397  1.00 20.00     0.019 C 
BRANCH   4   5
HETATM    5  C7  UNL     1     -34.712   5.959   3.476  1.00 20.00     0.079 C 
BRANCH   5   6
HETATM    6  C3  UNL     1     -33.380   6.049   2.745  1.00 20.00     0.126 C 
HETATM    7  O9  UNL     1     -32.685   5.059   2.520  1.00 20.00    -0.298 OA
BRANCH   6   8
HETATM    8  C6  UNL     1     -32.948   7.449   2.343  1.00 20.00     0.074 C 
HETATM    9  C4  UNL     1     -31.775   7.959   3.161  1.00 20.00     0.013 C 
ENDBRANCH   6   8
ENDBRANCH   5   6
ENDBRANCH   4   5
ENDBRANCH   3   4
TORSDOF 4
ENDMDL
MODEL 7
REMARK VINA RESULT:      -5.5      2.435      5.028
REMARK  4 active torsions:
REMARK  status: ('A' for Active; 'I' for Inactive)
REMARK    1  A    between atoms: C3_3  and  C6_6 
REMARK    2  A    between atoms: C3_3  and  C7_7 
REMARK    3  A    between atoms: C5_5  and  C8_8 
REMARK    4  A    between atoms: C7_7  and  C8_8 
ROOT
HETATM    1  C1  UNL     1     -33.806   7.219   5.996  1.00 20.00     0.012 C 
HETATM    2  C2  UNL     1     -33.891   6.898   4.842  1.00 20.00    -0.117 C 
HETATM    3  C5  UNL     1     -33.999   6.503   3.431  1.00 20.00     0.093 C 
ENDROOT
BRANCH   3   4
HETATM    4  C8  UNL     1     -32.671   6.710   2.698  1.00 20.00     0.019 C 
BRANCH   4   5
HETATM    5  C7  UNL     1     -32.183   8.156   2.772  1.00 20.00     0.079 C 
BRANCH   5   6
HETATM    6  C3  UNL     1     -31.924   8.790   1.413  1.00 20.00     0.126 C 
HETATM    7  O9  UNL     1     -30.987   8.445   0.695  1.00 20.00    -0.298 OA
BRANCH   6   8
HETATM    8  C6  UNL     1     -32.880   9.903   1.018  1.00 20.00     0.074 C 
HETATM    9  C4  UNL     1     -33.341   9.794  -0.425  1.00 20.00     0.013 C 
ENDBRANCH   6   8
ENDBRANCH   5   6
ENDBRANCH   4   5
ENDBRANCH   3   4
TORSDOF 4
ENDMDL
MODEL 8
REMARK VINA RESULT:      -4.8      2.149      4.411
REMARK  4 active torsions:
REMARK  status: ('A' for Active; 'I' for Inactive)
REMARK    1  A    between atoms: C3_3  and  C6_6 
REMARK    2  A    between atoms: C3_3  and  C7_7 
REMARK    3  A    between atoms: C5_5  and  C8_8 
REMARK    4  A    between atoms: C7_7  and  C8_8 
ROOT
HETATM    1  C1  UNL     1     -34.814   4.581   5.441  1.00 20.00     0.012 C 
HETATM    2  C2  UNL     1     -34.416   5.667   5.764  1.00 20.00    -0.117 C 
HETATM    3  C5  UNL     1     -33.928   6.995   6.164  1.00 20.00     0.093 C 
ENDROOT
BRANCH   3   4
HETATM    4  C8  UNL     1     -33.759   7.908   4.946  1.00 20.00     0.019 C 
BRANCH   4   5
HETATM    5  C7  UNL     1     -32.533   7.545   4.110  1.00 20.00     0.079 C 
BRANCH   5   6
HETATM    6  C3  UNL     1     -32.826   7.373   2.627  1.00 20.00     0.126 C 
HETATM    7  O9  UNL     1     -32.434   8.176   1.782  1.00 20.00    -0.298 OA
BRANCH   6   8
HETATM    8  C6  UNL     1     -33.667   6.161   2.263  1.00 20.00     0.074 C 
HETATM    9  C4  UNL     1     -32.951   4.849   2.532  1.00 20.00     0.013 C 
ENDBRANCH   6   8
ENDBRANCH   5   6
ENDBRANCH   4   5
ENDBRANCH   3   4
TORSDOF 4
ENDMDL
MODEL 9
REMARK VINA RESULT:      -4.6      2.184      4.140
REMARK  4 active torsions:
REMARK  status: ('A' for Active; 'I' for Inactive)
REMARK    1  A    between atoms: C3_3  and  C6_6 
REMARK    2  A    between atoms: C3_3  and  C7_7 
REMARK    3  A    between atoms: C5_5  and  C8_8 
REMARK    4  A    between atoms: C7_7  and  C8_8 
ROOT
HETATM    1  C1  UNL     1     -34.750   5.371   5.888  1.00 20.00     0.012 C 
HETATM    2  C2  UNL     1     -34.402   4.844   4.866  1.00 20.00    -0.117 C 
HETATM    3  C5  UNL     1     -33.978   4.197   3.617  1.00 20.00     0.093 C 
ENDROOT
BRANCH   3   4
HETATM    4  C8  UNL     1     -33.147   5.153   2.757  1.00 20.00     0.019 C 
BRANCH   4   5
HETATM    5  C7  UNL     1     -33.731   6.564   2.721  1.00 20.00     0.079 C 
BRANCH   5   6
HETATM    6  C3  UNL     1     -32.694   7.655   2.500  1.00 20.00     0.126 C 
HETATM    7  O9  UNL     1     -32.563   8.229   1.420  1.00 20.00    -0.298 OA
BRANCH   6   8
HETATM    8  C6  UNL     1     -31.806   7.965   3.694  1.00 20.00     0.074 C 
HETATM    9  C4  UNL     1     -32.593   8.143   4.980  1.00 20.00     0.013 C 
ENDBRANCH   6   8
ENDBRANCH   5   6
ENDBRANCH   4   5
ENDBRANCH   3   4
TORSDOF 4
ENDMDL
