MODEL 1
REMARK VINA RESULT:      -4.6      0.000      0.000
REMARK  2 active torsions:
REMARK  status: ('A' for Active; 'I' for Inactive)
REMARK    1  A    between atoms: C5_5  and  N8_8 
REMARK    2  A    between atoms: C6_6  and  N8_8 
ROOT
HETATM    1  N8  UNL     1     -33.238   8.106   2.217  1.00 20.00     0.097 N 
HETATM    2  H22 UNL     1     -34.010   8.616   2.639  1.00 20.00     0.317 HD
ENDROOT
BRANCH   1   3
HETATM    3  C5  UNL     1     -32.207   9.066   1.809  1.00 20.00     0.225 A 
HETATM    4  C1  UNL     1     -32.584  10.495   1.517  1.00 20.00     0.042 A 
HETATM    5  C4  UNL     1     -32.135   9.596   0.398  1.00 20.00     0.016 A 
HETATM    6  C7  UNL     1     -33.100   9.176  -0.657  1.00 20.00     0.012 C 
ENDBRANCH   1   3
BRANCH   1   7
HETATM    7  C6  UNL     1     -32.701   7.153   3.173  1.00 20.00     0.268 C 
HETATM    8  C2  UNL     1     -33.313   5.782   2.896  1.00 20.00     0.205 C 
HETATM    9  O9  UNL     1     -34.285   5.958   3.959  1.00 20.00    -0.387 OA
HETATM   10  C3  UNL     1     -33.593   7.148   4.414  1.00 20.00     0.205 C 
ENDBRANCH   1   7
TORSDOF 2
ENDMDL
MODEL 2
REMARK VINA RESULT:      -4.5      2.155      4.613
REMARK  2 active torsions:
REMARK  status: ('A' for Active; 'I' for Inactive)
REMARK    1  A    between atoms: C5_5  and  N8_8 
REMARK    2  A    between atoms: C6_6  and  N8_8 
ROOT
HETATM    1  N8  UNL     1     -33.335   6.779   3.263  1.00 20.00     0.097 N 
HETATM    2  H22 UNL     1     -32.553   6.237   3.621  1.00 20.00     0.317 HD
ENDROOT
BRANCH   1   3
HETATM    3  C5  UNL     1     -34.463   6.646   4.189  1.00 20.00     0.225 A 
HETATM    4  C1  UNL     1     -34.212   6.325   5.640  1.00 20.00     0.042 A 
HETATM    5  C4  UNL     1     -34.870   5.306   4.752  1.00 20.00     0.016 A 
HETATM    6  C7  UNL     1     -34.153   4.048   4.398  1.00 20.00     0.012 C 
ENDBRANCH   1   3
BRANCH   1   7
HETATM    7  C6  UNL     1     -32.944   8.172   3.130  1.00 20.00     0.268 C 
HETATM    8  C2  UNL     1     -32.810   8.504   1.645  1.00 20.00     0.205 C 
HETATM    9  O9  UNL     1     -31.369   8.339   1.699  1.00 20.00    -0.387 OA
HETATM   10  C3  UNL     1     -31.418   8.256   3.145  1.00 20.00     0.205 C 
ENDBRANCH   1   7
TORSDOF 2
ENDMDL
MODEL 3
REMARK VINA RESULT:      -4.5      1.371      2.200
REMARK  2 active torsions:
REMARK  status: ('A' for Active; 'I' for Inactive)
REMARK    1  A    between atoms: C5_5  and  N8_8 
REMARK    2  A    between atoms: C6_6  and  N8_8 
ROOT
HETATM    1  N8  UNL     1     -33.756   7.341   3.425  1.00 20.00     0.097 N 
HETATM    2  H22 UNL     1     -33.748   7.413   4.440  1.00 20.00     0.317 HD
ENDROOT
BRANCH   1   3
HETATM    3  C5  UNL     1     -32.371   7.295   2.946  1.00 20.00     0.225 A 
HETATM    4  C1  UNL     1     -31.379   8.330   3.412  1.00 20.00     0.042 A 
HETATM    5  C4  UNL     1     -31.835   8.323   1.979  1.00 20.00     0.016 A 
HETATM    6  C7  UNL     1     -32.679   9.435   1.457  1.00 20.00     0.012 C 
ENDBRANCH   1   3
BRANCH   1   7
HETATM    7  C6  UNL     1     -34.475   6.143   3.027  1.00 20.00     0.268 C 
HETATM    8  C2  UNL     1     -35.142   5.538   4.260  1.00 20.00     0.205 C 
HETATM    9  O9  UNL     1     -34.070   4.572   4.414  1.00 20.00    -0.387 OA
HETATM   10  C3  UNL     1     -33.527   4.948   3.123  1.00 20.00     0.205 C 
ENDBRANCH   1   7
TORSDOF 2
ENDMDL
MODEL 4
REMARK VINA RESULT:      -4.2      2.130      4.290
REMARK  2 active torsions:
REMARK  status: ('A' for Active; 'I' for Inactive)
REMARK    1  A    between atoms: C5_5  and  N8_8 
REMARK    2  A    between atoms: C6_6  and  N8_8 
ROOT
HETATM    1  N8  UNL     1     -32.546   7.335   2.532  1.00 20.00     0.097 N 
HETATM    2  H22 UNL     1     -31.870   6.722   2.983  1.00 20.00     0.317 HD
ENDROOT
BRANCH   1   3
HETATM    3  C5  UNL     1     -33.691   7.513   3.429  1.00 20.00     0.225 A 
HETATM    4  C1  UNL     1     -33.558   7.187   4.894  1.00 20.00     0.042 A 
HETATM    5  C4  UNL     1     -34.428   6.333   4.014  1.00 20.00     0.016 A 
HETATM    6  C7  UNL     1     -34.036   4.927   3.714  1.00 20.00     0.012 C 
ENDBRANCH   1   3
BRANCH   1   7
HETATM    7  C6  UNL     1     -31.923   8.614   2.237  1.00 20.00     0.268 C 
HETATM    8  C2  UNL     1     -32.974   9.544   1.634  1.00 20.00     0.205 C 
HETATM    9  O9  UNL     1     -32.508   9.262   0.289  1.00 20.00    -0.387 OA
HETATM   10  C3  UNL     1     -31.352   8.567   0.820  1.00 20.00     0.205 C 
ENDBRANCH   1   7
TORSDOF 2
ENDMDL
MODEL 5
REMARK VINA RESULT:      -3.6      9.726     10.565
REMARK  2 active torsions:
REMARK  status: ('A' for Active; 'I' for Inactive)
REMARK    1  A    between atoms: C5_5  and  N8_8 
REMARK    2  A    between atoms: C6_6  and  N8_8 
ROOT
HETATM    1  N8  UNL     1     -34.074  16.643  -4.316  1.00 20.00     0.097 N 
HETATM    2  H22 UNL     1     -35.021  16.516  -4.666  1.00 20.00     0.317 HD
ENDROOT
BRANCH   1   3
HETATM    3  C5  UNL     1     -34.037  16.246  -2.906  1.00 20.00     0.225 A 
HETATM    4  C1  UNL     1     -35.038  16.819  -1.936  1.00 20.00     0.042 A 
HETATM    5  C4  UNL     1     -33.588  17.202  -1.827  1.00 20.00     0.016 A 
HETATM    6  C7  UNL     1     -33.158  18.596  -2.133  1.00 20.00     0.012 C 
ENDBRANCH   1   3
BRANCH   1   7
HETATM    7  C6  UNL     1     -33.153  15.838  -5.099  1.00 20.00     0.268 C 
HETATM    8  C2  UNL     1     -33.939  15.116  -6.191  1.00 20.00     0.205 C 
HETATM    9  O9  UNL     1     -33.985  13.896  -5.407  1.00 20.00    -0.387 OA
HETATM   10  C3  UNL     1     -33.043  14.455  -4.457  1.00 20.00     0.205 C 
ENDBRANCH   1   7
TORSDOF 2
ENDMDL
MODEL 6
REMARK VINA RESULT:      -3.6      9.998     10.448
REMARK  2 active torsions:
REMARK  status: ('A' for Active; 'I' for Inactive)
REMARK    1  A    between atoms: C5_5  and  N8_8 
REMARK    2  A    between atoms: C6_6  and  N8_8 
ROOT
HETATM    1  N8  UNL     1     -34.888  15.505  -4.597  1.00 20.00     0.097 N 
HETATM    2  H22 UNL     1     -34.423  16.348  -4.929  1.00 20.00     0.317 HD
ENDROOT
BRANCH   1   3
HETATM    3  C5  UNL     1     -35.713  15.850  -3.436  1.00 20.00     0.225 A 
HETATM    4  C1  UNL     1     -36.085  17.287  -3.176  1.00 20.00     0.042 A 
HETATM    5  C4  UNL     1     -35.138  16.580  -2.246  1.00 20.00     0.016 A 
HETATM    6  C7  UNL     1     -33.706  16.989  -2.184  1.00 20.00     0.012 C 
ENDBRANCH   1   3
BRANCH   1   7
HETATM    7  C6  UNL     1     -35.708  14.950  -5.660  1.00 20.00     0.268 C 
HETATM    8  C2  UNL     1     -36.752  14.024  -5.041  1.00 20.00     0.205 C 
HETATM    9  O9  UNL     1     -35.954  12.852  -5.351  1.00 20.00    -0.387 OA
HETATM   10  C3  UNL     1     -35.058  13.659  -6.157  1.00 20.00     0.205 C 
ENDBRANCH   1   7
TORSDOF 2
ENDMDL
MODEL 7
REMARK VINA RESULT:      -3.5      9.494     10.286
REMARK  2 active torsions:
REMARK  status: ('A' for Active; 'I' for Inactive)
REMARK    1  A    between atoms: C5_5  and  N8_8 
REMARK    2  A    between atoms: C6_6  and  N8_8 
ROOT
HETATM    1  N8  UNL     1     -34.095  16.586  -3.483  1.00 20.00     0.097 N 
HETATM    2  H22 UNL     1     -34.115  17.565  -3.760  1.00 20.00     0.317 HD
ENDROOT
BRANCH   1   3
HETATM    3  C5  UNL     1     -35.165  16.353  -2.508  1.00 20.00     0.225 A 
HETATM    4  C1  UNL     1     -36.119  17.465  -2.157  1.00 20.00     0.042 A 
HETATM    5  C4  UNL     1     -35.131  16.976  -1.134  1.00 20.00     0.016 A 
HETATM    6  C7  UNL     1     -34.015  17.858  -0.691  1.00 20.00     0.012 C 
ENDBRANCH   1   3
BRANCH   1   7
HETATM    7  C6  UNL     1     -34.276  15.744  -4.653  1.00 20.00     0.268 C 
HETATM    8  C2  UNL     1     -34.610  14.327  -4.190  1.00 20.00     0.205 C 
HETATM    9  O9  UNL     1     -33.235  13.902  -4.375  1.00 20.00    -0.387 OA
HETATM   10  C3  UNL     1     -32.923  15.150  -5.043  1.00 20.00     0.205 C 
ENDBRANCH   1   7
TORSDOF 2
ENDMDL
MODEL 8
REMARK VINA RESULT:      -3.4      9.866     10.726
REMARK  2 active torsions:
REMARK  status: ('A' for Active; 'I' for Inactive)
REMARK    1  A    between atoms: C5_5  and  N8_8 
REMARK    2  A    between atoms: C6_6  and  N8_8 
ROOT
HETATM    1  N8  UNL     1     -36.451  15.890  -3.768  1.00 20.00     0.097 N 
HETATM    2  H22 UNL     1     -36.420  15.014  -3.251  1.00 20.00     0.317 HD
ENDROOT
BRANCH   1   3
HETATM    3  C5  UNL     1     -35.077  16.316  -4.051  1.00 20.00     0.225 A 
HETATM    4  C1  UNL     1     -33.916  15.481  -3.574  1.00 20.00     0.042 A 
HETATM    5  C4  UNL     1     -34.169  16.831  -2.961  1.00 20.00     0.016 A 
HETATM    6  C7  UNL     1     -34.614  16.937  -1.543  1.00 20.00     0.012 C 
ENDBRANCH   1   3
BRANCH   1   7
HETATM    7  C6  UNL     1     -37.193  15.703  -5.002  1.00 20.00     0.268 C 
HETATM    8  C2  UNL     1     -38.572  15.139  -4.664  1.00 20.00     0.205 C 
HETATM    9  O9  UNL     1     -38.141  13.791  -4.984  1.00 20.00    -0.387 OA
HETATM   10  C3  UNL     1     -36.904  14.302  -5.541  1.00 20.00     0.205 C 
ENDBRANCH   1   7
TORSDOF 2
ENDMDL
MODEL 9
REMARK VINA RESULT:      -3.3     10.850     11.610
REMARK  2 active torsions:
REMARK  status: ('A' for Active; 'I' for Inactive)
REMARK    1  A    between atoms: C5_5  and  N8_8 
REMARK    2  A    between atoms: C6_6  and  N8_8 
ROOT
HETATM    1  N8  UNL     1     -42.101   4.076  -2.125  1.00 20.00     0.097 N 
HETATM    2  H22 UNL     1     -41.871   4.832  -2.765  1.00 20.00     0.317 HD
ENDROOT
BRANCH   1   3
HETATM    3  C5  UNL     1     -42.964   4.604  -1.064  1.00 20.00     0.225 A 
HETATM    4  C1  UNL     1     -43.403   6.045  -1.099  1.00 20.00     0.042 A 
HETATM    5  C4  UNL     1     -42.446   5.580  -0.036  1.00 20.00     0.016 A 
HETATM    6  C7  UNL     1     -41.035   6.059  -0.039  1.00 20.00     0.012 C 
ENDBRANCH   1   3
BRANCH   1   7
HETATM    7  C6  UNL     1     -42.773   3.011  -2.849  1.00 20.00     0.268 C 
HETATM    8  C2  UNL     1     -41.781   2.379  -3.823  1.00 20.00     0.205 C 
HETATM    9  O9  UNL     1     -42.311   3.157  -4.927  1.00 20.00    -0.387 OA
HETATM   10  C3  UNL     1     -43.417   3.601  -4.102  1.00 20.00     0.205 C 
ENDBRANCH   1   7
TORSDOF 2
ENDMDL
