MODEL 1
REMARK VINA RESULT:      -4.8      0.000      0.000
REMARK  2 active torsions:
REMARK  status: ('A' for Active; 'I' for Inactive)
REMARK    1  A    between atoms: C5_5  and  N8_8 
REMARK    2  A    between atoms: C6_6  and  N8_8 
ROOT
HETATM    1  N8  UNL     1     -33.638   7.243   3.621  1.00 20.00     0.097 N 
HETATM    2  H22 UNL     1     -33.432   7.257   4.616  1.00 20.00     0.317 HD
ENDROOT
BRANCH   1   3
HETATM    3  C5  UNL     1     -34.405   6.030   3.317  1.00 20.00     0.225 A 
HETATM    4  C1  UNL     1     -33.764   4.672   3.436  1.00 20.00     0.042 A 
HETATM    5  C4  UNL     1     -34.857   5.071   4.390  1.00 20.00     0.016 A 
HETATM    6  C7  UNL     1     -34.551   5.283   5.833  1.00 20.00     0.012 C 
ENDBRANCH   1   3
BRANCH   1   7
HETATM    7  C6  UNL     1     -32.398   7.268   2.864  1.00 20.00     0.268 C 
HETATM    8  C2  UNL     1     -31.462   8.298   3.493  1.00 20.00     0.205 C 
HETATM    9  O9  UNL     1     -31.825   9.292   2.501  1.00 20.00    -0.387 OA
HETATM   10  C3  UNL     1     -32.536   8.287   1.733  1.00 20.00     0.205 C 
ENDBRANCH   1   7
TORSDOF 2
ENDMDL
MODEL 2
REMARK VINA RESULT:      -4.5      2.138      4.614
REMARK  2 active torsions:
REMARK  status: ('A' for Active; 'I' for Inactive)
REMARK    1  A    between atoms: C5_5  and  N8_8 
REMARK    2  A    between atoms: C6_6  and  N8_8 
ROOT
HETATM    1  N8  UNL     1     -33.252   7.806   2.120  1.00 20.00     0.097 N 
HETATM    2  H22 UNL     1     -33.378   7.286   1.255  1.00 20.00     0.317 HD
ENDROOT
BRANCH   1   3
HETATM    3  C5  UNL     1     -32.267   8.868   1.892  1.00 20.00     0.225 A 
HETATM    4  C1  UNL     1     -31.203   8.708   0.837  1.00 20.00     0.042 A 
HETATM    5  C4  UNL     1     -32.287   9.737   0.659  1.00 20.00     0.016 A 
HETATM    6  C7  UNL     1     -33.304   9.573  -0.418  1.00 20.00     0.012 C 
ENDBRANCH   1   3
BRANCH   1   7
HETATM    7  C6  UNL     1     -32.804   6.908   3.170  1.00 20.00     0.268 C 
HETATM    8  C2  UNL     1     -33.470   5.548   2.968  1.00 20.00     0.205 C 
HETATM    9  O9  UNL     1     -34.478   5.849   3.966  1.00 20.00    -0.387 OA
HETATM   10  C3  UNL     1     -33.750   7.039   4.364  1.00 20.00     0.205 C 
ENDBRANCH   1   7
TORSDOF 2
ENDMDL
MODEL 3
REMARK VINA RESULT:      -4.3      2.093      4.288
REMARK  2 active torsions:
REMARK  status: ('A' for Active; 'I' for Inactive)
REMARK    1  A    between atoms: C5_5  and  N8_8 
REMARK    2  A    between atoms: C6_6  and  N8_8 
ROOT
HETATM    1  N8  UNL     1     -33.030   6.236   2.931  1.00 20.00     0.097 N 
HETATM    2  H22 UNL     1     -32.300   5.675   3.365  1.00 20.00     0.317 HD
ENDROOT
BRANCH   1   3
HETATM    3  C5  UNL     1     -32.855   7.633   3.339  1.00 20.00     0.225 A 
HETATM    4  C1  UNL     1     -31.482   8.171   3.650  1.00 20.00     0.042 A 
HETATM    5  C4  UNL     1     -32.224   8.665   2.437  1.00 20.00     0.016 A 
HETATM    6  C7  UNL     1     -31.726   8.336   1.072  1.00 20.00     0.012 C 
ENDBRANCH   1   3
BRANCH   1   7
HETATM    7  C6  UNL     1     -34.333   5.742   3.339  1.00 20.00     0.268 C 
HETATM    8  C2  UNL     1     -34.628   6.244   4.751  1.00 20.00     0.205 C 
HETATM    9  O9  UNL     1     -34.217   4.978   5.329  1.00 20.00    -0.387 OA
HETATM   10  C3  UNL     1     -34.153   4.379   4.009  1.00 20.00     0.205 C 
ENDBRANCH   1   7
TORSDOF 2
ENDMDL
MODEL 4
REMARK VINA RESULT:      -4.2      1.602      2.310
REMARK  2 active torsions:
REMARK  status: ('A' for Active; 'I' for Inactive)
REMARK    1  A    between atoms: C5_5  and  N8_8 
REMARK    2  A    between atoms: C6_6  and  N8_8 
ROOT
HETATM    1  N8  UNL     1     -33.128   7.929   2.273  1.00 20.00     0.097 N 
HETATM    2  H22 UNL     1     -34.047   8.339   2.421  1.00 20.00     0.317 HD
ENDROOT
BRANCH   1   3
HETATM    3  C5  UNL     1     -32.754   7.170   3.470  1.00 20.00     0.225 A 
HETATM    4  C1  UNL     1     -33.348   7.516   4.810  1.00 20.00     0.042 A 
HETATM    5  C4  UNL     1     -33.702   6.212   4.148  1.00 20.00     0.016 A 
HETATM    6  C7  UNL     1     -35.088   5.975   3.654  1.00 20.00     0.012 C 
ENDBRANCH   1   3
BRANCH   1   7
HETATM    7  C6  UNL     1     -32.161   8.980   2.009  1.00 20.00     0.268 C 
HETATM    8  C2  UNL     1     -32.863  10.119   1.271  1.00 20.00     0.205 C 
HETATM    9  O9  UNL     1     -32.365   9.649  -0.008  1.00 20.00    -0.387 OA
HETATM   10  C3  UNL     1     -31.492   8.703   0.662  1.00 20.00     0.205 C 
ENDBRANCH   1   7
TORSDOF 2
ENDMDL
MODEL 5
REMARK VINA RESULT:      -3.7     11.574     12.039
REMARK  2 active torsions:
REMARK  status: ('A' for Active; 'I' for Inactive)
REMARK    1  A    between atoms: C5_5  and  N8_8 
REMARK    2  A    between atoms: C6_6  and  N8_8 
ROOT
HETATM    1  N8  UNL     1     -35.735  15.524  -3.912  1.00 20.00     0.097 N 
HETATM    2  H22 UNL     1     -36.332  16.342  -3.812  1.00 20.00     0.317 HD
ENDROOT
BRANCH   1   3
HETATM    3  C5  UNL     1     -34.365  15.894  -3.544  1.00 20.00     0.225 A 
HETATM    4  C1  UNL     1     -33.923  17.334  -3.596  1.00 20.00     0.042 A 
HETATM    5  C4  UNL     1     -34.043  16.635  -2.269  1.00 20.00     0.016 A 
HETATM    6  C7  UNL     1     -35.095  17.049  -1.298  1.00 20.00     0.012 C 
ENDBRANCH   1   3
BRANCH   1   7
HETATM    7  C6  UNL     1     -35.786  15.047  -5.283  1.00 20.00     0.268 C 
HETATM    8  C2  UNL     1     -36.702  13.826  -5.343  1.00 20.00     0.205 C 
HETATM    9  O9  UNL     1     -35.567  12.923  -5.308  1.00 20.00    -0.387 OA
HETATM   10  C3  UNL     1     -34.656  14.038  -5.492  1.00 20.00     0.205 C 
ENDBRANCH   1   7
TORSDOF 2
ENDMDL
MODEL 6
REMARK VINA RESULT:      -3.7     11.646     12.619
REMARK  2 active torsions:
REMARK  status: ('A' for Active; 'I' for Inactive)
REMARK    1  A    between atoms: C5_5  and  N8_8 
REMARK    2  A    between atoms: C6_6  and  N8_8 
ROOT
HETATM    1  N8  UNL     1     -33.536  14.602  -5.506  1.00 20.00     0.097 N 
HETATM    2  H22 UNL     1     -33.651  14.171  -4.592  1.00 20.00     0.317 HD
ENDROOT
BRANCH   1   3
HETATM    3  C5  UNL     1     -33.172  16.010  -5.321  1.00 20.00     0.225 A 
HETATM    4  C1  UNL     1     -34.223  17.086  -5.392  1.00 20.00     0.042 A 
HETATM    5  C4  UNL     1     -33.548  16.785  -4.082  1.00 20.00     0.016 A 
HETATM    6  C7  UNL     1     -34.322  16.177  -2.963  1.00 20.00     0.012 C 
ENDBRANCH   1   3
BRANCH   1   7
HETATM    7  C6  UNL     1     -34.773  14.488  -6.259  1.00 20.00     0.268 C 
HETATM    8  C2  UNL     1     -35.698  13.509  -5.537  1.00 20.00     0.205 C 
HETATM    9  O9  UNL     1     -35.319  12.431  -6.430  1.00 20.00    -0.387 OA
HETATM   10  C3  UNL     1     -34.619  13.368  -7.289  1.00 20.00     0.205 C 
ENDBRANCH   1   7
TORSDOF 2
ENDMDL
MODEL 7
REMARK VINA RESULT:      -3.7     11.292     11.971
REMARK  2 active torsions:
REMARK  status: ('A' for Active; 'I' for Inactive)
REMARK    1  A    between atoms: C5_5  and  N8_8 
REMARK    2  A    between atoms: C6_6  and  N8_8 
ROOT
HETATM    1  N8  UNL     1     -34.799  16.424  -4.133  1.00 20.00     0.097 N 
HETATM    2  H22 UNL     1     -35.036  17.273  -4.641  1.00 20.00     0.317 HD
ENDROOT
BRANCH   1   3
HETATM    3  C5  UNL     1     -33.678  16.712  -3.233  1.00 20.00     0.225 A 
HETATM    4  C1  UNL     1     -33.443  18.112  -2.729  1.00 20.00     0.042 A 
HETATM    5  C4  UNL     1     -33.876  17.034  -1.773  1.00 20.00     0.016 A 
HETATM    6  C7  UNL     1     -35.225  17.091  -1.143  1.00 20.00     0.012 C 
ENDBRANCH   1   3
BRANCH   1   7
HETATM    7  C6  UNL     1     -34.447  15.374  -5.072  1.00 20.00     0.268 C 
HETATM    8  C2  UNL     1     -35.392  14.192  -4.863  1.00 20.00     0.205 C 
HETATM    9  O9  UNL     1     -34.405  13.495  -4.060  1.00 20.00    -0.387 OA
HETATM   10  C3  UNL     1     -33.396  14.471  -4.426  1.00 20.00     0.205 C 
ENDBRANCH   1   7
TORSDOF 2
ENDMDL
MODEL 8
REMARK VINA RESULT:      -3.5     11.793     12.438
REMARK  2 active torsions:
REMARK  status: ('A' for Active; 'I' for Inactive)
REMARK    1  A    between atoms: C5_5  and  N8_8 
REMARK    2  A    between atoms: C6_6  and  N8_8 
ROOT
HETATM    1  N8  UNL     1     -35.724  15.854  -5.078  1.00 20.00     0.097 N 
HETATM    2  H22 UNL     1     -35.951  16.784  -5.422  1.00 20.00     0.317 HD
ENDROOT
BRANCH   1   3
HETATM    3  C5  UNL     1     -34.285  15.793  -4.802  1.00 20.00     0.225 A 
HETATM    4  C1  UNL     1     -33.487  17.058  -4.629  1.00 20.00     0.042 A 
HETATM    5  C4  UNL     1     -33.706  16.145  -3.454  1.00 20.00     0.016 A 
HETATM    6  C7  UNL     1     -34.554  16.588  -2.311  1.00 20.00     0.012 C 
ENDBRANCH   1   3
BRANCH   1   7
HETATM    7  C6  UNL     1     -36.098  14.861  -6.070  1.00 20.00     0.268 C 
HETATM    8  C2  UNL     1     -37.050  13.856  -5.424  1.00 20.00     0.205 C 
HETATM    9  O9  UNL     1     -35.971  12.910  -5.212  1.00 20.00    -0.387 OA
HETATM   10  C3  UNL     1     -35.083  13.719  -6.027  1.00 20.00     0.205 C 
ENDBRANCH   1   7
TORSDOF 2
ENDMDL
MODEL 9
REMARK VINA RESULT:      -3.4     10.697     11.642
REMARK  2 active torsions:
REMARK  status: ('A' for Active; 'I' for Inactive)
REMARK    1  A    between atoms: C5_5  and  N8_8 
REMARK    2  A    between atoms: C6_6  and  N8_8 
ROOT
HETATM    1  N8  UNL     1     -42.127   3.842  -2.062  1.00 20.00     0.097 N 
HETATM    2  H22 UNL     1     -41.622   3.340  -1.337  1.00 20.00     0.317 HD
ENDROOT
BRANCH   1   3
HETATM    3  C5  UNL     1     -43.030   4.806  -1.426  1.00 20.00     0.225 A 
HETATM    4  C1  UNL     1     -43.262   4.767   0.063  1.00 20.00     0.042 A 
HETATM    5  C4  UNL     1     -42.527   5.928  -0.551  1.00 20.00     0.016 A 
HETATM    6  C7  UNL     1     -41.079   6.132  -0.266  1.00 20.00     0.012 C 
ENDBRANCH   1   3
BRANCH   1   7
HETATM    7  C6  UNL     1     -42.875   2.901  -2.878  1.00 20.00     0.268 C 
HETATM    8  C2  UNL     1     -41.917   2.242  -3.869  1.00 20.00     0.205 C 
HETATM    9  O9  UNL     1     -42.330   3.143  -4.928  1.00 20.00    -0.387 OA
HETATM   10  C3  UNL     1     -43.417   3.638  -4.104  1.00 20.00     0.205 C 
ENDBRANCH   1   7
TORSDOF 2
ENDMDL
