MODEL 1
REMARK VINA RESULT:      -5.9      0.000      0.000
REMARK  2 active torsions:
REMARK  status: ('A' for Active; 'I' for Inactive)
REMARK    1  A    between atoms: C1_1  and  C6_6 
REMARK    2  A    between atoms: C1_1  and  C8_8 
ROOT
HETATM    1  C2  UNL     1     -34.416   6.460   5.911  1.00 20.00     0.027 C 
HETATM    2  C3  UNL     1     -33.322   7.292   5.248  1.00 20.00     0.016 C 
HETATM    3  C4  UNL     1     -34.527   5.092   5.253  1.00 20.00     0.167 C 
HETATM    4  C5  UNL     1     -33.671   5.890   3.193  1.00 20.00     0.179 C 
HETATM    5  C6  UNL     1     -33.506   7.308   3.731  1.00 20.00     0.079 C 
HETATM    6  O10 UNL     1     -34.750   5.222   3.850  1.00 20.00    -0.390 OA
ENDROOT
BRANCH   5   7
HETATM    7  C1  UNL     1     -32.333   7.976   3.085  1.00 20.00     0.132 C 
HETATM    8  O9  UNL     1     -31.323   8.248   3.732  1.00 20.00    -0.298 OA
BRANCH   7   9
HETATM    9  C8  UNL     1     -32.473   8.288   1.607  1.00 20.00     0.074 C 
HETATM   10  C7  UNL     1     -32.477   9.779   1.323  1.00 20.00     0.013 C 
ENDBRANCH   7   9
ENDBRANCH   5   7
TORSDOF 2
ENDMDL
MODEL 2
REMARK VINA RESULT:      -5.1      1.012      1.668
REMARK  2 active torsions:
REMARK  status: ('A' for Active; 'I' for Inactive)
REMARK    1  A    between atoms: C1_1  and  C6_6 
REMARK    2  A    between atoms: C1_1  and  C8_8 
ROOT
HETATM    1  C2  UNL     1     -34.086   4.944   3.493  1.00 20.00     0.027 C 
HETATM    2  C3  UNL     1     -33.335   6.028   2.725  1.00 20.00     0.016 C 
HETATM    3  C4  UNL     1     -34.973   5.560   4.567  1.00 20.00     0.167 C 
HETATM    4  C5  UNL     1     -33.598   7.479   4.759  1.00 20.00     0.179 C 
HETATM    5  C6  UNL     1     -32.629   6.978   3.692  1.00 20.00     0.079 C 
HETATM    6  O10 UNL     1     -34.207   6.384   5.444  1.00 20.00    -0.390 OA
ENDROOT
BRANCH   5   7
HETATM    7  C1  UNL     1     -32.046   8.130   2.936  1.00 20.00     0.132 C 
HETATM    8  O9  UNL     1     -31.134   8.804   3.412  1.00 20.00    -0.298 OA
BRANCH   7   9
HETATM    9  C8  UNL     1     -32.646   8.404   1.570  1.00 20.00     0.074 C 
HETATM   10  C7  UNL     1     -32.518   9.859   1.157  1.00 20.00     0.013 C 
ENDBRANCH   7   9
ENDBRANCH   5   7
TORSDOF 2
ENDMDL
MODEL 3
REMARK VINA RESULT:      -4.6      1.219      4.339
REMARK  2 active torsions:
REMARK  status: ('A' for Active; 'I' for Inactive)
REMARK    1  A    between atoms: C1_1  and  C6_6 
REMARK    2  A    between atoms: C1_1  and  C8_8 
ROOT
HETATM    1  C2  UNL     1     -32.182   7.992   2.427  1.00 20.00     0.027 C 
HETATM    2  C3  UNL     1     -33.263   6.931   2.604  1.00 20.00     0.016 C 
HETATM    3  C4  UNL     1     -31.353   8.135   3.696  1.00 20.00     0.167 C 
HETATM    4  C5  UNL     1     -33.126   7.378   5.073  1.00 20.00     0.179 C 
HETATM    5  C6  UNL     1     -34.062   7.186   3.882  1.00 20.00     0.079 C 
HETATM    6  O10 UNL     1     -32.188   8.424   4.816  1.00 20.00    -0.390 OA
ENDROOT
BRANCH   5   7
HETATM    7  C1  UNL     1     -34.996   6.046   4.133  1.00 20.00     0.132 C 
HETATM    8  O9  UNL     1     -36.070   5.963   3.538  1.00 20.00    -0.298 OA
BRANCH   7   9
HETATM    9  C8  UNL     1     -34.539   5.019   5.152  1.00 20.00     0.074 C 
HETATM   10  C7  UNL     1     -33.969   3.768   4.507  1.00 20.00     0.013 C 
ENDBRANCH   7   9
ENDBRANCH   5   7
TORSDOF 2
ENDMDL
MODEL 4
REMARK VINA RESULT:      -4.6      1.554      2.023
REMARK  2 active torsions:
REMARK  status: ('A' for Active; 'I' for Inactive)
REMARK    1  A    between atoms: C1_1  and  C6_6 
REMARK    2  A    between atoms: C1_1  and  C8_8 
ROOT
HETATM    1  C2  UNL     1     -34.262   4.431   4.623  1.00 20.00     0.027 C 
HETATM    2  C3  UNL     1     -33.955   5.221   3.354  1.00 20.00     0.016 C 
HETATM    3  C4  UNL     1     -34.831   5.344   5.701  1.00 20.00     0.167 C 
HETATM    4  C5  UNL     1     -33.745   7.254   4.815  1.00 20.00     0.179 C 
HETATM    5  C6  UNL     1     -33.112   6.454   3.680  1.00 20.00     0.079 C 
HETATM    6  O10 UNL     1     -33.944   6.430   5.965  1.00 20.00    -0.390 OA
ENDROOT
BRANCH   5   7
HETATM    7  C1  UNL     1     -32.969   7.307   2.459  1.00 20.00     0.132 C 
HETATM    8  O9  UNL     1     -33.655   7.102   1.459  1.00 20.00    -0.298 OA
BRANCH   7   9
HETATM    9  C8  UNL     1     -31.939   8.419   2.539  1.00 20.00     0.074 C 
HETATM   10  C7  UNL     1     -32.171   9.505   1.504  1.00 20.00     0.013 C 
ENDBRANCH   7   9
ENDBRANCH   5   7
TORSDOF 2
ENDMDL
MODEL 5
REMARK VINA RESULT:      -4.4      1.607      4.008
REMARK  2 active torsions:
REMARK  status: ('A' for Active; 'I' for Inactive)
REMARK    1  A    between atoms: C1_1  and  C6_6 
REMARK    2  A    between atoms: C1_1  and  C8_8 
ROOT
HETATM    1  C2  UNL     1     -31.466   8.336   3.151  1.00 20.00     0.027 C 
HETATM    2  C3  UNL     1     -32.241   7.968   4.412  1.00 20.00     0.016 C 
HETATM    3  C4  UNL     1     -32.409   8.503   1.967  1.00 20.00     0.167 C 
HETATM    4  C5  UNL     1     -34.019   7.037   2.901  1.00 20.00     0.179 C 
HETATM    5  C6  UNL     1     -33.171   6.785   4.144  1.00 20.00     0.079 C 
HETATM    6  O10 UNL     1     -33.190   7.325   1.773  1.00 20.00    -0.390 OA
ENDROOT
BRANCH   5   7
HETATM    7  C1  UNL     1     -34.048   6.549   5.333  1.00 20.00     0.132 C 
HETATM    8  O9  UNL     1     -34.112   7.371   6.246  1.00 20.00    -0.298 OA
BRANCH   7   9
HETATM    9  C8  UNL     1     -34.836   5.253   5.335  1.00 20.00     0.074 C 
HETATM   10  C7  UNL     1     -34.166   4.159   4.523  1.00 20.00     0.013 C 
ENDBRANCH   7   9
ENDBRANCH   5   7
TORSDOF 2
ENDMDL
MODEL 6
REMARK VINA RESULT:      -4.3     11.186     12.119
REMARK  2 active torsions:
REMARK  status: ('A' for Active; 'I' for Inactive)
REMARK    1  A    between atoms: C1_1  and  C6_6 
REMARK    2  A    between atoms: C1_1  and  C8_8 
ROOT
HETATM    1  C2  UNL     1     -34.350  13.713  -7.289  1.00 20.00     0.027 C 
HETATM    2  C3  UNL     1     -34.012  15.004  -6.549  1.00 20.00     0.016 C 
HETATM    3  C4  UNL     1     -35.612  13.079  -6.718  1.00 20.00     0.167 C 
HETATM    4  C5  UNL     1     -35.283  14.073  -4.592  1.00 20.00     0.179 C 
HETATM    5  C6  UNL     1     -34.001  14.770  -5.039  1.00 20.00     0.079 C 
HETATM    6  O10 UNL     1     -35.475  12.856  -5.315  1.00 20.00    -0.390 OA
ENDROOT
BRANCH   5   7
HETATM    7  C1  UNL     1     -33.842  16.074  -4.325  1.00 20.00     0.132 C 
HETATM    8  O9  UNL     1     -33.233  17.010  -4.841  1.00 20.00    -0.298 OA
BRANCH   7   9
HETATM    9  C8  UNL     1     -34.472  16.163  -2.947  1.00 20.00     0.074 C 
HETATM   10  C7  UNL     1     -33.683  17.049  -2.000  1.00 20.00     0.013 C 
ENDBRANCH   7   9
ENDBRANCH   5   7
TORSDOF 2
ENDMDL
MODEL 7
REMARK VINA RESULT:      -4.3     11.295     12.031
REMARK  2 active torsions:
REMARK  status: ('A' for Active; 'I' for Inactive)
REMARK    1  A    between atoms: C1_1  and  C6_6 
REMARK    2  A    between atoms: C1_1  and  C8_8 
ROOT
HETATM    1  C2  UNL     1     -34.038  14.161  -7.167  1.00 20.00     0.027 C 
HETATM    2  C3  UNL     1     -34.225  15.211  -6.076  1.00 20.00     0.016 C 
HETATM    3  C4  UNL     1     -35.234  13.220  -7.220  1.00 20.00     0.167 C 
HETATM    4  C5  UNL     1     -35.760  13.580  -4.938  1.00 20.00     0.179 C 
HETATM    5  C6  UNL     1     -34.595  14.547  -4.749  1.00 20.00     0.079 C 
HETATM    6  O10 UNL     1     -35.458  12.615  -5.947  1.00 20.00    -0.390 OA
ENDROOT
BRANCH   5   7
HETATM    7  C1  UNL     1     -34.945  15.593  -3.739  1.00 20.00     0.132 C 
HETATM    8  O9  UNL     1     -36.118  15.837  -3.460  1.00 20.00    -0.298 OA
BRANCH   7   9
HETATM    9  C8  UNL     1     -33.777  16.317  -3.095  1.00 20.00     0.074 C 
HETATM   10  C7  UNL     1     -34.162  17.010  -1.800  1.00 20.00     0.013 C 
ENDBRANCH   7   9
ENDBRANCH   5   7
TORSDOF 2
ENDMDL
MODEL 8
REMARK VINA RESULT:      -4.2      1.401      4.274
REMARK  2 active torsions:
REMARK  status: ('A' for Active; 'I' for Inactive)
REMARK    1  A    between atoms: C1_1  and  C6_6 
REMARK    2  A    between atoms: C1_1  and  C8_8 
ROOT
HETATM    1  C2  UNL     1     -32.931   7.957   1.548  1.00 20.00     0.027 C 
HETATM    2  C3  UNL     1     -33.672   7.043   2.520  1.00 20.00     0.016 C 
HETATM    3  C4  UNL     1     -31.536   8.279   2.067  1.00 20.00     0.167 C 
HETATM    4  C5  UNL     1     -32.179   7.955   4.324  1.00 20.00     0.179 C 
HETATM    5  C6  UNL     1     -33.615   7.610   3.938  1.00 20.00     0.079 C 
HETATM    6  O10 UNL     1     -31.601   8.850   3.373  1.00 20.00    -0.390 OA
ENDROOT
BRANCH   5   7
HETATM    7  C1  UNL     1     -34.189   6.621   4.902  1.00 20.00     0.132 C 
HETATM    8  O9  UNL     1     -34.032   6.753   6.115  1.00 20.00    -0.298 OA
BRANCH   7   9
HETATM    9  C8  UNL     1     -34.963   5.466   4.294  1.00 20.00     0.074 C 
HETATM   10  C7  UNL     1     -34.309   4.122   4.556  1.00 20.00     0.013 C 
ENDBRANCH   7   9
ENDBRANCH   5   7
TORSDOF 2
ENDMDL
MODEL 9
REMARK VINA RESULT:      -4.2     11.269     12.271
REMARK  2 active torsions:
REMARK  status: ('A' for Active; 'I' for Inactive)
REMARK    1  A    between atoms: C1_1  and  C6_6 
REMARK    2  A    between atoms: C1_1  and  C8_8 
ROOT
HETATM    1  C2  UNL     1     -33.992  16.492  -3.163  1.00 20.00     0.027 C 
HETATM    2  C3  UNL     1     -35.169  15.584  -3.506  1.00 20.00     0.016 C 
HETATM    3  C4  UNL     1     -33.326  17.013  -4.429  1.00 20.00     0.167 C 
HETATM    4  C5  UNL     1     -34.033  15.145  -5.703  1.00 20.00     0.179 C 
HETATM    5  C6  UNL     1     -34.745  14.513  -4.511  1.00 20.00     0.079 C 
HETATM    6  O10 UNL     1     -32.923  15.933  -5.270  1.00 20.00    -0.390 OA
ENDROOT
BRANCH   5   7
HETATM    7  C1  UNL     1     -35.944  13.744  -4.969  1.00 20.00     0.132 C 
HETATM    8  O9  UNL     1     -35.837  12.592  -5.386  1.00 20.00    -0.298 OA
BRANCH   7   9
HETATM    9  C8  UNL     1     -37.274  14.469  -4.885  1.00 20.00     0.074 C 
HETATM   10  C7  UNL     1     -37.726  15.020  -6.226  1.00 20.00     0.013 C 
ENDBRANCH   7   9
ENDBRANCH   5   7
TORSDOF 2
ENDMDL
