MODEL 1
REMARK VINA RESULT:      -6.9      0.000      0.000
REMARK  2 active torsions:
REMARK  status: ('A' for Active; 'I' for Inactive)
REMARK    1  A    between atoms: C7_7  and  C9_9 
REMARK    2  A    between atoms: C8_8  and  C9_9 
ROOT
HETATM    1  C1  UNL     1     -32.705  10.230   1.060  1.00 20.00     0.012 C 
HETATM    2  C2  UNL     1     -32.400   9.165   1.523  1.00 20.00    -0.117 C 
HETATM    3  C8  UNL     1     -32.025   7.862   2.085  1.00 20.00     0.093 C 
ENDROOT
BRANCH   3   4
HETATM    4  C9  UNL     1     -32.304   7.822   3.580  1.00 20.00     0.024 C 
BRANCH   4   5
HETATM    5  C7  UNL     1     -33.666   7.224   3.867  1.00 20.00     0.056 C 
HETATM    6  C3  UNL     1     -33.879   6.914   5.335  1.00 20.00     0.131 C 
HETATM    7  C4  UNL     1     -34.506   5.557   5.539  1.00 20.00     0.079 C 
HETATM    8  O10 UNL     1     -33.580   7.667   6.252  1.00 20.00    -0.298 OA
HETATM    9  C5  UNL     1     -34.905   5.175   4.120  1.00 20.00     0.008 C 
HETATM   10  C6  UNL     1     -33.857   5.842   3.239  1.00 20.00     0.013 C 
ENDBRANCH   4   5
ENDBRANCH   3   4
TORSDOF 2
ENDMDL
MODEL 2
REMARK VINA RESULT:      -6.4      1.686      2.074
REMARK  2 active torsions:
REMARK  status: ('A' for Active; 'I' for Inactive)
REMARK    1  A    between atoms: C7_7  and  C9_9 
REMARK    2  A    between atoms: C8_8  and  C9_9 
ROOT
HETATM    1  C1  UNL     1     -32.504  10.216   0.738  1.00 20.00     0.012 C 
HETATM    2  C2  UNL     1     -32.344   9.302   1.500  1.00 20.00    -0.117 C 
HETATM    3  C8  UNL     1     -32.142   8.186   2.433  1.00 20.00     0.093 C 
ENDROOT
BRANCH   3   4
HETATM    4  C9  UNL     1     -33.471   7.534   2.784  1.00 20.00     0.024 C 
BRANCH   4   5
HETATM    5  C7  UNL     1     -33.311   6.542   3.918  1.00 20.00     0.056 C 
HETATM    6  C3  UNL     1     -33.589   5.113   3.498  1.00 20.00     0.131 C 
HETATM    7  C4  UNL     1     -34.448   4.386   4.503  1.00 20.00     0.079 C 
HETATM    8  O10 UNL     1     -33.172   4.600   2.467  1.00 20.00    -0.298 OA
HETATM    9  C5  UNL     1     -34.456   5.359   5.675  1.00 20.00     0.008 C 
HETATM   10  C6  UNL     1     -34.346   6.733   5.029  1.00 20.00     0.013 C 
ENDBRANCH   4   5
ENDBRANCH   3   4
TORSDOF 2
ENDMDL
MODEL 3
REMARK VINA RESULT:      -4.8     10.980     12.083
REMARK  2 active torsions:
REMARK  status: ('A' for Active; 'I' for Inactive)
REMARK    1  A    between atoms: C7_7  and  C9_9 
REMARK    2  A    between atoms: C8_8  and  C9_9 
ROOT
HETATM    1  C1  UNL     1     -35.161  17.015  -1.145  1.00 20.00     0.012 C 
HETATM    2  C2  UNL     1     -34.570  16.656  -2.127  1.00 20.00    -0.117 C 
HETATM    3  C8  UNL     1     -33.844  16.222  -3.327  1.00 20.00     0.093 C 
ENDROOT
BRANCH   3   4
HETATM    4  C9  UNL     1     -34.378  14.887  -3.823  1.00 20.00     0.024 C 
BRANCH   4   5
HETATM    5  C7  UNL     1     -34.833  14.981  -5.266  1.00 20.00     0.056 C 
HETATM    6  C3  UNL     1     -35.251  13.645  -5.844  1.00 20.00     0.131 C 
HETATM    7  C4  UNL     1     -34.694  13.429  -7.229  1.00 20.00     0.079 C 
HETATM    8  O10 UNL     1     -35.957  12.830  -5.263  1.00 20.00    -0.298 OA
HETATM    9  C5  UNL     1     -34.139  14.808  -7.565  1.00 20.00     0.008 C 
HETATM   10  C6  UNL     1     -33.707  15.381  -6.222  1.00 20.00     0.013 C 
ENDBRANCH   4   5
ENDBRANCH   3   4
TORSDOF 2
ENDMDL
MODEL 4
REMARK VINA RESULT:      -4.6      2.214      4.813
REMARK  2 active torsions:
REMARK  status: ('A' for Active; 'I' for Inactive)
REMARK    1  A    between atoms: C7_7  and  C9_9 
REMARK    2  A    between atoms: C8_8  and  C9_9 
ROOT
HETATM    1  C1  UNL     1     -33.700   7.245   5.564  1.00 20.00     0.012 C 
HETATM    2  C2  UNL     1     -33.364   7.355   4.417  1.00 20.00    -0.117 C 
HETATM    3  C8  UNL     1     -32.956   7.487   3.012  1.00 20.00     0.093 C 
ENDROOT
BRANCH   3   4
HETATM    4  C9  UNL     1     -31.828   8.498   2.874  1.00 20.00     0.024 C 
BRANCH   4   5
HETATM    5  C7  UNL     1     -31.711   8.996   1.447  1.00 20.00     0.056 C 
HETATM    6  C3  UNL     1     -32.621  10.170   1.152  1.00 20.00     0.131 C 
HETATM    7  C4  UNL     1     -33.334  10.015  -0.168  1.00 20.00     0.079 C 
HETATM    8  O10 UNL     1     -32.769  11.134   1.893  1.00 20.00    -0.298 OA
HETATM    9  C5  UNL     1     -32.611   8.822  -0.779  1.00 20.00     0.008 C 
HETATM   10  C6  UNL     1     -32.198   7.975   0.417  1.00 20.00     0.013 C 
ENDBRANCH   4   5
ENDBRANCH   3   4
TORSDOF 2
ENDMDL
MODEL 5
REMARK VINA RESULT:      -4.5     10.822     11.455
REMARK  2 active torsions:
REMARK  status: ('A' for Active; 'I' for Inactive)
REMARK    1  A    between atoms: C7_7  and  C9_9 
REMARK    2  A    between atoms: C8_8  and  C9_9 
ROOT
HETATM    1  C1  UNL     1     -35.507  17.207  -0.663  1.00 20.00     0.012 C 
HETATM    2  C2  UNL     1     -34.640  17.032  -1.475  1.00 20.00    -0.117 C 
HETATM    3  C8  UNL     1     -33.576  16.818  -2.465  1.00 20.00     0.093 C 
ENDROOT
BRANCH   3   4
HETATM    4  C9  UNL     1     -34.169  16.517  -3.833  1.00 20.00     0.024 C 
BRANCH   4   5
HETATM    5  C7  UNL     1     -35.235  15.444  -3.744  1.00 20.00     0.056 C 
HETATM    6  C3  UNL     1     -34.812  14.134  -4.374  1.00 20.00     0.131 C 
HETATM    7  C4  UNL     1     -35.903  13.541  -5.231  1.00 20.00     0.079 C 
HETATM    8  O10 UNL     1     -33.716  13.611  -4.215  1.00 20.00    -0.298 OA
HETATM    9  C5  UNL     1     -37.096  14.419  -4.876  1.00 20.00     0.008 C 
HETATM   10  C6  UNL     1     -36.486  15.778  -4.559  1.00 20.00     0.013 C 
ENDBRANCH   4   5
ENDBRANCH   3   4
TORSDOF 2
ENDMDL
MODEL 6
REMARK VINA RESULT:      -4.5     10.885     11.917
REMARK  2 active torsions:
REMARK  status: ('A' for Active; 'I' for Inactive)
REMARK    1  A    between atoms: C7_7  and  C9_9 
REMARK    2  A    between atoms: C8_8  and  C9_9 
ROOT
HETATM    1  C1  UNL     1     -34.038  15.485  -7.917  1.00 20.00     0.012 C 
HETATM    2  C2  UNL     1     -33.629  15.601  -6.794  1.00 20.00    -0.117 C 
HETATM    3  C8  UNL     1     -33.128  15.747  -5.421  1.00 20.00     0.093 C 
ENDROOT
BRANCH   3   4
HETATM    4  C9  UNL     1     -33.336  14.462  -4.635  1.00 20.00     0.024 C 
BRANCH   4   5
HETATM    5  C7  UNL     1     -34.731  14.400  -4.045  1.00 20.00     0.056 C 
HETATM    6  C3  UNL     1     -35.735  13.742  -4.969  1.00 20.00     0.131 C 
HETATM    7  C4  UNL     1     -37.032  14.510  -5.032  1.00 20.00     0.079 C 
HETATM    8  O10 UNL     1     -35.528  12.710  -5.594  1.00 20.00    -0.298 OA
HETATM    9  C5  UNL     1     -36.859  15.516  -3.902  1.00 20.00     0.008 C 
HETATM   10  C6  UNL     1     -35.360  15.782  -3.855  1.00 20.00     0.013 C 
ENDBRANCH   4   5
ENDBRANCH   3   4
TORSDOF 2
ENDMDL
MODEL 7
REMARK VINA RESULT:      -4.4      1.338      4.337
REMARK  2 active torsions:
REMARK  status: ('A' for Active; 'I' for Inactive)
REMARK    1  A    between atoms: C7_7  and  C9_9 
REMARK    2  A    between atoms: C8_8  and  C9_9 
ROOT
HETATM    1  C1  UNL     1     -34.740   4.934   6.060  1.00 20.00     0.012 C 
HETATM    2  C2  UNL     1     -34.400   4.867   4.911  1.00 20.00    -0.117 C 
HETATM    3  C8  UNL     1     -33.983   4.781   3.506  1.00 20.00     0.093 C 
ENDROOT
BRANCH   3   4
HETATM    4  C9  UNL     1     -34.107   6.136   2.825  1.00 20.00     0.024 C 
BRANCH   4   5
HETATM    5  C7  UNL     1     -32.746   6.766   2.608  1.00 20.00     0.056 C 
HETATM    6  C3  UNL     1     -32.417   7.834   3.631  1.00 20.00     0.131 C 
HETATM    7  C4  UNL     1     -31.823   9.065   2.992  1.00 20.00     0.079 C 
HETATM    8  O10 UNL     1     -32.609   7.722   4.835  1.00 20.00    -0.298 OA
HETATM    9  C5  UNL     1     -31.563   8.588   1.569  1.00 20.00     0.008 C 
HETATM   10  C6  UNL     1     -32.659   7.564   1.305  1.00 20.00     0.013 C 
ENDBRANCH   4   5
ENDBRANCH   3   4
TORSDOF 2
ENDMDL
MODEL 8
REMARK VINA RESULT:      -4.3     11.390     12.045
REMARK  2 active torsions:
REMARK  status: ('A' for Active; 'I' for Inactive)
REMARK    1  A    between atoms: C7_7  and  C9_9 
REMARK    2  A    between atoms: C8_8  and  C9_9 
ROOT
HETATM    1  C1  UNL     1     -31.229  19.087   1.696  1.00 20.00     0.012 C 
HETATM    2  C2  UNL     1     -32.406  18.846   1.660  1.00 20.00    -0.117 C 
HETATM    3  C8  UNL     1     -33.843  18.550   1.621  1.00 20.00     0.093 C 
ENDROOT
BRANCH   3   4
HETATM    4  C9  UNL     1     -34.393  18.749   0.217  1.00 20.00     0.024 C 
BRANCH   4   5
HETATM    5  C7  UNL     1     -34.046  17.577  -0.679  1.00 20.00     0.056 C 
HETATM    6  C3  UNL     1     -33.225  17.977  -1.887  1.00 20.00     0.131 C 
HETATM    7  C4  UNL     1     -33.726  17.325  -3.152  1.00 20.00     0.079 C 
HETATM    8  O10 UNL     1     -32.268  18.740  -1.852  1.00 20.00    -0.298 OA
HETATM    9  C5  UNL     1     -34.721  16.307  -2.610  1.00 20.00     0.008 C 
HETATM   10  C6  UNL     1     -35.274  16.951  -1.346  1.00 20.00     0.013 C 
ENDBRANCH   4   5
ENDBRANCH   3   4
TORSDOF 2
ENDMDL
MODEL 9
REMARK VINA RESULT:      -4.3     11.078     11.917
REMARK  2 active torsions:
REMARK  status: ('A' for Active; 'I' for Inactive)
REMARK    1  A    between atoms: C7_7  and  C9_9 
REMARK    2  A    between atoms: C8_8  and  C9_9 
ROOT
HETATM    1  C1  UNL     1     -33.671  17.252  -1.773  1.00 20.00     0.012 C 
HETATM    2  C2  UNL     1     -33.837  16.744  -2.848  1.00 20.00    -0.117 C 
HETATM    3  C8  UNL     1     -34.041  16.128  -4.165  1.00 20.00     0.093 C 
ENDROOT
BRANCH   3   4
HETATM    4  C9  UNL     1     -34.012  14.611  -4.058  1.00 20.00     0.024 C 
BRANCH   4   5
HETATM    5  C7  UNL     1     -35.292  13.999  -4.593  1.00 20.00     0.056 C 
HETATM    6  C3  UNL     1     -35.251  13.752  -6.087  1.00 20.00     0.131 C 
HETATM    7  C4  UNL     1     -36.523  14.191  -6.767  1.00 20.00     0.079 C 
HETATM    8  O10 UNL     1     -34.302  13.257  -6.681  1.00 20.00    -0.298 OA
HETATM    9  C5  UNL     1     -37.437  14.470  -5.580  1.00 20.00     0.008 C 
HETATM   10  C6  UNL     1     -36.495  14.938  -4.478  1.00 20.00     0.013 C 
ENDBRANCH   4   5
ENDBRANCH   3   4
TORSDOF 2
ENDMDL
