MODEL 1
REMARK VINA RESULT:      -5.5      0.000      0.000
REMARK  4 active torsions:
REMARK  status: ('A' for Active; 'I' for Inactive)
REMARK    1  A    between atoms: C5_5  and  C9_9 
REMARK    2  A    between atoms: C7_7  and  C8_8 
REMARK    3  A    between atoms: C8_8  and  C9_9 
REMARK    4  A    between atoms: C9_9  and  O10_10 
ROOT
HETATM    1  C1  UNL     1     -32.536   9.865   0.976  1.00 20.00     0.012 C 
HETATM    2  C2  UNL     1     -32.296   8.938   1.700  1.00 20.00    -0.117 C 
HETATM    3  C7  UNL     1     -31.998   7.802   2.586  1.00 20.00     0.096 C 
ENDROOT
BRANCH   3   4
HETATM    4  C8  UNL     1     -33.206   7.465   3.470  1.00 20.00     0.050 C 
BRANCH   4   5
HETATM    5  C9  UNL     1     -33.895   6.125   3.132  1.00 20.00     0.059 C 
HETATM    6  C6  UNL     1     -34.669   6.196   1.837  1.00 20.00     0.046 C 
BRANCH   5   7
HETATM    7  C5  UNL     1     -34.829   5.729   4.281  1.00 20.00     0.019 A 
HETATM    8  C3  UNL     1     -34.511   4.537   5.141  1.00 20.00     0.008 A 
HETATM    9  C4  UNL     1     -34.398   5.924   5.709  1.00 20.00     0.008 A 
ENDBRANCH   5   7
BRANCH   5  10
HETATM   10  O10 UNL     1     -32.889   5.115   3.018  1.00 20.00    -0.390 OA
HETATM   11  H24 UNL     1     -33.354   4.290   2.819  1.00 20.00     0.210 HD
ENDBRANCH   5  10
ENDBRANCH   4   5
ENDBRANCH   3   4
TORSDOF 4
ENDMDL
MODEL 2
REMARK VINA RESULT:      -5.5      1.249      4.669
REMARK  4 active torsions:
REMARK  status: ('A' for Active; 'I' for Inactive)
REMARK    1  A    between atoms: C5_5  and  C9_9 
REMARK    2  A    between atoms: C7_7  and  C8_8 
REMARK    3  A    between atoms: C8_8  and  C9_9 
REMARK    4  A    between atoms: C9_9  and  O10_10 
ROOT
HETATM    1  C1  UNL     1     -34.783   4.850   5.600  1.00 20.00     0.012 C 
HETATM    2  C2  UNL     1     -34.301   5.937   5.434  1.00 20.00    -0.117 C 
HETATM    3  C7  UNL     1     -33.710   7.270   5.234  1.00 20.00     0.096 C 
ENDROOT
BRANCH   3   4
HETATM    4  C8  UNL     1     -33.874   7.729   3.780  1.00 20.00     0.050 C 
BRANCH   4   5
HETATM    5  C9  UNL     1     -32.586   7.646   2.932  1.00 20.00     0.059 C 
HETATM    6  C6  UNL     1     -31.390   8.211   3.659  1.00 20.00     0.046 C 
BRANCH   5   7
HETATM    7  C5  UNL     1     -32.798   8.393   1.610  1.00 20.00     0.019 A 
HETATM    8  C3  UNL     1     -32.411   9.841   1.487  1.00 20.00     0.008 A 
HETATM    9  C4  UNL     1     -31.619   8.788   0.764  1.00 20.00     0.008 A 
ENDBRANCH   5   7
BRANCH   5  10
HETATM   10  O10 UNL     1     -32.336   6.272   2.622  1.00 20.00    -0.390 OA
HETATM   11  H24 UNL     1     -33.070   5.770   3.005  1.00 20.00     0.210 HD
ENDBRANCH   5  10
ENDBRANCH   4   5
ENDBRANCH   3   4
TORSDOF 4
ENDMDL
MODEL 3
REMARK VINA RESULT:      -5.4      1.523      1.881
REMARK  4 active torsions:
REMARK  status: ('A' for Active; 'I' for Inactive)
REMARK    1  A    between atoms: C5_5  and  C9_9 
REMARK    2  A    between atoms: C7_7  and  C8_8 
REMARK    3  A    between atoms: C8_8  and  C9_9 
REMARK    4  A    between atoms: C9_9  and  O10_10 
ROOT
HETATM    1  C1  UNL     1     -32.231   9.277   0.736  1.00 20.00     0.012 C 
HETATM    2  C2  UNL     1     -32.055   8.699   1.773  1.00 20.00    -0.117 C 
HETATM    3  C7  UNL     1     -31.836   7.992   3.045  1.00 20.00     0.096 C 
ENDROOT
BRANCH   3   4
HETATM    4  C8  UNL     1     -32.775   6.786   3.170  1.00 20.00     0.050 C 
BRANCH   4   5
HETATM    5  C9  UNL     1     -33.919   6.967   4.192  1.00 20.00     0.059 C 
HETATM    6  C6  UNL     1     -33.402   7.307   5.569  1.00 20.00     0.046 C 
BRANCH   5   7
HETATM    7  C5  UNL     1     -34.758   5.684   4.248  1.00 20.00     0.019 A 
HETATM    8  C3  UNL     1     -34.093   4.339   4.152  1.00 20.00     0.008 A 
HETATM    9  C4  UNL     1     -34.692   4.788   5.455  1.00 20.00     0.008 A 
ENDBRANCH   5   7
BRANCH   5  10
HETATM   10  O10 UNL     1     -34.768   8.025   3.738  1.00 20.00    -0.390 OA
HETATM   11  H24 UNL     1     -34.180   8.732   3.436  1.00 20.00     0.210 HD
ENDBRANCH   5  10
ENDBRANCH   4   5
ENDBRANCH   3   4
TORSDOF 4
ENDMDL
MODEL 4
REMARK VINA RESULT:      -5.1      1.432      1.742
REMARK  4 active torsions:
REMARK  status: ('A' for Active; 'I' for Inactive)
REMARK    1  A    between atoms: C5_5  and  C9_9 
REMARK    2  A    between atoms: C7_7  and  C8_8 
REMARK    3  A    between atoms: C8_8  and  C9_9 
REMARK    4  A    between atoms: C9_9  and  O10_10 
ROOT
HETATM    1  C1  UNL     1     -32.947   9.826  -0.747  1.00 20.00     0.012 C 
HETATM    2  C2  UNL     1     -32.664   9.372   0.328  1.00 20.00    -0.117 C 
HETATM    3  C7  UNL     1     -32.314   8.817   1.645  1.00 20.00     0.096 C 
ENDROOT
BRANCH   3   4
HETATM    4  C8  UNL     1     -33.457   7.956   2.198  1.00 20.00     0.050 C 
BRANCH   4   5
HETATM    5  C9  UNL     1     -33.064   7.057   3.390  1.00 20.00     0.059 C 
HETATM    6  C6  UNL     1     -32.846   5.623   2.971  1.00 20.00     0.046 C 
BRANCH   5   7
HETATM    7  C5  UNL     1     -34.157   7.130   4.464  1.00 20.00     0.019 A 
HETATM    8  C3  UNL     1     -34.418   5.952   5.361  1.00 20.00     0.008 A 
HETATM    9  C4  UNL     1     -33.785   7.195   5.920  1.00 20.00     0.008 A 
ENDBRANCH   5   7
BRANCH   5  10
HETATM   10  O10 UNL     1     -31.855   7.564   3.961  1.00 20.00    -0.390 OA
HETATM   11  H24 UNL     1     -31.945   8.528   3.974  1.00 20.00     0.210 HD
ENDBRANCH   5  10
ENDBRANCH   4   5
ENDBRANCH   3   4
TORSDOF 4
ENDMDL
MODEL 5
REMARK VINA RESULT:      -4.9      1.408      4.530
REMARK  4 active torsions:
REMARK  status: ('A' for Active; 'I' for Inactive)
REMARK    1  A    between atoms: C5_5  and  C9_9 
REMARK    2  A    between atoms: C7_7  and  C8_8 
REMARK    3  A    between atoms: C8_8  and  C9_9 
REMARK    4  A    between atoms: C9_9  and  O10_10 
ROOT
HETATM    1  C1  UNL     1     -34.667   4.731   5.544  1.00 20.00     0.012 C 
HETATM    2  C2  UNL     1     -34.339   5.886   5.558  1.00 20.00    -0.117 C 
HETATM    3  C7  UNL     1     -33.939   7.302   5.576  1.00 20.00     0.096 C 
ENDROOT
BRANCH   3   4
HETATM    4  C8  UNL     1     -32.671   7.525   4.743  1.00 20.00     0.050 C 
BRANCH   4   5
HETATM    5  C9  UNL     1     -32.898   7.526   3.216  1.00 20.00     0.059 C 
HETATM    6  C6  UNL     1     -32.732   6.150   2.616  1.00 20.00     0.046 C 
BRANCH   5   7
HETATM    7  C5  UNL     1     -31.921   8.508   2.557  1.00 20.00     0.019 A 
HETATM    8  C3  UNL     1     -31.650   8.432   1.080  1.00 20.00     0.008 A 
HETATM    9  C4  UNL     1     -32.432   9.586   1.642  1.00 20.00     0.008 A 
ENDBRANCH   5   7
BRANCH   5  10
HETATM   10  O10 UNL     1     -34.226   7.989   2.956  1.00 20.00    -0.390 OA
HETATM   11  H24 UNL     1     -34.302   8.851   3.391  1.00 20.00     0.210 HD
ENDBRANCH   5  10
ENDBRANCH   4   5
ENDBRANCH   3   4
TORSDOF 4
ENDMDL
MODEL 6
REMARK VINA RESULT:      -4.9      1.574      4.910
REMARK  4 active torsions:
REMARK  status: ('A' for Active; 'I' for Inactive)
REMARK    1  A    between atoms: C5_5  and  C9_9 
REMARK    2  A    between atoms: C7_7  and  C8_8 
REMARK    3  A    between atoms: C8_8  and  C9_9 
REMARK    4  A    between atoms: C9_9  and  O10_10 
ROOT
HETATM    1  C1  UNL     1     -34.658   4.694   4.576  1.00 20.00     0.012 C 
HETATM    2  C2  UNL     1     -34.310   5.781   4.202  1.00 20.00    -0.117 C 
HETATM    3  C7  UNL     1     -33.886   7.114   3.747  1.00 20.00     0.096 C 
ENDROOT
BRANCH   3   4
HETATM    4  C8  UNL     1     -33.021   7.013   2.484  1.00 20.00     0.050 C 
BRANCH   4   5
HETATM    5  C9  UNL     1     -32.162   8.262   2.193  1.00 20.00     0.059 C 
HETATM    6  C6  UNL     1     -31.422   8.740   3.420  1.00 20.00     0.046 C 
BRANCH   5   7
HETATM    7  C5  UNL     1     -33.059   9.382   1.651  1.00 20.00     0.019 A 
HETATM    8  C3  UNL     1     -32.472  10.721   1.301  1.00 20.00     0.008 A 
HETATM    9  C4  UNL     1     -32.956   9.805   0.211  1.00 20.00     0.008 A 
ENDBRANCH   5   7
BRANCH   5  10
HETATM   10  O10 UNL     1     -31.212   7.931   1.177  1.00 20.00    -0.390 OA
HETATM   11  H24 UNL     1     -31.223   8.665   0.546  1.00 20.00     0.210 HD
ENDBRANCH   5  10
ENDBRANCH   4   5
ENDBRANCH   3   4
TORSDOF 4
ENDMDL
MODEL 7
REMARK VINA RESULT:      -4.8      1.312      4.680
REMARK  4 active torsions:
REMARK  status: ('A' for Active; 'I' for Inactive)
REMARK    1  A    between atoms: C5_5  and  C9_9 
REMARK    2  A    between atoms: C7_7  and  C8_8 
REMARK    3  A    between atoms: C8_8  and  C9_9 
REMARK    4  A    between atoms: C9_9  and  O10_10 
ROOT
HETATM    1  C1  UNL     1     -34.645   4.982   5.532  1.00 20.00     0.012 C 
HETATM    2  C2  UNL     1     -34.460   5.340   4.401  1.00 20.00    -0.117 C 
HETATM    3  C7  UNL     1     -34.235   5.777   3.014  1.00 20.00     0.096 C 
ENDROOT
BRANCH   3   4
HETATM    4  C8  UNL     1     -32.786   6.238   2.812  1.00 20.00     0.050 C 
BRANCH   4   5
HETATM    5  C9  UNL     1     -32.582   7.766   2.893  1.00 20.00     0.059 C 
HETATM    6  C6  UNL     1     -33.560   8.420   3.840  1.00 20.00     0.046 C 
BRANCH   5   7
HETATM    7  C5  UNL     1     -32.721   8.373   1.492  1.00 20.00     0.019 A 
HETATM    8  C3  UNL     1     -32.567   9.854   1.288  1.00 20.00     0.008 A 
HETATM    9  C4  UNL     1     -31.513   8.913   0.776  1.00 20.00     0.008 A 
ENDBRANCH   5   7
BRANCH   5  10
HETATM   10  O10 UNL     1     -31.251   8.021   3.350  1.00 20.00    -0.390 OA
HETATM   11  H24 UNL     1     -31.013   8.898   3.017  1.00 20.00     0.210 HD
ENDBRANCH   5  10
ENDBRANCH   4   5
ENDBRANCH   3   4
TORSDOF 4
ENDMDL
MODEL 8
REMARK VINA RESULT:      -4.8      1.246      3.864
REMARK  4 active torsions:
REMARK  status: ('A' for Active; 'I' for Inactive)
REMARK    1  A    between atoms: C5_5  and  C9_9 
REMARK    2  A    between atoms: C7_7  and  C8_8 
REMARK    3  A    between atoms: C8_8  and  C9_9 
REMARK    4  A    between atoms: C9_9  and  O10_10 
ROOT
HETATM    1  C1  UNL     1     -33.681   7.627   6.438  1.00 20.00     0.012 C 
HETATM    2  C2  UNL     1     -34.110   6.663   5.866  1.00 20.00    -0.117 C 
HETATM    3  C7  UNL     1     -34.634   5.479   5.168  1.00 20.00     0.096 C 
ENDROOT
BRANCH   3   4
HETATM    4  C8  UNL     1     -35.109   5.841   3.755  1.00 20.00     0.050 C 
BRANCH   4   5
HETATM    5  C9  UNL     1     -33.973   6.070   2.735  1.00 20.00     0.059 C 
HETATM    6  C6  UNL     1     -32.896   5.018   2.839  1.00 20.00     0.046 C 
BRANCH   5   7
HETATM    7  C5  UNL     1     -33.369   7.463   2.951  1.00 20.00     0.019 A 
HETATM    8  C3  UNL     1     -31.887   7.625   3.148  1.00 20.00     0.008 A 
HETATM    9  C4  UNL     1     -32.532   8.101   1.877  1.00 20.00     0.008 A 
ENDBRANCH   5   7
BRANCH   5  10
HETATM   10  O10 UNL     1     -34.533   6.035   1.419  1.00 20.00    -0.390 OA
HETATM   11  H24 UNL     1     -34.651   5.099   1.200  1.00 20.00     0.210 HD
ENDBRANCH   5  10
ENDBRANCH   4   5
ENDBRANCH   3   4
TORSDOF 4
ENDMDL
MODEL 9
REMARK VINA RESULT:      -4.5     10.711     11.610
REMARK  4 active torsions:
REMARK  status: ('A' for Active; 'I' for Inactive)
REMARK    1  A    between atoms: C5_5  and  C9_9 
REMARK    2  A    between atoms: C7_7  and  C8_8 
REMARK    3  A    between atoms: C8_8  and  C9_9 
REMARK    4  A    between atoms: C9_9  and  O10_10 
ROOT
HETATM    1  C1  UNL     1     -33.779  17.081  -2.183  1.00 20.00     0.012 C 
HETATM    2  C2  UNL     1     -33.660  16.355  -3.132  1.00 20.00    -0.117 C 
HETATM    3  C7  UNL     1     -33.513  15.468  -4.296  1.00 20.00     0.096 C 
ENDROOT
BRANCH   3   4
HETATM    4  C8  UNL     1     -34.361  14.200  -4.131  1.00 20.00     0.050 C 
BRANCH   4   5
HETATM    5  C9  UNL     1     -35.302  13.899  -5.317  1.00 20.00     0.059 C 
HETATM    6  C6  UNL     1     -34.559  13.833  -6.629  1.00 20.00     0.046 C 
BRANCH   5   7
HETATM    7  C5  UNL     1     -36.394  14.974  -5.385  1.00 20.00     0.019 A 
HETATM    8  C3  UNL     1     -37.844  14.589  -5.291  1.00 20.00     0.008 A 
HETATM    9  C4  UNL     1     -37.188  15.326  -4.158  1.00 20.00     0.008 A 
ENDBRANCH   5   7
BRANCH   5  10
HETATM   10  O10 UNL     1     -35.940  12.641  -5.080  1.00 20.00    -0.390 OA
HETATM   11  H24 UNL     1     -35.585  12.311  -4.242  1.00 20.00     0.210 HD
ENDBRANCH   5  10
ENDBRANCH   4   5
ENDBRANCH   3   4
TORSDOF 4
ENDMDL
