MODEL 1
REMARK VINA RESULT:      -6.7      0.000      0.000
REMARK  2 active torsions:
REMARK  status: ('A' for Active; 'I' for Inactive)
REMARK    1  A    between atoms: C7_7  and  C9_9 
REMARK    2  A    between atoms: C8_8  and  C9_9 
ROOT
HETATM    1  C1  UNL     1     -32.517  10.133   0.687  1.00 20.00     0.012 C 
HETATM    2  C2  UNL     1     -32.350   9.227   1.457  1.00 20.00    -0.117 C 
HETATM    3  C8  UNL     1     -32.140   8.120   2.398  1.00 20.00     0.093 C 
ENDROOT
BRANCH   3   4
HETATM    4  C9  UNL     1     -33.441   7.756   3.097  1.00 20.00     0.024 C 
BRANCH   4   5
HETATM    5  C7  UNL     1     -33.300   6.468   3.882  1.00 20.00     0.056 C 
HETATM    6  C3  UNL     1     -33.904   6.552   5.269  1.00 20.00     0.131 C 
HETATM    7  C4  UNL     1     -34.722   5.331   5.605  1.00 20.00     0.079 C 
HETATM    8  O10 UNL     1     -33.753   7.496   6.034  1.00 20.00    -0.298 OA
HETATM    9  C5  UNL     1     -34.365   4.388   4.462  1.00 20.00     0.008 C 
HETATM   10  C6  UNL     1     -34.098   5.310   3.279  1.00 20.00     0.013 C 
ENDBRANCH   4   5
ENDBRANCH   3   4
TORSDOF 2
ENDMDL
MODEL 2
REMARK VINA RESULT:      -6.5      1.578      2.019
REMARK  2 active torsions:
REMARK  status: ('A' for Active; 'I' for Inactive)
REMARK    1  A    between atoms: C7_7  and  C9_9 
REMARK    2  A    between atoms: C8_8  and  C9_9 
ROOT
HETATM    1  C1  UNL     1     -32.325   9.361   0.943  1.00 20.00     0.012 C 
HETATM    2  C2  UNL     1     -32.236   8.565   1.838  1.00 20.00    -0.117 C 
HETATM    3  C8  UNL     1     -32.124   7.596   2.935  1.00 20.00     0.093 C 
ENDROOT
BRANCH   3   4
HETATM    4  C9  UNL     1     -33.059   6.418   2.707  1.00 20.00     0.024 C 
BRANCH   4   5
HETATM    5  C7  UNL     1     -34.129   6.351   3.778  1.00 20.00     0.056 C 
HETATM    6  C3  UNL     1     -34.297   4.962   4.360  1.00 20.00     0.131 C 
HETATM    7  C4  UNL     1     -34.403   4.988   5.863  1.00 20.00     0.079 C 
HETATM    8  O10 UNL     1     -34.341   3.934   3.696  1.00 20.00    -0.298 OA
HETATM    9  C5  UNL     1     -34.559   6.478   6.143  1.00 20.00     0.008 C 
HETATM   10  C6  UNL     1     -33.775   7.158   5.028  1.00 20.00     0.013 C 
ENDBRANCH   4   5
ENDBRANCH   3   4
TORSDOF 2
ENDMDL
MODEL 3
REMARK VINA RESULT:      -6.5      1.469      1.927
REMARK  2 active torsions:
REMARK  status: ('A' for Active; 'I' for Inactive)
REMARK    1  A    between atoms: C7_7  and  C9_9 
REMARK    2  A    between atoms: C8_8  and  C9_9 
ROOT
HETATM    1  C1  UNL     1     -32.597  10.378   1.224  1.00 20.00     0.012 C 
HETATM    2  C2  UNL     1     -32.513   9.228   1.560  1.00 20.00    -0.117 C 
HETATM    3  C8  UNL     1     -32.410   7.821   1.966  1.00 20.00     0.093 C 
ENDROOT
BRANCH   3   4
HETATM    4  C9  UNL     1     -32.377   7.701   3.482  1.00 20.00     0.024 C 
BRANCH   4   5
HETATM    5  C7  UNL     1     -33.673   7.123   4.014  1.00 20.00     0.056 C 
HETATM    6  C3  UNL     1     -33.828   5.646   3.716  1.00 20.00     0.131 C 
HETATM    7  C4  UNL     1     -34.321   4.876   4.915  1.00 20.00     0.079 C 
HETATM    8  O10 UNL     1     -33.583   5.128   2.635  1.00 20.00    -0.298 OA
HETATM    9  C5  UNL     1     -34.712   5.998   5.871  1.00 20.00     0.008 C 
HETATM   10  C6  UNL     1     -33.748   7.130   5.542  1.00 20.00     0.013 C 
ENDBRANCH   4   5
ENDBRANCH   3   4
TORSDOF 2
ENDMDL
MODEL 4
REMARK VINA RESULT:      -5.1      0.902      1.016
REMARK  2 active torsions:
REMARK  status: ('A' for Active; 'I' for Inactive)
REMARK    1  A    between atoms: C7_7  and  C9_9 
REMARK    2  A    between atoms: C8_8  and  C9_9 
ROOT
HETATM    1  C1  UNL     1     -32.598  10.982   1.032  1.00 20.00     0.012 C 
HETATM    2  C2  UNL     1     -32.788   9.858   1.411  1.00 20.00    -0.117 C 
HETATM    3  C8  UNL     1     -33.022   8.483   1.870  1.00 20.00     0.093 C 
ENDROOT
BRANCH   3   4
HETATM    4  C9  UNL     1     -32.109   8.146   3.039  1.00 20.00     0.024 C 
BRANCH   4   5
HETATM    5  C7  UNL     1     -32.516   6.841   3.694  1.00 20.00     0.056 C 
HETATM    6  C3  UNL     1     -33.595   7.017   4.742  1.00 20.00     0.131 C 
HETATM    7  C4  UNL     1     -34.676   5.974   4.621  1.00 20.00     0.079 C 
HETATM    8  O10 UNL     1     -33.599   7.900   5.591  1.00 20.00    -0.298 OA
HETATM    9  C5  UNL     1     -34.064   5.000   3.621  1.00 20.00     0.008 C 
HETATM   10  C6  UNL     1     -33.196   5.872   2.725  1.00 20.00     0.013 C 
ENDBRANCH   4   5
ENDBRANCH   3   4
TORSDOF 2
ENDMDL
MODEL 5
REMARK VINA RESULT:      -5.0      1.737      4.626
REMARK  2 active torsions:
REMARK  status: ('A' for Active; 'I' for Inactive)
REMARK    1  A    between atoms: C7_7  and  C9_9 
REMARK    2  A    between atoms: C8_8  and  C9_9 
ROOT
HETATM    1  C1  UNL     1     -34.353   3.852   4.482  1.00 20.00     0.012 C 
HETATM    2  C2  UNL     1     -34.364   4.858   5.137  1.00 20.00    -0.117 C 
HETATM    3  C8  UNL     1     -34.377   6.086   5.943  1.00 20.00     0.093 C 
ENDROOT
BRANCH   3   4
HETATM    4  C9  UNL     1     -34.194   7.309   5.058  1.00 20.00     0.024 C 
BRANCH   4   5
HETATM    5  C7  UNL     1     -32.928   7.204   4.231  1.00 20.00     0.056 C 
HETATM    6  C3  UNL     1     -33.198   7.152   2.742  1.00 20.00     0.131 C 
HETATM    7  C4  UNL     1     -32.268   8.051   1.967  1.00 20.00     0.079 C 
HETATM    8  O10 UNL     1     -34.065   6.465   2.218  1.00 20.00    -0.298 OA
HETATM    9  C5  UNL     1     -31.251   8.445   3.031  1.00 20.00     0.008 C 
HETATM   10  C6  UNL     1     -32.044   8.448   4.331  1.00 20.00     0.013 C 
ENDBRANCH   4   5
ENDBRANCH   3   4
TORSDOF 2
ENDMDL
MODEL 6
REMARK VINA RESULT:      -4.8     11.219     12.246
REMARK  2 active torsions:
REMARK  status: ('A' for Active; 'I' for Inactive)
REMARK    1  A    between atoms: C7_7  and  C9_9 
REMARK    2  A    between atoms: C8_8  and  C9_9 
ROOT
HETATM    1  C1  UNL     1     -34.417  17.238  -1.258  1.00 20.00     0.012 C 
HETATM    2  C2  UNL     1     -34.096  16.759  -2.311  1.00 20.00    -0.117 C 
HETATM    3  C8  UNL     1     -33.700  16.177  -3.599  1.00 20.00     0.093 C 
ENDROOT
BRANCH   3   4
HETATM    4  C9  UNL     1     -34.493  14.909  -3.881  1.00 20.00     0.024 C 
BRANCH   4   5
HETATM    5  C7  UNL     1     -34.091  14.295  -5.207  1.00 20.00     0.056 C 
HETATM    6  C3  UNL     1     -35.224  13.544  -5.877  1.00 20.00     0.131 C 
HETATM    7  C4  UNL     1     -35.316  13.857  -7.349  1.00 20.00     0.079 C 
HETATM    8  O10 UNL     1     -35.980  12.773  -5.301  1.00 20.00    -0.298 OA
HETATM    9  C5  UNL     1     -34.022  14.625  -7.590  1.00 20.00     0.008 C 
HETATM   10  C6  UNL     1     -33.754  15.339  -6.272  1.00 20.00     0.013 C 
ENDBRANCH   4   5
ENDBRANCH   3   4
TORSDOF 2
ENDMDL
MODEL 7
REMARK VINA RESULT:      -4.7      1.583      4.543
REMARK  2 active torsions:
REMARK  status: ('A' for Active; 'I' for Inactive)
REMARK    1  A    between atoms: C7_7  and  C9_9 
REMARK    2  A    between atoms: C8_8  and  C9_9 
ROOT
HETATM    1  C1  UNL     1     -33.759   7.309   6.040  1.00 20.00     0.012 C 
HETATM    2  C2  UNL     1     -34.065   6.785   5.004  1.00 20.00    -0.117 C 
HETATM    3  C8  UNL     1     -34.445   6.143   3.739  1.00 20.00     0.093 C 
ENDROOT
BRANCH   3   4
HETATM    4  C9  UNL     1     -33.356   6.331   2.694  1.00 20.00     0.024 C 
BRANCH   4   5
HETATM    5  C7  UNL     1     -33.223   7.788   2.298  1.00 20.00     0.056 C 
HETATM    6  C3  UNL     1     -31.829   8.336   2.521  1.00 20.00     0.131 C 
HETATM    7  C4  UNL     1     -31.350   9.156   1.350  1.00 20.00     0.079 C 
HETATM    8  O10 UNL     1     -31.161   8.142   3.529  1.00 20.00    -0.298 OA
HETATM    9  C5  UNL     1     -32.622   9.299   0.523  1.00 20.00     0.008 C 
HETATM   10  C6  UNL     1     -33.397   8.017   0.795  1.00 20.00     0.013 C 
ENDBRANCH   4   5
ENDBRANCH   3   4
TORSDOF 2
ENDMDL
MODEL 8
REMARK VINA RESULT:      -4.6      2.503      5.184
REMARK  2 active torsions:
REMARK  status: ('A' for Active; 'I' for Inactive)
REMARK    1  A    between atoms: C7_7  and  C9_9 
REMARK    2  A    between atoms: C8_8  and  C9_9 
ROOT
HETATM    1  C1  UNL     1     -33.780   7.178   5.887  1.00 20.00     0.012 C 
HETATM    2  C2  UNL     1     -33.647   7.135   4.694  1.00 20.00    -0.117 C 
HETATM    3  C8  UNL     1     -33.489   7.082   3.235  1.00 20.00     0.093 C 
ENDROOT
BRANCH   3   4
HETATM    4  C9  UNL     1     -32.063   7.431   2.838  1.00 20.00     0.024 C 
BRANCH   4   5
HETATM    5  C7  UNL     1     -31.981   8.831   2.263  1.00 20.00     0.056 C 
HETATM    6  C3  UNL     1     -31.669   8.844   0.780  1.00 20.00     0.131 C 
HETATM    7  C4  UNL     1     -32.541   9.816   0.028  1.00 20.00     0.079 C 
HETATM    8  O10 UNL     1     -30.813   8.150   0.247  1.00 20.00    -0.298 OA
HETATM    9  C5  UNL     1     -33.210  10.583   1.162  1.00 20.00     0.008 C 
HETATM   10  C6  UNL     1     -33.320   9.569   2.293  1.00 20.00     0.013 C 
ENDBRANCH   4   5
ENDBRANCH   3   4
TORSDOF 2
ENDMDL
MODEL 9
REMARK VINA RESULT:      -4.4     11.465     11.852
REMARK  2 active torsions:
REMARK  status: ('A' for Active; 'I' for Inactive)
REMARK    1  A    between atoms: C7_7  and  C9_9 
REMARK    2  A    between atoms: C8_8  and  C9_9 
ROOT
HETATM    1  C1  UNL     1     -32.718  18.243  -1.124  1.00 20.00     0.012 C 
HETATM    2  C2  UNL     1     -33.537  17.515  -1.615  1.00 20.00    -0.117 C 
HETATM    3  C8  UNL     1     -34.542  16.627  -2.212  1.00 20.00     0.093 C 
ENDROOT
BRANCH   3   4
HETATM    4  C9  UNL     1     -33.967  15.901  -3.418  1.00 20.00     0.024 C 
BRANCH   4   5
HETATM    5  C7  UNL     1     -35.034  15.641  -4.463  1.00 20.00     0.056 C 
HETATM    6  C3  UNL     1     -34.923  14.268  -5.092  1.00 20.00     0.131 C 
HETATM    7  C4  UNL     1     -36.264  13.587  -5.202  1.00 20.00     0.079 C 
HETATM    8  O10 UNL     1     -33.875  13.761  -5.469  1.00 20.00    -0.298 OA
HETATM    9  C5  UNL     1     -37.223  14.721  -4.856  1.00 20.00     0.008 C 
HETATM   10  C6  UNL     1     -36.445  15.589  -3.875  1.00 20.00     0.013 C 
ENDBRANCH   4   5
ENDBRANCH   3   4
TORSDOF 2
ENDMDL
