MODEL 1
REMARK VINA RESULT:      -4.8      0.000      0.000
REMARK  0 active torsions:
REMARK  status: ('A' for Active; 'I' for Inactive)
ROOT
HETATM    1  C1  UNL     1     -32.336  18.801   0.421  1.00 20.00     0.002 A 
HETATM    2  C2  UNL     1     -32.207  18.273  -0.865  1.00 20.00     0.009 A 
HETATM    3  C3  UNL     1     -33.563  18.739   1.100  1.00 20.00     0.019 A 
HETATM    4  C4  UNL     1     -33.316  17.683  -1.448  1.00 20.00    -0.032 A 
HETATM    5  C5  UNL     1     -34.539  17.616  -0.766  1.00 20.00    -0.033 A 
HETATM    6  C6  UNL     1     -34.678  18.147   0.505  1.00 20.00     0.017 A 
HETATM    7  C7  UNL     1     -35.588  16.967  -1.613  1.00 20.00     0.042 C 
HETATM    8  C8  UNL     1     -34.719  16.245  -2.656  1.00 20.00     0.030 C 
HETATM    9  C9  UNL     1     -33.432  17.076  -2.813  1.00 20.00     0.116 C 
HETATM   10 CL10 UNL     1     -33.630  18.351  -4.035  1.00 20.00    -0.120 Cl
HETATM   11 BR11 UNL     1     -36.320  18.105   1.439  1.00 20.00    -0.051 Br
ENDROOT
TORSDOF 0
ENDMDL
MODEL 2
REMARK VINA RESULT:      -4.7      2.813      3.964
REMARK  0 active torsions:
REMARK  status: ('A' for Active; 'I' for Inactive)
ROOT
HETATM    1  C1  UNL     1     -31.921  18.543  -0.601  1.00 20.00     0.002 A 
HETATM    2  C2  UNL     1     -32.209  18.958   0.701  1.00 20.00     0.009 A 
HETATM    3  C3  UNL     1     -32.894  17.894  -1.377  1.00 20.00     0.019 A 
HETATM    4  C4  UNL     1     -33.478  18.720   1.201  1.00 20.00    -0.032 A 
HETATM    5  C5  UNL     1     -34.452  18.079   0.422  1.00 20.00    -0.033 A 
HETATM    6  C6  UNL     1     -34.171  17.653  -0.864  1.00 20.00     0.017 A 
HETATM    7  C7  UNL     1     -35.724  17.907   1.192  1.00 20.00     0.042 C 
HETATM    8  C8  UNL     1     -35.529  18.939   2.316  1.00 20.00     0.030 C 
HETATM    9  C9  UNL     1     -34.012  19.045   2.562  1.00 20.00     0.116 C 
HETATM   10 CL10 UNL     1     -33.462  17.835   3.741  1.00 20.00    -0.120 Cl
HETATM   11 BR11 UNL     1     -35.447  16.756  -1.929  1.00 20.00    -0.051 Br
ENDROOT
TORSDOF 0
ENDMDL
MODEL 3
REMARK VINA RESULT:      -4.5     12.013     12.336
REMARK  0 active torsions:
REMARK  status: ('A' for Active; 'I' for Inactive)
ROOT
HETATM    1  C1  UNL     1     -32.212   8.470   5.409  1.00 20.00     0.002 A 
HETATM    2  C2  UNL     1     -33.225   7.559   5.718  1.00 20.00     0.009 A 
HETATM    3  C3  UNL     1     -31.806   8.663   4.079  1.00 20.00     0.019 A 
HETATM    4  C4  UNL     1     -33.819   6.859   4.681  1.00 20.00    -0.032 A 
HETATM    5  C5  UNL     1     -33.417   7.059   3.353  1.00 20.00    -0.033 A 
HETATM    6  C6  UNL     1     -32.406   7.951   3.039  1.00 20.00     0.017 A 
HETATM    7  C7  UNL     1     -34.179   6.167   2.425  1.00 20.00     0.042 C 
HETATM    8  C8  UNL     1     -35.384   5.789   3.303  1.00 20.00     0.030 C 
HETATM    9  C9  UNL     1     -34.895   5.821   4.763  1.00 20.00     0.116 C 
HETATM   10 CL10 UNL     1     -34.203   4.258   5.248  1.00 20.00    -0.120 Cl
HETATM   11 BR11 UNL     1     -31.815   8.219   1.265  1.00 20.00    -0.051 Br
ENDROOT
TORSDOF 0
ENDMDL
MODEL 4
REMARK VINA RESULT:      -4.5      2.365      3.294
REMARK  0 active torsions:
REMARK  status: ('A' for Active; 'I' for Inactive)
ROOT
HETATM    1  C1  UNL     1     -34.810  18.515   2.710  1.00 20.00     0.002 A 
HETATM    2  C2  UNL     1     -35.341  18.420   1.422  1.00 20.00     0.009 A 
HETATM    3  C3  UNL     1     -33.425  18.636   2.906  1.00 20.00     0.019 A 
HETATM    4  C4  UNL     1     -34.468  18.455   0.347  1.00 20.00    -0.032 A 
HETATM    5  C5  UNL     1     -33.086  18.584   0.544  1.00 20.00    -0.033 A 
HETATM    6  C6  UNL     1     -32.551  18.666   1.818  1.00 20.00     0.017 A 
HETATM    7  C7  UNL     1     -32.356  18.564  -0.762  1.00 20.00     0.042 C 
HETATM    8  C8  UNL     1     -33.496  18.891  -1.741  1.00 20.00     0.030 C 
HETATM    9  C9  UNL     1     -34.792  18.346  -1.112  1.00 20.00     0.116 C 
HETATM   10 CL10 UNL     1     -35.061  16.647  -1.554  1.00 20.00    -0.120 Cl
HETATM   11 BR11 UNL     1     -30.692  18.805   2.122  1.00 20.00    -0.051 Br
ENDROOT
TORSDOF 0
ENDMDL
MODEL 5
REMARK VINA RESULT:      -4.4      3.835      5.078
REMARK  0 active torsions:
REMARK  status: ('A' for Active; 'I' for Inactive)
ROOT
HETATM    1  C1  UNL     1     -33.117  14.909  -4.631  1.00 20.00     0.002 A 
HETATM    2  C2  UNL     1     -34.042  14.371  -5.529  1.00 20.00     0.009 A 
HETATM    3  C3  UNL     1     -33.546  15.663  -3.527  1.00 20.00     0.019 A 
HETATM    4  C4  UNL     1     -35.389  14.595  -5.297  1.00 20.00    -0.032 A 
HETATM    5  C5  UNL     1     -35.816  15.342  -4.190  1.00 20.00    -0.033 A 
HETATM    6  C6  UNL     1     -34.906  15.889  -3.303  1.00 20.00     0.017 A 
HETATM    7  C7  UNL     1     -37.307  15.472  -4.177  1.00 20.00     0.042 C 
HETATM    8  C8  UNL     1     -37.711  14.325  -5.119  1.00 20.00     0.030 C 
HETATM    9  C9  UNL     1     -36.556  14.149  -6.123  1.00 20.00     0.116 C 
HETATM   10 CL10 UNL     1     -36.755  15.214  -7.531  1.00 20.00    -0.120 Cl
HETATM   11 BR11 UNL     1     -35.444  16.929  -1.821  1.00 20.00    -0.051 Br
ENDROOT
TORSDOF 0
ENDMDL
MODEL 6
REMARK VINA RESULT:      -4.2      3.184      5.278
REMARK  0 active torsions:
REMARK  status: ('A' for Active; 'I' for Inactive)
ROOT
HETATM    1  C1  UNL     1     -36.647  14.523  -4.846  1.00 20.00     0.002 A 
HETATM    2  C2  UNL     1     -37.033  15.576  -4.014  1.00 20.00     0.009 A 
HETATM    3  C3  UNL     1     -35.304  14.120  -4.914  1.00 20.00     0.019 A 
HETATM    4  C4  UNL     1     -36.060  16.205  -3.255  1.00 20.00    -0.032 A 
HETATM    5  C5  UNL     1     -34.720  15.797  -3.318  1.00 20.00    -0.033 A 
HETATM    6  C6  UNL     1     -34.328  14.762  -4.149  1.00 20.00     0.017 A 
HETATM    7  C7  UNL     1     -33.860  16.647  -2.437  1.00 20.00     0.042 C 
HETATM    8  C8  UNL     1     -34.916  17.268  -1.507  1.00 20.00     0.030 C 
HETATM    9  C9  UNL     1     -36.221  17.362  -2.318  1.00 20.00     0.116 C 
HETATM   10 CL10 UNL     1     -36.307  18.884  -3.232  1.00 20.00    -0.120 Cl
HETATM   11 BR11 UNL     1     -32.526  14.209  -4.285  1.00 20.00    -0.051 Br
ENDROOT
TORSDOF 0
ENDMDL
MODEL 7
REMARK VINA RESULT:      -4.2      4.325      6.419
REMARK  0 active torsions:
REMARK  status: ('A' for Active; 'I' for Inactive)
ROOT
HETATM    1  C1  UNL     1     -35.219  14.026  -7.709  1.00 20.00     0.002 A 
HETATM    2  C2  UNL     1     -34.045  14.374  -7.037  1.00 20.00     0.009 A 
HETATM    3  C3  UNL     1     -36.469  14.163  -7.085  1.00 20.00     0.019 A 
HETATM    4  C4  UNL     1     -34.148  14.863  -5.745  1.00 20.00    -0.032 A 
HETATM    5  C5  UNL     1     -35.398  15.006  -5.125  1.00 20.00    -0.033 A 
HETATM    6  C6  UNL     1     -36.565  14.652  -5.781  1.00 20.00     0.017 A 
HETATM    7  C7  UNL     1     -35.246  15.518  -3.728  1.00 20.00     0.042 C 
HETATM    8  C8  UNL     1     -33.824  16.102  -3.782  1.00 20.00     0.030 C 
HETATM    9  C9  UNL     1     -33.044  15.275  -4.820  1.00 20.00     0.116 C 
HETATM   10 CL10 UNL     1     -32.299  13.842  -4.080  1.00 20.00    -0.120 Cl
HETATM   11 BR11 UNL     1     -38.262  14.799  -4.964  1.00 20.00    -0.051 Br
ENDROOT
TORSDOF 0
ENDMDL
MODEL 8
REMARK VINA RESULT:      -4.1      2.726      3.652
REMARK  0 active torsions:
REMARK  status: ('A' for Active; 'I' for Inactive)
ROOT
HETATM    1  C1  UNL     1     -34.755  17.649  -1.673  1.00 20.00     0.002 A 
HETATM    2  C2  UNL     1     -33.973  16.646  -2.248  1.00 20.00     0.009 A 
HETATM    3  C3  UNL     1     -36.073  17.866  -2.106  1.00 20.00     0.019 A 
HETATM    4  C4  UNL     1     -34.532  15.869  -3.250  1.00 20.00    -0.032 A 
HETATM    5  C5  UNL     1     -35.850  16.082  -3.676  1.00 20.00    -0.033 A 
HETATM    6  C6  UNL     1     -36.628  17.082  -3.119  1.00 20.00     0.017 A 
HETATM    7  C7  UNL     1     -36.211  15.144  -4.785  1.00 20.00     0.042 C 
HETATM    8  C8  UNL     1     -35.129  14.063  -4.619  1.00 20.00     0.030 C 
HETATM    9  C9  UNL     1     -33.891  14.762  -4.028  1.00 20.00     0.116 C 
HETATM   10 CL10 UNL     1     -32.855  15.432  -5.307  1.00 20.00    -0.120 Cl
HETATM   11 BR11 UNL     1     -38.396  17.419  -3.694  1.00 20.00    -0.051 Br
ENDROOT
TORSDOF 0
ENDMDL
MODEL 9
REMARK VINA RESULT:      -4.1      3.623      5.159
REMARK  0 active torsions:
REMARK  status: ('A' for Active; 'I' for Inactive)
ROOT
HETATM    1  C1  UNL     1     -34.649  14.059  -4.389  1.00 20.00     0.002 A 
HETATM    2  C2  UNL     1     -34.239  15.169  -3.647  1.00 20.00     0.009 A 
HETATM    3  C3  UNL     1     -35.968  13.962  -4.861  1.00 20.00     0.019 A 
HETATM    4  C4  UNL     1     -35.163  16.170  -3.396  1.00 20.00    -0.032 A 
HETATM    5  C5  UNL     1     -36.477  16.075  -3.874  1.00 20.00    -0.033 A 
HETATM    6  C6  UNL     1     -36.895  14.973  -4.600  1.00 20.00     0.017 A 
HETATM    7  C7  UNL     1     -37.288  17.258  -3.447  1.00 20.00     0.042 C 
HETATM    8  C8  UNL     1     -36.179  18.260  -3.085  1.00 20.00     0.030 C 
HETATM    9  C9  UNL     1     -34.970  17.431  -2.611  1.00 20.00     0.116 C 
HETATM   10 CL10 UNL     1     -35.064  17.089  -0.869  1.00 20.00    -0.120 Cl
HETATM   11 BR11 UNL     1     -38.667  14.796  -5.230  1.00 20.00    -0.051 Br
ENDROOT
TORSDOF 0
ENDMDL
