MODEL 1
REMARK VINA RESULT:      -6.4      0.000      0.000
REMARK  3 active torsions:
REMARK  status: ('A' for Active; 'I' for Inactive)
REMARK    1  A    between atoms: C6_6  and  C9_9 
REMARK    2  A    between atoms: C7_7  and  O10_10 
REMARK    3  A    between atoms: C8_8  and  C9_9 
ROOT
HETATM    1  C1  UNL     1     -32.543  10.262   1.082  1.00 20.00     0.012 C 
HETATM    2  C2  UNL     1     -32.496   9.138   1.502  1.00 20.00    -0.117 C 
HETATM    3  C8  UNL     1     -32.436   7.761   2.011  1.00 20.00     0.093 C 
ENDROOT
BRANCH   3   4
HETATM    4  C9  UNL     1     -32.550   7.752   3.526  1.00 20.00     0.019 C 
BRANCH   4   5
HETATM    5  C6  UNL     1     -33.716   6.888   3.981  1.00 20.00     0.015 C 
HETATM    6  C4  UNL     1     -33.738   5.513   3.318  1.00 20.00     0.007 C 
HETATM    7  C3  UNL     1     -34.587   4.645   4.250  1.00 20.00     0.003 C 
HETATM    8  C5  UNL     1     -34.663   5.390   5.582  1.00 20.00     0.032 C 
HETATM    9  C7  UNL     1     -33.664   6.535   5.465  1.00 20.00     0.122 C 
BRANCH   9  10
HETATM   10  O10 UNL     1     -34.042   7.638   6.266  1.00 20.00    -0.395 OA
HETATM   11  H24 UNL     1     -34.868   7.993   5.893  1.00 20.00     0.210 HD
ENDBRANCH   9  10
ENDBRANCH   4   5
ENDBRANCH   3   4
TORSDOF 3
ENDMDL
MODEL 2
REMARK VINA RESULT:      -6.3      1.573      2.027
REMARK  3 active torsions:
REMARK  status: ('A' for Active; 'I' for Inactive)
REMARK    1  A    between atoms: C6_6  and  C9_9 
REMARK    2  A    between atoms: C7_7  and  O10_10 
REMARK    3  A    between atoms: C8_8  and  C9_9 
ROOT
HETATM    1  C1  UNL     1     -32.562  10.192   0.710  1.00 20.00     0.012 C 
HETATM    2  C2  UNL     1     -32.276   9.343   1.510  1.00 20.00    -0.117 C 
HETATM    3  C8  UNL     1     -31.924   8.308   2.491  1.00 20.00     0.093 C 
ENDROOT
BRANCH   3   4
HETATM    4  C9  UNL     1     -32.953   7.191   2.474  1.00 20.00     0.019 C 
BRANCH   4   5
HETATM    5  C6  UNL     1     -33.136   6.596   3.861  1.00 20.00     0.015 C 
HETATM    6  C4  UNL     1     -33.512   7.634   4.915  1.00 20.00     0.007 C 
HETATM    7  C3  UNL     1     -34.160   6.829   6.043  1.00 20.00     0.003 C 
HETATM    8  C5  UNL     1     -34.520   5.467   5.448  1.00 20.00     0.032 C 
HETATM    9  C7  UNL     1     -34.297   5.608   3.947  1.00 20.00     0.122 C 
BRANCH   9  10
HETATM   10  O10 UNL     1     -33.959   4.369   3.354  1.00 20.00    -0.395 OA
HETATM   11  H24 UNL     1     -34.788   3.870   3.242  1.00 20.00     0.210 HD
ENDBRANCH   9  10
ENDBRANCH   4   5
ENDBRANCH   3   4
TORSDOF 3
ENDMDL
MODEL 3
REMARK VINA RESULT:      -4.5     11.297     11.758
REMARK  3 active torsions:
REMARK  status: ('A' for Active; 'I' for Inactive)
REMARK    1  A    between atoms: C6_6  and  C9_9 
REMARK    2  A    between atoms: C7_7  and  O10_10 
REMARK    3  A    between atoms: C8_8  and  C9_9 
ROOT
HETATM    1  C1  UNL     1     -32.481  18.351  -0.899  1.00 20.00     0.012 C 
HETATM    2  C2  UNL     1     -33.328  17.672  -1.413  1.00 20.00    -0.117 C 
HETATM    3  C8  UNL     1     -34.368  16.844  -2.039  1.00 20.00     0.093 C 
ENDROOT
BRANCH   3   4
HETATM    4  C9  UNL     1     -33.851  16.233  -3.331  1.00 20.00     0.019 C 
BRANCH   4   5
HETATM    5  C6  UNL     1     -34.734  15.080  -3.781  1.00 20.00     0.015 C 
HETATM    6  C4  UNL     1     -36.189  15.487  -3.997  1.00 20.00     0.007 C 
HETATM    7  C3  UNL     1     -36.762  14.412  -4.922  1.00 20.00     0.003 C 
HETATM    8  C5  UNL     1     -35.564  13.690  -5.538  1.00 20.00     0.032 C 
HETATM    9  C7  UNL     1     -34.346  14.519  -5.147  1.00 20.00     0.122 C 
BRANCH   9  10
HETATM   10  O10 UNL     1     -33.181  13.721  -5.060  1.00 20.00    -0.395 OA
HETATM   11  H24 UNL     1     -33.141  13.371  -4.153  1.00 20.00     0.210 HD
ENDBRANCH   9  10
ENDBRANCH   4   5
ENDBRANCH   3   4
TORSDOF 3
ENDMDL
MODEL 4
REMARK VINA RESULT:      -4.5     11.125     12.256
REMARK  3 active torsions:
REMARK  status: ('A' for Active; 'I' for Inactive)
REMARK    1  A    between atoms: C6_6  and  C9_9 
REMARK    2  A    between atoms: C7_7  and  O10_10 
REMARK    3  A    between atoms: C8_8  and  C9_9 
ROOT
HETATM    1  C1  UNL     1     -35.181  17.006  -1.145  1.00 20.00     0.012 C 
HETATM    2  C2  UNL     1     -34.572  16.699  -2.134  1.00 20.00    -0.117 C 
HETATM    3  C8  UNL     1     -33.824  16.327  -3.343  1.00 20.00     0.093 C 
ENDROOT
BRANCH   3   4
HETATM    4  C9  UNL     1     -34.228  14.938  -3.807  1.00 20.00     0.019 C 
BRANCH   4   5
HETATM    5  C6  UNL     1     -35.480  14.993  -4.667  1.00 20.00     0.015 C 
HETATM    6  C4  UNL     1     -35.525  16.210  -5.587  1.00 20.00     0.007 C 
HETATM    7  C3  UNL     1     -36.506  15.826  -6.696  1.00 20.00     0.003 C 
HETATM    8  C5  UNL     1     -36.660  14.307  -6.628  1.00 20.00     0.032 C 
HETATM    9  C7  UNL     1     -35.587  13.833  -5.655  1.00 20.00     0.122 C 
BRANCH   9  10
HETATM   10  O10 UNL     1     -35.970  12.639  -5.001  1.00 20.00    -0.395 OA
HETATM   11  H24 UNL     1     -36.726  12.855  -4.429  1.00 20.00     0.210 HD
ENDBRANCH   9  10
ENDBRANCH   4   5
ENDBRANCH   3   4
TORSDOF 3
ENDMDL
MODEL 5
REMARK VINA RESULT:      -4.5     11.391     12.219
REMARK  3 active torsions:
REMARK  status: ('A' for Active; 'I' for Inactive)
REMARK    1  A    between atoms: C6_6  and  C9_9 
REMARK    2  A    between atoms: C7_7  and  O10_10 
REMARK    3  A    between atoms: C8_8  and  C9_9 
ROOT
HETATM    1  C1  UNL     1     -34.078  17.550  -1.039  1.00 20.00     0.012 C 
HETATM    2  C2  UNL     1     -33.950  16.917  -2.051  1.00 20.00    -0.117 C 
HETATM    3  C8  UNL     1     -33.787  16.143  -3.290  1.00 20.00     0.093 C 
ENDROOT
BRANCH   3   4
HETATM    4  C9  UNL     1     -35.068  15.395  -3.617  1.00 20.00     0.019 C 
BRANCH   4   5
HETATM    5  C6  UNL     1     -35.161  15.097  -5.106  1.00 20.00     0.015 C 
HETATM    6  C4  UNL     1     -34.118  15.844  -5.934  1.00 20.00     0.007 C 
HETATM    7  C3  UNL     1     -34.007  15.045  -7.234  1.00 20.00     0.003 C 
HETATM    8  C5  UNL     1     -34.635  13.680  -6.955  1.00 20.00     0.032 C 
HETATM    9  C7  UNL     1     -34.867  13.639  -5.450  1.00 20.00     0.122 C 
BRANCH   9  10
HETATM   10  O10 UNL     1     -35.959  12.805  -5.116  1.00 20.00    -0.395 OA
HETATM   11  H24 UNL     1     -36.364  13.172  -4.310  1.00 20.00     0.210 HD
ENDBRANCH   9  10
ENDBRANCH   4   5
ENDBRANCH   3   4
TORSDOF 3
ENDMDL
MODEL 6
REMARK VINA RESULT:      -4.4      2.359      4.939
REMARK  3 active torsions:
REMARK  status: ('A' for Active; 'I' for Inactive)
REMARK    1  A    between atoms: C6_6  and  C9_9 
REMARK    2  A    between atoms: C7_7  and  O10_10 
REMARK    3  A    between atoms: C8_8  and  C9_9 
ROOT
HETATM    1  C1  UNL     1     -33.693   7.274   5.744  1.00 20.00     0.012 C 
HETATM    2  C2  UNL     1     -33.309   7.317   4.606  1.00 20.00    -0.117 C 
HETATM    3  C8  UNL     1     -32.844   7.366   3.213  1.00 20.00     0.093 C 
ENDROOT
BRANCH   3   4
HETATM    4  C9  UNL     1     -31.810   8.466   3.040  1.00 20.00     0.019 C 
BRANCH   4   5
HETATM    5  C6  UNL     1     -31.833   9.018   1.623  1.00 20.00     0.015 C 
HETATM    6  C4  UNL     1     -32.141   7.957   0.570  1.00 20.00     0.007 C 
HETATM    7  C3  UNL     1     -32.644   8.744  -0.642  1.00 20.00     0.003 C 
HETATM    8  C5  UNL     1     -33.010  10.137  -0.128  1.00 20.00     0.032 C 
HETATM    9  C7  UNL     1     -32.942  10.040   1.391  1.00 20.00     0.122 C 
BRANCH   9  10
HETATM   10  O10 UNL     1     -32.619  11.287   1.976  1.00 20.00    -0.395 OA
HETATM   11  H24 UNL     1     -31.648  11.348   2.004  1.00 20.00     0.210 HD
ENDBRANCH   9  10
ENDBRANCH   4   5
ENDBRANCH   3   4
TORSDOF 3
ENDMDL
MODEL 7
REMARK VINA RESULT:      -4.4     11.498     12.061
REMARK  3 active torsions:
REMARK  status: ('A' for Active; 'I' for Inactive)
REMARK    1  A    between atoms: C6_6  and  C9_9 
REMARK    2  A    between atoms: C7_7  and  O10_10 
REMARK    3  A    between atoms: C8_8  and  C9_9 
ROOT
HETATM    1  C1  UNL     1     -35.019  17.536  -0.305  1.00 20.00     0.012 C 
HETATM    2  C2  UNL     1     -35.155  16.967  -1.353  1.00 20.00    -0.117 C 
HETATM    3  C8  UNL     1     -35.326  16.272  -2.637  1.00 20.00     0.093 C 
ENDROOT
BRANCH   3   4
HETATM    4  C9  UNL     1     -33.973  15.965  -3.256  1.00 20.00     0.019 C 
BRANCH   4   5
HETATM    5  C6  UNL     1     -34.088  14.866  -4.301  1.00 20.00     0.015 C 
HETATM    6  C4  UNL     1     -35.514  14.349  -4.475  1.00 20.00     0.007 C 
HETATM    7  C3  UNL     1     -35.527  13.699  -5.860  1.00 20.00     0.003 C 
HETATM    8  C5  UNL     1     -34.290  14.219  -6.591  1.00 20.00     0.032 C 
HETATM    9  C7  UNL     1     -33.735  15.332  -5.711  1.00 20.00     0.122 C 
BRANCH   9  10
HETATM   10  O10 UNL     1     -32.336  15.471  -5.869  1.00 20.00    -0.395 OA
HETATM   11  H24 UNL     1     -32.188  16.247  -6.437  1.00 20.00     0.210 HD
ENDBRANCH   9  10
ENDBRANCH   4   5
ENDBRANCH   3   4
TORSDOF 3
ENDMDL
MODEL 8
REMARK VINA RESULT:      -4.4      1.301      4.349
REMARK  3 active torsions:
REMARK  status: ('A' for Active; 'I' for Inactive)
REMARK    1  A    between atoms: C6_6  and  C9_9 
REMARK    2  A    between atoms: C7_7  and  O10_10 
REMARK    3  A    between atoms: C8_8  and  C9_9 
ROOT
HETATM    1  C1  UNL     1     -34.799   4.936   6.223  1.00 20.00     0.012 C 
HETATM    2  C2  UNL     1     -34.473   4.822   5.073  1.00 20.00    -0.117 C 
HETATM    3  C8  UNL     1     -34.075   4.677   3.666  1.00 20.00     0.093 C 
ENDROOT
BRANCH   3   4
HETATM    4  C9  UNL     1     -34.221   6.001   2.936  1.00 20.00     0.019 C 
BRANCH   4   5
HETATM    5  C6  UNL     1     -32.899   6.753   2.901  1.00 20.00     0.015 C 
HETATM    6  C4  UNL     1     -32.616   7.406   1.550  1.00 20.00     0.007 C 
HETATM    7  C3  UNL     1     -31.597   8.507   1.855  1.00 20.00     0.003 C 
HETATM    8  C5  UNL     1     -31.648   8.734   3.366  1.00 20.00     0.032 C 
HETATM    9  C7  UNL     1     -32.856   7.944   3.855  1.00 20.00     0.122 C 
BRANCH   9  10
HETATM   10  O10 UNL     1     -32.691   7.520   5.194  1.00 20.00    -0.395 OA
HETATM   11  H24 UNL     1     -33.558   7.600   5.629  1.00 20.00     0.210 HD
ENDBRANCH   9  10
ENDBRANCH   4   5
ENDBRANCH   3   4
TORSDOF 3
ENDMDL
MODEL 9
REMARK VINA RESULT:      -4.4     11.221     11.752
REMARK  3 active torsions:
REMARK  status: ('A' for Active; 'I' for Inactive)
REMARK    1  A    between atoms: C6_6  and  C9_9 
REMARK    2  A    between atoms: C7_7  and  O10_10 
REMARK    3  A    between atoms: C8_8  and  C9_9 
ROOT
HETATM    1  C1  UNL     1     -35.551  13.663  -4.887  1.00 20.00     0.012 C 
HETATM    2  C2  UNL     1     -34.569  14.293  -4.600  1.00 20.00    -0.117 C 
HETATM    3  C8  UNL     1     -33.366  15.061  -4.251  1.00 20.00     0.093 C 
ENDROOT
BRANCH   3   4
HETATM    4  C9  UNL     1     -33.737  16.487  -3.884  1.00 20.00     0.019 C 
BRANCH   4   5
HETATM    5  C6  UNL     1     -34.252  16.567  -2.455  1.00 20.00     0.015 C 
HETATM    6  C4  UNL     1     -33.394  17.453  -1.556  1.00 20.00     0.007 C 
HETATM    7  C3  UNL     1     -34.314  17.838  -0.395  1.00 20.00     0.003 C 
HETATM    8  C5  UNL     1     -35.739  17.536  -0.857  1.00 20.00     0.032 C 
HETATM    9  C7  UNL     1     -35.626  17.222  -2.344  1.00 20.00     0.122 C 
BRANCH   9  10
HETATM   10  O10 UNL     1     -36.649  16.340  -2.767  1.00 20.00    -0.395 OA
HETATM   11  H24 UNL     1     -36.220  15.504  -3.017  1.00 20.00     0.210 HD
ENDBRANCH   9  10
ENDBRANCH   4   5
ENDBRANCH   3   4
TORSDOF 3
ENDMDL
