MODEL 1
REMARK VINA RESULT:      -4.9      0.000      0.000
REMARK  2 active torsions:
REMARK  status: ('A' for Active; 'I' for Inactive)
REMARK    1  A    between atoms: C8_8  and  C9_9 
REMARK    2  A    between atoms: C8_8  and  N10_10 
ROOT
HETATM    1  C1  UNL     1     -33.637   7.577   5.386  1.00 20.00     0.032 C 
HETATM    2  C2  UNL     1     -34.182   6.154   5.437  1.00 20.00     0.024 C 
HETATM    3  C3  UNL     1     -32.378   7.647   4.520  1.00 20.00     0.272 C 
HETATM    4  C4  UNL     1     -33.159   5.796   3.140  1.00 20.00     0.292 C 
HETATM    5  C5  UNL     1     -34.384   5.568   4.040  1.00 20.00     0.110 C 
HETATM    6  N10 UNL     1     -32.565   7.140   3.158  1.00 20.00     0.090 N 
HETATM    7 CL11 UNL     1     -35.878   6.209   3.292  1.00 20.00    -0.123 Cl
ENDROOT
BRANCH   6   8
HETATM    8  C8  UNL     1     -33.243   8.097   2.293  1.00 20.00     0.276 C 
BRANCH   8   9
HETATM    9  C9  UNL     1     -32.271   9.140   1.728  1.00 20.00     0.006 C 
HETATM   10  C6  UNL     1     -31.359   8.559   0.646  1.00 20.00     0.011 C 
HETATM   11  C7  UNL     1     -32.999  10.381   1.208  1.00 20.00     0.011 C 
ENDBRANCH   8   9
ENDBRANCH   6   8
TORSDOF 2
ENDMDL
MODEL 2
REMARK VINA RESULT:      -4.6      1.721      2.547
REMARK  2 active torsions:
REMARK  status: ('A' for Active; 'I' for Inactive)
REMARK    1  A    between atoms: C8_8  and  C9_9 
REMARK    2  A    between atoms: C8_8  and  N10_10 
ROOT
HETATM    1  C1  UNL     1     -33.643   4.102   4.592  1.00 20.00     0.032 C 
HETATM    2  C2  UNL     1     -34.723   4.796   5.414  1.00 20.00     0.024 C 
HETATM    3  C3  UNL     1     -33.788   4.438   3.107  1.00 20.00     0.272 C 
HETATM    4  C4  UNL     1     -34.753   6.612   3.637  1.00 20.00     0.292 C 
HETATM    5  C5  UNL     1     -34.770   6.300   5.142  1.00 20.00     0.110 C 
HETATM    6  N10 UNL     1     -33.781   5.874   2.819  1.00 20.00     0.090 N 
HETATM    7 CL11 UNL     1     -33.447   7.143   6.004  1.00 20.00    -0.123 Cl
ENDROOT
BRANCH   6   8
HETATM    8  C8  UNL     1     -32.439   6.443   2.841  1.00 20.00     0.276 C 
BRANCH   8   9
HETATM    9  C9  UNL     1     -32.470   7.975   2.774  1.00 20.00     0.006 C 
HETATM   10  C6  UNL     1     -31.434   8.618   3.696  1.00 20.00     0.011 C 
HETATM   11  C7  UNL     1     -32.309   8.489   1.342  1.00 20.00     0.011 C 
ENDBRANCH   8   9
ENDBRANCH   6   8
TORSDOF 2
ENDMDL
MODEL 3
REMARK VINA RESULT:      -4.3     10.813     11.849
REMARK  2 active torsions:
REMARK  status: ('A' for Active; 'I' for Inactive)
REMARK    1  A    between atoms: C8_8  and  C9_9 
REMARK    2  A    between atoms: C8_8  and  N10_10 
ROOT
HETATM    1  C1  UNL     1     -35.098  14.030  -4.662  1.00 20.00     0.032 C 
HETATM    2  C2  UNL     1     -35.045  14.046  -6.186  1.00 20.00     0.024 C 
HETATM    3  C3  UNL     1     -33.760  14.466  -4.065  1.00 20.00     0.272 C 
HETATM    4  C4  UNL     1     -33.298  15.881  -5.995  1.00 20.00     0.292 C 
HETATM    5  C5  UNL     1     -34.558  15.391  -6.727  1.00 20.00     0.110 C 
HETATM    6  N10 UNL     1     -33.301  15.778  -4.530  1.00 20.00     0.090 N 
HETATM    7 CL11 UNL     1     -35.868  16.609  -6.670  1.00 20.00    -0.123 Cl
ENDROOT
BRANCH   6   8
HETATM    8  C8  UNL     1     -33.984  16.878  -3.862  1.00 20.00     0.276 C 
BRANCH   8   9
HETATM    9  C9  UNL     1     -33.944  16.729  -2.335  1.00 20.00     0.006 C 
HETATM   10  C6  UNL     1     -33.014  17.749  -1.677  1.00 20.00     0.011 C 
HETATM   11  C7  UNL     1     -35.341  16.795  -1.715  1.00 20.00     0.011 C 
ENDBRANCH   8   9
ENDBRANCH   6   8
TORSDOF 2
ENDMDL
MODEL 4
REMARK VINA RESULT:      -4.0     10.737     11.804
REMARK  2 active torsions:
REMARK  status: ('A' for Active; 'I' for Inactive)
REMARK    1  A    between atoms: C8_8  and  C9_9 
REMARK    2  A    between atoms: C8_8  and  N10_10 
ROOT
HETATM    1  C1  UNL     1     -36.270  15.427  -6.406  1.00 20.00     0.032 C 
HETATM    2  C2  UNL     1     -35.156  14.435  -6.720  1.00 20.00     0.024 C 
HETATM    3  C3  UNL     1     -36.859  15.165  -5.019  1.00 20.00     0.272 C 
HETATM    4  C4  UNL     1     -34.728  14.293  -4.220  1.00 20.00     0.292 C 
HETATM    5  C5  UNL     1     -34.097  14.396  -5.618  1.00 20.00     0.110 C 
HETATM    6  N10 UNL     1     -35.867  15.177  -3.940  1.00 20.00     0.090 N 
HETATM    7 CL11 UNL     1     -33.000  15.804  -5.742  1.00 20.00    -0.123 Cl
ENDROOT
BRANCH   6   8
HETATM    8  C8  UNL     1     -35.484  16.528  -3.549  1.00 20.00     0.276 C 
BRANCH   8   9
HETATM    9  C9  UNL     1     -34.665  16.532  -2.252  1.00 20.00     0.006 C 
HETATM   10  C6  UNL     1     -33.364  17.326  -2.388  1.00 20.00     0.011 C 
HETATM   11  C7  UNL     1     -35.480  17.036  -1.060  1.00 20.00     0.011 C 
ENDBRANCH   8   9
ENDBRANCH   6   8
TORSDOF 2
ENDMDL
MODEL 5
REMARK VINA RESULT:      -4.0     10.960     12.009
REMARK  2 active torsions:
REMARK  status: ('A' for Active; 'I' for Inactive)
REMARK    1  A    between atoms: C8_8  and  C9_9 
REMARK    2  A    between atoms: C8_8  and  N10_10 
ROOT
HETATM    1  C1  UNL     1     -34.080  14.458  -5.847  1.00 20.00     0.032 C 
HETATM    2  C2  UNL     1     -35.382  14.992  -6.437  1.00 20.00     0.024 C 
HETATM    3  C3  UNL     1     -33.126  15.604  -5.507  1.00 20.00     0.272 C 
HETATM    4  C4  UNL     1     -34.996  17.110  -5.087  1.00 20.00     0.292 C 
HETATM    5  C5  UNL     1     -36.019  16.058  -5.545  1.00 20.00     0.110 C 
HETATM    6  N10 UNL     1     -33.700  16.609  -4.609  1.00 20.00     0.090 N 
HETATM    7 CL11 UNL     1     -36.854  15.304  -4.153  1.00 20.00    -0.123 Cl
ENDROOT
BRANCH   6   8
HETATM    8  C8  UNL     1     -33.712  16.174  -3.218  1.00 20.00     0.276 C 
BRANCH   8   9
HETATM    9  C9  UNL     1     -34.114  17.312  -2.271  1.00 20.00     0.006 C 
HETATM   10  C6  UNL     1     -35.224  16.897  -1.303  1.00 20.00     0.011 C 
HETATM   11  C7  UNL     1     -32.914  17.872  -1.505  1.00 20.00     0.011 C 
ENDBRANCH   8   9
ENDBRANCH   6   8
TORSDOF 2
ENDMDL
MODEL 6
REMARK VINA RESULT:      -3.9     10.943     12.088
REMARK  2 active torsions:
REMARK  status: ('A' for Active; 'I' for Inactive)
REMARK    1  A    between atoms: C8_8  and  C9_9 
REMARK    2  A    between atoms: C8_8  and  N10_10 
ROOT
HETATM    1  C1  UNL     1     -33.224  15.619  -6.013  1.00 20.00     0.032 C 
HETATM    2  C2  UNL     1     -34.392  15.045  -6.809  1.00 20.00     0.024 C 
HETATM    3  C3  UNL     1     -33.604  16.957  -5.376  1.00 20.00     0.272 C 
HETATM    4  C4  UNL     1     -35.940  16.280  -5.217  1.00 20.00     0.292 C 
HETATM    5  C5  UNL     1     -35.671  14.970  -5.974  1.00 20.00     0.110 C 
HETATM    6  N10 UNL     1     -34.797  16.894  -4.528  1.00 20.00     0.090 N 
HETATM    7 CL11 UNL     1     -35.622  13.567  -4.864  1.00 20.00    -0.123 Cl
ENDROOT
BRANCH   6   8
HETATM    8  C8  UNL     1     -34.521  16.320  -3.216  1.00 20.00     0.276 C 
BRANCH   8   9
HETATM    9  C9  UNL     1     -34.483  17.395  -2.123  1.00 20.00     0.006 C 
HETATM   10  C6  UNL     1     -35.361  17.036  -0.924  1.00 20.00     0.011 C 
HETATM   11  C7  UNL     1     -33.054  17.702  -1.671  1.00 20.00     0.011 C 
ENDBRANCH   8   9
ENDBRANCH   6   8
TORSDOF 2
ENDMDL
MODEL 7
REMARK VINA RESULT:      -3.8     10.757     11.806
REMARK  2 active torsions:
REMARK  status: ('A' for Active; 'I' for Inactive)
REMARK    1  A    between atoms: C8_8  and  C9_9 
REMARK    2  A    between atoms: C8_8  and  N10_10 
ROOT
HETATM    1  C1  UNL     1     -33.647  16.624  -6.002  1.00 20.00     0.032 C 
HETATM    2  C2  UNL     1     -33.906  15.147  -6.277  1.00 20.00     0.024 C 
HETATM    3  C3  UNL     1     -34.688  17.189  -5.035  1.00 20.00     0.272 C 
HETATM    4  C4  UNL     1     -34.959  15.014  -3.969  1.00 20.00     0.292 C 
HETATM    5  C5  UNL     1     -34.027  14.337  -4.987  1.00 20.00     0.110 C 
HETATM    6  N10 UNL     1     -34.782  16.459  -3.768  1.00 20.00     0.090 N 
HETATM    7 CL11 UNL     1     -32.412  14.015  -4.286  1.00 20.00    -0.123 Cl
ENDROOT
BRANCH   6   8
HETATM    8  C8  UNL     1     -33.706  16.800  -2.846  1.00 20.00     0.276 C 
BRANCH   8   9
HETATM    9  C9  UNL     1     -34.189  17.736  -1.731  1.00 20.00     0.006 C 
HETATM   10  C6  UNL     1     -35.303  17.111  -0.889  1.00 20.00     0.011 C 
HETATM   11  C7  UNL     1     -33.039  18.206  -0.838  1.00 20.00     0.011 C 
ENDBRANCH   8   9
ENDBRANCH   6   8
TORSDOF 2
ENDMDL
MODEL 8
REMARK VINA RESULT:      -3.7     10.995     11.834
REMARK  2 active torsions:
REMARK  status: ('A' for Active; 'I' for Inactive)
REMARK    1  A    between atoms: C8_8  and  C9_9 
REMARK    2  A    between atoms: C8_8  and  N10_10 
ROOT
HETATM    1  C1  UNL     1     -34.963  16.708  -1.776  1.00 20.00     0.032 C 
HETATM    2  C2  UNL     1     -33.650  17.111  -2.438  1.00 20.00     0.024 C 
HETATM    3  C3  UNL     1     -36.159  17.197  -2.595  1.00 20.00     0.272 C 
HETATM    4  C4  UNL     1     -34.877  17.040  -4.662  1.00 20.00     0.292 C 
HETATM    5  C5  UNL     1     -33.591  16.676  -3.903  1.00 20.00     0.110 C 
HETATM    6  N10 UNL     1     -36.149  16.746  -3.989  1.00 20.00     0.090 N 
HETATM    7 CL11 UNL     1     -33.223  14.929  -4.031  1.00 20.00    -0.123 Cl
ENDROOT
BRANCH   6   8
HETATM    8  C8  UNL     1     -36.586  15.362  -4.131  1.00 20.00     0.276 C 
BRANCH   8   9
HETATM    9  C9  UNL     1     -36.426  14.861  -5.572  1.00 20.00     0.006 C 
HETATM   10  C6  UNL     1     -36.022  13.387  -5.633  1.00 20.00     0.011 C 
HETATM   11  C7  UNL     1     -37.682  15.110  -6.409  1.00 20.00     0.011 C 
ENDBRANCH   8   9
ENDBRANCH   6   8
TORSDOF 2
ENDMDL
MODEL 9
REMARK VINA RESULT:      -3.7     10.838     11.907
REMARK  2 active torsions:
REMARK  status: ('A' for Active; 'I' for Inactive)
REMARK    1  A    between atoms: C8_8  and  C9_9 
REMARK    2  A    between atoms: C8_8  and  N10_10 
ROOT
HETATM    1  C1  UNL     1     -33.798  15.865  -3.483  1.00 20.00     0.032 C 
HETATM    2  C2  UNL     1     -34.738  16.683  -2.603  1.00 20.00     0.024 C 
HETATM    3  C3  UNL     1     -34.476  14.577  -3.952  1.00 20.00     0.272 C 
HETATM    4  C4  UNL     1     -36.668  15.640  -3.883  1.00 20.00     0.292 C 
HETATM    5  C5  UNL     1     -36.086  16.928  -3.279  1.00 20.00     0.110 C 
HETATM    6  N10 UNL     1     -35.745  14.793  -4.651  1.00 20.00     0.090 N 
HETATM    7 CL11 UNL     1     -35.956  18.228  -4.502  1.00 20.00    -0.123 Cl
ENDROOT
BRANCH   6   8
HETATM    8  C8  UNL     1     -35.557  15.226  -6.031  1.00 20.00     0.276 C 
BRANCH   8   9
HETATM    9  C9  UNL     1     -34.538  14.348  -6.768  1.00 20.00     0.006 C 
HETATM   10  C6  UNL     1     -35.152  13.040  -7.269  1.00 20.00     0.011 C 
HETATM   11  C7  UNL     1     -33.858  15.098  -7.914  1.00 20.00     0.011 C 
ENDBRANCH   8   9
ENDBRANCH   6   8
TORSDOF 2
ENDMDL
