MODEL 1
REMARK VINA RESULT:      -6.0      0.000      0.000
REMARK  4 active torsions:
REMARK  status: ('A' for Active; 'I' for Inactive)
REMARK    1  A    between atoms: C3_3  and  C9_9 
REMARK    2  A    between atoms: C6_6  and  C8_8 
REMARK    3  A    between atoms: C7_7  and  C9_9 
REMARK    4  A    between atoms: C8_8  and  C9_9 
ROOT
HETATM    1  C1  UNL     1     -32.950   9.550  -0.144  1.00 20.00     0.012 C 
HETATM    2  C2  UNL     1     -32.485   9.240   0.918  1.00 20.00    -0.117 C 
HETATM    3  C6  UNL     1     -31.912   8.864   2.219  1.00 20.00     0.093 C 
ENDROOT
BRANCH   3   4
HETATM    4  C8  UNL     1     -32.273   7.420   2.582  1.00 20.00     0.024 C 
BRANCH   4   5
HETATM    5  C9  UNL     1     -33.500   7.339   3.509  1.00 20.00     0.055 C 
BRANCH   5   6
HETATM    6  C3  UNL     1     -34.240   6.007   3.368  1.00 20.00     0.127 C 
HETATM    7  C4  UNL     1     -33.416   4.807   2.972  1.00 20.00     0.091 C 
HETATM    8  O10 UNL     1     -35.446   5.895   3.593  1.00 20.00    -0.298 OA
ENDBRANCH   5   6
BRANCH   5   9
HETATM    9  C7  UNL     1     -33.135   7.591   4.982  1.00 20.00     0.007 C 
HETATM   10  C5  UNL     1     -34.014   6.870   5.996  1.00 20.00     0.006 C 
ENDBRANCH   5   9
ENDBRANCH   4   5
ENDBRANCH   3   4
TORSDOF 4
ENDMDL
MODEL 2
REMARK VINA RESULT:      -5.9      1.388      2.381
REMARK  4 active torsions:
REMARK  status: ('A' for Active; 'I' for Inactive)
REMARK    1  A    between atoms: C3_3  and  C9_9 
REMARK    2  A    between atoms: C6_6  and  C8_8 
REMARK    3  A    between atoms: C7_7  and  C9_9 
REMARK    4  A    between atoms: C8_8  and  C9_9 
ROOT
HETATM    1  C1  UNL     1     -32.622  10.294   0.692  1.00 20.00     0.012 C 
HETATM    2  C2  UNL     1     -32.394   9.354   1.401  1.00 20.00    -0.117 C 
HETATM    3  C6  UNL     1     -32.112   8.200   2.268  1.00 20.00     0.093 C 
ENDROOT
BRANCH   3   4
HETATM    4  C8  UNL     1     -33.198   8.038   3.338  1.00 20.00     0.024 C 
BRANCH   4   5
HETATM    5  C9  UNL     1     -33.243   6.610   3.913  1.00 20.00     0.055 C 
BRANCH   5   6
HETATM    6  C3  UNL     1     -33.937   6.561   5.276  1.00 20.00     0.127 C 
HETATM    7  C4  UNL     1     -34.708   5.307   5.604  1.00 20.00     0.091 C 
HETATM    8  O10 UNL     1     -33.857   7.481   6.091  1.00 20.00    -0.298 OA
ENDBRANCH   5   6
BRANCH   5   9
HETATM    9  C7  UNL     1     -33.902   5.612   2.944  1.00 20.00     0.007 C 
HETATM   10  C5  UNL     1     -32.995   4.488   2.463  1.00 20.00     0.006 C 
ENDBRANCH   5   9
ENDBRANCH   4   5
ENDBRANCH   3   4
TORSDOF 4
ENDMDL
MODEL 3
REMARK VINA RESULT:      -5.4      1.900      4.543
REMARK  4 active torsions:
REMARK  status: ('A' for Active; 'I' for Inactive)
REMARK    1  A    between atoms: C3_3  and  C9_9 
REMARK    2  A    between atoms: C6_6  and  C8_8 
REMARK    3  A    between atoms: C7_7  and  C9_9 
REMARK    4  A    between atoms: C8_8  and  C9_9 
ROOT
HETATM    1  C1  UNL     1     -34.769   4.696   5.822  1.00 20.00     0.012 C 
HETATM    2  C2  UNL     1     -34.410   5.838   5.735  1.00 20.00    -0.117 C 
HETATM    3  C6  UNL     1     -33.973   7.238   5.630  1.00 20.00     0.093 C 
ENDROOT
BRANCH   3   4
HETATM    4  C8  UNL     1     -32.808   7.378   4.644  1.00 20.00     0.024 C 
BRANCH   4   5
HETATM    5  C9  UNL     1     -33.287   7.675   3.211  1.00 20.00     0.055 C 
BRANCH   5   6
HETATM    6  C3  UNL     1     -32.201   8.348   2.370  1.00 20.00     0.127 C 
HETATM    7  C4  UNL     1     -32.636   8.976   1.069  1.00 20.00     0.091 C 
HETATM    8  O10 UNL     1     -31.026   8.410   2.736  1.00 20.00    -0.298 OA
ENDBRANCH   5   6
BRANCH   5   9
HETATM    9  C7  UNL     1     -33.807   6.415   2.498  1.00 20.00     0.007 C 
HETATM   10  C5  UNL     1     -32.924   5.183   2.643  1.00 20.00     0.006 C 
ENDBRANCH   5   9
ENDBRANCH   4   5
ENDBRANCH   3   4
TORSDOF 4
ENDMDL
MODEL 4
REMARK VINA RESULT:      -5.3      1.136      3.976
REMARK  4 active torsions:
REMARK  status: ('A' for Active; 'I' for Inactive)
REMARK    1  A    between atoms: C3_3  and  C9_9 
REMARK    2  A    between atoms: C6_6  and  C8_8 
REMARK    3  A    between atoms: C7_7  and  C9_9 
REMARK    4  A    between atoms: C8_8  and  C9_9 
ROOT
HETATM    1  C1  UNL     1     -34.727   4.926   5.844  1.00 20.00     0.012 C 
HETATM    2  C2  UNL     1     -34.238   6.020   5.792  1.00 20.00    -0.117 C 
HETATM    3  C6  UNL     1     -33.639   7.362   5.731  1.00 20.00     0.093 C 
ENDROOT
BRANCH   3   4
HETATM    4  C8  UNL     1     -33.592   7.879   4.289  1.00 20.00     0.024 C 
BRANCH   4   5
HETATM    5  C9  UNL     1     -32.686   7.019   3.390  1.00 20.00     0.055 C 
BRANCH   5   6
HETATM    6  C3  UNL     1     -33.478   5.953   2.628  1.00 20.00     0.127 C 
HETATM    7  C4  UNL     1     -32.882   4.569   2.575  1.00 20.00     0.091 C 
HETATM    8  O10 UNL     1     -34.566   6.190   2.102  1.00 20.00    -0.298 OA
ENDBRANCH   5   6
BRANCH   5   9
HETATM    9  C7  UNL     1     -31.861   7.871   2.409  1.00 20.00     0.007 C 
HETATM   10  C5  UNL     1     -32.593   9.074   1.829  1.00 20.00     0.006 C 
ENDBRANCH   5   9
ENDBRANCH   4   5
ENDBRANCH   3   4
TORSDOF 4
ENDMDL
MODEL 5
REMARK VINA RESULT:      -5.3      2.166      4.330
REMARK  4 active torsions:
REMARK  status: ('A' for Active; 'I' for Inactive)
REMARK    1  A    between atoms: C3_3  and  C9_9 
REMARK    2  A    between atoms: C6_6  and  C8_8 
REMARK    3  A    between atoms: C7_7  and  C9_9 
REMARK    4  A    between atoms: C8_8  and  C9_9 
ROOT
HETATM    1  C1  UNL     1     -34.739   4.629   4.902  1.00 20.00     0.012 C 
HETATM    2  C2  UNL     1     -34.141   5.018   3.936  1.00 20.00    -0.117 C 
HETATM    3  C6  UNL     1     -33.408   5.490   2.753  1.00 20.00     0.093 C 
ENDROOT
BRANCH   3   4
HETATM    4  C8  UNL     1     -33.490   7.016   2.628  1.00 20.00     0.024 C 
BRANCH   4   5
HETATM    5  C9  UNL     1     -32.100   7.677   2.611  1.00 20.00     0.055 C 
BRANCH   5   6
HETATM    6  C3  UNL     1     -31.953   8.678   1.463  1.00 20.00     0.127 C 
HETATM    7  C4  UNL     1     -32.836   9.900   1.507  1.00 20.00     0.091 C 
HETATM    8  O10 UNL     1     -31.137   8.524   0.554  1.00 20.00    -0.298 OA
ENDBRANCH   5   6
BRANCH   5   9
HETATM    9  C7  UNL     1     -31.760   8.352   3.952  1.00 20.00     0.007 C 
HETATM   10  C5  UNL     1     -32.739   8.065   5.083  1.00 20.00     0.006 C 
ENDBRANCH   5   9
ENDBRANCH   4   5
ENDBRANCH   3   4
TORSDOF 4
ENDMDL
MODEL 6
REMARK VINA RESULT:      -5.2      2.023      4.225
REMARK  4 active torsions:
REMARK  status: ('A' for Active; 'I' for Inactive)
REMARK    1  A    between atoms: C3_3  and  C9_9 
REMARK    2  A    between atoms: C6_6  and  C8_8 
REMARK    3  A    between atoms: C7_7  and  C9_9 
REMARK    4  A    between atoms: C8_8  and  C9_9 
ROOT
HETATM    1  C1  UNL     1     -34.783   4.344   5.376  1.00 20.00     0.012 C 
HETATM    2  C2  UNL     1     -34.272   4.485   4.299  1.00 20.00    -0.117 C 
HETATM    3  C6  UNL     1     -33.644   4.653   2.980  1.00 20.00     0.093 C 
ENDROOT
BRANCH   3   4
HETATM    4  C8  UNL     1     -33.628   6.128   2.564  1.00 20.00     0.024 C 
BRANCH   4   5
HETATM    5  C9  UNL     1     -32.886   7.015   3.581  1.00 20.00     0.055 C 
BRANCH   5   6
HETATM    6  C3  UNL     1     -31.989   8.048   2.896  1.00 20.00     0.127 C 
HETATM    7  C4  UNL     1     -32.482   8.620   1.590  1.00 20.00     0.091 C 
HETATM    8  O10 UNL     1     -30.927   8.429   3.388  1.00 20.00    -0.298 OA
ENDBRANCH   5   6
BRANCH   5   9
HETATM    9  C7  UNL     1     -33.849   7.711   4.558  1.00 20.00     0.007 C 
HETATM   10  C5  UNL     1     -33.507   7.538   6.033  1.00 20.00     0.006 C 
ENDBRANCH   5   9
ENDBRANCH   4   5
ENDBRANCH   3   4
TORSDOF 4
ENDMDL
MODEL 7
REMARK VINA RESULT:      -5.2      1.985      4.574
REMARK  4 active torsions:
REMARK  status: ('A' for Active; 'I' for Inactive)
REMARK    1  A    between atoms: C3_3  and  C9_9 
REMARK    2  A    between atoms: C6_6  and  C8_8 
REMARK    3  A    between atoms: C7_7  and  C9_9 
REMARK    4  A    between atoms: C8_8  and  C9_9 
ROOT
HETATM    1  C1  UNL     1     -34.749   4.940   5.576  1.00 20.00     0.012 C 
HETATM    2  C2  UNL     1     -34.685   5.325   4.441  1.00 20.00    -0.117 C 
HETATM    3  C6  UNL     1     -34.609   5.795   3.050  1.00 20.00     0.093 C 
ENDROOT
BRANCH   3   4
HETATM    4  C8  UNL     1     -33.173   6.178   2.676  1.00 20.00     0.024 C 
BRANCH   4   5
HETATM    5  C9  UNL     1     -32.930   7.696   2.769  1.00 20.00     0.055 C 
BRANCH   5   6
HETATM    6  C3  UNL     1     -32.114   8.073   4.007  1.00 20.00     0.127 C 
HETATM    7  C4  UNL     1     -32.825   8.015   5.337  1.00 20.00     0.091 C 
HETATM    8  O10 UNL     1     -30.924   8.383   3.944  1.00 20.00    -0.298 OA
ENDBRANCH   5   6
BRANCH   5   9
HETATM    9  C7  UNL     1     -32.263   8.257   1.501  1.00 20.00     0.007 C 
HETATM   10  C5  UNL     1     -32.617   9.702   1.174  1.00 20.00     0.006 C 
ENDBRANCH   5   9
ENDBRANCH   4   5
ENDBRANCH   3   4
TORSDOF 4
ENDMDL
MODEL 8
REMARK VINA RESULT:      -4.9     10.386     11.119
REMARK  4 active torsions:
REMARK  status: ('A' for Active; 'I' for Inactive)
REMARK    1  A    between atoms: C3_3  and  C9_9 
REMARK    2  A    between atoms: C6_6  and  C8_8 
REMARK    3  A    between atoms: C7_7  and  C9_9 
REMARK    4  A    between atoms: C8_8  and  C9_9 
ROOT
HETATM    1  C1  UNL     1     -33.054  17.814  -1.636  1.00 20.00     0.012 C 
HETATM    2  C2  UNL     1     -34.028  17.162  -1.896  1.00 20.00    -0.117 C 
HETATM    3  C6  UNL     1     -35.221  16.363  -2.210  1.00 20.00     0.093 C 
ENDROOT
BRANCH   3   4
HETATM    4  C8  UNL     1     -35.260  15.996  -3.698  1.00 20.00     0.024 C 
BRANCH   4   5
HETATM    5  C9  UNL     1     -34.833  14.539  -3.953  1.00 20.00     0.055 C 
BRANCH   5   6
HETATM    6  C3  UNL     1     -35.820  13.801  -4.860  1.00 20.00     0.127 C 
HETATM    7  C4  UNL     1     -37.194  14.407  -5.010  1.00 20.00     0.091 C 
HETATM    8  O10 UNL     1     -35.515  12.777  -5.472  1.00 20.00    -0.298 OA
ENDBRANCH   5   6
BRANCH   5   9
HETATM    9  C7  UNL     1     -33.409  14.442  -4.526  1.00 20.00     0.007 C 
HETATM   10  C5  UNL     1     -32.958  15.648  -5.340  1.00 20.00     0.006 C 
ENDBRANCH   5   9
ENDBRANCH   4   5
ENDBRANCH   3   4
TORSDOF 4
ENDMDL
MODEL 9
REMARK VINA RESULT:      -4.6     10.321     11.505
REMARK  4 active torsions:
REMARK  status: ('A' for Active; 'I' for Inactive)
REMARK    1  A    between atoms: C3_3  and  C9_9 
REMARK    2  A    between atoms: C6_6  and  C8_8 
REMARK    3  A    between atoms: C7_7  and  C9_9 
REMARK    4  A    between atoms: C8_8  and  C9_9 
ROOT
HETATM    1  C1  UNL     1     -35.127  16.906  -1.394  1.00 20.00     0.012 C 
HETATM    2  C2  UNL     1     -34.489  16.636  -2.373  1.00 20.00    -0.117 C 
HETATM    3  C6  UNL     1     -33.707  16.307  -3.575  1.00 20.00     0.093 C 
ENDROOT
BRANCH   3   4
HETATM    4  C8  UNL     1     -33.709  14.797  -3.837  1.00 20.00     0.024 C 
BRANCH   4   5
HETATM    5  C9  UNL     1     -34.304  14.444  -5.212  1.00 20.00     0.055 C 
BRANCH   5   6
HETATM    6  C3  UNL     1     -35.692  13.811  -5.093  1.00 20.00     0.127 C 
HETATM    7  C4  UNL     1     -36.840  14.737  -4.779  1.00 20.00     0.091 C 
HETATM    8  O10 UNL     1     -35.886  12.608  -5.271  1.00 20.00    -0.298 OA
ENDBRANCH   5   6
BRANCH   5   9
HETATM    9  C7  UNL     1     -34.354  15.659  -6.155  1.00 20.00     0.007 C 
HETATM   10  C5  UNL     1     -34.015  15.360  -7.609  1.00 20.00     0.006 C 
ENDBRANCH   5   9
ENDBRANCH   4   5
ENDBRANCH   3   4
TORSDOF 4
ENDMDL
