MODEL 1
REMARK VINA RESULT:      -5.9      0.000      0.000
REMARK  4 active torsions:
REMARK  status: ('A' for Active; 'I' for Inactive)
REMARK    1  A    between atoms: C3_3  and  C9_9 
REMARK    2  A    between atoms: C6_6  and  C8_8 
REMARK    3  A    between atoms: C7_7  and  C9_9 
REMARK    4  A    between atoms: C8_8  and  C9_9 
ROOT
HETATM    1  C1  UNL     1     -32.899  10.297   1.083  1.00 20.00     0.012 C 
HETATM    2  C2  UNL     1     -32.396   9.297   1.519  1.00 20.00    -0.117 C 
HETATM    3  C6  UNL     1     -31.778   8.073   2.049  1.00 20.00     0.093 C 
ENDROOT
BRANCH   3   4
HETATM    4  C8  UNL     1     -32.313   7.748   3.448  1.00 20.00     0.024 C 
BRANCH   4   5
HETATM    5  C9  UNL     1     -33.714   7.112   3.406  1.00 20.00     0.055 C 
BRANCH   5   6
HETATM    6  C3  UNL     1     -34.179   6.657   4.791  1.00 20.00     0.127 C 
HETATM    7  C4  UNL     1     -33.555   7.347   5.979  1.00 20.00     0.091 C 
HETATM    8  O10 UNL     1     -35.041   5.792   4.947  1.00 20.00    -0.298 OA
ENDBRANCH   5   6
BRANCH   5   9
HETATM    9  C7  UNL     1     -33.798   5.943   2.408  1.00 20.00     0.007 C 
HETATM   10  C5  UNL     1     -32.926   4.741   2.751  1.00 20.00     0.006 C 
ENDBRANCH   5   9
ENDBRANCH   4   5
ENDBRANCH   3   4
TORSDOF 4
ENDMDL
MODEL 2
REMARK VINA RESULT:      -5.8      1.181      2.215
REMARK  4 active torsions:
REMARK  status: ('A' for Active; 'I' for Inactive)
REMARK    1  A    between atoms: C3_3  and  C9_9 
REMARK    2  A    between atoms: C6_6  and  C8_8 
REMARK    3  A    between atoms: C7_7  and  C9_9 
REMARK    4  A    between atoms: C8_8  and  C9_9 
ROOT
HETATM    1  C1  UNL     1     -32.582  10.012   0.484  1.00 20.00     0.012 C 
HETATM    2  C2  UNL     1     -32.322   9.234   1.360  1.00 20.00    -0.117 C 
HETATM    3  C6  UNL     1     -32.000   8.282   2.434  1.00 20.00     0.093 C 
ENDROOT
BRANCH   3   4
HETATM    4  C8  UNL     1     -32.941   7.072   2.397  1.00 20.00     0.024 C 
BRANCH   4   5
HETATM    5  C9  UNL     1     -33.222   6.506   3.800  1.00 20.00     0.055 C 
BRANCH   5   6
HETATM    6  C3  UNL     1     -34.464   5.612   3.820  1.00 20.00     0.127 C 
HETATM    7  C4  UNL     1     -34.276   4.200   4.317  1.00 20.00     0.091 C 
HETATM    8  O10 UNL     1     -35.574   6.016   3.477  1.00 20.00    -0.298 OA
ENDBRANCH   5   6
BRANCH   5   9
HETATM    9  C7  UNL     1     -33.348   7.612   4.864  1.00 20.00     0.007 C 
HETATM   10  C5  UNL     1     -33.892   7.150   6.210  1.00 20.00     0.006 C 
ENDBRANCH   5   9
ENDBRANCH   4   5
ENDBRANCH   3   4
TORSDOF 4
ENDMDL
MODEL 3
REMARK VINA RESULT:      -5.4      1.954      4.215
REMARK  4 active torsions:
REMARK  status: ('A' for Active; 'I' for Inactive)
REMARK    1  A    between atoms: C3_3  and  C9_9 
REMARK    2  A    between atoms: C6_6  and  C8_8 
REMARK    3  A    between atoms: C7_7  and  C9_9 
REMARK    4  A    between atoms: C8_8  and  C9_9 
ROOT
HETATM    1  C1  UNL     1     -34.731   4.672   5.823  1.00 20.00     0.012 C 
HETATM    2  C2  UNL     1     -34.340   5.808   5.818  1.00 20.00    -0.117 C 
HETATM    3  C6  UNL     1     -33.862   7.198   5.816  1.00 20.00     0.093 C 
ENDROOT
BRANCH   3   4
HETATM    4  C8  UNL     1     -33.866   7.779   4.397  1.00 20.00     0.024 C 
BRANCH   4   5
HETATM    5  C9  UNL     1     -32.826   7.103   3.486  1.00 20.00     0.055 C 
BRANCH   5   6
HETATM    6  C3  UNL     1     -31.910   8.123   2.806  1.00 20.00     0.127 C 
HETATM    7  C4  UNL     1     -32.391   8.706   1.500  1.00 20.00     0.091 C 
HETATM    8  O10 UNL     1     -30.842   8.483   3.299  1.00 20.00    -0.298 OA
ENDBRANCH   5   6
BRANCH   5   9
HETATM    9  C7  UNL     1     -33.476   6.189   2.432  1.00 20.00     0.007 C 
HETATM   10  C5  UNL     1     -33.069   4.723   2.513  1.00 20.00     0.006 C 
ENDBRANCH   5   9
ENDBRANCH   4   5
ENDBRANCH   3   4
TORSDOF 4
ENDMDL
MODEL 4
REMARK VINA RESULT:      -5.0      1.227      4.068
REMARK  4 active torsions:
REMARK  status: ('A' for Active; 'I' for Inactive)
REMARK    1  A    between atoms: C3_3  and  C9_9 
REMARK    2  A    between atoms: C6_6  and  C8_8 
REMARK    3  A    between atoms: C7_7  and  C9_9 
REMARK    4  A    between atoms: C8_8  and  C9_9 
ROOT
HETATM    1  C1  UNL     1     -34.679   4.951   5.953  1.00 20.00     0.012 C 
HETATM    2  C2  UNL     1     -34.276   6.072   5.809  1.00 20.00    -0.117 C 
HETATM    3  C6  UNL     1     -33.785   7.447   5.635  1.00 20.00     0.093 C 
ENDROOT
BRANCH   3   4
HETATM    4  C8  UNL     1     -32.654   7.501   4.601  1.00 20.00     0.024 C 
BRANCH   4   5
HETATM    5  C9  UNL     1     -33.184   7.577   3.158  1.00 20.00     0.055 C 
BRANCH   5   6
HETATM    6  C3  UNL     1     -33.787   6.247   2.698  1.00 20.00     0.127 C 
HETATM    7  C4  UNL     1     -32.850   5.068   2.616  1.00 20.00     0.091 C 
HETATM    8  O10 UNL     1     -34.982   6.121   2.429  1.00 20.00    -0.298 OA
ENDBRANCH   5   6
BRANCH   5   9
HETATM    9  C7  UNL     1     -32.109   8.045   2.161  1.00 20.00     0.007 C 
HETATM   10  C5  UNL     1     -32.465   9.299   1.373  1.00 20.00     0.006 C 
ENDBRANCH   5   9
ENDBRANCH   4   5
ENDBRANCH   3   4
TORSDOF 4
ENDMDL
MODEL 5
REMARK VINA RESULT:      -5.0      2.176      4.537
REMARK  4 active torsions:
REMARK  status: ('A' for Active; 'I' for Inactive)
REMARK    1  A    between atoms: C3_3  and  C9_9 
REMARK    2  A    between atoms: C6_6  and  C8_8 
REMARK    3  A    between atoms: C7_7  and  C9_9 
REMARK    4  A    between atoms: C8_8  and  C9_9 
ROOT
HETATM    1  C1  UNL     1     -34.533   4.626   5.121  1.00 20.00     0.012 C 
HETATM    2  C2  UNL     1     -34.423   5.150   4.046  1.00 20.00    -0.117 C 
HETATM    3  C6  UNL     1     -34.293   5.790   2.729  1.00 20.00     0.093 C 
ENDROOT
BRANCH   3   4
HETATM    4  C8  UNL     1     -32.891   6.382   2.541  1.00 20.00     0.024 C 
BRANCH   4   5
HETATM    5  C9  UNL     1     -32.850   7.891   2.841  1.00 20.00     0.055 C 
BRANCH   5   6
HETATM    6  C3  UNL     1     -32.227   8.688   1.692  1.00 20.00     0.127 C 
HETATM    7  C4  UNL     1     -32.829  10.039   1.396  1.00 20.00     0.091 C 
HETATM    8  O10 UNL     1     -31.263   8.274   1.048  1.00 20.00    -0.298 OA
ENDBRANCH   5   6
BRANCH   5   9
HETATM    9  C7  UNL     1     -32.123   8.208   4.161  1.00 20.00     0.007 C 
HETATM   10  C5  UNL     1     -32.935   7.941   5.422  1.00 20.00     0.006 C 
ENDBRANCH   5   9
ENDBRANCH   4   5
ENDBRANCH   3   4
TORSDOF 4
ENDMDL
MODEL 6
REMARK VINA RESULT:      -4.6      1.968      4.111
REMARK  4 active torsions:
REMARK  status: ('A' for Active; 'I' for Inactive)
REMARK    1  A    between atoms: C3_3  and  C9_9 
REMARK    2  A    between atoms: C6_6  and  C8_8 
REMARK    3  A    between atoms: C7_7  and  C9_9 
REMARK    4  A    between atoms: C8_8  and  C9_9 
ROOT
HETATM    1  C1  UNL     1     -34.526   4.249   5.073  1.00 20.00     0.012 C 
HETATM    2  C2  UNL     1     -34.059   4.664   4.049  1.00 20.00    -0.117 C 
HETATM    3  C6  UNL     1     -33.484   5.170   2.794  1.00 20.00     0.093 C 
ENDROOT
BRANCH   3   4
HETATM    4  C8  UNL     1     -33.800   6.658   2.604  1.00 20.00     0.024 C 
BRANCH   4   5
HETATM    5  C9  UNL     1     -32.530   7.527   2.577  1.00 20.00     0.055 C 
BRANCH   5   6
HETATM    6  C3  UNL     1     -32.139   8.016   3.973  1.00 20.00     0.127 C 
HETATM    7  C4  UNL     1     -33.111   7.729   5.091  1.00 20.00     0.091 C 
HETATM    8  O10 UNL     1     -31.075   8.591   4.198  1.00 20.00    -0.298 OA
ENDBRANCH   5   6
BRANCH   5   9
HETATM    9  C7  UNL     1     -32.656   8.722   1.614  1.00 20.00     0.007 C 
HETATM   10  C5  UNL     1     -31.541   8.837   0.583  1.00 20.00     0.006 C 
ENDBRANCH   5   9
ENDBRANCH   4   5
ENDBRANCH   3   4
TORSDOF 4
ENDMDL
MODEL 7
REMARK VINA RESULT:      -4.4     10.590     11.610
REMARK  4 active torsions:
REMARK  status: ('A' for Active; 'I' for Inactive)
REMARK    1  A    between atoms: C3_3  and  C9_9 
REMARK    2  A    between atoms: C6_6  and  C8_8 
REMARK    3  A    between atoms: C7_7  and  C9_9 
REMARK    4  A    between atoms: C8_8  and  C9_9 
ROOT
HETATM    1  C1  UNL     1     -35.197  17.023  -1.205  1.00 20.00     0.012 C 
HETATM    2  C2  UNL     1     -34.555  16.678  -2.158  1.00 20.00    -0.117 C 
HETATM    3  C6  UNL     1     -33.766  16.259  -3.327  1.00 20.00     0.093 C 
ENDROOT
BRANCH   3   4
HETATM    4  C8  UNL     1     -34.197  14.869  -3.812  1.00 20.00     0.024 C 
BRANCH   4   5
HETATM    5  C9  UNL     1     -35.014  14.932  -5.115  1.00 20.00     0.055 C 
BRANCH   5   6
HETATM    6  C3  UNL     1     -36.126  13.882  -5.146  1.00 20.00     0.127 C 
HETATM    7  C4  UNL     1     -37.545  14.394  -5.129  1.00 20.00     0.091 C 
HETATM    8  O10 UNL     1     -35.894  12.675  -5.209  1.00 20.00    -0.298 OA
ENDBRANCH   5   6
BRANCH   5   9
HETATM    9  C7  UNL     1     -34.130  14.805  -6.368  1.00 20.00     0.007 C 
HETATM   10  C5  UNL     1     -33.811  16.121  -7.067  1.00 20.00     0.006 C 
ENDBRANCH   5   9
ENDBRANCH   4   5
ENDBRANCH   3   4
TORSDOF 4
ENDMDL
MODEL 8
REMARK VINA RESULT:      -4.3     10.646     11.758
REMARK  4 active torsions:
REMARK  status: ('A' for Active; 'I' for Inactive)
REMARK    1  A    between atoms: C3_3  and  C9_9 
REMARK    2  A    between atoms: C6_6  and  C8_8 
REMARK    3  A    between atoms: C7_7  and  C9_9 
REMARK    4  A    between atoms: C8_8  and  C9_9 
ROOT
HETATM    1  C1  UNL     1     -32.915  18.054  -1.188  1.00 20.00     0.012 C 
HETATM    2  C2  UNL     1     -33.927  17.448  -1.412  1.00 20.00    -0.117 C 
HETATM    3  C6  UNL     1     -35.168  16.705  -1.681  1.00 20.00     0.093 C 
ENDROOT
BRANCH   3   4
HETATM    4  C8  UNL     1     -35.293  16.367  -3.172  1.00 20.00     0.024 C 
BRANCH   4   5
HETATM    5  C9  UNL     1     -34.092  15.556  -3.690  1.00 20.00     0.055 C 
BRANCH   5   6
HETATM    6  C3  UNL     1     -33.400  16.246  -4.868  1.00 20.00     0.127 C 
HETATM    7  C4  UNL     1     -33.754  17.692  -5.113  1.00 20.00     0.091 C 
HETATM    8  O10 UNL     1     -32.571  15.673  -5.575  1.00 20.00    -0.298 OA
ENDBRANCH   5   6
BRANCH   5   9
HETATM    9  C7  UNL     1     -34.476  14.115  -4.071  1.00 20.00     0.007 C 
HETATM   10  C5  UNL     1     -35.764  13.984  -4.874  1.00 20.00     0.006 C 
ENDBRANCH   5   9
ENDBRANCH   4   5
ENDBRANCH   3   4
TORSDOF 4
ENDMDL
MODEL 9
REMARK VINA RESULT:      -4.3     10.607     11.702
REMARK  4 active torsions:
REMARK  status: ('A' for Active; 'I' for Inactive)
REMARK    1  A    between atoms: C3_3  and  C9_9 
REMARK    2  A    between atoms: C6_6  and  C8_8 
REMARK    3  A    between atoms: C7_7  and  C9_9 
REMARK    4  A    between atoms: C8_8  and  C9_9 
ROOT
HETATM    1  C1  UNL     1     -34.047  15.921  -7.918  1.00 20.00     0.012 C 
HETATM    2  C2  UNL     1     -33.671  15.988  -6.780  1.00 20.00    -0.117 C 
HETATM    3  C6  UNL     1     -33.208  16.073  -5.387  1.00 20.00     0.093 C 
ENDROOT
BRANCH   3   4
HETATM    4  C8  UNL     1     -33.380  14.729  -4.667  1.00 20.00     0.024 C 
BRANCH   4   5
HETATM    5  C9  UNL     1     -34.739  14.617  -3.954  1.00 20.00     0.055 C 
BRANCH   5   6
HETATM    6  C3  UNL     1     -35.775  13.882  -4.808  1.00 20.00     0.127 C 
HETATM    7  C4  UNL     1     -37.058  14.619  -5.105  1.00 20.00     0.091 C 
HETATM    8  O10 UNL     1     -35.578  12.756  -5.262  1.00 20.00    -0.298 OA
ENDBRANCH   5   6
BRANCH   5   9
HETATM    9  C7  UNL     1     -35.287  15.987  -3.517  1.00 20.00     0.007 C 
HETATM   10  C5  UNL     1     -34.779  16.483  -2.170  1.00 20.00     0.006 C 
ENDBRANCH   5   9
ENDBRANCH   4   5
ENDBRANCH   3   4
TORSDOF 4
ENDMDL
