MODEL 1
REMARK VINA RESULT:      -6.0      0.000      0.000
REMARK  3 active torsions:
REMARK  status: ('A' for Active; 'I' for Inactive)
REMARK    1  A    between atoms: C1_1  and  C5_5 
REMARK    2  A    between atoms: C1_1  and  C8_8 
REMARK    3  A    between atoms: C8_8  and  C9_9 
ROOT
HETATM    1  C1  UNL     1     -32.079   8.043   3.003  1.00 20.00     0.133 C 
HETATM    2  O10 UNL     1     -31.219   8.287   3.848  1.00 20.00    -0.297 OA
ENDROOT
BRANCH   1   3
HETATM    3  C5  UNL     1     -33.356   7.377   3.380  1.00 20.00     0.081 C 
HETATM    4  C2  UNL     1     -33.436   5.924   2.959  1.00 20.00     0.040 C 
HETATM    5  C3  UNL     1     -34.517   5.393   3.874  1.00 20.00     0.168 C 
HETATM    6  O11 UNL     1     -34.392   6.110   5.108  1.00 20.00    -0.390 OA
HETATM    7  C4  UNL     1     -33.577   7.271   4.882  1.00 20.00     0.179 C 
ENDBRANCH   1   3
BRANCH   1   8
HETATM    8  C8  UNL     1     -31.897   8.354   1.525  1.00 20.00     0.082 C 
BRANCH   8   9
HETATM    9  C9  UNL     1     -32.918   9.359   0.972  1.00 20.00    -0.016 C 
HETATM   10  C6  UNL     1     -33.016   9.277  -0.553  1.00 20.00     0.010 C 
HETATM   11  C7  UNL     1     -32.530  10.780   1.389  1.00 20.00     0.010 C 
ENDBRANCH   8   9
ENDBRANCH   1   8
TORSDOF 3
ENDMDL
MODEL 2
REMARK VINA RESULT:      -5.3      1.350      1.579
REMARK  3 active torsions:
REMARK  status: ('A' for Active; 'I' for Inactive)
REMARK    1  A    between atoms: C1_1  and  C5_5 
REMARK    2  A    between atoms: C1_1  and  C8_8 
REMARK    3  A    between atoms: C8_8  and  C9_9 
ROOT
HETATM    1  C1  UNL     1     -32.858   6.991   2.925  1.00 20.00     0.133 C 
HETATM    2  O10 UNL     1     -32.559   5.999   2.261  1.00 20.00    -0.297 OA
ENDROOT
BRANCH   1   3
HETATM    3  C5  UNL     1     -33.889   6.913   3.997  1.00 20.00     0.081 C 
HETATM    4  C2  UNL     1     -34.291   5.497   4.357  1.00 20.00     0.040 C 
HETATM    5  C3  UNL     1     -34.895   5.685   5.730  1.00 20.00     0.168 C 
HETATM    6  O11 UNL     1     -34.161   6.745   6.355  1.00 20.00    -0.390 OA
HETATM    7  C4  UNL     1     -33.424   7.448   5.343  1.00 20.00     0.179 C 
ENDBRANCH   1   3
BRANCH   1   8
HETATM    8  C8  UNL     1     -32.246   8.363   2.684  1.00 20.00     0.082 C 
BRANCH   8   9
HETATM    9  C9  UNL     1     -32.482   8.905   1.266  1.00 20.00    -0.016 C 
HETATM   10  C6  UNL     1     -31.265   8.670   0.368  1.00 20.00     0.010 C 
HETATM   11  C7  UNL     1     -32.798  10.401   1.325  1.00 20.00     0.010 C 
ENDBRANCH   8   9
ENDBRANCH   1   8
TORSDOF 3
ENDMDL
MODEL 3
REMARK VINA RESULT:      -5.0      1.475      4.728
REMARK  3 active torsions:
REMARK  status: ('A' for Active; 'I' for Inactive)
REMARK    1  A    between atoms: C1_1  and  C5_5 
REMARK    2  A    between atoms: C1_1  and  C8_8 
REMARK    3  A    between atoms: C8_8  and  C9_9 
ROOT
HETATM    1  C1  UNL     1     -32.204   7.756   3.141  1.00 20.00     0.133 C 
HETATM    2  O10 UNL     1     -31.359   8.264   3.877  1.00 20.00    -0.297 OA
ENDROOT
BRANCH   1   3
HETATM    3  C5  UNL     1     -32.586   8.400   1.854  1.00 20.00     0.081 C 
HETATM    4  C2  UNL     1     -32.915   9.874   1.982  1.00 20.00     0.040 C 
HETATM    5  C3  UNL     1     -32.751  10.354   0.557  1.00 20.00     0.168 C 
HETATM    6  O11 UNL     1     -31.693   9.574  -0.014  1.00 20.00    -0.390 OA
HETATM    7  C4  UNL     1     -31.469   8.427   0.821  1.00 20.00     0.179 C 
ENDBRANCH   1   3
BRANCH   1   8
HETATM    8  C8  UNL     1     -32.948   6.477   3.496  1.00 20.00     0.082 C 
BRANCH   8   9
HETATM    9  C9  UNL     1     -34.176   6.703   4.390  1.00 20.00    -0.016 C 
HETATM   10  C6  UNL     1     -33.774   7.212   5.776  1.00 20.00     0.010 C 
HETATM   11  C7  UNL     1     -34.969   5.401   4.527  1.00 20.00     0.010 C 
ENDBRANCH   8   9
ENDBRANCH   1   8
TORSDOF 3
ENDMDL
MODEL 4
REMARK VINA RESULT:      -4.8      1.450      2.019
REMARK  3 active torsions:
REMARK  status: ('A' for Active; 'I' for Inactive)
REMARK    1  A    between atoms: C1_1  and  C5_5 
REMARK    2  A    between atoms: C1_1  and  C8_8 
REMARK    3  A    between atoms: C8_8  and  C9_9 
ROOT
HETATM    1  C1  UNL     1     -33.233   6.919   2.665  1.00 20.00     0.133 C 
HETATM    2  O10 UNL     1     -33.803   6.408   1.702  1.00 20.00    -0.297 OA
ENDROOT
BRANCH   1   3
HETATM    3  C5  UNL     1     -33.349   6.327   4.026  1.00 20.00     0.081 C 
HETATM    4  C2  UNL     1     -33.759   7.321   5.093  1.00 20.00     0.040 C 
HETATM    5  C3  UNL     1     -34.286   6.411   6.181  1.00 20.00     0.168 C 
HETATM    6  O11 UNL     1     -34.890   5.294   5.517  1.00 20.00    -0.390 OA
HETATM    7  C4  UNL     1     -34.443   5.277   4.152  1.00 20.00     0.179 C 
ENDBRANCH   1   3
BRANCH   1   8
HETATM    8  C8  UNL     1     -32.417   8.198   2.558  1.00 20.00     0.082 C 
BRANCH   8   9
HETATM    9  C9  UNL     1     -32.513   8.882   1.186  1.00 20.00    -0.016 C 
HETATM   10  C6  UNL     1     -31.229   8.692   0.376  1.00 20.00     0.010 C 
HETATM   11  C7  UNL     1     -32.794  10.376   1.365  1.00 20.00     0.010 C 
ENDBRANCH   8   9
ENDBRANCH   1   8
TORSDOF 3
ENDMDL
MODEL 5
REMARK VINA RESULT:      -4.8      1.534      4.611
REMARK  3 active torsions:
REMARK  status: ('A' for Active; 'I' for Inactive)
REMARK    1  A    between atoms: C1_1  and  C5_5 
REMARK    2  A    between atoms: C1_1  and  C8_8 
REMARK    3  A    between atoms: C8_8  and  C9_9 
ROOT
HETATM    1  C1  UNL     1     -33.295   5.941   2.877  1.00 20.00     0.133 C 
HETATM    2  O10 UNL     1     -32.918   4.771   2.820  1.00 20.00    -0.297 OA
ENDROOT
BRANCH   1   3
HETATM    3  C5  UNL     1     -32.420   7.051   2.410  1.00 20.00     0.081 C 
HETATM    4  C2  UNL     1     -33.149   8.111   1.610  1.00 20.00     0.040 C 
HETATM    5  C3  UNL     1     -32.208   9.289   1.723  1.00 20.00     0.168 C 
HETATM    6  O11 UNL     1     -31.603   9.202   3.019  1.00 20.00    -0.390 OA
HETATM    7  C4  UNL     1     -31.820   7.880   3.537  1.00 20.00     0.179 C 
ENDBRANCH   1   3
BRANCH   1   8
HETATM    8  C8  UNL     1     -34.641   6.348   3.459  1.00 20.00     0.082 C 
BRANCH   8   9
HETATM    9  C9  UNL     1     -34.814   5.976   4.939  1.00 20.00    -0.016 C 
HETATM   10  C6  UNL     1     -33.941   6.852   5.841  1.00 20.00     0.010 C 
HETATM   11  C7  UNL     1     -34.461   4.502   5.152  1.00 20.00     0.010 C 
ENDBRANCH   8   9
ENDBRANCH   1   8
TORSDOF 3
ENDMDL
MODEL 6
REMARK VINA RESULT:      -4.6      1.473      4.758
REMARK  3 active torsions:
REMARK  status: ('A' for Active; 'I' for Inactive)
REMARK    1  A    between atoms: C1_1  and  C5_5 
REMARK    2  A    between atoms: C1_1  and  C8_8 
REMARK    3  A    between atoms: C8_8  and  C9_9 
ROOT
HETATM    1  C1  UNL     1     -33.606   7.095   4.382  1.00 20.00     0.133 C 
HETATM    2  O10 UNL     1     -33.437   7.549   5.513  1.00 20.00    -0.297 OA
ENDROOT
BRANCH   1   3
HETATM    3  C5  UNL     1     -32.596   7.315   3.310  1.00 20.00     0.081 C 
HETATM    4  C2  UNL     1     -33.157   7.976   2.067  1.00 20.00     0.040 C 
HETATM    5  C3  UNL     1     -31.908   8.527   1.417  1.00 20.00     0.168 C 
HETATM    6  O11 UNL     1     -31.028   8.903   2.483  1.00 20.00    -0.390 OA
HETATM    7  C4  UNL     1     -31.488   8.284   3.695  1.00 20.00     0.179 C 
ENDBRANCH   1   3
BRANCH   1   8
HETATM    8  C8  UNL     1     -34.854   6.325   3.978  1.00 20.00     0.082 C 
BRANCH   8   9
HETATM    9  C9  UNL     1     -34.908   4.895   4.537  1.00 20.00    -0.016 C 
HETATM   10  C6  UNL     1     -34.646   4.874   6.045  1.00 20.00     0.010 C 
HETATM   11  C7  UNL     1     -33.880   4.015   3.822  1.00 20.00     0.010 C 
ENDBRANCH   8   9
ENDBRANCH   1   8
TORSDOF 3
ENDMDL
MODEL 7
REMARK VINA RESULT:      -4.5     10.095     10.986
REMARK  3 active torsions:
REMARK  status: ('A' for Active; 'I' for Inactive)
REMARK    1  A    between atoms: C1_1  and  C5_5 
REMARK    2  A    between atoms: C1_1  and  C8_8 
REMARK    3  A    between atoms: C8_8  and  C9_9 
ROOT
HETATM    1  C1  UNL     1     -33.608  15.799  -4.888  1.00 20.00     0.133 C 
HETATM    2  O10 UNL     1     -32.439  15.527  -5.161  1.00 20.00    -0.297 OA
ENDROOT
BRANCH   1   3
HETATM    3  C5  UNL     1     -34.732  15.000  -5.451  1.00 20.00     0.081 C 
HETATM    4  C2  UNL     1     -34.388  14.284  -6.741  1.00 20.00     0.040 C 
HETATM    5  C3  UNL     1     -35.447  13.206  -6.791  1.00 20.00     0.168 C 
HETATM    6  O11 UNL     1     -35.705  12.829  -5.433  1.00 20.00    -0.390 OA
HETATM    7  C4  UNL     1     -35.168  13.841  -4.567  1.00 20.00     0.179 C 
ENDBRANCH   1   3
BRANCH   1   8
HETATM    8  C8  UNL     1     -33.998  16.977  -4.009  1.00 20.00     0.082 C 
BRANCH   8   9
HETATM    9  C9  UNL     1     -33.964  16.667  -2.505  1.00 20.00    -0.016 C 
HETATM   10  C6  UNL     1     -35.368  16.687  -1.898  1.00 20.00     0.010 C 
HETATM   11  C7  UNL     1     -33.074  17.681  -1.783  1.00 20.00     0.010 C 
ENDBRANCH   8   9
ENDBRANCH   1   8
TORSDOF 3
ENDMDL
MODEL 8
REMARK VINA RESULT:      -4.3      9.834     10.814
REMARK  3 active torsions:
REMARK  status: ('A' for Active; 'I' for Inactive)
REMARK    1  A    between atoms: C1_1  and  C5_5 
REMARK    2  A    between atoms: C1_1  and  C8_8 
REMARK    3  A    between atoms: C8_8  and  C9_9 
ROOT
HETATM    1  C1  UNL     1     -33.956  15.968  -4.237  1.00 20.00     0.133 C 
HETATM    2  O10 UNL     1     -32.969  15.727  -4.931  1.00 20.00    -0.297 OA
ENDROOT
BRANCH   1   3
HETATM    3  C5  UNL     1     -35.122  15.042  -4.216  1.00 20.00     0.081 C 
HETATM    4  C2  UNL     1     -36.138  15.313  -5.307  1.00 20.00     0.040 C 
HETATM    5  C3  UNL     1     -36.876  13.995  -5.379  1.00 20.00     0.168 C 
HETATM    6  O11 UNL     1     -35.913  12.974  -5.089  1.00 20.00    -0.390 OA
HETATM    7  C4  UNL     1     -34.762  13.589  -4.490  1.00 20.00     0.179 C 
ENDBRANCH   1   3
BRANCH   1   8
HETATM    8  C8  UNL     1     -34.086  17.227  -3.394  1.00 20.00     0.082 C 
BRANCH   8   9
HETATM    9  C9  UNL     1     -33.882  16.990  -1.890  1.00 20.00    -0.016 C 
HETATM   10  C6  UNL     1     -35.201  17.103  -1.122  1.00 20.00     0.010 C 
HETATM   11  C7  UNL     1     -32.873  17.998  -1.334  1.00 20.00     0.010 C 
ENDBRANCH   8   9
ENDBRANCH   1   8
TORSDOF 3
ENDMDL
MODEL 9
REMARK VINA RESULT:      -4.1      9.936     11.555
REMARK  3 active torsions:
REMARK  status: ('A' for Active; 'I' for Inactive)
REMARK    1  A    between atoms: C1_1  and  C5_5 
REMARK    2  A    between atoms: C1_1  and  C8_8 
REMARK    3  A    between atoms: C8_8  and  C9_9 
ROOT
HETATM    1  C1  UNL     1     -35.740  13.804  -4.960  1.00 20.00     0.133 C 
HETATM    2  O10 UNL     1     -35.884  12.633  -5.308  1.00 20.00    -0.297 OA
ENDROOT
BRANCH   1   3
HETATM    3  C5  UNL     1     -36.696  14.858  -5.400  1.00 20.00     0.081 C 
HETATM    4  C2  UNL     1     -36.847  14.957  -6.904  1.00 20.00     0.040 C 
HETATM    5  C3  UNL     1     -38.172  15.673  -7.037  1.00 20.00     0.168 C 
HETATM    6  O11 UNL     1     -38.983  15.232  -5.940  1.00 20.00    -0.390 OA
HETATM    7  C4  UNL     1     -38.133  14.607  -4.966  1.00 20.00     0.179 C 
ENDBRANCH   1   3
BRANCH   1   8
HETATM    8  C8  UNL     1     -34.571  14.274  -4.107  1.00 20.00     0.082 C 
BRANCH   8   9
HETATM    9  C9  UNL     1     -34.196  15.748  -4.328  1.00 20.00    -0.016 C 
HETATM   10  C6  UNL     1     -33.071  15.890  -5.356  1.00 20.00     0.010 C 
HETATM   11  C7  UNL     1     -33.767  16.382  -3.003  1.00 20.00     0.010 C 
ENDBRANCH   8   9
ENDBRANCH   1   8
TORSDOF 3
ENDMDL
