MODEL 1
REMARK VINA RESULT:      -3.6      0.000      0.000
REMARK  2 active torsions:
REMARK  status: ('A' for Active; 'I' for Inactive)
REMARK    1  A    between atoms: C1_1  and  C7_7 
REMARK    2  A    between atoms: C7_7  and  S10_10 
ROOT
HETATM    1  C1  UNL     1     -34.975  15.689  -3.465  1.00 20.00     0.061 A 
HETATM    2  C2  UNL     1     -34.409  14.692  -4.230  1.00 20.00     0.006 A 
HETATM    3  C3  UNL     1     -36.792  14.961  -4.454  1.00 20.00     0.072 A 
HETATM    4  C4  UNL     1     -33.001  14.259  -4.339  1.00 20.00     0.058 C 
HETATM    5  C5  UNL     1     -38.211  14.826  -4.851  1.00 20.00     0.078 C 
HETATM    6  N8  UNL     1     -36.341  15.846  -3.594  1.00 20.00    -0.249 NA
HETATM    7  S9  UNL     1     -35.628  13.909  -5.149  1.00 20.00    -0.078 SA
ENDROOT
BRANCH   1   8
HETATM    8  C7  UNL     1     -34.238  16.614  -2.518  1.00 20.00     0.093 C 
HETATM    9  C6  UNL     1     -33.625  17.820  -3.228  1.00 20.00     0.028 C 
BRANCH   8  10
HETATM   10  S10 UNL     1     -35.331  17.168  -1.159  1.00 20.00    -0.172 SA
HETATM   11  H21 UNL     1     -34.340  17.569  -0.353  1.00 20.00     0.102 HD
ENDBRANCH   8  10
ENDBRANCH   1   8
TORSDOF 2
ENDMDL
MODEL 2
REMARK VINA RESULT:      -3.4      1.797      3.663
REMARK  2 active torsions:
REMARK  status: ('A' for Active; 'I' for Inactive)
REMARK    1  A    between atoms: C1_1  and  C7_7 
REMARK    2  A    between atoms: C7_7  and  S10_10 
ROOT
HETATM    1  C1  UNL     1     -35.474  15.642  -4.290  1.00 20.00     0.061 A 
HETATM    2  C2  UNL     1     -34.188  16.089  -4.503  1.00 20.00     0.006 A 
HETATM    3  C3  UNL     1     -35.139  16.615  -2.353  1.00 20.00     0.072 A 
HETATM    4  C4  UNL     1     -33.315  15.946  -5.685  1.00 20.00     0.058 C 
HETATM    5  C5  UNL     1     -35.365  17.108  -0.977  1.00 20.00     0.078 C 
HETATM    6  N8  UNL     1     -36.021  15.941  -3.057  1.00 20.00    -0.249 NA
HETATM    7  S9  UNL     1     -33.631  16.923  -3.112  1.00 20.00    -0.078 SA
ENDROOT
BRANCH   1   8
HETATM    8  C7  UNL     1     -36.322  14.860  -5.273  1.00 20.00     0.093 C 
HETATM    9  C6  UNL     1     -35.925  13.386  -5.352  1.00 20.00     0.028 C 
BRANCH   8  10
HETATM   10  S10 UNL     1     -38.101  15.016  -4.876  1.00 20.00    -0.172 SA
HETATM   11  H21 UNL     1     -38.006  14.476  -3.654  1.00 20.00     0.102 HD
ENDBRANCH   8  10
ENDBRANCH   1   8
TORSDOF 2
ENDMDL
MODEL 3
REMARK VINA RESULT:      -3.3      1.985      4.035
REMARK  2 active torsions:
REMARK  status: ('A' for Active; 'I' for Inactive)
REMARK    1  A    between atoms: C1_1  and  C7_7 
REMARK    2  A    between atoms: C7_7  and  S10_10 
ROOT
HETATM    1  C1  UNL     1     -35.926  14.819  -5.389  1.00 20.00     0.061 A 
HETATM    2  C2  UNL     1     -34.699  14.417  -5.872  1.00 20.00     0.006 A 
HETATM    3  C3  UNL     1     -34.654  15.698  -3.833  1.00 20.00     0.072 A 
HETATM    4  C4  UNL     1     -34.362  13.630  -7.076  1.00 20.00     0.058 C 
HETATM    5  C5  UNL     1     -34.233  16.426  -2.616  1.00 20.00     0.078 C 
HETATM    6  N8  UNL     1     -35.902  15.552  -4.218  1.00 20.00    -0.249 NA
HETATM    7  S9  UNL     1     -33.458  14.977  -4.830  1.00 20.00    -0.078 SA
ENDROOT
BRANCH   1   8
HETATM    8  C7  UNL     1     -37.273  14.526  -6.018  1.00 20.00     0.093 C 
HETATM    9  C6  UNL     1     -38.426  14.631  -5.020  1.00 20.00     0.028 C 
BRANCH   8  10
HETATM   10  S10 UNL     1     -37.578  15.617  -7.454  1.00 20.00    -0.172 SA
HETATM   11  H21 UNL     1     -36.940  14.843  -8.341  1.00 20.00     0.102 HD
ENDBRANCH   8  10
ENDBRANCH   1   8
TORSDOF 2
ENDMDL
MODEL 4
REMARK VINA RESULT:      -3.2      2.299      3.532
REMARK  2 active torsions:
REMARK  status: ('A' for Active; 'I' for Inactive)
REMARK    1  A    between atoms: C1_1  and  C7_7 
REMARK    2  A    between atoms: C7_7  and  S10_10 
ROOT
HETATM    1  C1  UNL     1     -35.661  15.511  -4.843  1.00 20.00     0.061 A 
HETATM    2  C2  UNL     1     -34.455  15.825  -4.255  1.00 20.00     0.006 A 
HETATM    3  C3  UNL     1     -34.347  15.106  -6.551  1.00 20.00     0.072 A 
HETATM    4  C4  UNL     1     -34.156  16.293  -2.887  1.00 20.00     0.058 C 
HETATM    5  C5  UNL     1     -33.891  14.726  -7.906  1.00 20.00     0.078 C 
HETATM    6  N8  UNL     1     -35.602  15.100  -6.161  1.00 20.00    -0.249 NA
HETATM    7  S9  UNL     1     -33.186  15.596  -5.387  1.00 20.00    -0.078 SA
ENDROOT
BRANCH   1   8
HETATM    8  C7  UNL     1     -37.022  15.584  -4.180  1.00 20.00     0.093 C 
HETATM    9  C6  UNL     1     -37.497  17.020  -3.962  1.00 20.00     0.028 C 
BRANCH   8  10
HETATM   10  S10 UNL     1     -38.268  14.644  -5.135  1.00 20.00    -0.172 SA
HETATM   11  H21 UNL     1     -38.403  13.661  -4.237  1.00 20.00     0.102 HD
ENDBRANCH   8  10
ENDBRANCH   1   8
TORSDOF 2
ENDMDL
MODEL 5
REMARK VINA RESULT:      -3.2      2.066      4.318
REMARK  2 active torsions:
REMARK  status: ('A' for Active; 'I' for Inactive)
REMARK    1  A    between atoms: C1_1  and  C7_7 
REMARK    2  A    between atoms: C7_7  and  S10_10 
ROOT
HETATM    1  C1  UNL     1     -34.086  16.438  -3.083  1.00 20.00     0.061 A 
HETATM    2  C2  UNL     1     -35.448  16.497  -2.877  1.00 20.00     0.006 A 
HETATM    3  C3  UNL     1     -34.087  17.583  -1.212  1.00 20.00     0.072 A 
HETATM    4  C4  UNL     1     -36.557  15.951  -3.684  1.00 20.00     0.058 C 
HETATM    5  C5  UNL     1     -33.607  18.333  -0.031  1.00 20.00     0.078 C 
HETATM    6  N8  UNL     1     -33.304  17.061  -2.130  1.00 20.00    -0.249 NA
HETATM    7  S9  UNL     1     -35.774  17.363  -1.432  1.00 20.00    -0.078 SA
ENDROOT
BRANCH   1   8
HETATM    8  C7  UNL     1     -33.389  15.764  -4.247  1.00 20.00     0.093 C 
HETATM    9  C6  UNL     1     -33.737  14.281  -4.366  1.00 20.00     0.028 C 
BRANCH   8  10
HETATM   10  S10 UNL     1     -33.753  16.627  -5.819  1.00 20.00    -0.172 SA
HETATM   11  H21 UNL     1     -35.016  16.939  -5.503  1.00 20.00     0.102 HD
ENDBRANCH   8  10
ENDBRANCH   1   8
TORSDOF 2
ENDMDL
MODEL 6
REMARK VINA RESULT:      -3.2      1.568      3.043
REMARK  2 active torsions:
REMARK  status: ('A' for Active; 'I' for Inactive)
REMARK    1  A    between atoms: C1_1  and  C7_7 
REMARK    2  A    between atoms: C7_7  and  S10_10 
ROOT
HETATM    1  C1  UNL     1     -35.715  16.000  -3.395  1.00 20.00     0.061 A 
HETATM    2  C2  UNL     1     -36.465  15.200  -4.231  1.00 20.00     0.006 A 
HETATM    3  C3  UNL     1     -34.101  14.740  -4.181  1.00 20.00     0.072 A 
HETATM    4  C4  UNL     1     -37.917  15.203  -4.501  1.00 20.00     0.058 C 
HETATM    5  C5  UNL     1     -32.754  14.174  -4.411  1.00 20.00     0.078 C 
HETATM    6  N8  UNL     1     -34.360  15.737  -3.364  1.00 20.00    -0.249 NA
HETATM    7  S9  UNL     1     -35.441  14.071  -5.018  1.00 20.00    -0.078 SA
ENDROOT
BRANCH   1   8
HETATM    8  C7  UNL     1     -36.244  17.119  -2.521  1.00 20.00     0.093 C 
HETATM    9  C6  UNL     1     -35.528  17.203  -1.173  1.00 20.00     0.028 C 
BRANCH   8  10
HETATM   10  S10 UNL     1     -36.152  18.728  -3.387  1.00 20.00    -0.172 SA
HETATM   11  H21 UNL     1     -36.922  18.361  -4.420  1.00 20.00     0.102 HD
ENDBRANCH   8  10
ENDBRANCH   1   8
TORSDOF 2
ENDMDL
MODEL 7
REMARK VINA RESULT:      -3.2      2.242      3.184
REMARK  2 active torsions:
REMARK  status: ('A' for Active; 'I' for Inactive)
REMARK    1  A    between atoms: C1_1  and  C7_7 
REMARK    2  A    between atoms: C7_7  and  S10_10 
ROOT
HETATM    1  C1  UNL     1     -34.086  17.431  -2.740  1.00 20.00     0.061 A 
HETATM    2  C2  UNL     1     -33.587  17.906  -3.934  1.00 20.00     0.006 A 
HETATM    3  C3  UNL     1     -34.235  15.586  -3.915  1.00 20.00     0.072 A 
HETATM    4  C4  UNL     1     -33.105  19.254  -4.295  1.00 20.00     0.058 C 
HETATM    5  C5  UNL     1     -34.514  14.181  -4.284  1.00 20.00     0.078 C 
HETATM    6  N8  UNL     1     -34.460  16.102  -2.727  1.00 20.00    -0.249 NA
HETATM    7  S9  UNL     1     -33.577  16.643  -5.095  1.00 20.00    -0.078 SA
ENDROOT
BRANCH   1   8
HETATM    8  C7  UNL     1     -34.261  18.232  -1.465  1.00 20.00     0.093 C 
HETATM    9  C6  UNL     1     -35.205  17.558  -0.469  1.00 20.00     0.028 C 
BRANCH   8  10
HETATM   10  S10 UNL     1     -32.645  18.570  -0.676  1.00 20.00    -0.172 SA
HETATM   11  H21 UNL     1     -32.026  18.938  -1.804  1.00 20.00     0.102 HD
ENDBRANCH   8  10
ENDBRANCH   1   8
TORSDOF 2
ENDMDL
MODEL 8
REMARK VINA RESULT:      -3.2      1.709      3.934
REMARK  2 active torsions:
REMARK  status: ('A' for Active; 'I' for Inactive)
REMARK    1  A    between atoms: C1_1  and  C7_7 
REMARK    2  A    between atoms: C7_7  and  S10_10 
ROOT
HETATM    1  C1  UNL     1     -35.365  16.006  -4.032  1.00 20.00     0.061 A 
HETATM    2  C2  UNL     1     -36.335  16.932  -4.347  1.00 20.00     0.006 A 
HETATM    3  C3  UNL     1     -35.575  16.947  -2.062  1.00 20.00     0.072 A 
HETATM    4  C4  UNL     1     -37.016  17.198  -5.631  1.00 20.00     0.058 C 
HETATM    5  C5  UNL     1     -35.371  17.255  -0.630  1.00 20.00     0.078 C 
HETATM    6  N8  UNL     1     -34.926  16.014  -2.722  1.00 20.00    -0.249 NA
HETATM    7  S9  UNL     1     -36.725  17.855  -2.955  1.00 20.00    -0.078 SA
ENDROOT
BRANCH   1   8
HETATM    8  C7  UNL     1     -34.747  15.002  -4.984  1.00 20.00     0.093 C 
HETATM    9  C6  UNL     1     -33.388  14.493  -4.504  1.00 20.00     0.028 C 
BRANCH   8  10
HETATM   10  S10 UNL     1     -35.879  13.596  -5.281  1.00 20.00    -0.172 SA
HETATM   11  H21 UNL     1     -37.003  14.322  -5.218  1.00 20.00     0.102 HD
ENDBRANCH   8  10
ENDBRANCH   1   8
TORSDOF 2
ENDMDL
MODEL 9
REMARK VINA RESULT:      -3.1      4.817      6.864
REMARK  2 active torsions:
REMARK  status: ('A' for Active; 'I' for Inactive)
REMARK    1  A    between atoms: C1_1  and  C7_7 
REMARK    2  A    between atoms: C7_7  and  S10_10 
ROOT
HETATM    1  C1  UNL     1     -34.254  18.488   0.982  1.00 20.00     0.061 A 
HETATM    2  C2  UNL     1     -32.927  18.624   0.635  1.00 20.00     0.006 A 
HETATM    3  C3  UNL     1     -33.391  18.543   2.997  1.00 20.00     0.072 A 
HETATM    4  C4  UNL     1     -32.295  18.704  -0.697  1.00 20.00     0.058 C 
HETATM    5  C5  UNL     1     -33.279  18.529   4.472  1.00 20.00     0.078 C 
HETATM    6  N8  UNL     1     -34.522  18.439   2.336  1.00 20.00    -0.249 NA
HETATM    7  S9  UNL     1     -31.966  18.700   2.054  1.00 20.00    -0.078 SA
ENDROOT
BRANCH   1   8
HETATM    8  C7  UNL     1     -35.421  18.383   0.021  1.00 20.00     0.093 C 
HETATM    9  C6  UNL     1     -35.413  17.080  -0.778  1.00 20.00     0.028 C 
BRANCH   8  10
HETATM   10  S10 UNL     1     -37.014  18.576   0.900  1.00 20.00    -0.172 SA
HETATM   11  H21 UNL     1     -36.520  19.321   1.897  1.00 20.00     0.102 HD
ENDBRANCH   8  10
ENDBRANCH   1   8
TORSDOF 2
ENDMDL
