MODEL 1
REMARK VINA RESULT:      -4.4      0.000      0.000
REMARK  2 active torsions:
REMARK  status: ('A' for Active; 'I' for Inactive)
REMARK    1  A    between atoms: C4_4  and  C5_5 
REMARK    2  A    between atoms: C5_5  and  C6_6 
ROOT
HETATM    1  C1  UNL     1     -33.309   6.783   2.758  1.00 20.00     0.034 A 
HETATM    2  C2  UNL     1     -33.119   7.390   4.994  1.00 20.00     0.069 A 
HETATM    3  C3  UNL     1     -33.719   6.530   4.099  1.00 20.00     0.018 A 
HETATM    4  C4  UNL     1     -32.413   7.827   2.678  1.00 20.00    -0.015 A 
HETATM    5  S7  UNL     1     -32.068   8.495   4.217  1.00 20.00    -0.105 SA
HETATM    6 BR9  UNL     1     -34.937   5.168   4.547  1.00 20.00    -0.051 Br
ENDROOT
BRANCH   4   7
HETATM    7  C5  UNL     1     -31.761   8.389   1.477  1.00 20.00     0.061 C 
BRANCH   7   8
HETATM    8  C6  UNL     1     -32.371   9.707   0.974  1.00 20.00     0.119 C 
HETATM    9 CL8  UNL     1     -33.250   9.479  -0.558  1.00 20.00    -0.130 Cl
ENDBRANCH   7   8
ENDBRANCH   4   7
TORSDOF 2
ENDMDL
MODEL 2
REMARK VINA RESULT:      -3.9      3.479      4.528
REMARK  2 active torsions:
REMARK  status: ('A' for Active; 'I' for Inactive)
REMARK    1  A    between atoms: C4_4  and  C5_5 
REMARK    2  A    between atoms: C5_5  and  C6_6 
ROOT
HETATM    1  C1  UNL     1     -33.547   7.131   2.484  1.00 20.00     0.034 A 
HETATM    2  C2  UNL     1     -32.034   8.263   3.838  1.00 20.00     0.069 A 
HETATM    3  C3  UNL     1     -32.413   7.991   2.541  1.00 20.00     0.018 A 
HETATM    4  C4  UNL     1     -33.992   6.777   3.739  1.00 20.00    -0.015 A 
HETATM    5  S7  UNL     1     -33.044   7.482   4.979  1.00 20.00    -0.105 SA
HETATM    6 BR9  UNL     1     -31.566   8.655   0.997  1.00 20.00    -0.051 Br
ENDROOT
BRANCH   4   7
HETATM    7  C5  UNL     1     -35.132   5.907   4.100  1.00 20.00     0.061 C 
BRANCH   7   8
HETATM    8  C6  UNL     1     -34.795   4.791   5.101  1.00 20.00     0.119 C 
HETATM    9 CL8  UNL     1     -33.773   3.534   4.361  1.00 20.00    -0.130 Cl
ENDBRANCH   7   8
ENDBRANCH   4   7
TORSDOF 2
ENDMDL
MODEL 3
REMARK VINA RESULT:      -3.9      1.507      1.813
REMARK  2 active torsions:
REMARK  status: ('A' for Active; 'I' for Inactive)
REMARK    1  A    between atoms: C4_4  and  C5_5 
REMARK    2  A    between atoms: C5_5  and  C6_6 
ROOT
HETATM    1  C1  UNL     1     -33.110   7.301   4.373  1.00 20.00     0.034 A 
HETATM    2  C2  UNL     1     -34.064   5.534   3.202  1.00 20.00     0.069 A 
HETATM    3  C3  UNL     1     -33.941   6.145   4.432  1.00 20.00     0.018 A 
HETATM    4  C4  UNL     1     -32.629   7.530   3.103  1.00 20.00    -0.015 A 
HETATM    5  S7  UNL     1     -33.181   6.354   1.987  1.00 20.00    -0.105 SA
HETATM    6 BR9  UNL     1     -34.755   5.561   6.025  1.00 20.00    -0.051 Br
ENDROOT
BRANCH   4   7
HETATM    7  C5  UNL     1     -31.744   8.618   2.636  1.00 20.00     0.061 C 
BRANCH   7   8
HETATM    8  C6  UNL     1     -31.795   8.881   1.123  1.00 20.00     0.119 C 
HETATM    9 CL8  UNL     1     -32.656  10.394   0.749  1.00 20.00    -0.130 Cl
ENDBRANCH   7   8
ENDBRANCH   4   7
TORSDOF 2
ENDMDL
MODEL 4
REMARK VINA RESULT:      -3.8      3.604      4.462
REMARK  2 active torsions:
REMARK  status: ('A' for Active; 'I' for Inactive)
REMARK    1  A    between atoms: C4_4  and  C5_5 
REMARK    2  A    between atoms: C5_5  and  C6_6 
ROOT
HETATM    1  C1  UNL     1     -33.295   7.504   1.652  1.00 20.00     0.034 A 
HETATM    2  C2  UNL     1     -31.870   8.930   2.808  1.00 20.00     0.069 A 
HETATM    3  C3  UNL     1     -32.555   8.722   1.631  1.00 20.00     0.018 A 
HETATM    4  C4  UNL     1     -33.146   6.827   2.843  1.00 20.00    -0.015 A 
HETATM    5  S7  UNL     1     -32.119   7.660   3.930  1.00 20.00    -0.105 SA
HETATM    6 BR9  UNL     1     -32.549   9.879   0.148  1.00 20.00    -0.051 Br
ENDROOT
BRANCH   4   7
HETATM    7  C5  UNL     1     -33.746   5.539   3.250  1.00 20.00     0.061 C 
BRANCH   7   8
HETATM    8  C6  UNL     1     -34.990   5.665   4.144  1.00 20.00     0.119 C 
HETATM    9 CL8  UNL     1     -34.569   5.559   5.871  1.00 20.00    -0.130 Cl
ENDBRANCH   7   8
ENDBRANCH   4   7
TORSDOF 2
ENDMDL
MODEL 5
REMARK VINA RESULT:      -3.5     10.788     11.156
REMARK  2 active torsions:
REMARK  status: ('A' for Active; 'I' for Inactive)
REMARK    1  A    between atoms: C4_4  and  C5_5 
REMARK    2  A    between atoms: C5_5  and  C6_6 
ROOT
HETATM    1  C1  UNL     1     -33.274  17.416  -1.823  1.00 20.00     0.034 A 
HETATM    2  C2  UNL     1     -35.468  16.944  -1.219  1.00 20.00     0.069 A 
HETATM    3  C3  UNL     1     -34.472  16.715  -2.143  1.00 20.00     0.018 A 
HETATM    4  C4  UNL     1     -33.399  18.155  -0.667  1.00 20.00    -0.015 A 
HETATM    5  S7  UNL     1     -34.957  18.000   0.028  1.00 20.00    -0.105 SA
HETATM    6 BR9  UNL     1     -34.628  15.615  -3.662  1.00 20.00    -0.051 Br
ENDROOT
BRANCH   4   7
HETATM    7  C5  UNL     1     -32.390  19.010  -0.008  1.00 20.00     0.061 C 
BRANCH   7   8
HETATM    8  C6  UNL     1     -32.323  18.862   1.521  1.00 20.00     0.119 C 
HETATM    9 CL8  UNL     1     -30.658  18.564   2.077  1.00 20.00    -0.130 Cl
ENDBRANCH   7   8
ENDBRANCH   4   7
TORSDOF 2
ENDMDL
MODEL 6
REMARK VINA RESULT:      -3.5     10.722     11.148
REMARK  2 active torsions:
REMARK  status: ('A' for Active; 'I' for Inactive)
REMARK    1  A    between atoms: C4_4  and  C5_5 
REMARK    2  A    between atoms: C5_5  and  C6_6 
ROOT
HETATM    1  C1  UNL     1     -34.645  15.077  -3.847  1.00 20.00     0.034 A 
HETATM    2  C2  UNL     1     -36.271  16.620  -3.234  1.00 20.00     0.069 A 
HETATM    3  C3  UNL     1     -34.951  16.249  -3.097  1.00 20.00     0.018 A 
HETATM    4  C4  UNL     1     -35.742  14.596  -4.527  1.00 20.00    -0.015 A 
HETATM    5  S7  UNL     1     -37.134  15.557  -4.262  1.00 20.00    -0.105 SA
HETATM    6 BR9  UNL     1     -33.668  17.152  -2.058  1.00 20.00    -0.051 Br
ENDROOT
BRANCH   4   7
HETATM    7  C5  UNL     1     -35.832  13.411  -5.407  1.00 20.00     0.061 C 
BRANCH   7   8
HETATM    8  C6  UNL     1     -35.862  13.729  -6.910  1.00 20.00     0.119 C 
HETATM    9 CL8  UNL     1     -34.225  13.747  -7.608  1.00 20.00    -0.130 Cl
ENDBRANCH   7   8
ENDBRANCH   4   7
TORSDOF 2
ENDMDL
MODEL 7
REMARK VINA RESULT:      -3.5     10.491     10.643
REMARK  2 active torsions:
REMARK  status: ('A' for Active; 'I' for Inactive)
REMARK    1  A    between atoms: C4_4  and  C5_5 
REMARK    2  A    between atoms: C5_5  and  C6_6 
ROOT
HETATM    1  C1  UNL     1     -35.099  17.022  -1.088  1.00 20.00     0.034 A 
HETATM    2  C2  UNL     1     -33.751  18.551   0.029  1.00 20.00     0.069 A 
HETATM    3  C3  UNL     1     -34.959  17.887   0.035  1.00 20.00     0.018 A 
HETATM    4  C4  UNL     1     -33.995  17.058  -1.911  1.00 20.00    -0.015 A 
HETATM    5  S7  UNL     1     -32.795  18.131  -1.327  1.00 20.00    -0.105 SA
HETATM    6 BR9  UNL     1     -36.294  18.066   1.350  1.00 20.00    -0.051 Br
ENDROOT
BRANCH   4   7
HETATM    7  C5  UNL     1     -33.757  16.312  -3.164  1.00 20.00     0.061 C 
BRANCH   7   8
HETATM    8  C6  UNL     1     -35.008  15.650  -3.764  1.00 20.00     0.119 C 
HETATM    9 CL8  UNL     1     -34.698  13.958  -4.223  1.00 20.00    -0.130 Cl
ENDBRANCH   7   8
ENDBRANCH   4   7
TORSDOF 2
ENDMDL
MODEL 8
REMARK VINA RESULT:      -3.4     10.695     10.930
REMARK  2 active torsions:
REMARK  status: ('A' for Active; 'I' for Inactive)
REMARK    1  A    between atoms: C4_4  and  C5_5 
REMARK    2  A    between atoms: C5_5  and  C6_6 
ROOT
HETATM    1  C1  UNL     1     -36.084  15.880  -3.716  1.00 20.00     0.034 A 
HETATM    2  C2  UNL     1     -35.563  13.970  -4.934  1.00 20.00     0.069 A 
HETATM    3  C3  UNL     1     -36.564  14.842  -4.567  1.00 20.00     0.018 A 
HETATM    4  C4  UNL     1     -34.735  15.761  -3.465  1.00 20.00    -0.015 A 
HETATM    5  S7  UNL     1     -34.053  14.402  -4.254  1.00 20.00    -0.105 SA
HETATM    6 BR9  UNL     1     -38.364  14.722  -5.102  1.00 20.00    -0.051 Br
ENDROOT
BRANCH   4   7
HETATM    7  C5  UNL     1     -33.873  16.631  -2.637  1.00 20.00     0.061 C 
BRANCH   7   8
HETATM    8  C6  UNL     1     -34.519  17.115  -1.329  1.00 20.00     0.119 C 
HETATM    9 CL8  UNL     1     -33.424  18.178  -0.412  1.00 20.00    -0.130 Cl
ENDBRANCH   7   8
ENDBRANCH   4   7
TORSDOF 2
ENDMDL
MODEL 9
REMARK VINA RESULT:      -3.4     10.965     11.429
REMARK  2 active torsions:
REMARK  status: ('A' for Active; 'I' for Inactive)
REMARK    1  A    between atoms: C4_4  and  C5_5 
REMARK    2  A    between atoms: C5_5  and  C6_6 
ROOT
HETATM    1  C1  UNL     1     -35.121  14.734  -4.679  1.00 20.00     0.034 A 
HETATM    2  C2  UNL     1     -33.653  15.609  -6.254  1.00 20.00     0.069 A 
HETATM    3  C3  UNL     1     -34.577  14.621  -5.991  1.00 20.00     0.018 A 
HETATM    4  C4  UNL     1     -34.592  15.803  -3.989  1.00 20.00    -0.015 A 
HETATM    5  S7  UNL     1     -33.445  16.665  -4.923  1.00 20.00    -0.105 SA
HETATM    6 BR9  UNL     1     -35.093  13.264  -7.189  1.00 20.00    -0.051 Br
ENDROOT
BRANCH   4   7
HETATM    7  C5  UNL     1     -34.897  16.251  -2.614  1.00 20.00     0.061 C 
BRANCH   7   8
HETATM    8  C6  UNL     1     -33.791  17.091  -1.954  1.00 20.00     0.119 C 
HETATM    9 CL8  UNL     1     -34.315  17.747  -0.384  1.00 20.00    -0.130 Cl
ENDBRANCH   7   8
ENDBRANCH   4   7
TORSDOF 2
ENDMDL
