MODEL 1
REMARK VINA RESULT:      -5.2      0.000      0.000
REMARK  2 active torsions:
REMARK  status: ('A' for Active; 'I' for Inactive)
REMARK    1  A    between atoms: C6_6  and  C7_7 
REMARK    2  A    between atoms: C7_7  and  N9_9 
ROOT
HETATM    1  C1  UNL     1     -32.447   9.832   0.719  1.00 20.00     0.012 C 
HETATM    2  C2  UNL     1     -32.292   9.054   1.620  1.00 20.00    -0.116 C 
HETATM    3  C6  UNL     1     -32.099   8.102   2.725  1.00 20.00     0.113 C 
ENDROOT
BRANCH   3   4
HETATM    4  C7  UNL     1     -33.022   6.888   2.613  1.00 20.00     0.141 C 
BRANCH   4   5
HETATM    5  N9  UNL     1     -33.631   6.501   3.882  1.00 20.00    -0.349 N 
HETATM    6  C4  UNL     1     -34.338   5.356   4.125  1.00 20.00     0.111 A 
HETATM    7  C3  UNL     1     -34.703   5.443   5.448  1.00 20.00     0.135 A 
HETATM    8  N8  UNL     1     -34.240   6.603   6.015  1.00 20.00    -0.255 NA
HETATM    9  C5  UNL     1     -33.598   7.217   5.047  1.00 20.00     0.209 A 
ENDBRANCH   4   5
ENDBRANCH   3   4
TORSDOF 2
ENDMDL
MODEL 2
REMARK VINA RESULT:      -5.2      0.659      1.230
REMARK  2 active torsions:
REMARK  status: ('A' for Active; 'I' for Inactive)
REMARK    1  A    between atoms: C6_6  and  C7_7 
REMARK    2  A    between atoms: C7_7  and  N9_9 
ROOT
HETATM    1  C1  UNL     1     -32.504   9.972   0.884  1.00 20.00     0.012 C 
HETATM    2  C2  UNL     1     -32.313   9.117   1.704  1.00 20.00    -0.116 C 
HETATM    3  C6  UNL     1     -32.075   8.070   2.710  1.00 20.00     0.113 C 
ENDROOT
BRANCH   3   4
HETATM    4  C7  UNL     1     -33.065   6.911   2.587  1.00 20.00     0.141 C 
BRANCH   4   5
HETATM    5  N9  UNL     1     -33.656   6.512   3.861  1.00 20.00    -0.349 N 
HETATM    6  C4  UNL     1     -33.611   7.219   5.030  1.00 20.00     0.111 A 
HETATM    7  C3  UNL     1     -34.299   6.444   5.935  1.00 20.00     0.135 A 
HETATM    8  N8  UNL     1     -34.759   5.291   5.352  1.00 20.00    -0.255 NA
HETATM    9  C5  UNL     1     -34.356   5.363   4.103  1.00 20.00     0.209 A 
ENDBRANCH   4   5
ENDBRANCH   3   4
TORSDOF 2
ENDMDL
MODEL 3
REMARK VINA RESULT:      -4.3      1.730      4.383
REMARK  2 active torsions:
REMARK  status: ('A' for Active; 'I' for Inactive)
REMARK    1  A    between atoms: C6_6  and  C7_7 
REMARK    2  A    between atoms: C7_7  and  N9_9 
ROOT
HETATM    1  C1  UNL     1     -34.608   4.979   5.960  1.00 20.00     0.012 C 
HETATM    2  C2  UNL     1     -34.766   5.461   4.872  1.00 20.00    -0.116 C 
HETATM    3  C6  UNL     1     -34.964   6.051   3.540  1.00 20.00     0.113 C 
ENDROOT
BRANCH   3   4
HETATM    4  C7  UNL     1     -33.718   5.930   2.661  1.00 20.00     0.141 C 
BRANCH   4   5
HETATM    5  N9  UNL     1     -32.892   7.134   2.652  1.00 20.00    -0.349 N 
HETATM    6  C4  UNL     1     -32.713   7.984   1.597  1.00 20.00     0.111 A 
HETATM    7  C3  UNL     1     -31.862   8.956   2.070  1.00 20.00     0.135 A 
HETATM    8  N8  UNL     1     -31.520   8.722   3.377  1.00 20.00    -0.255 NA
HETATM    9  C5  UNL     1     -32.157   7.618   3.699  1.00 20.00     0.209 A 
ENDBRANCH   4   5
ENDBRANCH   3   4
TORSDOF 2
ENDMDL
MODEL 4
REMARK VINA RESULT:      -4.2      1.428      4.295
REMARK  2 active torsions:
REMARK  status: ('A' for Active; 'I' for Inactive)
REMARK    1  A    between atoms: C6_6  and  C7_7 
REMARK    2  A    between atoms: C7_7  and  N9_9 
ROOT
HETATM    1  C1  UNL     1     -34.193   3.910   4.428  1.00 20.00     0.012 C 
HETATM    2  C2  UNL     1     -34.399   4.977   4.937  1.00 20.00    -0.116 C 
HETATM    3  C6  UNL     1     -34.654   6.284   5.561  1.00 20.00     0.113 C 
ENDROOT
BRANCH   3   4
HETATM    4  C7  UNL     1     -33.403   7.163   5.601  1.00 20.00     0.141 C 
BRANCH   4   5
HETATM    5  N9  UNL     1     -32.920   7.549   4.279  1.00 20.00    -0.349 N 
HETATM    6  C4  UNL     1     -33.594   7.407   3.098  1.00 20.00     0.111 A 
HETATM    7  C3  UNL     1     -32.739   7.908   2.144  1.00 20.00     0.135 A 
HETATM    8  N8  UNL     1     -31.569   8.350   2.708  1.00 20.00    -0.255 NA
HETATM    9  C5  UNL     1     -31.710   8.120   3.995  1.00 20.00     0.209 A 
ENDBRANCH   4   5
ENDBRANCH   3   4
TORSDOF 2
ENDMDL
MODEL 5
REMARK VINA RESULT:      -4.1      2.181      4.958
REMARK  2 active torsions:
REMARK  status: ('A' for Active; 'I' for Inactive)
REMARK    1  A    between atoms: C6_6  and  C7_7 
REMARK    2  A    between atoms: C7_7  and  N9_9 
ROOT
HETATM    1  C1  UNL     1     -34.075   6.898   5.987  1.00 20.00     0.012 C 
HETATM    2  C2  UNL     1     -33.791   6.916   4.820  1.00 20.00    -0.116 C 
HETATM    3  C6  UNL     1     -33.446   6.936   3.391  1.00 20.00     0.113 C 
ENDROOT
BRANCH   3   4
HETATM    4  C7  UNL     1     -32.121   7.650   3.124  1.00 20.00     0.141 C 
BRANCH   4   5
HETATM    5  N9  UNL     1     -32.186   8.605   2.021  1.00 20.00    -0.349 N 
HETATM    6  C4  UNL     1     -32.912   9.763   1.995  1.00 20.00     0.111 A 
HETATM    7  C3  UNL     1     -32.654  10.312   0.761  1.00 20.00     0.135 A 
HETATM    8  N8  UNL     1     -31.795   9.524   0.038  1.00 20.00    -0.255 NA
HETATM    9  C5  UNL     1     -31.531   8.505   0.825  1.00 20.00     0.209 A 
ENDBRANCH   4   5
ENDBRANCH   3   4
TORSDOF 2
ENDMDL
MODEL 6
REMARK VINA RESULT:      -4.1     10.994     11.763
REMARK  2 active torsions:
REMARK  status: ('A' for Active; 'I' for Inactive)
REMARK    1  A    between atoms: C6_6  and  C7_7 
REMARK    2  A    between atoms: C7_7  and  N9_9 
ROOT
HETATM    1  C1  UNL     1     -33.012  17.783  -1.503  1.00 20.00     0.012 C 
HETATM    2  C2  UNL     1     -33.647  17.040  -2.200  1.00 20.00    -0.116 C 
HETATM    3  C6  UNL     1     -34.428  16.129  -3.051  1.00 20.00     0.113 C 
ENDROOT
BRANCH   3   4
HETATM    4  C7  UNL     1     -33.642  15.665  -4.278  1.00 20.00     0.141 C 
BRANCH   4   5
HETATM    5  N9  UNL     1     -34.343  14.662  -5.074  1.00 20.00    -0.349 N 
HETATM    6  C4  UNL     1     -34.230  14.476  -6.424  1.00 20.00     0.111 A 
HETATM    7  C3  UNL     1     -35.074  13.427  -6.705  1.00 20.00     0.135 A 
HETATM    8  N8  UNL     1     -35.695  12.971  -5.570  1.00 20.00    -0.255 NA
HETATM    9  C5  UNL     1     -35.232  13.735  -4.605  1.00 20.00     0.209 A 
ENDBRANCH   4   5
ENDBRANCH   3   4
TORSDOF 2
ENDMDL
MODEL 7
REMARK VINA RESULT:      -4.0      2.037      4.835
REMARK  2 active torsions:
REMARK  status: ('A' for Active; 'I' for Inactive)
REMARK    1  A    between atoms: C6_6  and  C7_7 
REMARK    2  A    between atoms: C7_7  and  N9_9 
ROOT
HETATM    1  C1  UNL     1     -34.743   5.594   5.097  1.00 20.00     0.012 C 
HETATM    2  C2  UNL     1     -34.195   5.926   4.082  1.00 20.00    -0.116 C 
HETATM    3  C6  UNL     1     -33.525   6.331   2.836  1.00 20.00     0.113 C 
ENDROOT
BRANCH   3   4
HETATM    4  C7  UNL     1     -32.428   7.369   3.078  1.00 20.00     0.141 C 
BRANCH   4   5
HETATM    5  N9  UNL     1     -32.388   8.420   2.066  1.00 20.00    -0.349 N 
HETATM    6  C4  UNL     1     -31.589   8.445   0.957  1.00 20.00     0.111 A 
HETATM    7  C3  UNL     1     -31.909   9.621   0.320  1.00 20.00     0.135 A 
HETATM    8  N8  UNL     1     -32.876  10.310   1.007  1.00 20.00    -0.255 NA
HETATM    9  C5  UNL     1     -33.143   9.559   2.053  1.00 20.00     0.209 A 
ENDBRANCH   4   5
ENDBRANCH   3   4
TORSDOF 2
ENDMDL
MODEL 8
REMARK VINA RESULT:      -4.0     11.155     11.938
REMARK  2 active torsions:
REMARK  status: ('A' for Active; 'I' for Inactive)
REMARK    1  A    between atoms: C6_6  and  C7_7 
REMARK    2  A    between atoms: C7_7  and  N9_9 
ROOT
HETATM    1  C1  UNL     1     -35.151  16.980  -1.314  1.00 20.00     0.012 C 
HETATM    2  C2  UNL     1     -34.540  16.579  -2.266  1.00 20.00    -0.116 C 
HETATM    3  C6  UNL     1     -33.788  16.087  -3.431  1.00 20.00     0.113 C 
ENDROOT
BRANCH   3   4
HETATM    4  C7  UNL     1     -34.573  16.238  -4.735  1.00 20.00     0.141 C 
BRANCH   4   5
HETATM    5  N9  UNL     1     -34.898  14.964  -5.370  1.00 20.00    -0.349 N 
HETATM    6  C4  UNL     1     -34.667  14.630  -6.675  1.00 20.00     0.111 A 
HETATM    7  C3  UNL     1     -35.140  13.344  -6.796  1.00 20.00     0.135 A 
HETATM    8  N8  UNL     1     -35.649  12.888  -5.607  1.00 20.00    -0.255 NA
HETATM    9  C5  UNL     1     -35.487  13.888  -4.768  1.00 20.00     0.209 A 
ENDBRANCH   4   5
ENDBRANCH   3   4
TORSDOF 2
ENDMDL
MODEL 9
REMARK VINA RESULT:      -4.0     10.837     11.495
REMARK  2 active torsions:
REMARK  status: ('A' for Active; 'I' for Inactive)
REMARK    1  A    between atoms: C6_6  and  C7_7 
REMARK    2  A    between atoms: C7_7  and  N9_9 
ROOT
HETATM    1  C1  UNL     1     -32.914  18.064  -1.178  1.00 20.00     0.012 C 
HETATM    2  C2  UNL     1     -33.721  17.339  -1.692  1.00 20.00    -0.116 C 
HETATM    3  C6  UNL     1     -34.711  16.450  -2.319  1.00 20.00     0.113 C 
ENDROOT
BRANCH   3   4
HETATM    4  C7  UNL     1     -34.188  15.816  -3.609  1.00 20.00     0.141 C 
BRANCH   4   5
HETATM    5  N9  UNL     1     -35.146  14.917  -4.246  1.00 20.00    -0.349 N 
HETATM    6  C4  UNL     1     -36.433  15.221  -4.594  1.00 20.00     0.111 A 
HETATM    7  C3  UNL     1     -36.927  14.067  -5.155  1.00 20.00     0.135 A 
HETATM    8  N8  UNL     1     -35.982  13.073  -5.157  1.00 20.00    -0.255 NA
HETATM    9  C5  UNL     1     -34.921  13.617  -4.604  1.00 20.00     0.209 A 
ENDBRANCH   4   5
ENDBRANCH   3   4
TORSDOF 2
ENDMDL
