MODEL 1
REMARK VINA RESULT:      -6.1      0.000      0.000
REMARK  2 active torsions:
REMARK  status: ('A' for Active; 'I' for Inactive)
REMARK    1  A    between atoms: C4_4  and  C5_5 
REMARK    2  A    between atoms: C5_5  and  C7_7 
ROOT
HETATM    1  C1  UNL     1     -33.715   7.100   4.917  1.00 20.00     0.033 A 
HETATM    2  C2  UNL     1     -34.477   5.963   5.080  1.00 20.00     0.088 A 
HETATM    3  C3  UNL     1     -33.714   5.963   2.974  1.00 20.00     0.102 A 
HETATM    4  C4  UNL     1     -33.232   7.099   3.586  1.00 20.00     0.027 A 
HETATM    5  N10 UNL     1     -34.470   5.280   3.892  1.00 20.00    -0.374 N 
HETATM    6  H22 UNL     1     -34.948   4.407   3.718  1.00 20.00     0.164 HD
ENDROOT
BRANCH   4   7
HETATM    7  C5  UNL     1     -32.378   8.096   2.935  1.00 20.00     0.165 C 
HETATM    8  O11 UNL     1     -31.196   8.283   3.205  1.00 20.00    -0.292 OA
BRANCH   7   9
HETATM    9  C7  UNL     1     -32.991   8.919   1.885  1.00 20.00     0.065 A 
HETATM   10  C6  UNL     1     -32.399  10.267   1.565  1.00 20.00     0.018 A 
HETATM   11  C8  UNL     1     -32.246   9.134   0.592  1.00 20.00    -0.006 A 
HETATM   12  C9  UNL     1     -32.983   9.153  -0.703  1.00 20.00     0.011 C 
ENDBRANCH   7   9
ENDBRANCH   4   7
TORSDOF 2
ENDMDL
MODEL 2
REMARK VINA RESULT:      -5.7      1.456      1.877
REMARK  2 active torsions:
REMARK  status: ('A' for Active; 'I' for Inactive)
REMARK    1  A    between atoms: C4_4  and  C5_5 
REMARK    2  A    between atoms: C5_5  and  C7_7 
ROOT
HETATM    1  C1  UNL     1     -34.061   6.728   5.301  1.00 20.00     0.033 A 
HETATM    2  C2  UNL     1     -34.776   5.923   6.162  1.00 20.00     0.088 A 
HETATM    3  C3  UNL     1     -34.443   4.759   4.277  1.00 20.00     0.102 A 
HETATM    4  C4  UNL     1     -33.851   5.991   4.110  1.00 20.00     0.027 A 
HETATM    5  N10 UNL     1     -35.003   4.729   5.528  1.00 20.00    -0.374 N 
HETATM    6  H22 UNL     1     -35.506   3.946   5.922  1.00 20.00     0.164 HD
ENDROOT
BRANCH   4   7
HETATM    7  C5  UNL     1     -33.142   6.416   2.900  1.00 20.00     0.165 C 
HETATM    8  O11 UNL     1     -32.769   5.660   2.009  1.00 20.00    -0.292 OA
BRANCH   7   9
HETATM    9  C7  UNL     1     -32.868   7.851   2.754  1.00 20.00     0.065 A 
HETATM   10  C6  UNL     1     -31.509   8.384   3.127  1.00 20.00     0.018 A 
HETATM   11  C8  UNL     1     -31.912   8.312   1.682  1.00 20.00    -0.006 A 
HETATM   12  C9  UNL     1     -32.190   9.560   0.917  1.00 20.00     0.011 C 
ENDBRANCH   7   9
ENDBRANCH   4   7
TORSDOF 2
ENDMDL
MODEL 3
REMARK VINA RESULT:      -5.4      1.563      2.054
REMARK  2 active torsions:
REMARK  status: ('A' for Active; 'I' for Inactive)
REMARK    1  A    between atoms: C4_4  and  C5_5 
REMARK    2  A    between atoms: C5_5  and  C7_7 
ROOT
HETATM    1  C1  UNL     1     -34.421   5.060   4.506  1.00 20.00     0.033 A 
HETATM    2  C2  UNL     1     -34.786   5.166   5.830  1.00 20.00     0.088 A 
HETATM    3  C3  UNL     1     -33.828   7.103   5.243  1.00 20.00     0.102 A 
HETATM    4  C4  UNL     1     -33.815   6.286   4.135  1.00 20.00     0.027 A 
HETATM    5  N10 UNL     1     -34.420   6.412   6.268  1.00 20.00    -0.374 N 
HETATM    6  H22 UNL     1     -34.565   6.767   7.203  1.00 20.00     0.164 HD
ENDROOT
BRANCH   4   7
HETATM    7  C5  UNL     1     -33.264   6.661   2.830  1.00 20.00     0.165 C 
HETATM    8  O11 UNL     1     -33.102   5.886   1.893  1.00 20.00    -0.292 OA
BRANCH   7   9
HETATM    9  C7  UNL     1     -32.889   8.068   2.642  1.00 20.00     0.065 A 
HETATM   10  C6  UNL     1     -31.477   8.500   2.941  1.00 20.00     0.018 A 
HETATM   11  C8  UNL     1     -31.952   8.434   1.518  1.00 20.00    -0.006 A 
HETATM   12  C9  UNL     1     -32.169   9.687   0.741  1.00 20.00     0.011 C 
ENDBRANCH   7   9
ENDBRANCH   4   7
TORSDOF 2
ENDMDL
MODEL 4
REMARK VINA RESULT:      -5.0      2.201      4.829
REMARK  2 active torsions:
REMARK  status: ('A' for Active; 'I' for Inactive)
REMARK    1  A    between atoms: C4_4  and  C5_5 
REMARK    2  A    between atoms: C5_5  and  C7_7 
ROOT
HETATM    1  C1  UNL     1     -32.942   8.045   1.425  1.00 20.00     0.033 A 
HETATM    2  C2  UNL     1     -32.230   9.214   1.589  1.00 20.00     0.088 A 
HETATM    3  C3  UNL     1     -31.853   7.941   3.393  1.00 20.00     0.102 A 
HETATM    4  C4  UNL     1     -32.703   7.240   2.566  1.00 20.00     0.027 A 
HETATM    5  N10 UNL     1     -31.573   9.139   2.789  1.00 20.00    -0.374 N 
HETATM    6  H22 UNL     1     -30.973   9.857   3.171  1.00 20.00     0.164 HD
ENDROOT
BRANCH   4   7
HETATM    7  C5  UNL     1     -33.235   5.907   2.857  1.00 20.00     0.165 C 
HETATM    8  O11 UNL     1     -32.829   4.868   2.347  1.00 20.00    -0.292 OA
BRANCH   7   9
HETATM    9  C7  UNL     1     -34.330   5.822   3.832  1.00 20.00     0.065 A 
HETATM   10  C6  UNL     1     -34.651   4.493   4.466  1.00 20.00     0.018 A 
HETATM   11  C8  UNL     1     -34.002   5.573   5.283  1.00 20.00    -0.006 A 
HETATM   12  C9  UNL     1     -34.772   6.267   6.354  1.00 20.00     0.011 C 
ENDBRANCH   7   9
ENDBRANCH   4   7
TORSDOF 2
ENDMDL
MODEL 5
REMARK VINA RESULT:      -4.8      2.080      4.511
REMARK  2 active torsions:
REMARK  status: ('A' for Active; 'I' for Inactive)
REMARK    1  A    between atoms: C4_4  and  C5_5 
REMARK    2  A    between atoms: C5_5  and  C7_7 
ROOT
HETATM    1  C1  UNL     1     -33.333   9.611   1.576  1.00 20.00     0.033 A 
HETATM    2  C2  UNL     1     -32.777   9.958   0.364  1.00 20.00     0.088 A 
HETATM    3  C3  UNL     1     -31.506   8.338   1.245  1.00 20.00     0.102 A 
HETATM    4  C4  UNL     1     -32.529   8.586   2.133  1.00 20.00     0.027 A 
HETATM    5  N10 UNL     1     -31.667   9.177   0.173  1.00 20.00    -0.374 N 
HETATM    6  H22 UNL     1     -31.059   9.214  -0.634  1.00 20.00     0.164 HD
ENDROOT
BRANCH   4   7
HETATM    7  C5  UNL     1     -32.710   7.890   3.409  1.00 20.00     0.165 C 
HETATM    8  O11 UNL     1     -31.946   7.978   4.365  1.00 20.00    -0.292 OA
BRANCH   7   9
HETATM    9  C7  UNL     1     -33.896   7.035   3.542  1.00 20.00     0.065 A 
HETATM   10  C6  UNL     1     -34.122   5.927   2.545  1.00 20.00     0.018 A 
HETATM   11  C8  UNL     1     -33.720   5.595   3.953  1.00 20.00    -0.006 A 
HETATM   12  C9  UNL     1     -34.696   4.956   4.880  1.00 20.00     0.011 C 
ENDBRANCH   7   9
ENDBRANCH   4   7
TORSDOF 2
ENDMDL
MODEL 6
REMARK VINA RESULT:      -4.7     10.752     11.185
REMARK  2 active torsions:
REMARK  status: ('A' for Active; 'I' for Inactive)
REMARK    1  A    between atoms: C4_4  and  C5_5 
REMARK    2  A    between atoms: C5_5  and  C7_7 
ROOT
HETATM    1  C1  UNL     1     -33.580  18.643   2.254  1.00 20.00     0.033 A 
HETATM    2  C2  UNL     1     -33.292  18.922   3.572  1.00 20.00     0.088 A 
HETATM    3  C3  UNL     1     -31.372  19.048   2.425  1.00 20.00     0.102 A 
HETATM    4  C4  UNL     1     -32.367  18.723   1.529  1.00 20.00     0.027 A 
HETATM    5  N10 UNL     1     -31.946  19.166   3.664  1.00 20.00    -0.374 N 
HETATM    6  H22 UNL     1     -31.452  19.398   4.515  1.00 20.00     0.164 HD
ENDROOT
BRANCH   4   7
HETATM    7  C5  UNL     1     -32.157  18.509   0.095  1.00 20.00     0.165 C 
HETATM    8  O11 UNL     1     -31.065  18.304  -0.426  1.00 20.00    -0.292 OA
BRANCH   7   9
HETATM    9  C7  UNL     1     -33.345  18.541  -0.767  1.00 20.00     0.065 A 
HETATM   10  C6  UNL     1     -33.215  18.147  -2.216  1.00 20.00     0.018 A 
HETATM   11  C8  UNL     1     -33.932  17.240  -1.257  1.00 20.00    -0.006 A 
HETATM   12  C9  UNL     1     -35.409  17.073  -1.346  1.00 20.00     0.011 C 
ENDBRANCH   7   9
ENDBRANCH   4   7
TORSDOF 2
ENDMDL
MODEL 7
REMARK VINA RESULT:      -4.7     10.383     10.969
REMARK  2 active torsions:
REMARK  status: ('A' for Active; 'I' for Inactive)
REMARK    1  A    between atoms: C4_4  and  C5_5 
REMARK    2  A    between atoms: C5_5  and  C7_7 
ROOT
HETATM    1  C1  UNL     1     -35.168  15.104  -4.030  1.00 20.00     0.033 A 
HETATM    2  C2  UNL     1     -34.975  13.980  -4.803  1.00 20.00     0.088 A 
HETATM    3  C3  UNL     1     -33.015  15.058  -4.688  1.00 20.00     0.102 A 
HETATM    4  C4  UNL     1     -33.928  15.786  -3.958  1.00 20.00     0.027 A 
HETATM    5  N10 UNL     1     -33.662  13.963  -5.197  1.00 20.00    -0.374 N 
HETATM    6  H22 UNL     1     -33.236  13.251  -5.775  1.00 20.00     0.164 HD
ENDROOT
BRANCH   4   7
HETATM    7  C5  UNL     1     -33.625  17.033  -3.251  1.00 20.00     0.165 C 
HETATM    8  O11 UNL     1     -33.284  18.077  -3.797  1.00 20.00    -0.292 OA
BRANCH   7   9
HETATM    9  C7  UNL     1     -33.744  17.019  -1.788  1.00 20.00     0.065 A 
HETATM   10  C6  UNL     1     -33.279  18.215  -0.998  1.00 20.00     0.018 A 
HETATM   11  C8  UNL     1     -34.747  17.929  -1.124  1.00 20.00    -0.006 A 
HETATM   12  C9  UNL     1     -35.523  17.455   0.056  1.00 20.00     0.011 C 
ENDBRANCH   7   9
ENDBRANCH   4   7
TORSDOF 2
ENDMDL
MODEL 8
REMARK VINA RESULT:      -4.4     10.096     11.134
REMARK  2 active torsions:
REMARK  status: ('A' for Active; 'I' for Inactive)
REMARK    1  A    between atoms: C4_4  and  C5_5 
REMARK    2  A    between atoms: C5_5  and  C7_7 
ROOT
HETATM    1  C1  UNL     1     -33.712  16.285  -5.097  1.00 20.00     0.033 A 
HETATM    2  C2  UNL     1     -32.907  15.297  -5.622  1.00 20.00     0.088 A 
HETATM    3  C3  UNL     1     -34.263  14.331  -4.125  1.00 20.00     0.102 A 
HETATM    4  C4  UNL     1     -34.570  15.673  -4.151  1.00 20.00     0.027 A 
HETATM    5  N10 UNL     1     -33.251  14.114  -5.023  1.00 20.00    -0.374 N 
HETATM    6  H22 UNL     1     -32.824  13.218  -5.214  1.00 20.00     0.164 HD
ENDROOT
BRANCH   4   7
HETATM    7  C5  UNL     1     -35.604  16.307  -3.329  1.00 20.00     0.165 C 
HETATM    8  O11 UNL     1     -36.797  16.021  -3.370  1.00 20.00    -0.292 OA
BRANCH   7   9
HETATM    9  C7  UNL     1     -35.170  17.351  -2.393  1.00 20.00     0.065 A 
HETATM   10  C6  UNL     1     -35.391  17.155  -0.916  1.00 20.00     0.018 A 
HETATM   11  C8  UNL     1     -34.001  17.078  -1.480  1.00 20.00    -0.006 A 
HETATM   12  C9  UNL     1     -33.013  18.154  -1.187  1.00 20.00     0.011 C 
ENDBRANCH   7   9
ENDBRANCH   4   7
TORSDOF 2
ENDMDL
MODEL 9
REMARK VINA RESULT:      -4.4     10.628     11.266
REMARK  2 active torsions:
REMARK  status: ('A' for Active; 'I' for Inactive)
REMARK    1  A    between atoms: C4_4  and  C5_5 
REMARK    2  A    between atoms: C5_5  and  C7_7 
ROOT
HETATM    1  C1  UNL     1     -36.016  13.656  -6.319  1.00 20.00     0.033 A 
HETATM    2  C2  UNL     1     -34.940  13.124  -6.996  1.00 20.00     0.088 A 
HETATM    3  C3  UNL     1     -34.129  14.490  -5.418  1.00 20.00     0.102 A 
HETATM    4  C4  UNL     1     -35.502  14.520  -5.321  1.00 20.00     0.027 A 
HETATM    5  N10 UNL     1     -33.799  13.639  -6.440  1.00 20.00    -0.374 N 
HETATM    6  H22 UNL     1     -32.857  13.424  -6.737  1.00 20.00     0.164 HD
ENDROOT
BRANCH   4   7
HETATM    7  C5  UNL     1     -36.250  15.316  -4.344  1.00 20.00     0.165 C 
HETATM    8  O11 UNL     1     -37.395  15.071  -3.977  1.00 20.00    -0.292 OA
BRANCH   7   9
HETATM    9  C7  UNL     1     -35.569  16.482  -3.769  1.00 20.00     0.065 A 
HETATM   10  C6  UNL     1     -36.181  17.183  -2.584  1.00 20.00     0.018 A 
HETATM   11  C8  UNL     1     -34.935  16.364  -2.405  1.00 20.00    -0.006 A 
HETATM   12  C9  UNL     1     -33.633  17.031  -2.125  1.00 20.00     0.011 C 
ENDBRANCH   7   9
ENDBRANCH   4   7
TORSDOF 2
ENDMDL
