MODEL 1
REMARK VINA RESULT:      -3.7      0.000      0.000
REMARK  2 active torsions:
REMARK  status: ('A' for Active; 'I' for Inactive)
REMARK    1  A    between atoms: C1_1  and  C7_7 
REMARK    2  A    between atoms: C7_7  and  S10_10 
ROOT
HETATM    1  C1  UNL     1     -35.027  15.686  -3.461  1.00 20.00     0.061 A 
HETATM    2  C2  UNL     1     -34.429  14.716  -4.237  1.00 20.00     0.006 A 
HETATM    3  C3  UNL     1     -36.816  14.935  -4.483  1.00 20.00     0.072 A 
HETATM    4  C4  UNL     1     -33.011  14.319  -4.338  1.00 20.00     0.058 C 
HETATM    5  C5  UNL     1     -38.226  14.774  -4.896  1.00 20.00     0.078 C 
HETATM    6  N8  UNL     1     -36.394  15.814  -3.601  1.00 20.00    -0.249 NA
HETATM    7  S9  UNL     1     -35.620  13.923  -5.183  1.00 20.00    -0.078 SA
ENDROOT
BRANCH   1   8
HETATM    8  C7  UNL     1     -34.321  16.612  -2.489  1.00 20.00     0.093 C 
HETATM    9  C6  UNL     1     -35.197  17.001  -1.300  1.00 20.00     0.028 C 
BRANCH   8  10
HETATM   10  S10 UNL     1     -33.717  18.118  -3.334  1.00 20.00    -0.172 SA
HETATM   11  H21 UNL     1     -33.565  17.541  -4.532  1.00 20.00     0.102 HD
ENDBRANCH   8  10
ENDBRANCH   1   8
TORSDOF 2
ENDMDL
MODEL 2
REMARK VINA RESULT:      -3.3      1.867      4.084
REMARK  2 active torsions:
REMARK  status: ('A' for Active; 'I' for Inactive)
REMARK    1  A    between atoms: C1_1  and  C7_7 
REMARK    2  A    between atoms: C7_7  and  S10_10 
ROOT
HETATM    1  C1  UNL     1     -34.466  15.954  -3.559  1.00 20.00     0.061 A 
HETATM    2  C2  UNL     1     -35.788  16.233  -3.284  1.00 20.00     0.006 A 
HETATM    3  C3  UNL     1     -34.171  17.254  -1.818  1.00 20.00     0.072 A 
HETATM    4  C4  UNL     1     -37.017  15.786  -3.969  1.00 20.00     0.058 C 
HETATM    5  C5  UNL     1     -33.508  18.028  -0.748  1.00 20.00     0.078 C 
HETATM    6  N8  UNL     1     -33.538  16.538  -2.721  1.00 20.00    -0.249 NA
HETATM    7  S9  UNL     1     -35.884  17.267  -1.920  1.00 20.00    -0.078 SA
ENDROOT
BRANCH   1   8
HETATM    8  C7  UNL     1     -33.955  15.079  -4.688  1.00 20.00     0.093 C 
HETATM    9  C6  UNL     1     -32.747  14.237  -4.283  1.00 20.00     0.028 C 
BRANCH   8  10
HETATM   10  S10 UNL     1     -33.547  16.079  -6.164  1.00 20.00    -0.172 SA
HETATM   11  H21 UNL     1     -32.222  16.046  -5.979  1.00 20.00     0.102 HD
ENDBRANCH   8  10
ENDBRANCH   1   8
TORSDOF 2
ENDMDL
MODEL 3
REMARK VINA RESULT:      -3.3      1.128      3.689
REMARK  2 active torsions:
REMARK  status: ('A' for Active; 'I' for Inactive)
REMARK    1  A    between atoms: C1_1  and  C7_7 
REMARK    2  A    between atoms: C7_7  and  S10_10 
ROOT
HETATM    1  C1  UNL     1     -35.465  15.949  -3.965  1.00 20.00     0.061 A 
HETATM    2  C2  UNL     1     -34.127  16.256  -4.096  1.00 20.00     0.006 A 
HETATM    3  C3  UNL     1     -35.129  16.801  -1.973  1.00 20.00     0.072 A 
HETATM    4  C4  UNL     1     -33.213  16.061  -5.238  1.00 20.00     0.058 C 
HETATM    5  C5  UNL     1     -35.374  17.264  -0.590  1.00 20.00     0.078 C 
HETATM    6  N8  UNL     1     -36.041  16.260  -2.750  1.00 20.00    -0.249 NA
HETATM    7  S9  UNL     1     -33.558  16.967  -2.643  1.00 20.00    -0.078 SA
ENDROOT
BRANCH   1   8
HETATM    8  C7  UNL     1     -36.340  15.305  -5.023  1.00 20.00     0.093 C 
HETATM    9  C6  UNL     1     -37.831  15.433  -4.717  1.00 20.00     0.028 C 
BRANCH   8  10
HETATM   10  S10 UNL     1     -35.904  13.543  -5.256  1.00 20.00    -0.172 SA
HETATM   11  H21 UNL     1     -34.869  13.554  -4.407  1.00 20.00     0.102 HD
ENDBRANCH   8  10
ENDBRANCH   1   8
TORSDOF 2
ENDMDL
MODEL 4
REMARK VINA RESULT:      -3.3      2.346      3.515
REMARK  2 active torsions:
REMARK  status: ('A' for Active; 'I' for Inactive)
REMARK    1  A    between atoms: C1_1  and  C7_7 
REMARK    2  A    between atoms: C7_7  and  S10_10 
ROOT
HETATM    1  C1  UNL     1     -35.722  15.420  -4.883  1.00 20.00     0.061 A 
HETATM    2  C2  UNL     1     -34.536  15.775  -4.277  1.00 20.00     0.006 A 
HETATM    3  C3  UNL     1     -34.370  15.057  -6.571  1.00 20.00     0.072 A 
HETATM    4  C4  UNL     1     -34.274  16.256  -2.906  1.00 20.00     0.058 C 
HETATM    5  C5  UNL     1     -33.882  14.689  -7.918  1.00 20.00     0.078 C 
HETATM    6  N8  UNL     1     -35.630  15.008  -6.198  1.00 20.00    -0.249 NA
HETATM    7  S9  UNL     1     -33.245  15.588  -5.390  1.00 20.00    -0.078 SA
ENDROOT
BRANCH   1   8
HETATM    8  C7  UNL     1     -37.095  15.447  -4.240  1.00 20.00     0.093 C 
HETATM    9  C6  UNL     1     -38.108  14.566  -4.968  1.00 20.00     0.028 C 
BRANCH   8  10
HETATM   10  S10 UNL     1     -37.734  17.158  -4.123  1.00 20.00    -0.172 SA
HETATM   11  H21 UNL     1     -37.488  17.297  -2.815  1.00 20.00     0.102 HD
ENDBRANCH   8  10
ENDBRANCH   1   8
TORSDOF 2
ENDMDL
MODEL 5
REMARK VINA RESULT:      -3.2      2.274      3.185
REMARK  2 active torsions:
REMARK  status: ('A' for Active; 'I' for Inactive)
REMARK    1  A    between atoms: C1_1  and  C7_7 
REMARK    2  A    between atoms: C7_7  and  S10_10 
ROOT
HETATM    1  C1  UNL     1     -34.007  17.448  -2.796  1.00 20.00     0.061 A 
HETATM    2  C2  UNL     1     -33.545  17.904  -4.013  1.00 20.00     0.006 A 
HETATM    3  C3  UNL     1     -34.214  15.590  -3.943  1.00 20.00     0.072 A 
HETATM    4  C4  UNL     1     -33.063  19.242  -4.407  1.00 20.00     0.058 C 
HETATM    5  C5  UNL     1     -34.517  14.183  -4.284  1.00 20.00     0.078 C 
HETATM    6  N8  UNL     1     -34.391  16.123  -2.754  1.00 20.00    -0.249 NA
HETATM    7  S9  UNL     1     -33.588  16.627  -5.158  1.00 20.00    -0.078 SA
ENDROOT
BRANCH   1   8
HETATM    8  C7  UNL     1     -34.130  18.267  -1.526  1.00 20.00     0.093 C 
HETATM    9  C6  UNL     1     -32.803  18.411  -0.783  1.00 20.00     0.028 C 
BRANCH   8  10
HETATM   10  S10 UNL     1     -35.393  17.559  -0.407  1.00 20.00    -0.172 SA
HETATM   11  H21 UNL     1     -36.445  18.038  -1.081  1.00 20.00     0.102 HD
ENDBRANCH   8  10
ENDBRANCH   1   8
TORSDOF 2
ENDMDL
MODEL 6
REMARK VINA RESULT:      -3.2      2.591      2.933
REMARK  2 active torsions:
REMARK  status: ('A' for Active; 'I' for Inactive)
REMARK    1  A    between atoms: C1_1  and  C7_7 
REMARK    2  A    between atoms: C7_7  and  S10_10 
ROOT
HETATM    1  C1  UNL     1     -33.678  16.881  -4.000  1.00 20.00     0.061 A 
HETATM    2  C2  UNL     1     -33.419  15.746  -4.739  1.00 20.00     0.006 A 
HETATM    3  C3  UNL     1     -33.963  17.723  -6.004  1.00 20.00     0.072 A 
HETATM    4  C4  UNL     1     -33.057  14.385  -4.298  1.00 20.00     0.058 C 
HETATM    5  C5  UNL     1     -34.244  18.689  -7.088  1.00 20.00     0.078 C 
HETATM    6  N8  UNL     1     -33.990  18.015  -4.723  1.00 20.00    -0.249 NA
HETATM    7  S9  UNL     1     -33.571  16.103  -6.410  1.00 20.00    -0.078 SA
ENDROOT
BRANCH   1   8
HETATM    8  C7  UNL     1     -33.645  16.986  -2.488  1.00 20.00     0.093 C 
HETATM    9  C6  UNL     1     -34.993  16.668  -1.843  1.00 20.00     0.028 C 
BRANCH   8  10
HETATM   10  S10 UNL     1     -33.079  18.642  -1.955  1.00 20.00    -0.172 SA
HETATM   11  H21 UNL     1     -32.398  18.911  -3.075  1.00 20.00     0.102 HD
ENDBRANCH   8  10
ENDBRANCH   1   8
TORSDOF 2
ENDMDL
MODEL 7
REMARK VINA RESULT:      -3.2      1.821      2.204
REMARK  2 active torsions:
REMARK  status: ('A' for Active; 'I' for Inactive)
REMARK    1  A    between atoms: C1_1  and  C7_7 
REMARK    2  A    between atoms: C7_7  and  S10_10 
ROOT
HETATM    1  C1  UNL     1     -35.879  15.621  -4.051  1.00 20.00     0.061 A 
HETATM    2  C2  UNL     1     -36.498  14.603  -4.745  1.00 20.00     0.006 A 
HETATM    3  C3  UNL     1     -37.910  16.446  -4.101  1.00 20.00     0.072 A 
HETATM    4  C4  UNL     1     -35.944  13.346  -5.286  1.00 20.00     0.058 C 
HETATM    5  C5  UNL     1     -39.054  17.359  -3.891  1.00 20.00     0.078 C 
HETATM    6  N8  UNL     1     -36.686  16.678  -3.681  1.00 20.00    -0.249 NA
HETATM    7  S9  UNL     1     -38.160  14.974  -4.947  1.00 20.00    -0.078 SA
ENDROOT
BRANCH   1   8
HETATM    8  C7  UNL     1     -34.412  15.677  -3.670  1.00 20.00     0.093 C 
HETATM    9  C6  UNL     1     -34.141  16.614  -2.495  1.00 20.00     0.028 C 
BRANCH   8  10
HETATM   10  S10 UNL     1     -33.379  16.162  -5.100  1.00 20.00    -0.172 SA
HETATM   11  H21 UNL     1     -33.644  15.069  -5.826  1.00 20.00     0.102 HD
ENDBRANCH   8  10
ENDBRANCH   1   8
TORSDOF 2
ENDMDL
MODEL 8
REMARK VINA RESULT:      -3.2      2.031      4.031
REMARK  2 active torsions:
REMARK  status: ('A' for Active; 'I' for Inactive)
REMARK    1  A    between atoms: C1_1  and  C7_7 
REMARK    2  A    between atoms: C7_7  and  S10_10 
ROOT
HETATM    1  C1  UNL     1     -35.937  14.856  -5.483  1.00 20.00     0.061 A 
HETATM    2  C2  UNL     1     -34.713  14.403  -5.930  1.00 20.00     0.006 A 
HETATM    3  C3  UNL     1     -34.678  15.689  -3.892  1.00 20.00     0.072 A 
HETATM    4  C4  UNL     1     -34.373  13.599  -7.120  1.00 20.00     0.058 C 
HETATM    5  C5  UNL     1     -34.265  16.406  -2.666  1.00 20.00     0.078 C 
HETATM    6  N8  UNL     1     -35.919  15.593  -4.315  1.00 20.00    -0.249 NA
HETATM    7  S9  UNL     1     -33.483  14.917  -4.851  1.00 20.00    -0.078 SA
ENDROOT
BRANCH   1   8
HETATM    8  C7  UNL     1     -37.276  14.613  -6.151  1.00 20.00     0.093 C 
HETATM    9  C6  UNL     1     -37.477  15.468  -7.402  1.00 20.00     0.028 C 
BRANCH   8  10
HETATM   10  S10 UNL     1     -38.655  14.891  -4.983  1.00 20.00    -0.172 SA
HETATM   11  H21 UNL     1     -39.554  14.180  -5.675  1.00 20.00     0.102 HD
ENDBRANCH   8  10
ENDBRANCH   1   8
TORSDOF 2
ENDMDL
MODEL 9
REMARK VINA RESULT:      -3.2      1.961      2.508
REMARK  2 active torsions:
REMARK  status: ('A' for Active; 'I' for Inactive)
REMARK    1  A    between atoms: C1_1  and  C7_7 
REMARK    2  A    between atoms: C7_7  and  S10_10 
ROOT
HETATM    1  C1  UNL     1     -34.870  15.117  -5.397  1.00 20.00     0.061 A 
HETATM    2  C2  UNL     1     -34.976  14.798  -6.735  1.00 20.00     0.006 A 
HETATM    3  C3  UNL     1     -37.030  14.752  -5.477  1.00 20.00     0.072 A 
HETATM    4  C4  UNL     1     -33.938  14.731  -7.782  1.00 20.00     0.058 C 
HETATM    5  C5  UNL     1     -38.443  14.621  -5.059  1.00 20.00     0.078 C 
HETATM    6  N8  UNL     1     -36.046  15.092  -4.674  1.00 20.00    -0.249 NA
HETATM    7  S9  UNL     1     -36.612  14.449  -7.113  1.00 20.00    -0.078 SA
ENDROOT
BRANCH   1   8
HETATM    8  C7  UNL     1     -33.594  15.491  -4.668  1.00 20.00     0.093 C 
HETATM    9  C6  UNL     1     -32.760  14.273  -4.272  1.00 20.00     0.028 C 
BRANCH   8  10
HETATM   10  S10 UNL     1     -33.953  16.503  -3.188  1.00 20.00    -0.172 SA
HETATM   11  H21 UNL     1     -33.899  15.486  -2.320  1.00 20.00     0.102 HD
ENDBRANCH   8  10
ENDBRANCH   1   8
TORSDOF 2
ENDMDL
