MODEL 1
REMARK VINA RESULT:      -6.6      0.000      0.000
REMARK  4 active torsions:
REMARK  status: ('A' for Active; 'I' for Inactive)
REMARK    1  A    between atoms: C6_6  and  C10_10 
REMARK    2  A    between atoms: C8_8  and  C9_9 
REMARK    3  A    between atoms: C9_9  and  C10_10 
REMARK    4  A    between atoms: C10_10  and  O11_11 
ROOT
HETATM    1  C1  UNL     1     -34.670   5.046   5.301  1.00 20.00    -0.031 C 
HETATM    2  C2  UNL     1     -34.321   6.159   5.960  1.00 20.00    -0.030 C 
HETATM    3  C3  UNL     1     -34.352   4.816   3.854  1.00 20.00     0.027 C 
HETATM    4  C4  UNL     1     -33.603   7.305   5.310  1.00 20.00     0.034 C 
HETATM    5  C5  UNL     1     -33.333   5.812   3.292  1.00 20.00     0.011 C 
HETATM    6  C6  UNL     1     -33.627   7.240   3.773  1.00 20.00     0.018 C 
ENDROOT
BRANCH   6   7
HETATM    7  C10 UNL     1     -32.638   8.236   3.173  1.00 20.00     0.122 C 
BRANCH   7   8
HETATM    8  C9  UNL     1     -32.312   7.893   1.718  1.00 20.00     0.032 C 
BRANCH   8   9
HETATM    9  C8  UNL     1     -31.825   9.115   0.936  1.00 20.00    -0.002 C 
HETATM   10  C7  UNL     1     -32.802  10.275   1.054  1.00 20.00     0.005 C 
ENDBRANCH   8   9
ENDBRANCH   7   8
BRANCH   7  11
HETATM   11  O11 UNL     1     -31.451   8.227   3.960  1.00 20.00    -0.395 OA
HETATM   12  H29 UNL     1     -31.494   9.006   4.536  1.00 20.00     0.210 HD
ENDBRANCH   7  11
ENDBRANCH   6   7
TORSDOF 4
ENDMDL
MODEL 2
REMARK VINA RESULT:      -6.4      0.362      1.557
REMARK  4 active torsions:
REMARK  status: ('A' for Active; 'I' for Inactive)
REMARK    1  A    between atoms: C6_6  and  C10_10 
REMARK    2  A    between atoms: C8_8  and  C9_9 
REMARK    3  A    between atoms: C9_9  and  C10_10 
REMARK    4  A    between atoms: C10_10  and  O11_11 
ROOT
HETATM    1  C1  UNL     1     -34.662   4.900   5.075  1.00 20.00    -0.031 C 
HETATM    2  C2  UNL     1     -34.348   4.814   3.775  1.00 20.00    -0.030 C 
HETATM    3  C3  UNL     1     -34.326   6.089   5.923  1.00 20.00     0.027 C 
HETATM    4  C4  UNL     1     -33.599   5.886   3.040  1.00 20.00     0.034 C 
HETATM    5  C5  UNL     1     -33.883   7.308   5.107  1.00 20.00     0.011 C 
HETATM    6  C6  UNL     1     -32.926   6.904   3.978  1.00 20.00     0.018 C 
ENDROOT
BRANCH   6   7
HETATM    7  C10 UNL     1     -32.449   8.127   3.197  1.00 20.00     0.122 C 
BRANCH   7   8
HETATM    8  C9  UNL     1     -32.556   7.901   1.687  1.00 20.00     0.032 C 
BRANCH   8   9
HETATM    9  C8  UNL     1     -31.931   9.049   0.891  1.00 20.00    -0.002 C 
HETATM   10  C7  UNL     1     -32.726  10.336   1.054  1.00 20.00     0.005 C 
ENDBRANCH   8   9
ENDBRANCH   7   8
BRANCH   7  11
HETATM   11  O11 UNL     1     -31.100   8.400   3.561  1.00 20.00    -0.395 OA
HETATM   12  H29 UNL     1     -30.541   7.989   2.882  1.00 20.00     0.210 HD
ENDBRANCH   7  11
ENDBRANCH   6   7
TORSDOF 4
ENDMDL
MODEL 3
REMARK VINA RESULT:      -5.8      1.291      1.965
REMARK  4 active torsions:
REMARK  status: ('A' for Active; 'I' for Inactive)
REMARK    1  A    between atoms: C6_6  and  C10_10 
REMARK    2  A    between atoms: C8_8  and  C9_9 
REMARK    3  A    between atoms: C9_9  and  C10_10 
REMARK    4  A    between atoms: C10_10  and  O11_11 
ROOT
HETATM    1  C1  UNL     1     -34.614   5.559   5.860  1.00 20.00    -0.031 C 
HETATM    2  C2  UNL     1     -34.638   4.814   4.746  1.00 20.00    -0.030 C 
HETATM    3  C3  UNL     1     -33.968   6.909   5.930  1.00 20.00     0.027 C 
HETATM    4  C4  UNL     1     -33.993   5.241   3.461  1.00 20.00     0.034 C 
HETATM    5  C5  UNL     1     -33.623   7.487   4.554  1.00 20.00     0.011 C 
HETATM    6  C6  UNL     1     -33.015   6.417   3.637  1.00 20.00     0.018 C 
ENDROOT
BRANCH   6   7
HETATM    7  C10 UNL     1     -32.630   7.008   2.282  1.00 20.00     0.122 C 
BRANCH   7   8
HETATM    8  C9  UNL     1     -32.017   8.402   2.435  1.00 20.00     0.032 C 
BRANCH   8   9
HETATM    9  C8  UNL     1     -31.892   9.123   1.091  1.00 20.00    -0.002 C 
HETATM   10  C7  UNL     1     -32.720  10.399   1.066  1.00 20.00     0.005 C 
ENDBRANCH   8   9
ENDBRANCH   7   8
BRANCH   7  11
HETATM   11  O11 UNL     1     -33.795   7.068   1.466  1.00 20.00    -0.395 OA
HETATM   12  H29 UNL     1     -34.553   7.128   2.068  1.00 20.00     0.210 HD
ENDBRANCH   7  11
ENDBRANCH   6   7
TORSDOF 4
ENDMDL
MODEL 4
REMARK VINA RESULT:      -4.7      1.014      4.745
REMARK  4 active torsions:
REMARK  status: ('A' for Active; 'I' for Inactive)
REMARK    1  A    between atoms: C6_6  and  C10_10 
REMARK    2  A    between atoms: C8_8  and  C9_9 
REMARK    3  A    between atoms: C9_9  and  C10_10 
REMARK    4  A    between atoms: C10_10  and  O11_11 
ROOT
HETATM    1  C1  UNL     1     -32.830  10.063  -0.097  1.00 20.00    -0.031 C 
HETATM    2  C2  UNL     1     -32.583  10.648   1.083  1.00 20.00    -0.030 C 
HETATM    3  C3  UNL     1     -32.915   8.576  -0.272  1.00 20.00     0.027 C 
HETATM    4  C4  UNL     1     -32.334   9.877   2.345  1.00 20.00     0.034 C 
HETATM    5  C5  UNL     1     -33.008   7.815   1.054  1.00 20.00     0.011 C 
HETATM    6  C6  UNL     1     -32.037   8.388   2.094  1.00 20.00     0.018 C 
ENDROOT
BRANCH   6   7
HETATM    7  C10 UNL     1     -32.099   7.596   3.399  1.00 20.00     0.122 C 
BRANCH   7   8
HETATM    8  C9  UNL     1     -33.537   7.209   3.749  1.00 20.00     0.032 C 
BRANCH   8   9
HETATM    9  C8  UNL     1     -33.764   7.157   5.262  1.00 20.00    -0.002 C 
HETATM   10  C7  UNL     1     -34.458   5.867   5.675  1.00 20.00     0.005 C 
ENDBRANCH   8   9
ENDBRANCH   7   8
BRANCH   7  11
HETATM   11  O11 UNL     1     -31.534   8.390   4.438  1.00 20.00    -0.395 OA
HETATM   12  H29 UNL     1     -31.264   9.228   4.030  1.00 20.00     0.210 HD
ENDBRANCH   7  11
ENDBRANCH   6   7
TORSDOF 4
ENDMDL
MODEL 5
REMARK VINA RESULT:      -4.6      1.287      5.011
REMARK  4 active torsions:
REMARK  status: ('A' for Active; 'I' for Inactive)
REMARK    1  A    between atoms: C6_6  and  C10_10 
REMARK    2  A    between atoms: C8_8  and  C9_9 
REMARK    3  A    between atoms: C9_9  and  C10_10 
REMARK    4  A    between atoms: C10_10  and  O11_11 
ROOT
HETATM    1  C1  UNL     1     -32.799  10.233   0.025  1.00 20.00    -0.031 C 
HETATM    2  C2  UNL     1     -32.857   8.943  -0.333  1.00 20.00    -0.030 C 
HETATM    3  C3  UNL     1     -32.584  10.683   1.439  1.00 20.00     0.027 C 
HETATM    4  C4  UNL     1     -32.745   7.814   0.649  1.00 20.00     0.034 C 
HETATM    5  C5  UNL     1     -32.128   9.555   2.370  1.00 20.00     0.011 C 
HETATM    6  C6  UNL     1     -32.917   8.265   2.110  1.00 20.00     0.018 C 
ENDROOT
BRANCH   6   7
HETATM    7  C10 UNL     1     -32.492   7.158   3.072  1.00 20.00     0.122 C 
BRANCH   7   8
HETATM    8  C9  UNL     1     -33.353   5.905   2.896  1.00 20.00     0.032 C 
BRANCH   8   9
HETATM    9  C8  UNL     1     -34.634   5.967   3.732  1.00 20.00    -0.002 C 
HETATM   10  C7  UNL     1     -34.672   4.856   4.771  1.00 20.00     0.005 C 
ENDBRANCH   8   9
ENDBRANCH   7   8
BRANCH   7  11
HETATM   11  O11 UNL     1     -32.602   7.648   4.405  1.00 20.00    -0.395 OA
HETATM   12  H29 UNL     1     -33.544   7.823   4.559  1.00 20.00     0.210 HD
ENDBRANCH   7  11
ENDBRANCH   6   7
TORSDOF 4
ENDMDL
MODEL 6
REMARK VINA RESULT:      -4.5     10.787     11.731
REMARK  4 active torsions:
REMARK  status: ('A' for Active; 'I' for Inactive)
REMARK    1  A    between atoms: C6_6  and  C10_10 
REMARK    2  A    between atoms: C8_8  and  C9_9 
REMARK    3  A    between atoms: C9_9  and  C10_10 
REMARK    4  A    between atoms: C10_10  and  O11_11 
ROOT
HETATM    1  C1  UNL     1     -34.165  18.088   0.090  1.00 20.00    -0.031 C 
HETATM    2  C2  UNL     1     -35.202  17.388  -0.387  1.00 20.00    -0.030 C 
HETATM    3  C3  UNL     1     -32.937  18.388  -0.715  1.00 20.00     0.027 C 
HETATM    4  C4  UNL     1     -35.230  16.803  -1.769  1.00 20.00     0.034 C 
HETATM    5  C5  UNL     1     -33.109  18.100  -2.210  1.00 20.00     0.011 C 
HETATM    6  C6  UNL     1     -33.845  16.774  -2.440  1.00 20.00     0.018 C 
ENDROOT
BRANCH   6   7
HETATM    7  C10 UNL     1     -33.973  16.467  -3.931  1.00 20.00     0.122 C 
BRANCH   7   8
HETATM    8  C9  UNL     1     -33.376  15.100  -4.272  1.00 20.00     0.032 C 
BRANCH   8   9
HETATM    9  C8  UNL     1     -34.415  13.980  -4.174  1.00 20.00    -0.002 C 
HETATM   10  C7  UNL     1     -35.769  14.431  -4.701  1.00 20.00     0.005 C 
ENDBRANCH   8   9
ENDBRANCH   7   8
BRANCH   7  11
HETATM   11  O11 UNL     1     -33.309  17.492  -4.663  1.00 20.00    -0.395 OA
HETATM   12  H29 UNL     1     -32.406  17.176  -4.826  1.00 20.00     0.210 HD
ENDBRANCH   7  11
ENDBRANCH   6   7
TORSDOF 4
ENDMDL
MODEL 7
REMARK VINA RESULT:      -4.5     11.060     11.977
REMARK  4 active torsions:
REMARK  status: ('A' for Active; 'I' for Inactive)
REMARK    1  A    between atoms: C6_6  and  C10_10 
REMARK    2  A    between atoms: C8_8  and  C9_9 
REMARK    3  A    between atoms: C9_9  and  C10_10 
REMARK    4  A    between atoms: C10_10  and  O11_11 
ROOT
HETATM    1  C1  UNL     1     -34.684  16.946  -2.531  1.00 20.00    -0.031 C 
HETATM    2  C2  UNL     1     -35.934  16.621  -2.885  1.00 20.00    -0.030 C 
HETATM    3  C3  UNL     1     -33.469  16.291  -3.116  1.00 20.00     0.027 C 
HETATM    4  C4  UNL     1     -36.251  15.546  -3.881  1.00 20.00     0.034 C 
HETATM    5  C5  UNL     1     -33.774  15.455  -4.363  1.00 20.00     0.011 C 
HETATM    6  C6  UNL     1     -35.053  14.627  -4.179  1.00 20.00     0.018 C 
ENDROOT
BRANCH   6   7
HETATM    7  C10 UNL     1     -35.328  13.760  -5.406  1.00 20.00     0.122 C 
BRANCH   7   8
HETATM    8  C9  UNL     1     -36.239  14.479  -6.404  1.00 20.00     0.032 C 
BRANCH   8   9
HETATM    9  C8  UNL     1     -35.475  14.941  -7.648  1.00 20.00    -0.002 C 
HETATM   10  C7  UNL     1     -34.267  14.057  -7.918  1.00 20.00     0.005 C 
ENDBRANCH   8   9
ENDBRANCH   7   8
BRANCH   7  11
HETATM   11  O11 UNL     1     -35.930  12.543  -4.977  1.00 20.00    -0.395 OA
HETATM   12  H29 UNL     1     -36.396  12.178  -5.746  1.00 20.00     0.210 HD
ENDBRANCH   7  11
ENDBRANCH   6   7
TORSDOF 4
ENDMDL
MODEL 8
REMARK VINA RESULT:      -4.5      1.320      4.689
REMARK  4 active torsions:
REMARK  status: ('A' for Active; 'I' for Inactive)
REMARK    1  A    between atoms: C6_6  and  C10_10 
REMARK    2  A    between atoms: C8_8  and  C9_9 
REMARK    3  A    between atoms: C9_9  and  C10_10 
REMARK    4  A    between atoms: C10_10  and  O11_11 
ROOT
HETATM    1  C1  UNL     1     -32.037   8.594   1.371  1.00 20.00    -0.031 C 
HETATM    2  C2  UNL     1     -32.929   7.594   1.347  1.00 20.00    -0.030 C 
HETATM    3  C3  UNL     1     -31.415   9.107   2.635  1.00 20.00     0.027 C 
HETATM    4  C4  UNL     1     -33.421   6.904   2.584  1.00 20.00     0.034 C 
HETATM    5  C5  UNL     1     -31.647   8.189   3.840  1.00 20.00     0.011 C 
HETATM    6  C6  UNL     1     -33.092   7.673   3.876  1.00 20.00     0.018 C 
ENDROOT
BRANCH   6   7
HETATM    7  C10 UNL     1     -33.332   6.797   5.103  1.00 20.00     0.122 C 
BRANCH   7   8
HETATM    8  C9  UNL     1     -34.728   6.170   5.078  1.00 20.00     0.032 C 
BRANCH   8   9
HETATM    9  C8  UNL     1     -34.692   4.678   5.416  1.00 20.00    -0.002 C 
HETATM   10  C7  UNL     1     -34.061   3.869   4.292  1.00 20.00     0.005 C 
ENDBRANCH   8   9
ENDBRANCH   7   8
BRANCH   7  11
HETATM   11  O11 UNL     1     -33.172   7.597   6.271  1.00 20.00    -0.395 OA
HETATM   12  H29 UNL     1     -33.992   7.508   6.782  1.00 20.00     0.210 HD
ENDBRANCH   7  11
ENDBRANCH   6   7
TORSDOF 4
ENDMDL
MODEL 9
REMARK VINA RESULT:      -4.5     11.014     11.738
REMARK  4 active torsions:
REMARK  status: ('A' for Active; 'I' for Inactive)
REMARK    1  A    between atoms: C6_6  and  C10_10 
REMARK    2  A    between atoms: C8_8  and  C9_9 
REMARK    3  A    between atoms: C9_9  and  C10_10 
REMARK    4  A    between atoms: C10_10  and  O11_11 
ROOT
HETATM    1  C1  UNL     1     -35.551  17.132  -1.944  1.00 20.00    -0.031 C 
HETATM    2  C2  UNL     1     -36.348  16.590  -2.874  1.00 20.00    -0.030 C 
HETATM    3  C3  UNL     1     -34.065  16.937  -1.922  1.00 20.00     0.027 C 
HETATM    4  C4  UNL     1     -35.841  15.704  -3.973  1.00 20.00     0.034 C 
HETATM    5  C5  UNL     1     -33.515  16.334  -3.219  1.00 20.00     0.011 C 
HETATM    6  C6  UNL     1     -34.409  15.195  -3.726  1.00 20.00     0.018 C 
ENDROOT
BRANCH   6   7
HETATM    7  C10 UNL     1     -33.832  14.566  -4.992  1.00 20.00     0.122 C 
BRANCH   7   8
HETATM    8  C9  UNL     1     -34.924  13.896  -5.830  1.00 20.00     0.032 C 
BRANCH   8   9
HETATM    9  C8  UNL     1     -34.461  13.624  -7.263  1.00 20.00    -0.002 C 
HETATM   10  C7  UNL     1     -33.905  14.881  -7.915  1.00 20.00     0.005 C 
ENDBRANCH   8   9
ENDBRANCH   7   8
BRANCH   7  11
HETATM   11  O11 UNL     1     -32.844  13.612  -4.616  1.00 20.00    -0.395 OA
HETATM   12  H29 UNL     1     -33.303  12.762  -4.519  1.00 20.00     0.210 HD
ENDBRANCH   7  11
ENDBRANCH   6   7
TORSDOF 4
ENDMDL
