MODEL 1
REMARK VINA RESULT:      -6.8      0.000      0.000
REMARK  4 active torsions:
REMARK  status: ('A' for Active; 'I' for Inactive)
REMARK    1  A    between atoms: C8_8  and  C11_11 
REMARK    2  A    between atoms: C9_9  and  C10_10 
REMARK    3  A    between atoms: C10_10  and  C11_11 
REMARK    4  A    between atoms: C11_11  and  O12_12 
ROOT
HETATM    1  C1  UNL     1     -33.334   9.850  -0.397  1.00 20.00     0.012 C 
HETATM    2  C2  UNL     1     -32.481   9.335   0.275  1.00 20.00    -0.117 C 
HETATM    3  C9  UNL     1     -31.435   8.708   1.095  1.00 20.00     0.095 C 
ENDROOT
BRANCH   3   4
HETATM    4  C10 UNL     1     -31.994   7.616   2.013  1.00 20.00     0.044 C 
BRANCH   4   5
HETATM    5  C11 UNL     1     -32.610   8.156   3.309  1.00 20.00     0.123 C 
BRANCH   5   6
HETATM    6  C8  UNL     1     -33.639   7.178   3.874  1.00 20.00     0.018 C 
HETATM    7  C6  UNL     1     -33.646   7.222   5.412  1.00 20.00     0.034 C 
HETATM    8  C4  UNL     1     -34.409   6.088   6.030  1.00 20.00    -0.030 C 
HETATM    9  C3  UNL     1     -34.774   4.993   5.348  1.00 20.00    -0.031 C 
HETATM   10  C5  UNL     1     -34.432   4.774   3.905  1.00 20.00     0.027 C 
HETATM   11  C7  UNL     1     -33.374   5.750   3.379  1.00 20.00     0.011 C 
ENDBRANCH   5   6
BRANCH   5  12
HETATM   12  O12 UNL     1     -31.582   8.344   4.276  1.00 20.00    -0.395 OA
HETATM   13  H28 UNL     1     -31.229   7.463   4.480  1.00 20.00     0.210 HD
ENDBRANCH   5  12
ENDBRANCH   4   5
ENDBRANCH   3   4
TORSDOF 4
ENDMDL
MODEL 2
REMARK VINA RESULT:      -6.5      0.408      1.502
REMARK  4 active torsions:
REMARK  status: ('A' for Active; 'I' for Inactive)
REMARK    1  A    between atoms: C8_8  and  C11_11 
REMARK    2  A    between atoms: C9_9  and  C10_10 
REMARK    3  A    between atoms: C10_10  and  C11_11 
REMARK    4  A    between atoms: C11_11  and  O12_12 
ROOT
HETATM    1  C1  UNL     1     -33.477   9.809  -0.654  1.00 20.00     0.012 C 
HETATM    2  C2  UNL     1     -32.702   9.461   0.196  1.00 20.00    -0.117 C 
HETATM    3  C9  UNL     1     -31.751   9.041   1.234  1.00 20.00     0.095 C 
ENDROOT
BRANCH   3   4
HETATM    4  C10 UNL     1     -32.235   7.804   1.998  1.00 20.00     0.044 C 
BRANCH   4   5
HETATM    5  C11 UNL     1     -32.461   8.054   3.494  1.00 20.00     0.123 C 
BRANCH   5   6
HETATM    6  C8  UNL     1     -32.956   6.788   4.191  1.00 20.00     0.018 C 
HETATM    7  C6  UNL     1     -33.495   5.775   3.164  1.00 20.00     0.034 C 
HETATM    8  C4  UNL     1     -34.261   4.650   3.794  1.00 20.00    -0.030 C 
HETATM    9  C3  UNL     1     -34.698   4.680   5.061  1.00 20.00    -0.031 C 
HETATM   10  C5  UNL     1     -34.494   5.854   5.971  1.00 20.00     0.027 C 
HETATM   11  C7  UNL     1     -34.029   7.116   5.236  1.00 20.00     0.011 C 
ENDBRANCH   5   6
BRANCH   5  12
HETATM   12  O12 UNL     1     -31.235   8.455   4.095  1.00 20.00    -0.395 OA
HETATM   13  H28 UNL     1     -31.009   7.772   4.747  1.00 20.00     0.210 HD
ENDBRANCH   5  12
ENDBRANCH   4   5
ENDBRANCH   3   4
TORSDOF 4
ENDMDL
MODEL 3
REMARK VINA RESULT:      -6.0      1.289      1.935
REMARK  4 active torsions:
REMARK  status: ('A' for Active; 'I' for Inactive)
REMARK    1  A    between atoms: C8_8  and  C11_11 
REMARK    2  A    between atoms: C9_9  and  C10_10 
REMARK    3  A    between atoms: C10_10  and  C11_11 
REMARK    4  A    between atoms: C11_11  and  O12_12 
ROOT
HETATM    1  C1  UNL     1     -33.297   9.859  -0.416  1.00 20.00     0.012 C 
HETATM    2  C2  UNL     1     -32.505   9.356   0.336  1.00 20.00    -0.117 C 
HETATM    3  C9  UNL     1     -31.534   8.742   1.251  1.00 20.00     0.095 C 
ENDROOT
BRANCH   3   4
HETATM    4  C10 UNL     1     -32.197   8.205   2.525  1.00 20.00     0.044 C 
BRANCH   4   5
HETATM    5  C11 UNL     1     -32.725   6.772   2.387  1.00 20.00     0.123 C 
BRANCH   5   6
HETATM    6  C8  UNL     1     -33.096   6.193   3.751  1.00 20.00     0.018 C 
HETATM    7  C6  UNL     1     -33.982   4.944   3.591  1.00 20.00     0.034 C 
HETATM    8  C4  UNL     1     -34.620   4.507   4.875  1.00 20.00    -0.030 C 
HETATM    9  C3  UNL     1     -34.674   5.282   5.968  1.00 20.00    -0.031 C 
HETATM   10  C5  UNL     1     -34.128   6.677   6.010  1.00 20.00     0.027 C 
HETATM   11  C7  UNL     1     -33.797   7.241   4.624  1.00 20.00     0.011 C 
ENDBRANCH   5   6
BRANCH   5  12
HETATM   12  O12 UNL     1     -33.886   6.776   1.563  1.00 20.00    -0.395 OA
HETATM   13  H28 UNL     1     -34.615   6.442   2.110  1.00 20.00     0.210 HD
ENDBRANCH   5  12
ENDBRANCH   4   5
ENDBRANCH   3   4
TORSDOF 4
ENDMDL
MODEL 4
REMARK VINA RESULT:      -5.1      0.996      5.195
REMARK  4 active torsions:
REMARK  status: ('A' for Active; 'I' for Inactive)
REMARK    1  A    between atoms: C8_8  and  C11_11 
REMARK    2  A    between atoms: C9_9  and  C10_10 
REMARK    3  A    between atoms: C10_10  and  C11_11 
REMARK    4  A    between atoms: C11_11  and  O12_12 
ROOT
HETATM    1  C1  UNL     1     -34.785   4.968   5.955  1.00 20.00     0.012 C 
HETATM    2  C2  UNL     1     -34.295   5.992   5.563  1.00 20.00    -0.117 C 
HETATM    3  C9  UNL     1     -33.697   7.247   5.088  1.00 20.00     0.095 C 
ENDROOT
BRANCH   3   4
HETATM    4  C10 UNL     1     -33.435   7.230   3.578  1.00 20.00     0.044 C 
BRANCH   4   5
HETATM    5  C11 UNL     1     -32.002   7.618   3.197  1.00 20.00     0.123 C 
BRANCH   5   6
HETATM    6  C8  UNL     1     -31.982   8.446   1.913  1.00 20.00     0.018 C 
HETATM    7  C6  UNL     1     -32.301   9.922   2.210  1.00 20.00     0.034 C 
HETATM    8  C4  UNL     1     -32.590  10.722   0.975  1.00 20.00    -0.030 C 
HETATM    9  C3  UNL     1     -32.852  10.164  -0.215  1.00 20.00    -0.031 C 
HETATM   10  C5  UNL     1     -32.915   8.681  -0.429  1.00 20.00     0.027 C 
HETATM   11  C7  UNL     1     -32.965   7.882   0.878  1.00 20.00     0.011 C 
ENDBRANCH   5   6
BRANCH   5  12
HETATM   12  O12 UNL     1     -31.429   8.392   4.245  1.00 20.00    -0.395 OA
HETATM   13  H28 UNL     1     -31.097   7.762   4.906  1.00 20.00     0.210 HD
ENDBRANCH   5  12
ENDBRANCH   4   5
ENDBRANCH   3   4
TORSDOF 4
ENDMDL
MODEL 5
REMARK VINA RESULT:      -5.1      1.198      5.329
REMARK  4 active torsions:
REMARK  status: ('A' for Active; 'I' for Inactive)
REMARK    1  A    between atoms: C8_8  and  C11_11 
REMARK    2  A    between atoms: C9_9  and  C10_10 
REMARK    3  A    between atoms: C10_10  and  C11_11 
REMARK    4  A    between atoms: C11_11  and  O12_12 
ROOT
HETATM    1  C1  UNL     1     -34.694   4.992   5.944  1.00 20.00     0.012 C 
HETATM    2  C2  UNL     1     -34.640   5.470   4.842  1.00 20.00    -0.117 C 
HETATM    3  C9  UNL     1     -34.579   6.055   3.496  1.00 20.00     0.095 C 
ENDROOT
BRANCH   3   4
HETATM    4  C10 UNL     1     -33.183   5.939   2.876  1.00 20.00     0.044 C 
BRANCH   4   5
HETATM    5  C11 UNL     1     -32.342   7.214   3.009  1.00 20.00     0.123 C 
BRANCH   5   6
HETATM    6  C8  UNL     1     -32.842   8.301   2.058  1.00 20.00     0.018 C 
HETATM    7  C6  UNL     1     -32.692   7.855   0.592  1.00 20.00     0.034 C 
HETATM    8  C4  UNL     1     -32.882   8.976  -0.385  1.00 20.00    -0.030 C 
HETATM    9  C3  UNL     1     -32.871  10.268  -0.031  1.00 20.00    -0.031 C 
HETATM   10  C5  UNL     1     -32.636  10.729   1.376  1.00 20.00     0.027 C 
HETATM   11  C7  UNL     1     -32.105   9.625   2.296  1.00 20.00     0.011 C 
ENDBRANCH   5   6
BRANCH   5  12
HETATM   12  O12 UNL     1     -32.432   7.701   4.344  1.00 20.00    -0.395 OA
HETATM   13  H28 UNL     1     -33.378   7.762   4.553  1.00 20.00     0.210 HD
ENDBRANCH   5  12
ENDBRANCH   4   5
ENDBRANCH   3   4
TORSDOF 4
ENDMDL
MODEL 6
REMARK VINA RESULT:      -5.0     10.714     11.650
REMARK  4 active torsions:
REMARK  status: ('A' for Active; 'I' for Inactive)
REMARK    1  A    between atoms: C8_8  and  C11_11 
REMARK    2  A    between atoms: C9_9  and  C10_10 
REMARK    3  A    between atoms: C10_10  and  C11_11 
REMARK    4  A    between atoms: C11_11  and  O12_12 
ROOT
HETATM    1  C1  UNL     1     -36.297  13.760  -5.279  1.00 20.00     0.012 C 
HETATM    2  C2  UNL     1     -35.192  13.900  -4.828  1.00 20.00    -0.117 C 
HETATM    3  C9  UNL     1     -33.841  14.066  -4.273  1.00 20.00     0.095 C 
ENDROOT
BRANCH   3   4
HETATM    4  C10 UNL     1     -33.155  15.335  -4.790  1.00 20.00     0.044 C 
BRANCH   4   5
HETATM    5  C11 UNL     1     -33.851  16.631  -4.359  1.00 20.00     0.123 C 
BRANCH   5   6
HETATM    6  C8  UNL     1     -33.826  16.787  -2.840  1.00 20.00     0.018 C 
HETATM    7  C6  UNL     1     -35.251  16.721  -2.260  1.00 20.00     0.034 C 
HETATM    8  C4  UNL     1     -35.324  17.161  -0.829  1.00 20.00    -0.030 C 
HETATM    9  C3  UNL     1     -34.338  17.830  -0.216  1.00 20.00    -0.031 C 
HETATM   10  C5  UNL     1     -33.071  18.236  -0.906  1.00 20.00     0.027 C 
HETATM   11  C7  UNL     1     -33.140  18.097  -2.431  1.00 20.00     0.011 C 
ENDBRANCH   5   6
BRANCH   5  12
HETATM   12  O12 UNL     1     -33.180  17.743  -4.943  1.00 20.00    -0.395 OA
HETATM   13  H28 UNL     1     -33.147  18.435  -4.263  1.00 20.00     0.210 HD
ENDBRANCH   5  12
ENDBRANCH   4   5
ENDBRANCH   3   4
TORSDOF 4
ENDMDL
MODEL 7
REMARK VINA RESULT:      -4.8      1.580      4.961
REMARK  4 active torsions:
REMARK  status: ('A' for Active; 'I' for Inactive)
REMARK    1  A    between atoms: C8_8  and  C11_11 
REMARK    2  A    between atoms: C9_9  and  C10_10 
REMARK    3  A    between atoms: C10_10  and  C11_11 
REMARK    4  A    between atoms: C11_11  and  O12_12 
ROOT
HETATM    1  C1  UNL     1     -33.658   7.601   6.318  1.00 20.00     0.012 C 
HETATM    2  C2  UNL     1     -34.097   6.624   5.772  1.00 20.00    -0.117 C 
HETATM    3  C9  UNL     1     -34.633   5.428   5.109  1.00 20.00     0.095 C 
ENDROOT
BRANCH   3   4
HETATM    4  C10 UNL     1     -35.181   5.735   3.711  1.00 20.00     0.044 C 
BRANCH   4   5
HETATM    5  C11 UNL     1     -34.100   5.808   2.627  1.00 20.00     0.123 C 
BRANCH   5   6
HETATM    6  C8  UNL     1     -33.487   7.206   2.559  1.00 20.00     0.018 C 
HETATM    7  C6  UNL     1     -33.560   7.763   1.126  1.00 20.00     0.034 C 
HETATM    8  C4  UNL     1     -32.719   8.989   0.929  1.00 20.00    -0.030 C 
HETATM    9  C3  UNL     1     -31.772   9.376   1.795  1.00 20.00    -0.031 C 
HETATM   10  C5  UNL     1     -31.434   8.606   3.036  1.00 20.00     0.027 C 
HETATM   11  C7  UNL     1     -32.037   7.198   3.059  1.00 20.00     0.011 C 
ENDBRANCH   5   6
BRANCH   5  12
HETATM   12  O12 UNL     1     -33.069   4.873   2.928  1.00 20.00    -0.395 OA
HETATM   13  H28 UNL     1     -32.507   4.816   2.138  1.00 20.00     0.210 HD
ENDBRANCH   5  12
ENDBRANCH   4   5
ENDBRANCH   3   4
TORSDOF 4
ENDMDL
MODEL 8
REMARK VINA RESULT:      -4.7     11.256     12.143
REMARK  4 active torsions:
REMARK  status: ('A' for Active; 'I' for Inactive)
REMARK    1  A    between atoms: C8_8  and  C11_11 
REMARK    2  A    between atoms: C9_9  and  C10_10 
REMARK    3  A    between atoms: C10_10  and  C11_11 
REMARK    4  A    between atoms: C11_11  and  O12_12 
ROOT
HETATM    1  C1  UNL     1     -32.617  18.178  -1.156  1.00 20.00     0.012 C 
HETATM    2  C2  UNL     1     -33.538  17.514  -1.548  1.00 20.00    -0.117 C 
HETATM    3  C9  UNL     1     -34.665  16.700  -2.022  1.00 20.00     0.095 C 
ENDROOT
BRANCH   3   4
HETATM    4  C10 UNL     1     -34.822  16.757  -3.546  1.00 20.00     0.044 C 
BRANCH   4   5
HETATM    5  C11 UNL     1     -33.619  16.194  -4.310  1.00 20.00     0.123 C 
BRANCH   5   6
HETATM    6  C8  UNL     1     -34.004  14.936  -5.087  1.00 20.00     0.018 C 
HETATM    7  C6  UNL     1     -33.718  15.113  -6.589  1.00 20.00     0.034 C 
HETATM    8  C4  UNL     1     -34.343  14.046  -7.437  1.00 20.00    -0.030 C 
HETATM    9  C3  UNL     1     -35.295  13.217  -6.987  1.00 20.00    -0.031 C 
HETATM   10  C5  UNL     1     -35.857  13.290  -5.600  1.00 20.00     0.027 C 
HETATM   11  C7  UNL     1     -35.479  14.577  -4.860  1.00 20.00     0.011 C 
ENDBRANCH   5   6
BRANCH   5  12
HETATM   12  O12 UNL     1     -33.147  17.171  -5.232  1.00 20.00    -0.395 OA
HETATM   13  H28 UNL     1     -32.888  17.946  -4.707  1.00 20.00     0.210 HD
ENDBRANCH   5  12
ENDBRANCH   4   5
ENDBRANCH   3   4
TORSDOF 4
ENDMDL
MODEL 9
REMARK VINA RESULT:      -4.6     10.988     11.787
REMARK  4 active torsions:
REMARK  status: ('A' for Active; 'I' for Inactive)
REMARK    1  A    between atoms: C8_8  and  C11_11 
REMARK    2  A    between atoms: C9_9  and  C10_10 
REMARK    3  A    between atoms: C10_10  and  C11_11 
REMARK    4  A    between atoms: C11_11  and  O12_12 
ROOT
HETATM    1  C1  UNL     1     -36.648  14.388  -7.699  1.00 20.00     0.012 C 
HETATM    2  C2  UNL     1     -35.494  14.420  -7.365  1.00 20.00    -0.117 C 
HETATM    3  C9  UNL     1     -34.082  14.454  -6.960  1.00 20.00     0.095 C 
ENDROOT
BRANCH   3   4
HETATM    4  C10 UNL     1     -33.769  15.647  -6.050  1.00 20.00     0.044 C 
BRANCH   4   5
HETATM    5  C11 UNL     1     -33.089  15.256  -4.733  1.00 20.00     0.123 C 
BRANCH   5   6
HETATM    6  C8  UNL     1     -33.976  15.598  -3.537  1.00 20.00     0.018 C 
HETATM    7  C6  UNL     1     -35.406  15.935  -3.997  1.00 20.00     0.034 C 
HETATM    8  C4  UNL     1     -36.238  16.562  -2.919  1.00 20.00    -0.030 C 
HETATM    9  C3  UNL     1     -35.718  17.062  -1.790  1.00 20.00    -0.031 C 
HETATM   10  C5  UNL     1     -34.248  17.074  -1.500  1.00 20.00     0.027 C 
HETATM   11  C7  UNL     1     -33.385  16.758  -2.726  1.00 20.00     0.011 C 
ENDBRANCH   5   6
BRANCH   5  12
HETATM   12  O12 UNL     1     -32.841  13.854  -4.730  1.00 20.00    -0.395 OA
HETATM   13  H28 UNL     1     -33.338  13.482  -5.476  1.00 20.00     0.210 HD
ENDBRANCH   5  12
ENDBRANCH   4   5
ENDBRANCH   3   4
TORSDOF 4
ENDMDL
