MODEL 1
REMARK VINA RESULT:      -5.4      0.000      0.000
REMARK  2 active torsions:
REMARK  status: ('A' for Active; 'I' for Inactive)
REMARK    1  A    between atoms: C6_6  and  C8_8 
REMARK    2  A    between atoms: C8_8  and  N9_9 
ROOT
HETATM    1  C1  UNL     1     -32.300   8.417   1.982  1.00 20.00     0.157 C 
HETATM    2  N9  UNL     1     -32.340   7.687   2.907  1.00 20.00    -0.275 NA
HETATM    3  S10 UNL     1     -32.239   9.414   0.742  1.00 20.00    -0.055 SA
ENDROOT
BRANCH   2   4
HETATM    4  C8  UNL     1     -32.901   6.372   2.639  1.00 20.00     0.159 C 
BRANCH   4   5
HETATM    5  C6  UNL     1     -33.993   6.096   3.675  1.00 20.00    -0.026 C 
HETATM    6  C4  UNL     1     -33.774   6.911   4.956  1.00 20.00     0.011 C 
HETATM    7  C2  UNL     1     -34.523   6.146   6.046  1.00 20.00     0.001 C 
HETATM    8  C3  UNL     1     -34.614   4.698   5.563  1.00 20.00     0.001 C 
HETATM    9  C5  UNL     1     -33.919   4.657   4.204  1.00 20.00     0.011 C 
HETATM   10  C7  UNL     1     -35.367   6.392   3.053  1.00 20.00     0.017 C 
ENDBRANCH   4   5
ENDBRANCH   2   4
TORSDOF 2
ENDMDL
MODEL 2
REMARK VINA RESULT:      -4.6      0.921      1.647
REMARK  2 active torsions:
REMARK  status: ('A' for Active; 'I' for Inactive)
REMARK    1  A    between atoms: C6_6  and  C8_8 
REMARK    2  A    between atoms: C8_8  and  N9_9 
ROOT
HETATM    1  C1  UNL     1     -32.475   8.990   1.577  1.00 20.00     0.157 C 
HETATM    2  N9  UNL     1     -32.462   8.022   2.250  1.00 20.00    -0.275 NA
HETATM    3  S10 UNL     1     -32.477  10.302   0.675  1.00 20.00    -0.055 SA
ENDROOT
BRANCH   2   4
HETATM    4  C8  UNL     1     -33.655   7.193   2.170  1.00 20.00     0.159 C 
BRANCH   4   5
HETATM    5  C6  UNL     1     -33.689   6.283   3.400  1.00 20.00    -0.026 C 
HETATM    6  C4  UNL     1     -35.122   5.857   3.748  1.00 20.00     0.011 C 
HETATM    7  C2  UNL     1     -35.077   5.487   5.229  1.00 20.00     0.001 C 
HETATM    8  C3  UNL     1     -33.890   6.246   5.822  1.00 20.00     0.001 C 
HETATM    9  C5  UNL     1     -33.271   7.037   4.671  1.00 20.00     0.011 C 
HETATM   10  C7  UNL     1     -32.787   5.063   3.153  1.00 20.00     0.017 C 
ENDBRANCH   4   5
ENDBRANCH   2   4
TORSDOF 2
ENDMDL
MODEL 3
REMARK VINA RESULT:      -4.0      2.568      4.904
REMARK  2 active torsions:
REMARK  status: ('A' for Active; 'I' for Inactive)
REMARK    1  A    between atoms: C6_6  and  C8_8 
REMARK    2  A    between atoms: C8_8  and  N9_9 
ROOT
HETATM    1  C1  UNL     1     -34.219   6.022   4.274  1.00 20.00     0.157 C 
HETATM    2  N9  UNL     1     -33.876   7.003   3.718  1.00 20.00    -0.275 NA
HETATM    3  S10 UNL     1     -34.692   4.706   5.036  1.00 20.00    -0.055 SA
ENDROOT
BRANCH   2   4
HETATM    4  C8  UNL     1     -32.982   6.798   2.588  1.00 20.00     0.159 C 
BRANCH   4   5
HETATM    5  C6  UNL     1     -32.354   8.145   2.224  1.00 20.00    -0.026 C 
HETATM    6  C4  UNL     1     -33.418   9.237   2.053  1.00 20.00     0.011 C 
HETATM    7  C2  UNL     1     -32.764  10.293   1.164  1.00 20.00     0.001 C 
HETATM    8  C3  UNL     1     -31.672   9.570   0.376  1.00 20.00     0.001 C 
HETATM    9  C5  UNL     1     -31.715   8.112   0.828  1.00 20.00     0.011 C 
HETATM   10  C7  UNL     1     -31.324   8.532   3.299  1.00 20.00     0.017 C 
ENDBRANCH   4   5
ENDBRANCH   2   4
TORSDOF 2
ENDMDL
MODEL 4
REMARK VINA RESULT:      -3.8     11.563     12.246
REMARK  2 active torsions:
REMARK  status: ('A' for Active; 'I' for Inactive)
REMARK    1  A    between atoms: C6_6  and  C8_8 
REMARK    2  A    between atoms: C8_8  and  N9_9 
ROOT
HETATM    1  C1  UNL     1     -35.255  14.652  -4.347  1.00 20.00     0.157 C 
HETATM    2  N9  UNL     1     -34.768  15.458  -3.638  1.00 20.00    -0.275 NA
HETATM    3  S10 UNL     1     -35.897  13.558  -5.310  1.00 20.00    -0.055 SA
ENDROOT
BRANCH   2   4
HETATM    4  C8  UNL     1     -35.705  16.212  -2.818  1.00 20.00     0.159 C 
BRANCH   4   5
HETATM    5  C6  UNL     1     -34.945  17.368  -2.164  1.00 20.00    -0.026 C 
HETATM    6  C4  UNL     1     -33.426  17.165  -2.248  1.00 20.00     0.011 C 
HETATM    7  C2  UNL     1     -32.849  18.011  -1.115  1.00 20.00     0.001 C 
HETATM    8  C3  UNL     1     -33.969  18.163  -0.085  1.00 20.00     0.001 C 
HETATM    9  C5  UNL     1     -35.170  17.405  -0.645  1.00 20.00     0.011 C 
HETATM   10  C7  UNL     1     -35.369  18.691  -2.823  1.00 20.00     0.017 C 
ENDBRANCH   4   5
ENDBRANCH   2   4
TORSDOF 2
ENDMDL
MODEL 5
REMARK VINA RESULT:      -3.7     11.743     12.224
REMARK  2 active torsions:
REMARK  status: ('A' for Active; 'I' for Inactive)
REMARK    1  A    between atoms: C6_6  and  C8_8 
REMARK    2  A    between atoms: C8_8  and  N9_9 
ROOT
HETATM    1  C1  UNL     1     -34.795  14.224  -5.436  1.00 20.00     0.157 C 
HETATM    2  N9  UNL     1     -34.542  14.725  -4.400  1.00 20.00    -0.275 NA
HETATM    3  S10 UNL     1     -35.121  13.540  -6.837  1.00 20.00    -0.055 SA
ENDROOT
BRANCH   2   4
HETATM    4  C8  UNL     1     -35.644  15.435  -3.767  1.00 20.00     0.159 C 
BRANCH   4   5
HETATM    5  C6  UNL     1     -35.076  16.672  -3.066  1.00 20.00    -0.026 C 
HETATM    6  C4  UNL     1     -33.550  16.591  -2.927  1.00 20.00     0.011 C 
HETATM    7  C2  UNL     1     -33.208  17.519  -1.763  1.00 20.00     0.001 C 
HETATM    8  C3  UNL     1     -34.472  17.614  -0.908  1.00 20.00     0.001 C 
HETATM    9  C5  UNL     1     -35.519  16.741  -1.597  1.00 20.00     0.011 C 
HETATM   10  C7  UNL     1     -35.502  17.931  -3.837  1.00 20.00     0.017 C 
ENDBRANCH   4   5
ENDBRANCH   2   4
TORSDOF 2
ENDMDL
MODEL 6
REMARK VINA RESULT:      -3.7     11.618     12.784
REMARK  2 active torsions:
REMARK  status: ('A' for Active; 'I' for Inactive)
REMARK    1  A    between atoms: C6_6  and  C8_8 
REMARK    2  A    between atoms: C8_8  and  N9_9 
ROOT
HETATM    1  C1  UNL     1     -38.396  14.887  -4.763  1.00 20.00     0.157 C 
HETATM    2  N9  UNL     1     -37.549  14.093  -4.969  1.00 20.00    -0.275 NA
HETATM    3  S10 UNL     1     -39.542  15.953  -4.470  1.00 20.00    -0.055 SA
ENDROOT
BRANCH   2   4
HETATM    4  C8  UNL     1     -36.885  14.212  -6.258  1.00 20.00     0.159 C 
BRANCH   4   5
HETATM    5  C6  UNL     1     -35.375  14.281  -6.015  1.00 20.00    -0.026 C 
HETATM    6  C4  UNL     1     -35.012  13.831  -4.593  1.00 20.00     0.011 C 
HETATM    7  C2  UNL     1     -33.658  14.479  -4.307  1.00 20.00     0.001 C 
HETATM    8  C3  UNL     1     -33.567  15.699  -5.223  1.00 20.00     0.001 C 
HETATM    9  C5  UNL     1     -34.868  15.730  -6.022  1.00 20.00     0.011 C 
HETATM   10  C7  UNL     1     -34.652  13.432  -7.072  1.00 20.00     0.017 C 
ENDBRANCH   4   5
ENDBRANCH   2   4
TORSDOF 2
ENDMDL
MODEL 7
REMARK VINA RESULT:      -3.7     11.598     12.988
REMARK  2 active torsions:
REMARK  status: ('A' for Active; 'I' for Inactive)
REMARK    1  A    between atoms: C6_6  and  C8_8 
REMARK    2  A    between atoms: C8_8  and  N9_9 
ROOT
HETATM    1  C1  UNL     1     -38.856  14.807  -5.107  1.00 20.00     0.157 C 
HETATM    2  N9  UNL     1     -37.856  14.208  -4.930  1.00 20.00    -0.275 NA
HETATM    3  S10 UNL     1     -40.214  15.603  -5.352  1.00 20.00    -0.055 SA
ENDROOT
BRANCH   2   4
HETATM    4  C8  UNL     1     -36.745  14.991  -4.412  1.00 20.00     0.159 C 
BRANCH   4   5
HETATM    5  C6  UNL     1     -35.473  14.561  -5.147  1.00 20.00    -0.026 C 
HETATM    6  C4  UNL     1     -34.980  15.652  -6.108  1.00 20.00     0.011 C 
HETATM    7  C2  UNL     1     -34.130  14.915  -7.141  1.00 20.00     0.001 C 
HETATM    8  C3  UNL     1     -34.622  13.468  -7.144  1.00 20.00     0.001 C 
HETATM    9  C5  UNL     1     -35.745  13.397  -6.111  1.00 20.00     0.011 C 
HETATM   10  C7  UNL     1     -34.393  14.193  -4.118  1.00 20.00     0.017 C 
ENDBRANCH   4   5
ENDBRANCH   2   4
TORSDOF 2
ENDMDL
MODEL 8
REMARK VINA RESULT:      -3.7      9.461     10.708
REMARK  2 active torsions:
REMARK  status: ('A' for Active; 'I' for Inactive)
REMARK    1  A    between atoms: C6_6  and  C8_8 
REMARK    2  A    between atoms: C8_8  and  N9_9 
ROOT
HETATM    1  C1  UNL     1     -43.096   3.587  -2.604  1.00 20.00     0.157 C 
HETATM    2  N9  UNL     1     -43.417   4.555  -2.012  1.00 20.00    -0.275 NA
HETATM    3  S10 UNL     1     -42.664   2.288  -3.418  1.00 20.00    -0.055 SA
ENDROOT
BRANCH   2   4
HETATM    4  C8  UNL     1     -43.330   4.455  -0.563  1.00 20.00     0.159 C 
BRANCH   4   5
HETATM    5  C6  UNL     1     -42.699   5.744  -0.032  1.00 20.00    -0.026 C 
HETATM    6  C4  UNL     1     -43.144   6.968  -0.843  1.00 20.00     0.011 C 
HETATM    7  C2  UNL     1     -42.055   8.013  -0.615  1.00 20.00     0.001 C 
HETATM    8  C3  UNL     1     -40.793   7.238  -0.238  1.00 20.00     0.001 C 
HETATM    9  C5  UNL     1     -41.179   5.761  -0.253  1.00 20.00     0.011 C 
HETATM   10  C7  UNL     1     -43.047   5.903   1.457  1.00 20.00     0.017 C 
ENDBRANCH   4   5
ENDBRANCH   2   4
TORSDOF 2
ENDMDL
MODEL 9
REMARK VINA RESULT:      -3.6     11.837     12.665
REMARK  2 active torsions:
REMARK  status: ('A' for Active; 'I' for Inactive)
REMARK    1  A    between atoms: C6_6  and  C8_8 
REMARK    2  A    between atoms: C8_8  and  N9_9 
ROOT
HETATM    1  C1  UNL     1     -31.769  18.629   0.019  1.00 20.00     0.157 C 
HETATM    2  N9  UNL     1     -32.193  18.425  -1.062  1.00 20.00    -0.275 NA
HETATM    3  S10 UNL     1     -31.181  18.896   1.475  1.00 20.00    -0.055 SA
ENDROOT
BRANCH   2   4
HETATM    4  C8  UNL     1     -33.513  18.979  -1.327  1.00 20.00     0.159 C 
BRANCH   4   5
HETATM    5  C6  UNL     1     -34.450  17.827  -1.695  1.00 20.00    -0.026 C 
HETATM    6  C4  UNL     1     -33.700  16.694  -2.407  1.00 20.00     0.011 C 
HETATM    7  C2  UNL     1     -34.770  15.946  -3.199  1.00 20.00     0.001 C 
HETATM    8  C3  UNL     1     -35.905  16.944  -3.430  1.00 20.00     0.001 C 
HETATM    9  C5  UNL     1     -35.468  18.247  -2.765  1.00 20.00     0.011 C 
HETATM   10  C7  UNL     1     -35.154  17.321  -0.425  1.00 20.00     0.017 C 
ENDBRANCH   4   5
ENDBRANCH   2   4
TORSDOF 2
ENDMDL
