MODEL 1
REMARK VINA RESULT:      -5.4      0.000      0.000
REMARK  2 active torsions:
REMARK  status: ('A' for Active; 'I' for Inactive)
REMARK    1  A    between atoms: C6_6  and  C8_8 
REMARK    2  A    between atoms: C8_8  and  N9_9 
ROOT
HETATM    1  C1  UNL     1     -32.077   8.366   1.966  1.00 20.00     0.332 C 
HETATM    2  N9  UNL     1     -32.338   7.714   2.911  1.00 20.00    -0.247 NA
HETATM    3  O10 UNL     1     -31.814   9.021   1.025  1.00 20.00    -0.260 OA
ENDROOT
BRANCH   2   4
HETATM    4  C8  UNL     1     -32.892   6.401   2.612  1.00 20.00     0.162 C 
BRANCH   4   5
HETATM    5  C6  UNL     1     -33.987   6.097   3.637  1.00 20.00    -0.026 C 
HETATM    6  C4  UNL     1     -33.773   6.881   4.939  1.00 20.00     0.011 C 
HETATM    7  C2  UNL     1     -34.524   6.088   6.007  1.00 20.00     0.001 C 
HETATM    8  C3  UNL     1     -34.611   4.653   5.489  1.00 20.00     0.001 C 
HETATM    9  C5  UNL     1     -33.910   4.647   4.132  1.00 20.00     0.011 C 
HETATM   10  C7  UNL     1     -35.359   6.406   3.018  1.00 20.00     0.017 C 
ENDBRANCH   4   5
ENDBRANCH   2   4
TORSDOF 2
ENDMDL
MODEL 2
REMARK VINA RESULT:      -4.9      0.938      1.726
REMARK  2 active torsions:
REMARK  status: ('A' for Active; 'I' for Inactive)
REMARK    1  A    between atoms: C6_6  and  C8_8 
REMARK    2  A    between atoms: C8_8  and  N9_9 
ROOT
HETATM    1  C1  UNL     1     -32.265   8.990   1.333  1.00 20.00     0.332 C 
HETATM    2  N9  UNL     1     -32.373   8.112   2.111  1.00 20.00    -0.247 NA
HETATM    3  O10 UNL     1     -32.153   9.865   0.555  1.00 20.00    -0.260 OA
ENDROOT
BRANCH   2   4
HETATM    4  C8  UNL     1     -33.701   7.970   2.689  1.00 20.00     0.162 C 
BRANCH   4   5
HETATM    5  C6  UNL     1     -33.716   6.704   3.549  1.00 20.00    -0.026 C 
HETATM    6  C4  UNL     1     -35.086   6.013   3.512  1.00 20.00     0.011 C 
HETATM    7  C2  UNL     1     -35.144   5.177   4.789  1.00 20.00     0.001 C 
HETATM    8  C3  UNL     1     -34.174   5.833   5.771  1.00 20.00     0.001 C 
HETATM    9  C5  UNL     1     -33.575   7.033   5.041  1.00 20.00     0.011 C 
HETATM   10  C7  UNL     1     -32.601   5.758   3.077  1.00 20.00     0.017 C 
ENDBRANCH   4   5
ENDBRANCH   2   4
TORSDOF 2
ENDMDL
MODEL 3
REMARK VINA RESULT:      -4.4     11.354     12.175
REMARK  2 active torsions:
REMARK  status: ('A' for Active; 'I' for Inactive)
REMARK    1  A    between atoms: C6_6  and  C8_8 
REMARK    2  A    between atoms: C8_8  and  N9_9 
ROOT
HETATM    1  C1  UNL     1     -35.452  13.760  -4.719  1.00 20.00     0.332 C 
HETATM    2  N9  UNL     1     -34.993  14.722  -4.218  1.00 20.00    -0.247 NA
HETATM    3  O10 UNL     1     -35.906  12.797  -5.219  1.00 20.00    -0.260 OA
ENDROOT
BRANCH   2   4
HETATM    4  C8  UNL     1     -35.972  15.691  -3.750  1.00 20.00     0.162 C 
BRANCH   4   5
HETATM    5  C6  UNL     1     -35.226  16.818  -3.033  1.00 20.00    -0.026 C 
HETATM    6  C4  UNL     1     -33.708  16.593  -3.056  1.00 20.00     0.011 C 
HETATM    7  C2  UNL     1     -33.169  17.400  -1.877  1.00 20.00     0.001 C 
HETATM    8  C3  UNL     1     -34.330  17.543  -0.893  1.00 20.00     0.001 C 
HETATM    9  C5  UNL     1     -35.516  16.819  -1.526  1.00 20.00     0.011 C 
HETATM   10  C7  UNL     1     -35.601  18.163  -3.675  1.00 20.00     0.017 C 
ENDBRANCH   4   5
ENDBRANCH   2   4
TORSDOF 2
ENDMDL
MODEL 4
REMARK VINA RESULT:      -4.1      2.424      4.747
REMARK  2 active torsions:
REMARK  status: ('A' for Active; 'I' for Inactive)
REMARK    1  A    between atoms: C6_6  and  C8_8 
REMARK    2  A    between atoms: C8_8  and  N9_9 
ROOT
HETATM    1  C1  UNL     1     -34.356   5.723   4.084  1.00 20.00     0.332 C 
HETATM    2  N9  UNL     1     -33.922   6.749   3.701  1.00 20.00    -0.247 NA
HETATM    3  O10 UNL     1     -34.793   4.701   4.468  1.00 20.00    -0.260 OA
ENDROOT
BRANCH   2   4
HETATM    4  C8  UNL     1     -32.959   6.636   2.616  1.00 20.00     0.162 C 
BRANCH   4   5
HETATM    5  C6  UNL     1     -32.407   8.031   2.318  1.00 20.00    -0.026 C 
HETATM    6  C4  UNL     1     -33.534   9.057   2.135  1.00 20.00     0.011 C 
HETATM    7  C2  UNL     1     -32.917  10.181   1.306  1.00 20.00     0.001 C 
HETATM    8  C3  UNL     1     -31.749   9.557   0.544  1.00 20.00     0.001 C 
HETATM    9  C5  UNL     1     -31.714   8.085   0.950  1.00 20.00     0.011 C 
HETATM   10  C7  UNL     1     -31.451   8.449   3.447  1.00 20.00     0.017 C 
ENDBRANCH   4   5
ENDBRANCH   2   4
TORSDOF 2
ENDMDL
MODEL 5
REMARK VINA RESULT:      -4.0     11.580     12.450
REMARK  2 active torsions:
REMARK  status: ('A' for Active; 'I' for Inactive)
REMARK    1  A    between atoms: C6_6  and  C8_8 
REMARK    2  A    between atoms: C8_8  and  N9_9 
ROOT
HETATM    1  C1  UNL     1     -36.055  13.746  -4.970  1.00 20.00     0.332 C 
HETATM    2  N9  UNL     1     -36.216  14.823  -4.523  1.00 20.00    -0.247 NA
HETATM    3  O10 UNL     1     -35.898  12.668  -5.415  1.00 20.00    -0.260 OA
ENDROOT
BRANCH   2   4
HETATM    4  C8  UNL     1     -35.342  15.849  -5.073  1.00 20.00     0.162 C 
BRANCH   4   5
HETATM    5  C6  UNL     1     -34.299  16.209  -4.014  1.00 20.00    -0.026 C 
HETATM    6  C4  UNL     1     -34.910  16.235  -2.606  1.00 20.00     0.011 C 
HETATM    7  C2  UNL     1     -33.984  17.132  -1.788  1.00 20.00     0.001 C 
HETATM    8  C3  UNL     1     -33.281  18.046  -2.791  1.00 20.00     0.001 C 
HETATM    9  C5  UNL     1     -33.814  17.657  -4.168  1.00 20.00     0.011 C 
HETATM   10  C7  UNL     1     -33.130  15.215  -4.096  1.00 20.00     0.017 C 
ENDBRANCH   4   5
ENDBRANCH   2   4
TORSDOF 2
ENDMDL
MODEL 6
REMARK VINA RESULT:      -4.0     11.499     12.129
REMARK  2 active torsions:
REMARK  status: ('A' for Active; 'I' for Inactive)
REMARK    1  A    between atoms: C6_6  and  C8_8 
REMARK    2  A    between atoms: C8_8  and  N9_9 
ROOT
HETATM    1  C1  UNL     1     -34.136  14.457  -4.655  1.00 20.00     0.332 C 
HETATM    2  N9  UNL     1     -33.985  15.276  -3.823  1.00 20.00    -0.247 NA
HETATM    3  O10 UNL     1     -34.282  13.637  -5.486  1.00 20.00    -0.260 OA
ENDROOT
BRANCH   2   4
HETATM    4  C8  UNL     1     -35.217  15.857  -3.309  1.00 20.00     0.162 C 
BRANCH   4   5
HETATM    5  C6  UNL     1     -34.856  17.090  -2.478  1.00 20.00    -0.026 C 
HETATM    6  C4  UNL     1     -33.345  17.178  -2.227  1.00 20.00     0.011 C 
HETATM    7  C2  UNL     1     -33.200  18.041  -0.976  1.00 20.00     0.001 C 
HETATM    8  C3  UNL     1     -34.521  17.918  -0.218  1.00 20.00     0.001 C 
HETATM    9  C5  UNL     1     -35.402  16.987  -1.048  1.00 20.00     0.011 C 
HETATM   10  C7  UNL     1     -35.378  18.349  -3.188  1.00 20.00     0.017 C 
ENDBRANCH   4   5
ENDBRANCH   2   4
TORSDOF 2
ENDMDL
MODEL 7
REMARK VINA RESULT:      -4.0      2.720      4.368
REMARK  2 active torsions:
REMARK  status: ('A' for Active; 'I' for Inactive)
REMARK    1  A    between atoms: C6_6  and  C8_8 
REMARK    2  A    between atoms: C8_8  and  N9_9 
ROOT
HETATM    1  C1  UNL     1     -34.415   5.689   5.690  1.00 20.00     0.332 C 
HETATM    2  N9  UNL     1     -34.102   6.776   5.363  1.00 20.00    -0.247 NA
HETATM    3  O10 UNL     1     -34.728   4.604   6.021  1.00 20.00    -0.260 OA
ENDROOT
BRANCH   2   4
HETATM    4  C8  UNL     1     -34.467   7.131   3.999  1.00 20.00     0.162 C 
BRANCH   4   5
HETATM    5  C6  UNL     1     -33.185   7.225   3.169  1.00 20.00    -0.026 C 
HETATM    6  C4  UNL     1     -32.046   7.881   3.962  1.00 20.00     0.011 C 
HETATM    7  C2  UNL     1     -31.088   8.425   2.904  1.00 20.00     0.001 C 
HETATM    8  C3  UNL     1     -31.922   8.629   1.639  1.00 20.00     0.001 C 
HETATM    9  C5  UNL     1     -33.344   8.197   1.992  1.00 20.00     0.011 C 
HETATM   10  C7  UNL     1     -32.790   5.820   2.686  1.00 20.00     0.017 C 
ENDBRANCH   4   5
ENDBRANCH   2   4
TORSDOF 2
ENDMDL
MODEL 8
REMARK VINA RESULT:      -3.8     11.872     12.667
REMARK  2 active torsions:
REMARK  status: ('A' for Active; 'I' for Inactive)
REMARK    1  A    between atoms: C6_6  and  C8_8 
REMARK    2  A    between atoms: C8_8  and  N9_9 
ROOT
HETATM    1  C1  UNL     1     -37.460  14.932  -4.519  1.00 20.00     0.332 C 
HETATM    2  N9  UNL     1     -36.892  15.832  -4.015  1.00 20.00    -0.247 NA
HETATM    3  O10 UNL     1     -38.030  14.033  -5.020  1.00 20.00    -0.260 OA
ENDROOT
BRANCH   2   4
HETATM    4  C8  UNL     1     -35.699  16.273  -4.722  1.00 20.00     0.162 C 
BRANCH   4   5
HETATM    5  C6  UNL     1     -34.566  16.421  -3.705  1.00 20.00    -0.026 C 
HETATM    6  C4  UNL     1     -35.104  16.505  -2.270  1.00 20.00     0.011 C 
HETATM    7  C2  UNL     1     -34.006  17.209  -1.475  1.00 20.00     0.001 C 
HETATM    8  C3  UNL     1     -33.203  18.024  -2.488  1.00 20.00     0.001 C 
HETATM    9  C5  UNL     1     -33.852  17.773  -3.847  1.00 20.00     0.011 C 
HETATM   10  C7  UNL     1     -33.584  15.250  -3.866  1.00 20.00     0.017 C 
ENDBRANCH   4   5
ENDBRANCH   2   4
TORSDOF 2
ENDMDL
MODEL 9
REMARK VINA RESULT:      -3.7     11.660     12.815
REMARK  2 active torsions:
REMARK  status: ('A' for Active; 'I' for Inactive)
REMARK    1  A    between atoms: C6_6  and  C8_8 
REMARK    2  A    between atoms: C8_8  and  N9_9 
ROOT
HETATM    1  C1  UNL     1     -38.368  14.744  -4.725  1.00 20.00     0.332 C 
HETATM    2  N9  UNL     1     -37.486  14.010  -4.991  1.00 20.00    -0.247 NA
HETATM    3  O10 UNL     1     -39.248  15.476  -4.455  1.00 20.00    -0.260 OA
ENDROOT
BRANCH   2   4
HETATM    4  C8  UNL     1     -36.846  14.264  -6.273  1.00 20.00     0.162 C 
BRANCH   4   5
HETATM    5  C6  UNL     1     -35.333  14.301  -6.054  1.00 20.00    -0.026 C 
HETATM    6  C4  UNL     1     -34.959  13.886  -4.625  1.00 20.00     0.011 C 
HETATM    7  C2  UNL     1     -33.585  14.506  -4.378  1.00 20.00     0.001 C 
HETATM    8  C3  UNL     1     -33.476  15.694  -5.333  1.00 20.00     0.001 C 
HETATM    9  C5  UNL     1     -34.788  15.735  -6.113  1.00 20.00     0.011 C 
HETATM   10  C7  UNL     1     -34.648  13.400  -7.094  1.00 20.00     0.017 C 
ENDBRANCH   4   5
ENDBRANCH   2   4
TORSDOF 2
ENDMDL
