MODEL 1
REMARK VINA RESULT:      -5.2      0.000      0.000
REMARK  3 active torsions:
REMARK  status: ('A' for Active; 'I' for Inactive)
REMARK    1  A    between atoms: C4_4  and  C8_8 
REMARK    2  A    between atoms: C7_7  and  N10_10 
REMARK    3  A    between atoms: C8_8  and  N10_10 
ROOT
HETATM    1  C1  UNL     1     -34.519   4.933   4.118  1.00 20.00     0.089 C 
HETATM    2  C7  UNL     1     -34.940   6.242   3.621  1.00 20.00     0.394 C 
HETATM    3  N9  UNL     1     -34.189   3.892   4.513  1.00 20.00    -0.195 NA
ENDROOT
BRANCH   2   4
HETATM    4  N10 UNL     1     -33.889   7.247   3.843  1.00 20.00     0.097 N 
HETATM    5  C6  UNL     1     -33.502   7.248   5.262  1.00 20.00     0.311 C 
BRANCH   4   6
HETATM    6  C8  UNL     1     -32.755   7.018   2.991  1.00 20.00     0.278 C 
BRANCH   6   7
HETATM    7  C4  UNL     1     -32.152   8.302   2.536  1.00 20.00     0.018 A 
HETATM    8  C2  UNL     1     -31.399   8.365   1.233  1.00 20.00     0.011 A 
HETATM    9  C3  UNL     1     -32.741   9.039   1.361  1.00 20.00    -0.012 A 
HETATM   10  C5  UNL     1     -32.832  10.526   1.382  1.00 20.00     0.010 C 
ENDBRANCH   6   7
ENDBRANCH   4   6
ENDBRANCH   2   4
TORSDOF 3
ENDMDL
MODEL 2
REMARK VINA RESULT:      -5.1      2.030      4.819
REMARK  3 active torsions:
REMARK  status: ('A' for Active; 'I' for Inactive)
REMARK    1  A    between atoms: C4_4  and  C8_8 
REMARK    2  A    between atoms: C7_7  and  N10_10 
REMARK    3  A    between atoms: C8_8  and  N10_10 
ROOT
HETATM    1  C1  UNL     1     -32.827   9.328   0.331  1.00 20.00     0.089 C 
HETATM    2  C7  UNL     1     -32.255   9.456   1.670  1.00 20.00     0.394 C 
HETATM    3  N9  UNL     1     -33.282   9.231  -0.732  1.00 20.00    -0.195 NA
ENDROOT
BRANCH   2   4
HETATM    4  N10 UNL     1     -32.178   8.145   2.333  1.00 20.00     0.097 N 
HETATM    5  C6  UNL     1     -31.284   8.236   3.498  1.00 20.00     0.311 C 
BRANCH   4   6
HETATM    6  C8  UNL     1     -33.482   7.670   2.710  1.00 20.00     0.278 C 
BRANCH   6   7
HETATM    7  C4  UNL     1     -33.396   6.673   3.813  1.00 20.00     0.018 A 
HETATM    8  C2  UNL     1     -34.019   6.971   5.151  1.00 20.00     0.011 A 
HETATM    9  C3  UNL     1     -34.626   5.924   4.254  1.00 20.00    -0.012 A 
HETATM   10  C5  UNL     1     -34.533   4.482   4.616  1.00 20.00     0.010 C 
ENDBRANCH   6   7
ENDBRANCH   4   6
ENDBRANCH   2   4
TORSDOF 3
ENDMDL
MODEL 3
REMARK VINA RESULT:      -5.0      1.373      2.019
REMARK  3 active torsions:
REMARK  status: ('A' for Active; 'I' for Inactive)
REMARK    1  A    between atoms: C4_4  and  C8_8 
REMARK    2  A    between atoms: C7_7  and  N10_10 
REMARK    3  A    between atoms: C8_8  and  N10_10 
ROOT
HETATM    1  C1  UNL     1     -34.017   6.523   5.298  1.00 20.00     0.089 C 
HETATM    2  C7  UNL     1     -33.303   7.619   4.644  1.00 20.00     0.394 C 
HETATM    3  N9  UNL     1     -34.583   5.656   5.821  1.00 20.00    -0.195 NA
ENDROOT
BRANCH   2   4
HETATM    4  N10 UNL     1     -32.514   7.123   3.506  1.00 20.00     0.097 N 
HETATM    5  C6  UNL     1     -33.391   6.385   2.585  1.00 20.00     0.311 C 
BRANCH   4   6
HETATM    6  C8  UNL     1     -31.832   8.196   2.834  1.00 20.00     0.278 C 
BRANCH   6   7
HETATM    7  C4  UNL     1     -32.727   8.877   1.858  1.00 20.00     0.018 A 
HETATM    8  C2  UNL     1     -32.546  10.342   1.559  1.00 20.00     0.011 A 
HETATM    9  C3  UNL     1     -32.194   9.312   0.518  1.00 20.00    -0.012 A 
HETATM   10  C5  UNL     1     -33.034   9.165  -0.704  1.00 20.00     0.010 C 
ENDBRANCH   6   7
ENDBRANCH   4   6
ENDBRANCH   2   4
TORSDOF 3
ENDMDL
MODEL 4
REMARK VINA RESULT:      -4.3      1.252      2.092
REMARK  3 active torsions:
REMARK  status: ('A' for Active; 'I' for Inactive)
REMARK    1  A    between atoms: C4_4  and  C8_8 
REMARK    2  A    between atoms: C7_7  and  N10_10 
REMARK    3  A    between atoms: C8_8  and  N10_10 
ROOT
HETATM    1  C1  UNL     1     -34.198   6.118   5.548  1.00 20.00     0.089 C 
HETATM    2  C7  UNL     1     -34.320   4.976   4.644  1.00 20.00     0.394 C 
HETATM    3  N9  UNL     1     -34.103   7.022   6.269  1.00 20.00    -0.195 NA
ENDROOT
BRANCH   2   4
HETATM    4  N10 UNL     1     -34.203   5.404   3.242  1.00 20.00     0.097 N 
HETATM    5  C6  UNL     1     -35.236   6.409   2.948  1.00 20.00     0.311 C 
BRANCH   4   6
HETATM    6  C8  UNL     1     -32.887   5.906   2.954  1.00 20.00     0.278 C 
BRANCH   6   7
HETATM    7  C4  UNL     1     -32.889   7.391   2.842  1.00 20.00     0.018 A 
HETATM    8  C2  UNL     1     -31.744   8.193   3.404  1.00 20.00     0.011 A 
HETATM    9  C3  UNL     1     -31.925   8.081   1.912  1.00 20.00    -0.012 A 
HETATM   10  C5  UNL     1     -32.367   9.263   1.120  1.00 20.00     0.010 C 
ENDBRANCH   6   7
ENDBRANCH   4   6
ENDBRANCH   2   4
TORSDOF 3
ENDMDL
MODEL 5
REMARK VINA RESULT:      -4.2     10.749     11.453
REMARK  3 active torsions:
REMARK  status: ('A' for Active; 'I' for Inactive)
REMARK    1  A    between atoms: C4_4  and  C8_8 
REMARK    2  A    between atoms: C7_7  and  N10_10 
REMARK    3  A    between atoms: C8_8  and  N10_10 
ROOT
HETATM    1  C1  UNL     1     -35.616  13.900  -4.914  1.00 20.00     0.089 C 
HETATM    2  C7  UNL     1     -35.359  15.270  -4.471  1.00 20.00     0.394 C 
HETATM    3  N9  UNL     1     -35.823  12.813  -5.263  1.00 20.00    -0.195 NA
ENDROOT
BRANCH   2   4
HETATM    4  N10 UNL     1     -33.929  15.595  -4.579  1.00 20.00     0.097 N 
HETATM    5  C6  UNL     1     -33.534  15.607  -5.996  1.00 20.00     0.311 C 
BRANCH   4   6
HETATM    6  C8  UNL     1     -33.626  16.847  -3.941  1.00 20.00     0.278 C 
BRANCH   6   7
HETATM    7  C4  UNL     1     -33.733  16.738  -2.459  1.00 20.00     0.018 A 
HETATM    8  C2  UNL     1     -33.108  17.784  -1.576  1.00 20.00     0.011 A 
HETATM    9  C3  UNL     1     -34.607  17.695  -1.692  1.00 20.00    -0.012 A 
HETATM   10  C5  UNL     1     -35.419  17.207  -0.542  1.00 20.00     0.010 C 
ENDBRANCH   6   7
ENDBRANCH   4   6
ENDBRANCH   2   4
TORSDOF 3
ENDMDL
MODEL 6
REMARK VINA RESULT:      -4.1     10.820     11.639
REMARK  3 active torsions:
REMARK  status: ('A' for Active; 'I' for Inactive)
REMARK    1  A    between atoms: C4_4  and  C8_8 
REMARK    2  A    between atoms: C7_7  and  N10_10 
REMARK    3  A    between atoms: C8_8  and  N10_10 
ROOT
HETATM    1  C1  UNL     1     -35.639  13.886  -5.452  1.00 20.00     0.089 C 
HETATM    2  C7  UNL     1     -35.336  15.285  -5.748  1.00 20.00     0.394 C 
HETATM    3  N9  UNL     1     -35.884  12.776  -5.217  1.00 20.00    -0.195 NA
ENDROOT
BRANCH   2   4
HETATM    4  N10 UNL     1     -34.025  15.664  -5.197  1.00 20.00     0.097 N 
HETATM    5  C6  UNL     1     -33.708  17.044  -5.593  1.00 20.00     0.311 C 
BRANCH   4   6
HETATM    6  C8  UNL     1     -33.991  15.507  -3.769  1.00 20.00     0.278 C 
BRANCH   6   7
HETATM    7  C4  UNL     1     -34.231  16.804  -3.077  1.00 20.00     0.018 A 
HETATM    8  C2  UNL     1     -35.002  16.841  -1.785  1.00 20.00     0.011 A 
HETATM    9  C3  UNL     1     -33.521  17.116  -1.787  1.00 20.00    -0.012 A 
HETATM   10  C5  UNL     1     -33.015  18.493  -1.526  1.00 20.00     0.010 C 
ENDBRANCH   6   7
ENDBRANCH   4   6
ENDBRANCH   2   4
TORSDOF 3
ENDMDL
MODEL 7
REMARK VINA RESULT:      -4.0     10.844     11.671
REMARK  3 active torsions:
REMARK  status: ('A' for Active; 'I' for Inactive)
REMARK    1  A    between atoms: C4_4  and  C8_8 
REMARK    2  A    between atoms: C7_7  and  N10_10 
REMARK    3  A    between atoms: C8_8  and  N10_10 
ROOT
HETATM    1  C1  UNL     1     -36.387  13.828  -5.174  1.00 20.00     0.089 C 
HETATM    2  C7  UNL     1     -37.097  15.100  -5.045  1.00 20.00     0.394 C 
HETATM    3  N9  UNL     1     -35.827  12.817  -5.277  1.00 20.00    -0.195 NA
ENDROOT
BRANCH   2   4
HETATM    4  N10 UNL     1     -36.172  16.180  -4.672  1.00 20.00     0.097 N 
HETATM    5  C6  UNL     1     -36.422  17.355  -5.522  1.00 20.00     0.311 C 
BRANCH   4   6
HETATM    6  C8  UNL     1     -36.284  16.510  -3.278  1.00 20.00     0.278 C 
BRANCH   6   7
HETATM    7  C4  UNL     1     -34.986  16.322  -2.572  1.00 20.00     0.018 A 
HETATM    8  C2  UNL     1     -33.740  15.997  -3.353  1.00 20.00     0.011 A 
HETATM    9  C3  UNL     1     -33.894  17.350  -2.710  1.00 20.00    -0.012 A 
HETATM   10  C5  UNL     1     -33.060  17.718  -1.531  1.00 20.00     0.010 C 
ENDBRANCH   6   7
ENDBRANCH   4   6
ENDBRANCH   2   4
TORSDOF 3
ENDMDL
MODEL 8
REMARK VINA RESULT:      -3.9     11.050     11.699
REMARK  3 active torsions:
REMARK  status: ('A' for Active; 'I' for Inactive)
REMARK    1  A    between atoms: C4_4  and  C8_8 
REMARK    2  A    between atoms: C7_7  and  N10_10 
REMARK    3  A    between atoms: C8_8  and  N10_10 
ROOT
HETATM    1  C1  UNL     1     -36.911  14.160  -5.342  1.00 20.00     0.089 C 
HETATM    2  C7  UNL     1     -35.520  14.363  -5.743  1.00 20.00     0.394 C 
HETATM    3  N9  UNL     1     -38.016  13.996  -5.027  1.00 20.00    -0.195 NA
ENDROOT
BRANCH   2   4
HETATM    4  N10 UNL     1     -34.954  15.551  -5.085  1.00 20.00     0.097 N 
HETATM    5  C6  UNL     1     -35.726  16.741  -5.475  1.00 20.00     0.311 C 
BRANCH   4   6
HETATM    6  C8  UNL     1     -34.920  15.394  -3.657  1.00 20.00     0.278 C 
BRANCH   6   7
HETATM    7  C4  UNL     1     -34.826  16.712  -2.970  1.00 20.00     0.018 A 
HETATM    8  C2  UNL     1     -35.171  16.831  -1.509  1.00 20.00     0.011 A 
HETATM    9  C3  UNL     1     -33.739  16.963  -1.958  1.00 20.00    -0.012 A 
HETATM   10  C5  UNL     1     -33.056  18.286  -1.906  1.00 20.00     0.010 C 
ENDBRANCH   6   7
ENDBRANCH   4   6
ENDBRANCH   2   4
TORSDOF 3
ENDMDL
MODEL 9
REMARK VINA RESULT:      -3.6     10.761     11.597
REMARK  3 active torsions:
REMARK  status: ('A' for Active; 'I' for Inactive)
REMARK    1  A    between atoms: C4_4  and  C8_8 
REMARK    2  A    between atoms: C7_7  and  N10_10 
REMARK    3  A    between atoms: C8_8  and  N10_10 
ROOT
HETATM    1  C1  UNL     1     -32.439  18.340  -0.656  1.00 20.00     0.089 C 
HETATM    2  C7  UNL     1     -33.867  18.265  -0.962  1.00 20.00     0.394 C 
HETATM    3  N9  UNL     1     -31.306  18.404  -0.414  1.00 20.00    -0.195 NA
ENDROOT
BRANCH   2   4
HETATM    4  N10 UNL     1     -34.206  16.963  -1.558  1.00 20.00     0.097 N 
HETATM    5  C6  UNL     1     -35.649  16.914  -1.838  1.00 20.00     0.311 C 
BRANCH   4   6
HETATM    6  C8  UNL     1     -33.434  16.712  -2.744  1.00 20.00     0.278 C 
BRANCH   6   7
HETATM    7  C4  UNL     1     -34.282  16.149  -3.832  1.00 20.00     0.018 A 
HETATM    8  C2  UNL     1     -33.688  15.873  -5.188  1.00 20.00     0.011 A 
HETATM    9  C3  UNL     1     -34.080  14.729  -4.290  1.00 20.00    -0.012 A 
HETATM   10  C5  UNL     1     -35.255  13.879  -4.629  1.00 20.00     0.010 C 
ENDBRANCH   6   7
ENDBRANCH   4   6
ENDBRANCH   2   4
TORSDOF 3
ENDMDL
