MODEL 1
REMARK VINA RESULT:      -5.8      0.000      0.000
REMARK  4 active torsions:
REMARK  status: ('A' for Active; 'I' for Inactive)
REMARK    1  A    between atoms: C2_2  and  C10_10 
REMARK    2  A    between atoms: C7_7  and  C11_11 
REMARK    3  A    between atoms: C10_10  and  N12_12 
REMARK    4  A    between atoms: C11_11  and  N12_12 
ROOT
HETATM    1  C1  UNL     1     -32.575   9.210   0.616  1.00 20.00    -0.109 C 
HETATM    2  C2  UNL     1     -32.031   8.936   1.651  1.00 20.00    -0.077 C 
HETATM    3  C8  UNL     1     -33.238   9.544  -0.643  1.00 20.00     0.112 C 
ENDROOT
BRANCH   2   4
HETATM    4  C10 UNL     1     -31.364   8.609   2.915  1.00 20.00     0.362 C 
BRANCH   4   5
HETATM    5  N12 UNL     1     -32.186   7.696   3.721  1.00 20.00     0.095 N 
HETATM    6  H31 UNL     1     -31.648   7.461   4.570  1.00 20.00     0.317 HD
BRANCH   5   7
HETATM    7  C11 UNL     1     -32.550   6.524   3.006  1.00 20.00     0.279 C 
BRANCH   7   8
HETATM    8  C7  UNL     1     -33.938   6.059   3.460  1.00 20.00    -0.018 C 
HETATM    9  C5  UNL     1     -34.388   6.817   4.732  1.00 20.00     0.011 C 
HETATM   10  C3  UNL     1     -34.353   5.791   5.858  1.00 20.00     0.001 C 
HETATM   11  C4  UNL     1     -34.705   4.491   5.160  1.00 20.00     0.001 C 
HETATM   12  C6  UNL     1     -33.903   4.568   3.869  1.00 20.00     0.011 C 
HETATM   13  C9  UNL     1     -34.941   6.285   2.321  1.00 20.00     0.017 C 
ENDBRANCH   7   8
ENDBRANCH   5   7
ENDBRANCH   4   5
ENDBRANCH   2   4
TORSDOF 4
ENDMDL
MODEL 2
REMARK VINA RESULT:      -4.5     11.124     12.038
REMARK  4 active torsions:
REMARK  status: ('A' for Active; 'I' for Inactive)
REMARK    1  A    between atoms: C2_2  and  C10_10 
REMARK    2  A    between atoms: C7_7  and  C11_11 
REMARK    3  A    between atoms: C10_10  and  N12_12 
REMARK    4  A    between atoms: C11_11  and  N12_12 
ROOT
HETATM    1  C1  UNL     1     -34.388  16.261  -2.754  1.00 20.00    -0.109 C 
HETATM    2  C2  UNL     1     -33.709  15.686  -3.562  1.00 20.00    -0.077 C 
HETATM    3  C8  UNL     1     -35.214  16.960  -1.772  1.00 20.00     0.112 C 
ENDROOT
BRANCH   2   4
HETATM    4  C10 UNL     1     -32.874  14.987  -4.543  1.00 20.00     0.362 C 
BRANCH   4   5
HETATM    5  N12 UNL     1     -33.667  14.017  -5.311  1.00 20.00     0.095 N 
HETATM    6  H31 UNL     1     -33.074  13.188  -5.471  1.00 20.00     0.317 HD
BRANCH   5   7
HETATM    7  C11 UNL     1     -34.134  14.556  -6.540  1.00 20.00     0.279 C 
BRANCH   7   8
HETATM    8  C7  UNL     1     -35.656  14.392  -6.623  1.00 20.00    -0.018 C 
HETATM    9  C5  UNL     1     -36.365  15.767  -6.591  1.00 20.00     0.011 C 
HETATM   10  C3  UNL     1     -37.064  15.840  -5.239  1.00 20.00     0.001 C 
HETATM   11  C4  UNL     1     -37.433  14.396  -4.955  1.00 20.00     0.001 C 
HETATM   12  C6  UNL     1     -36.188  13.634  -5.384  1.00 20.00     0.011 C 
HETATM   13  C9  UNL     1     -36.011  13.638  -7.912  1.00 20.00     0.017 C 
ENDBRANCH   7   8
ENDBRANCH   5   7
ENDBRANCH   4   5
ENDBRANCH   2   4
TORSDOF 4
ENDMDL
MODEL 3
REMARK VINA RESULT:      -4.1      0.935      1.641
REMARK  4 active torsions:
REMARK  status: ('A' for Active; 'I' for Inactive)
REMARK    1  A    between atoms: C2_2  and  C10_10 
REMARK    2  A    between atoms: C7_7  and  C11_11 
REMARK    3  A    between atoms: C10_10  and  N12_12 
REMARK    4  A    between atoms: C11_11  and  N12_12 
ROOT
HETATM    1  C1  UNL     1     -32.623   9.280   0.487  1.00 20.00    -0.109 C 
HETATM    2  C2  UNL     1     -32.088   9.082   1.544  1.00 20.00    -0.077 C 
HETATM    3  C8  UNL     1     -33.272   9.520  -0.801  1.00 20.00     0.112 C 
ENDROOT
BRANCH   2   4
HETATM    4  C10 UNL     1     -31.444   8.840   2.837  1.00 20.00     0.362 C 
BRANCH   4   5
HETATM    5  N12 UNL     1     -31.901   7.572   3.424  1.00 20.00     0.095 N 
HETATM    6  H31 UNL     1     -31.334   6.816   3.011  1.00 20.00     0.317 HD
BRANCH   5   7
HETATM    7  C11 UNL     1     -33.287   7.348   3.206  1.00 20.00     0.279 C 
BRANCH   7   8
HETATM    8  C7  UNL     1     -33.858   6.522   4.365  1.00 20.00    -0.018 C 
HETATM    9  C5  UNL     1     -33.100   5.181   4.515  1.00 20.00     0.011 C 
HETATM   10  C3  UNL     1     -34.081   4.101   4.074  1.00 20.00     0.001 C 
HETATM   11  C4  UNL     1     -35.430   4.664   4.480  1.00 20.00     0.001 C 
HETATM   12  C6  UNL     1     -35.325   6.127   4.078  1.00 20.00     0.011 C 
HETATM   13  C9  UNL     1     -33.760   7.338   5.660  1.00 20.00     0.017 C 
ENDBRANCH   7   8
ENDBRANCH   5   7
ENDBRANCH   4   5
ENDBRANCH   2   4
TORSDOF 4
ENDMDL
MODEL 4
REMARK VINA RESULT:      -4.1     11.018     12.468
REMARK  4 active torsions:
REMARK  status: ('A' for Active; 'I' for Inactive)
REMARK    1  A    between atoms: C2_2  and  C10_10 
REMARK    2  A    between atoms: C7_7  and  C11_11 
REMARK    3  A    between atoms: C10_10  and  N12_12 
REMARK    4  A    between atoms: C11_11  and  N12_12 
ROOT
HETATM    1  C1  UNL     1     -33.621  17.565  -1.531  1.00 20.00    -0.109 C 
HETATM    2  C2  UNL     1     -34.612  17.086  -2.013  1.00 20.00    -0.077 C 
HETATM    3  C8  UNL     1     -32.414  18.146  -0.945  1.00 20.00     0.112 C 
ENDROOT
BRANCH   2   4
HETATM    4  C10 UNL     1     -35.822  16.509  -2.604  1.00 20.00     0.362 C 
BRANCH   4   5
HETATM    5  N12 UNL     1     -35.685  16.382  -4.062  1.00 20.00     0.095 N 
HETATM    6  H31 UNL     1     -36.543  16.766  -4.489  1.00 20.00     0.317 HD
BRANCH   5   7
HETATM    7  C11 UNL     1     -35.470  15.038  -4.467  1.00 20.00     0.279 C 
BRANCH   7   8
HETATM    8  C7  UNL     1     -34.193  14.959  -5.313  1.00 20.00    -0.018 C 
HETATM    9  C5  UNL     1     -33.848  16.337  -5.924  1.00 20.00     0.011 C 
HETATM   10  C3  UNL     1     -34.110  16.203  -7.419  1.00 20.00     0.001 C 
HETATM   11  C4  UNL     1     -33.781  14.750  -7.705  1.00 20.00     0.001 C 
HETATM   12  C6  UNL     1     -34.403  14.021  -6.523  1.00 20.00     0.011 C 
HETATM   13  C9  UNL     1     -33.039  14.460  -4.434  1.00 20.00     0.017 C 
ENDBRANCH   7   8
ENDBRANCH   5   7
ENDBRANCH   4   5
ENDBRANCH   2   4
TORSDOF 4
ENDMDL
MODEL 5
REMARK VINA RESULT:      -4.1     10.764     12.163
REMARK  4 active torsions:
REMARK  status: ('A' for Active; 'I' for Inactive)
REMARK    1  A    between atoms: C2_2  and  C10_10 
REMARK    2  A    between atoms: C7_7  and  C11_11 
REMARK    3  A    between atoms: C10_10  and  N12_12 
REMARK    4  A    between atoms: C11_11  and  N12_12 
ROOT
HETATM    1  C1  UNL     1     -35.304  17.218  -2.004  1.00 20.00    -0.109 C 
HETATM    2  C2  UNL     1     -36.227  17.137  -2.769  1.00 20.00    -0.077 C 
HETATM    3  C8  UNL     1     -34.180  17.316  -1.075  1.00 20.00     0.112 C 
ENDROOT
BRANCH   2   4
HETATM    4  C10 UNL     1     -37.357  17.044  -3.697  1.00 20.00     0.362 C 
BRANCH   4   5
HETATM    5  N12 UNL     1     -36.989  16.279  -4.897  1.00 20.00     0.095 N 
HETATM    6  H31 UNL     1     -37.772  16.355  -5.565  1.00 20.00     0.317 HD
BRANCH   5   7
HETATM    7  C11 UNL     1     -36.699  14.920  -4.602  1.00 20.00     0.279 C 
BRANCH   7   8
HETATM    8  C7  UNL     1     -35.370  14.528  -5.259  1.00 20.00    -0.018 C 
HETATM    9  C5  UNL     1     -34.331  14.103  -4.195  1.00 20.00     0.011 C 
HETATM   10  C3  UNL     1     -33.285  15.211  -4.173  1.00 20.00     0.001 C 
HETATM   11  C4  UNL     1     -33.265  15.704  -5.608  1.00 20.00     0.001 C 
HETATM   12  C6  UNL     1     -34.741  15.744  -5.976  1.00 20.00     0.011 C 
HETATM   13  C9  UNL     1     -35.619  13.383  -6.250  1.00 20.00     0.017 C 
ENDBRANCH   7   8
ENDBRANCH   5   7
ENDBRANCH   4   5
ENDBRANCH   2   4
TORSDOF 4
ENDMDL
MODEL 6
REMARK VINA RESULT:      -4.1     11.302     12.386
REMARK  4 active torsions:
REMARK  status: ('A' for Active; 'I' for Inactive)
REMARK    1  A    between atoms: C2_2  and  C10_10 
REMARK    2  A    between atoms: C7_7  and  C11_11 
REMARK    3  A    between atoms: C10_10  and  N12_12 
REMARK    4  A    between atoms: C11_11  and  N12_12 
ROOT
HETATM    1  C1  UNL     1     -34.656  14.433  -7.246  1.00 20.00    -0.109 C 
HETATM    2  C2  UNL     1     -34.255  15.563  -7.171  1.00 20.00    -0.077 C 
HETATM    3  C8  UNL     1     -35.143  13.058  -7.337  1.00 20.00     0.112 C 
ENDROOT
BRANCH   2   4
HETATM    4  C10 UNL     1     -33.770  16.943  -7.086  1.00 20.00     0.362 C 
BRANCH   4   5
HETATM    5  N12 UNL     1     -33.450  17.303  -5.697  1.00 20.00     0.095 N 
HETATM    6  H31 UNL     1     -32.691  16.679  -5.382  1.00 20.00     0.317 HD
BRANCH   5   7
HETATM    7  C11 UNL     1     -34.580  17.205  -4.842  1.00 20.00     0.279 C 
BRANCH   7   8
HETATM    8  C7  UNL     1     -34.167  16.535  -3.526  1.00 20.00    -0.018 C 
HETATM    9  C5  UNL     1     -35.409  16.115  -2.704  1.00 20.00     0.011 C 
HETATM   10  C3  UNL     1     -35.444  17.051  -1.502  1.00 20.00     0.001 C 
HETATM   11  C4  UNL     1     -33.978  17.332  -1.230  1.00 20.00     0.001 C 
HETATM   12  C6  UNL     1     -33.406  17.536  -2.625  1.00 20.00     0.011 C 
HETATM   13  C9  UNL     1     -33.293  15.313  -3.837  1.00 20.00     0.017 C 
ENDBRANCH   7   8
ENDBRANCH   5   7
ENDBRANCH   4   5
ENDBRANCH   2   4
TORSDOF 4
ENDMDL
MODEL 7
REMARK VINA RESULT:      -4.1     10.735     12.517
REMARK  4 active torsions:
REMARK  status: ('A' for Active; 'I' for Inactive)
REMARK    1  A    between atoms: C2_2  and  C10_10 
REMARK    2  A    between atoms: C7_7  and  C11_11 
REMARK    3  A    between atoms: C10_10  and  N12_12 
REMARK    4  A    between atoms: C11_11  and  N12_12 
ROOT
HETATM    1  C1  UNL     1     -35.815  16.955  -2.550  1.00 20.00    -0.109 C 
HETATM    2  C2  UNL     1     -36.483  16.944  -3.549  1.00 20.00    -0.077 C 
HETATM    3  C8  UNL     1     -35.003  16.968  -1.335  1.00 20.00     0.112 C 
ENDROOT
BRANCH   2   4
HETATM    4  C10 UNL     1     -37.293  16.937  -4.770  1.00 20.00     0.362 C 
BRANCH   4   5
HETATM    5  N12 UNL     1     -36.733  16.013  -5.766  1.00 20.00     0.095 N 
HETATM    6  H31 UNL     1     -36.609  15.098  -5.306  1.00 20.00     0.317 HD
BRANCH   5   7
HETATM    7  C11 UNL     1     -35.507  16.484  -6.307  1.00 20.00     0.279 C 
BRANCH   7   8
HETATM    8  C7  UNL     1     -34.447  15.380  -6.201  1.00 20.00    -0.018 C 
HETATM    9  C5  UNL     1     -35.033  14.110  -5.540  1.00 20.00     0.011 C 
HETATM   10  C3  UNL     1     -34.378  14.020  -4.167  1.00 20.00     0.001 C 
HETATM   11  C4  UNL     1     -33.002  14.617  -4.394  1.00 20.00     0.001 C 
HETATM   12  C6  UNL     1     -33.294  15.825  -5.271  1.00 20.00     0.011 C 
HETATM   13  C9  UNL     1     -33.917  15.056  -7.604  1.00 20.00     0.017 C 
ENDBRANCH   7   8
ENDBRANCH   5   7
ENDBRANCH   4   5
ENDBRANCH   2   4
TORSDOF 4
ENDMDL
MODEL 8
REMARK VINA RESULT:      -4.0     11.023     12.697
REMARK  4 active torsions:
REMARK  status: ('A' for Active; 'I' for Inactive)
REMARK    1  A    between atoms: C2_2  and  C10_10 
REMARK    2  A    between atoms: C7_7  and  C11_11 
REMARK    3  A    between atoms: C10_10  and  N12_12 
REMARK    4  A    between atoms: C11_11  and  N12_12 
ROOT
HETATM    1  C1  UNL     1     -34.610  17.719  -2.327  1.00 20.00    -0.109 C 
HETATM    2  C2  UNL     1     -34.161  18.292  -3.283  1.00 20.00    -0.077 C 
HETATM    3  C8  UNL     1     -35.157  17.022  -1.165  1.00 20.00     0.112 C 
ENDROOT
BRANCH   2   4
HETATM    4  C10 UNL     1     -33.616  18.986  -4.453  1.00 20.00     0.362 C 
BRANCH   4   5
HETATM    5  N12 UNL     1     -33.242  18.029  -5.504  1.00 20.00     0.095 N 
HETATM    6  H31 UNL     1     -32.720  18.550  -6.227  1.00 20.00     0.317 HD
BRANCH   5   7
HETATM    7  C11 UNL     1     -34.372  17.374  -6.062  1.00 20.00     0.279 C 
BRANCH   7   8
HETATM    8  C7  UNL     1     -34.127  15.860  -6.078  1.00 20.00    -0.018 C 
HETATM    9  C5  UNL     1     -35.307  15.101  -5.426  1.00 20.00     0.011 C 
HETATM   10  C3  UNL     1     -34.769  14.554  -4.109  1.00 20.00     0.001 C 
HETATM   11  C4  UNL     1     -33.308  14.281  -4.412  1.00 20.00     0.001 C 
HETATM   12  C6  UNL     1     -32.892  15.503  -5.218  1.00 20.00     0.011 C 
HETATM   13  C9  UNL     1     -33.931  15.398  -7.527  1.00 20.00     0.017 C 
ENDBRANCH   7   8
ENDBRANCH   5   7
ENDBRANCH   4   5
ENDBRANCH   2   4
TORSDOF 4
ENDMDL
MODEL 9
REMARK VINA RESULT:      -4.0     10.694     11.813
REMARK  4 active torsions:
REMARK  status: ('A' for Active; 'I' for Inactive)
REMARK    1  A    between atoms: C2_2  and  C10_10 
REMARK    2  A    between atoms: C7_7  and  C11_11 
REMARK    3  A    between atoms: C10_10  and  N12_12 
REMARK    4  A    between atoms: C11_11  and  N12_12 
ROOT
HETATM    1  C1  UNL     1     -34.968  17.431  -0.384  1.00 20.00    -0.109 C 
HETATM    2  C2  UNL     1     -34.321  17.339  -1.392  1.00 20.00    -0.077 C 
HETATM    3  C8  UNL     1     -35.755  17.544   0.843  1.00 20.00     0.112 C 
ENDROOT
BRANCH   2   4
HETATM    4  C10 UNL     1     -33.538  17.222  -2.625  1.00 20.00     0.362 C 
BRANCH   4   5
HETATM    5  N12 UNL     1     -34.404  16.906  -3.770  1.00 20.00     0.095 N 
HETATM    6  H31 UNL     1     -35.112  16.228  -3.446  1.00 20.00     0.317 HD
BRANCH   5   7
HETATM    7  C11 UNL     1     -33.672  16.391  -4.873  1.00 20.00     0.279 C 
BRANCH   7   8
HETATM    8  C7  UNL     1     -33.903  14.879  -4.977  1.00 20.00    -0.018 C 
HETATM    9  C5  UNL     1     -34.062  14.443  -6.453  1.00 20.00     0.011 C 
HETATM   10  C3  UNL     1     -35.527  14.057  -6.615  1.00 20.00     0.001 C 
HETATM   11  C4  UNL     1     -35.898  13.506  -5.251  1.00 20.00     0.001 C 
HETATM   12  C6  UNL     1     -35.234  14.486  -4.295  1.00 20.00     0.011 C 
HETATM   13  C9  UNL     1     -32.723  14.144  -4.328  1.00 20.00     0.017 C 
ENDBRANCH   7   8
ENDBRANCH   5   7
ENDBRANCH   4   5
ENDBRANCH   2   4
TORSDOF 4
ENDMDL
