MODEL 1
REMARK VINA RESULT:      -4.7      0.000      0.000
REMARK  2 active torsions:
REMARK  status: ('A' for Active; 'I' for Inactive)
REMARK    1  A    between atoms: C3_3  and  C8_8 
REMARK    2  A    between atoms: C10_10  and  N11_11 
ROOT
HETATM    1  C1  UNL     1     -32.568  10.266   0.347  1.00 20.00     0.013 C 
HETATM    2  C2  UNL     1     -32.247   9.528   1.238  1.00 20.00    -0.087 C 
HETATM    3  C10 UNL     1     -31.851   8.632   2.327  1.00 20.00     0.364 C 
ENDROOT
BRANCH   3   4
HETATM    4  N11 UNL     1     -32.891   7.634   2.578  1.00 20.00     0.100 N 
HETATM    5  C6  UNL     1     -32.544   6.358   1.940  1.00 20.00     0.273 C 
HETATM    6  C4  UNL     1     -33.648   5.320   2.147  1.00 20.00     0.031 C 
HETATM    7  C5  UNL     1     -33.951   5.120   3.628  1.00 20.00     0.015 C 
HETATM    8  C8  UNL     1     -34.230   6.463   4.300  1.00 20.00     0.083 C 
HETATM    9  C7  UNL     1     -33.105   7.466   4.023  1.00 20.00     0.285 C 
BRANCH   8  10
HETATM   10  C3  UNL     1     -34.372   6.274   5.779  1.00 20.00     0.129 C 
HETATM   11  C9  UNL     1     -34.744   4.895   6.252  1.00 20.00     0.091 C 
HETATM   12  O12 UNL     1     -34.191   7.200   6.568  1.00 20.00    -0.298 OA
ENDBRANCH   8  10
ENDBRANCH   3   4
TORSDOF 2
ENDMDL
MODEL 2
REMARK VINA RESULT:      -4.7     11.403     12.464
REMARK  2 active torsions:
REMARK  status: ('A' for Active; 'I' for Inactive)
REMARK    1  A    between atoms: C3_3  and  C8_8 
REMARK    2  A    between atoms: C10_10  and  N11_11 
ROOT
HETATM    1  C1  UNL     1     -35.362  17.310  -0.696  1.00 20.00     0.013 C 
HETATM    2  C2  UNL     1     -34.590  17.013  -1.565  1.00 20.00    -0.087 C 
HETATM    3  C10 UNL     1     -33.643  16.649  -2.622  1.00 20.00     0.364 C 
ENDROOT
BRANCH   3   4
HETATM    4  N11 UNL     1     -34.323  16.556  -3.914  1.00 20.00     0.100 N 
HETATM    5  C6  UNL     1     -33.545  17.241  -4.955  1.00 20.00     0.273 C 
HETATM    6  C4  UNL     1     -34.269  17.201  -6.301  1.00 20.00     0.031 C 
HETATM    7  C5  UNL     1     -34.587  15.769  -6.717  1.00 20.00     0.015 C 
HETATM    8  C8  UNL     1     -35.323  15.039  -5.595  1.00 20.00     0.083 C 
HETATM    9  C7  UNL     1     -34.563  15.149  -4.269  1.00 20.00     0.285 C 
BRANCH   8  10
HETATM   10  C3  UNL     1     -35.492  13.594  -5.951  1.00 20.00     0.129 C 
HETATM   11  C9  UNL     1     -35.048  13.180  -7.327  1.00 20.00     0.091 C 
HETATM   12  O12 UNL     1     -35.968  12.786  -5.156  1.00 20.00    -0.298 OA
ENDBRANCH   8  10
ENDBRANCH   3   4
TORSDOF 2
ENDMDL
MODEL 3
REMARK VINA RESULT:      -4.6     11.409     12.158
REMARK  2 active torsions:
REMARK  status: ('A' for Active; 'I' for Inactive)
REMARK    1  A    between atoms: C3_3  and  C8_8 
REMARK    2  A    between atoms: C10_10  and  N11_11 
ROOT
HETATM    1  C1  UNL     1     -35.171  17.341  -0.532  1.00 20.00     0.013 C 
HETATM    2  C2  UNL     1     -34.766  16.946  -1.591  1.00 20.00    -0.087 C 
HETATM    3  C10 UNL     1     -34.267  16.466  -2.882  1.00 20.00     0.364 C 
ENDROOT
BRANCH   3   4
HETATM    4  N11 UNL     1     -35.206  15.514  -3.476  1.00 20.00     0.100 N 
HETATM    5  C6  UNL     1     -36.492  16.166  -3.755  1.00 20.00     0.273 C 
HETATM    6  C4  UNL     1     -37.504  15.170  -4.325  1.00 20.00     0.031 C 
HETATM    7  C5  UNL     1     -36.962  14.485  -5.575  1.00 20.00     0.015 C 
HETATM    8  C8  UNL     1     -35.587  13.881  -5.297  1.00 20.00     0.083 C 
HETATM    9  C7  UNL     1     -34.636  14.920  -4.694  1.00 20.00     0.285 C 
BRANCH   8  10
HETATM   10  C3  UNL     1     -34.997  13.348  -6.567  1.00 20.00     0.129 C 
HETATM   11  C9  UNL     1     -34.328  14.345  -7.473  1.00 20.00     0.091 C 
HETATM   12  O12 UNL     1     -35.056  12.153  -6.853  1.00 20.00    -0.298 OA
ENDBRANCH   8  10
ENDBRANCH   3   4
TORSDOF 2
ENDMDL
MODEL 4
REMARK VINA RESULT:      -4.6     11.217     12.103
REMARK  2 active torsions:
REMARK  status: ('A' for Active; 'I' for Inactive)
REMARK    1  A    between atoms: C3_3  and  C8_8 
REMARK    2  A    between atoms: C10_10  and  N11_11 
ROOT
HETATM    1  C1  UNL     1     -38.190  14.727  -5.264  1.00 20.00     0.013 C 
HETATM    2  C2  UNL     1     -37.151  14.125  -5.268  1.00 20.00    -0.087 C 
HETATM    3  C10 UNL     1     -35.887  13.386  -5.275  1.00 20.00     0.364 C 
ENDROOT
BRANCH   3   4
HETATM    4  N11 UNL     1     -34.756  14.297  -5.101  1.00 20.00     0.100 N 
HETATM    5  C6  UNL     1     -34.628  15.185  -6.264  1.00 20.00     0.273 C 
HETATM    6  C4  UNL     1     -33.416  16.107  -6.123  1.00 20.00     0.031 C 
HETATM    7  C5  UNL     1     -33.480  16.914  -4.830  1.00 20.00     0.015 C 
HETATM    8  C8  UNL     1     -33.697  15.987  -3.635  1.00 20.00     0.083 C 
HETATM    9  C7  UNL     1     -34.902  15.067  -3.857  1.00 20.00     0.285 C 
BRANCH   8  10
HETATM   10  C3  UNL     1     -33.914  16.797  -2.394  1.00 20.00     0.129 C 
HETATM   11  C9  UNL     1     -35.283  16.733  -1.775  1.00 20.00     0.091 C 
HETATM   12  O12 UNL     1     -33.015  17.480  -1.904  1.00 20.00    -0.298 OA
ENDBRANCH   8  10
ENDBRANCH   3   4
TORSDOF 2
ENDMDL
MODEL 5
REMARK VINA RESULT:      -4.6      2.364      5.307
REMARK  2 active torsions:
REMARK  status: ('A' for Active; 'I' for Inactive)
REMARK    1  A    between atoms: C3_3  and  C8_8 
REMARK    2  A    between atoms: C10_10  and  N11_11 
ROOT
HETATM    1  C1  UNL     1     -34.691   4.924   5.931  1.00 20.00     0.013 C 
HETATM    2  C2  UNL     1     -34.707   5.409   4.833  1.00 20.00    -0.087 C 
HETATM    3  C10 UNL     1     -34.732   5.996   3.492  1.00 20.00     0.364 C 
ENDROOT
BRANCH   3   4
HETATM    4  N11 UNL     1     -33.915   7.209   3.445  1.00 20.00     0.100 N 
HETATM    5  C6  UNL     1     -32.788   7.106   4.381  1.00 20.00     0.273 C 
HETATM    6  C4  UNL     1     -31.955   8.389   4.385  1.00 20.00     0.031 C 
HETATM    7  C5  UNL     1     -31.465   8.736   2.984  1.00 20.00     0.015 C 
HETATM    8  C8  UNL     1     -32.634   8.759   2.001  1.00 20.00     0.083 C 
HETATM    9  C7  UNL     1     -33.446   7.462   2.074  1.00 20.00     0.285 C 
BRANCH   8  10
HETATM   10  C3  UNL     1     -32.124   8.946   0.605  1.00 20.00     0.129 C 
HETATM   11  C9  UNL     1     -33.112   9.440  -0.415  1.00 20.00     0.091 C 
HETATM   12  O12 UNL     1     -30.954   8.709   0.310  1.00 20.00    -0.298 OA
ENDBRANCH   8  10
ENDBRANCH   3   4
TORSDOF 2
ENDMDL
MODEL 6
REMARK VINA RESULT:      -4.5      1.565      2.300
REMARK  2 active torsions:
REMARK  status: ('A' for Active; 'I' for Inactive)
REMARK    1  A    between atoms: C3_3  and  C8_8 
REMARK    2  A    between atoms: C10_10  and  N11_11 
ROOT
HETATM    1  C1  UNL     1     -33.188  10.232   0.623  1.00 20.00     0.013 C 
HETATM    2  C2  UNL     1     -32.432   9.350   0.929  1.00 20.00    -0.087 C 
HETATM    3  C10 UNL     1     -31.507   8.277   1.298  1.00 20.00     0.364 C 
ENDROOT
BRANCH   3   4
HETATM    4  N11 UNL     1     -31.801   7.782   2.644  1.00 20.00     0.100 N 
HETATM    5  C6  UNL     1     -31.932   8.902   3.585  1.00 20.00     0.273 C 
HETATM    6  C4  UNL     1     -32.185   8.399   5.008  1.00 20.00     0.031 C 
HETATM    7  C5  UNL     1     -33.412   7.496   5.066  1.00 20.00     0.015 C 
HETATM    8  C8  UNL     1     -33.304   6.383   4.026  1.00 20.00     0.083 C 
HETATM    9  C7  UNL     1     -33.014   6.952   2.633  1.00 20.00     0.285 C 
BRANCH   8  10
HETATM   10  C3  UNL     1     -34.578   5.597   3.985  1.00 20.00     0.129 C 
HETATM   11  C9  UNL     1     -34.554   4.235   4.623  1.00 20.00     0.091 C 
HETATM   12  O12 UNL     1     -35.595   6.045   3.459  1.00 20.00    -0.298 OA
ENDBRANCH   8  10
ENDBRANCH   3   4
TORSDOF 2
ENDMDL
MODEL 7
REMARK VINA RESULT:      -4.5     11.450     12.198
REMARK  2 active torsions:
REMARK  status: ('A' for Active; 'I' for Inactive)
REMARK    1  A    between atoms: C3_3  and  C8_8 
REMARK    2  A    between atoms: C10_10  and  N11_11 
ROOT
HETATM    1  C1  UNL     1     -35.510  17.362  -0.611  1.00 20.00     0.013 C 
HETATM    2  C2  UNL     1     -34.675  17.125  -1.440  1.00 20.00    -0.087 C 
HETATM    3  C10 UNL     1     -33.652  16.836  -2.447  1.00 20.00     0.364 C 
ENDROOT
BRANCH   3   4
HETATM    4  N11 UNL     1     -34.260  16.674  -3.768  1.00 20.00     0.100 N 
HETATM    5  C6  UNL     1     -33.224  16.636  -4.809  1.00 20.00     0.273 C 
HETATM    6  C4  UNL     1     -33.846  16.523  -6.202  1.00 20.00     0.031 C 
HETATM    7  C5  UNL     1     -34.761  15.307  -6.303  1.00 20.00     0.015 C 
HETATM    8  C8  UNL     1     -35.781  15.312  -5.167  1.00 20.00     0.083 C 
HETATM    9  C7  UNL     1     -35.096  15.465  -3.806  1.00 20.00     0.285 C 
BRANCH   8  10
HETATM   10  C3  UNL     1     -36.571  14.039  -5.184  1.00 20.00     0.129 C 
HETATM   11  C9  UNL     1     -38.069  14.173  -5.208  1.00 20.00     0.091 C 
HETATM   12  O12 UNL     1     -36.021  12.939  -5.182  1.00 20.00    -0.298 OA
ENDBRANCH   8  10
ENDBRANCH   3   4
TORSDOF 2
ENDMDL
MODEL 8
REMARK VINA RESULT:      -4.2     11.238     12.250
REMARK  2 active torsions:
REMARK  status: ('A' for Active; 'I' for Inactive)
REMARK    1  A    between atoms: C3_3  and  C8_8 
REMARK    2  A    between atoms: C10_10  and  N11_11 
ROOT
HETATM    1  C1  UNL     1     -32.850  18.048  -1.251  1.00 20.00     0.013 C 
HETATM    2  C2  UNL     1     -33.968  17.615  -1.199  1.00 20.00    -0.087 C 
HETATM    3  C10 UNL     1     -35.333  17.089  -1.129  1.00 20.00     0.364 C 
ENDROOT
BRANCH   3   4
HETATM    4  N11 UNL     1     -35.792  16.668  -2.453  1.00 20.00     0.100 N 
HETATM    5  C6  UNL     1     -36.028  17.838  -3.310  1.00 20.00     0.273 C 
HETATM    6  C4  UNL     1     -36.562  17.418  -4.681  1.00 20.00     0.031 C 
HETATM    7  C5  UNL     1     -35.623  16.428  -5.362  1.00 20.00     0.015 C 
HETATM    8  C8  UNL     1     -35.318  15.257  -4.430  1.00 20.00     0.083 C 
HETATM    9  C7  UNL     1     -34.824  15.747  -3.065  1.00 20.00     0.285 C 
BRANCH   8  10
HETATM   10  C3  UNL     1     -34.277  14.373  -5.046  1.00 20.00     0.129 C 
HETATM   11  C9  UNL     1     -32.885  14.476  -4.485  1.00 20.00     0.091 C 
HETATM   12  O12 UNL     1     -34.548  13.600  -5.963  1.00 20.00    -0.298 OA
ENDBRANCH   8  10
ENDBRANCH   3   4
TORSDOF 2
ENDMDL
MODEL 9
REMARK VINA RESULT:      -4.1     11.573     11.998
REMARK  2 active torsions:
REMARK  status: ('A' for Active; 'I' for Inactive)
REMARK    1  A    between atoms: C3_3  and  C8_8 
REMARK    2  A    between atoms: C10_10  and  N11_11 
ROOT
HETATM    1  C1  UNL     1     -34.263  14.803  -7.452  1.00 20.00     0.013 C 
HETATM    2  C2  UNL     1     -33.780  14.984  -6.369  1.00 20.00    -0.087 C 
HETATM    3  C10 UNL     1     -33.184  15.204  -5.049  1.00 20.00     0.364 C 
ENDROOT
BRANCH   3   4
HETATM    4  N11 UNL     1     -34.020  16.100  -4.248  1.00 20.00     0.100 N 
HETATM    5  C6  UNL     1     -35.254  15.418  -3.835  1.00 20.00     0.273 C 
HETATM    6  C4  UNL     1     -36.164  16.359  -3.044  1.00 20.00     0.031 C 
HETATM    7  C5  UNL     1     -35.440  16.946  -1.837  1.00 20.00     0.015 C 
HETATM    8  C8  UNL     1     -34.118  17.580  -2.266  1.00 20.00     0.083 C 
HETATM    9  C7  UNL     1     -33.272  16.598  -3.084  1.00 20.00     0.285 C 
BRANCH   8  10
HETATM   10  C3  UNL     1     -33.344  18.014  -1.059  1.00 20.00     0.129 C 
HETATM   11  C9  UNL     1     -34.123  18.191   0.215  1.00 20.00     0.091 C 
HETATM   12  O12 UNL     1     -32.132  18.213  -1.108  1.00 20.00    -0.298 OA
ENDBRANCH   8  10
ENDBRANCH   3   4
TORSDOF 2
ENDMDL
