MODEL 1
REMARK VINA RESULT:      -5.3      0.000      0.000
REMARK  3 active torsions:
REMARK  status: ('A' for Active; 'I' for Inactive)
REMARK    1  A    between atoms: C5_5  and  C6_6 
REMARK    2  A    between atoms: C5_5  and  C7_7 
REMARK    3  A    between atoms: C7_7  and  C8_8 
ROOT
HETATM    1  C1  UNL     1     -32.951   4.786   2.434  1.00 20.00     0.011 C 
HETATM    2  C7  UNL     1     -33.090   5.980   3.395  1.00 20.00    -0.010 C 
ENDROOT
BRANCH   2   3
HETATM    3  C5  UNL     1     -33.171   7.307   2.591  1.00 20.00     0.020 C 
BRANCH   3   4
HETATM    4  C6  UNL     1     -31.903   8.165   2.566  1.00 20.00     0.115 C 
HETATM    5 CL9  UNL     1     -31.563   8.818   0.947  1.00 20.00    -0.130 Cl
ENDBRANCH   3   4
ENDBRANCH   2   3
BRANCH   2   6
HETATM    6  C8  UNL     1     -34.276   5.805   4.425  1.00 20.00    -0.048 C 
HETATM    7  C2  UNL     1     -35.627   6.130   3.750  1.00 20.00     0.015 C 
HETATM    8  C3  UNL     1     -34.125   6.717   5.658  1.00 20.00     0.015 C 
HETATM    9  C4  UNL     1     -34.361   4.342   4.915  1.00 20.00     0.015 C 
ENDBRANCH   2   6
TORSDOF 3
ENDMDL
MODEL 2
REMARK VINA RESULT:      -5.3      0.908      1.880
REMARK  3 active torsions:
REMARK  status: ('A' for Active; 'I' for Inactive)
REMARK    1  A    between atoms: C5_5  and  C6_6 
REMARK    2  A    between atoms: C5_5  and  C7_7 
REMARK    3  A    between atoms: C7_7  and  C8_8 
ROOT
HETATM    1  C1  UNL     1     -33.336   7.501   5.831  1.00 20.00     0.011 C 
HETATM    2  C7  UNL     1     -33.712   7.246   4.361  1.00 20.00    -0.010 C 
ENDROOT
BRANCH   2   3
HETATM    3  C5  UNL     1     -32.492   7.526   3.440  1.00 20.00     0.020 C 
BRANCH   3   4
HETATM    4  C6  UNL     1     -32.700   8.562   2.332  1.00 20.00     0.115 C 
HETATM    5 CL9  UNL     1     -31.439   8.472   1.082  1.00 20.00    -0.130 Cl
ENDBRANCH   3   4
ENDBRANCH   2   3
BRANCH   2   6
HETATM    6  C8  UNL     1     -34.352   5.820   4.128  1.00 20.00    -0.048 C 
HETATM    7  C2  UNL     1     -35.754   5.957   3.493  1.00 20.00     0.015 C 
HETATM    8  C3  UNL     1     -34.495   5.017   5.436  1.00 20.00     0.015 C 
HETATM    9  C4  UNL     1     -33.494   4.992   3.145  1.00 20.00     0.015 C 
ENDBRANCH   2   6
TORSDOF 3
ENDMDL
MODEL 3
REMARK VINA RESULT:      -5.2      0.903      2.254
REMARK  3 active torsions:
REMARK  status: ('A' for Active; 'I' for Inactive)
REMARK    1  A    between atoms: C5_5  and  C6_6 
REMARK    2  A    between atoms: C5_5  and  C7_7 
REMARK    3  A    between atoms: C7_7  and  C8_8 
ROOT
HETATM    1  C1  UNL     1     -33.355   7.476   5.815  1.00 20.00     0.011 C 
HETATM    2  C7  UNL     1     -33.704   7.229   4.337  1.00 20.00    -0.010 C 
ENDROOT
BRANCH   2   3
HETATM    3  C5  UNL     1     -32.469   7.522   3.440  1.00 20.00     0.020 C 
BRANCH   3   4
HETATM    4  C6  UNL     1     -32.644   8.608   2.375  1.00 20.00     0.115 C 
HETATM    5 CL9  UNL     1     -31.435   8.480   1.078  1.00 20.00    -0.130 Cl
ENDBRANCH   3   4
ENDBRANCH   2   3
BRANCH   2   6
HETATM    6  C8  UNL     1     -34.331   5.802   4.082  1.00 20.00    -0.048 C 
HETATM    7  C2  UNL     1     -34.475   5.032   5.414  1.00 20.00     0.015 C 
HETATM    8  C3  UNL     1     -33.480   4.946   3.125  1.00 20.00     0.015 C 
HETATM    9  C4  UNL     1     -35.750   5.929   3.483  1.00 20.00     0.015 C 
ENDBRANCH   2   6
TORSDOF 3
ENDMDL
MODEL 4
REMARK VINA RESULT:      -5.2      0.909      2.086
REMARK  3 active torsions:
REMARK  status: ('A' for Active; 'I' for Inactive)
REMARK    1  A    between atoms: C5_5  and  C6_6 
REMARK    2  A    between atoms: C5_5  and  C7_7 
REMARK    3  A    between atoms: C7_7  and  C8_8 
ROOT
HETATM    1  C1  UNL     1     -33.336   7.482   5.813  1.00 20.00     0.011 C 
HETATM    2  C7  UNL     1     -33.706   7.249   4.337  1.00 20.00    -0.010 C 
ENDROOT
BRANCH   2   3
HETATM    3  C5  UNL     1     -32.476   7.520   3.427  1.00 20.00     0.020 C 
BRANCH   3   4
HETATM    4  C6  UNL     1     -32.646   8.602   2.358  1.00 20.00     0.115 C 
HETATM    5 CL9  UNL     1     -31.430   8.470   1.067  1.00 20.00    -0.130 Cl
ENDBRANCH   3   4
ENDBRANCH   2   3
BRANCH   2   6
HETATM    6  C8  UNL     1     -34.366   5.836   4.085  1.00 20.00    -0.048 C 
HETATM    7  C2  UNL     1     -33.484   4.993   3.137  1.00 20.00     0.015 C 
HETATM    8  C3  UNL     1     -35.771   5.944   3.462  1.00 20.00     0.015 C 
HETATM    9  C4  UNL     1     -34.484   5.046   5.407  1.00 20.00     0.015 C 
ENDBRANCH   2   6
TORSDOF 3
ENDMDL
MODEL 5
REMARK VINA RESULT:      -3.8      2.490      4.035
REMARK  3 active torsions:
REMARK  status: ('A' for Active; 'I' for Inactive)
REMARK    1  A    between atoms: C5_5  and  C6_6 
REMARK    2  A    between atoms: C5_5  and  C7_7 
REMARK    3  A    between atoms: C7_7  and  C8_8 
ROOT
HETATM    1  C1  UNL     1     -35.234   6.361   3.339  1.00 20.00     0.011 C 
HETATM    2  C7  UNL     1     -34.169   7.277   3.965  1.00 20.00    -0.010 C 
ENDROOT
BRANCH   2   3
HETATM    3  C5  UNL     1     -33.867   6.830   5.422  1.00 20.00     0.020 C 
BRANCH   3   4
HETATM    4  C6  UNL     1     -34.611   5.588   5.920  1.00 20.00     0.115 C 
HETATM    5 CL9  UNL     1     -34.141   4.121   5.032  1.00 20.00    -0.130 Cl
ENDBRANCH   3   4
ENDBRANCH   2   3
BRANCH   2   6
HETATM    6  C8  UNL     1     -32.870   7.408   3.075  1.00 20.00    -0.048 C 
HETATM    7  C2  UNL     1     -32.470   6.030   2.501  1.00 20.00     0.015 C 
HETATM    8  C3  UNL     1     -31.668   7.964   3.863  1.00 20.00     0.015 C 
HETATM    9  C4  UNL     1     -33.127   8.338   1.868  1.00 20.00     0.015 C 
ENDBRANCH   2   6
TORSDOF 3
ENDMDL
MODEL 6
REMARK VINA RESULT:      -3.8      2.504      4.705
REMARK  3 active torsions:
REMARK  status: ('A' for Active; 'I' for Inactive)
REMARK    1  A    between atoms: C5_5  and  C6_6 
REMARK    2  A    between atoms: C5_5  and  C7_7 
REMARK    3  A    between atoms: C7_7  and  C8_8 
ROOT
HETATM    1  C1  UNL     1     -31.396   8.323   3.500  1.00 20.00     0.011 C 
HETATM    2  C7  UNL     1     -32.361   7.915   2.372  1.00 20.00    -0.010 C 
ENDROOT
BRANCH   2   3
HETATM    3  C5  UNL     1     -33.781   7.658   2.949  1.00 20.00     0.020 C 
BRANCH   3   4
HETATM    4  C6  UNL     1     -33.914   6.495   3.935  1.00 20.00     0.115 C 
HETATM    5 CL9  UNL     1     -33.975   7.048   5.624  1.00 20.00    -0.130 Cl
ENDBRANCH   3   4
ENDBRANCH   2   3
BRANCH   2   6
HETATM    6  C8  UNL     1     -32.357   8.932   1.163  1.00 20.00    -0.048 C 
HETATM    7  C2  UNL     1     -31.002   8.881   0.421  1.00 20.00     0.015 C 
HETATM    8  C3  UNL     1     -32.602  10.385   1.612  1.00 20.00     0.015 C 
HETATM    9  C4  UNL     1     -33.445   8.556   0.132  1.00 20.00     0.015 C 
ENDBRANCH   2   6
TORSDOF 3
ENDMDL
MODEL 7
REMARK VINA RESULT:      -3.6      2.524      4.194
REMARK  3 active torsions:
REMARK  status: ('A' for Active; 'I' for Inactive)
REMARK    1  A    between atoms: C5_5  and  C6_6 
REMARK    2  A    between atoms: C5_5  and  C7_7 
REMARK    3  A    between atoms: C7_7  and  C8_8 
ROOT
HETATM    1  C1  UNL     1     -32.716   5.528   2.481  1.00 20.00     0.011 C 
HETATM    2  C7  UNL     1     -33.420   6.891   2.605  1.00 20.00    -0.010 C 
ENDROOT
BRANCH   2   3
HETATM    3  C5  UNL     1     -34.217   6.963   3.937  1.00 20.00     0.020 C 
BRANCH   3   4
HETATM    4  C6  UNL     1     -35.102   5.758   4.265  1.00 20.00     0.115 C 
HETATM    5 CL9  UNL     1     -34.536   4.879   5.703  1.00 20.00    -0.130 Cl
ENDBRANCH   3   4
ENDBRANCH   2   3
BRANCH   2   6
HETATM    6  C8  UNL     1     -32.436   8.111   2.404  1.00 20.00    -0.048 C 
HETATM    7  C2  UNL     1     -31.618   7.934   1.105  1.00 20.00     0.015 C 
HETATM    8  C3  UNL     1     -31.447   8.270   3.575  1.00 20.00     0.015 C 
HETATM    9  C4  UNL     1     -33.227   9.431   2.259  1.00 20.00     0.015 C 
ENDBRANCH   2   6
TORSDOF 3
ENDMDL
MODEL 8
REMARK VINA RESULT:      -3.6     11.444     12.519
REMARK  3 active torsions:
REMARK  status: ('A' for Active; 'I' for Inactive)
REMARK    1  A    between atoms: C5_5  and  C6_6 
REMARK    2  A    between atoms: C5_5  and  C7_7 
REMARK    3  A    between atoms: C7_7  and  C8_8 
ROOT
HETATM    1  C1  UNL     1     -36.322  16.124  -5.101  1.00 20.00     0.011 C 
HETATM    2  C7  UNL     1     -35.424  15.151  -4.317  1.00 20.00    -0.010 C 
ENDROOT
BRANCH   2   3
HETATM    3  C5  UNL     1     -35.544  13.719  -4.909  1.00 20.00     0.020 C 
BRANCH   3   4
HETATM    4  C6  UNL     1     -35.875  13.624  -6.400  1.00 20.00     0.115 C 
HETATM    5 CL9  UNL     1     -34.415  13.542  -7.411  1.00 20.00    -0.130 Cl
ENDBRANCH   3   4
ENDBRANCH   2   3
BRANCH   2   6
HETATM    6  C8  UNL     1     -33.930  15.651  -4.200  1.00 20.00    -0.048 C 
HETATM    7  C2  UNL     1     -32.959  14.449  -4.204  1.00 20.00     0.015 C 
HETATM    8  C3  UNL     1     -33.680  16.464  -2.915  1.00 20.00     0.015 C 
HETATM    9  C4  UNL     1     -33.555  16.534  -5.411  1.00 20.00     0.015 C 
ENDBRANCH   2   6
TORSDOF 3
ENDMDL
MODEL 9
REMARK VINA RESULT:      -3.6     11.382     12.118
REMARK  3 active torsions:
REMARK  status: ('A' for Active; 'I' for Inactive)
REMARK    1  A    between atoms: C5_5  and  C6_6 
REMARK    2  A    between atoms: C5_5  and  C7_7 
REMARK    3  A    between atoms: C7_7  and  C8_8 
ROOT
HETATM    1  C1  UNL     1     -33.032  14.393  -4.285  1.00 20.00     0.011 C 
HETATM    2  C7  UNL     1     -34.258  15.167  -3.770  1.00 20.00    -0.010 C 
ENDROOT
BRANCH   2   3
HETATM    3  C5  UNL     1     -33.870  16.639  -3.458  1.00 20.00     0.020 C 
BRANCH   3   4
HETATM    4  C6  UNL     1     -33.731  17.008  -1.979  1.00 20.00     0.115 C 
HETATM    5 CL9  UNL     1     -35.282  16.921  -1.115  1.00 20.00    -0.130 Cl
ENDBRANCH   3   4
ENDBRANCH   2   3
BRANCH   2   6
HETATM    6  C8  UNL     1     -35.509  15.044  -4.727  1.00 20.00    -0.048 C 
HETATM    7  C2  UNL     1     -35.768  13.564  -5.087  1.00 20.00     0.015 C 
HETATM    8  C3  UNL     1     -35.328  15.832  -6.039  1.00 20.00     0.015 C 
HETATM    9  C4  UNL     1     -36.785  15.564  -4.025  1.00 20.00     0.015 C 
ENDBRANCH   2   6
TORSDOF 3
ENDMDL
