MODEL 1
REMARK VINA RESULT:      -5.0      0.000      0.000
REMARK  3 active torsions:
REMARK  status: ('A' for Active; 'I' for Inactive)
REMARK    1  A    between atoms: C4_4  and  C8_8 
REMARK    2  A    between atoms: C7_7  and  N10_10 
REMARK    3  A    between atoms: C8_8  and  N10_10 
ROOT
HETATM    1  C1  UNL     1     -32.651   9.180   0.111  1.00 20.00     0.089 C 
HETATM    2  C7  UNL     1     -31.711   8.796   1.162  1.00 20.00     0.394 C 
HETATM    3  N9  UNL     1     -33.395   9.484  -0.727  1.00 20.00    -0.195 NA
ENDROOT
BRANCH   2   4
HETATM    4  N10 UNL     1     -32.416   8.539   2.427  1.00 20.00     0.097 N 
HETATM    5  C6  UNL     1     -31.438   8.201   3.474  1.00 20.00     0.311 C 
BRANCH   4   6
HETATM    6  C8  UNL     1     -33.401   7.502   2.277  1.00 20.00     0.278 C 
BRANCH   6   7
HETATM    7  C4  UNL     1     -33.254   6.463   3.332  1.00 20.00     0.018 A 
HETATM    8  C2  UNL     1     -33.397   5.005   2.984  1.00 20.00     0.011 A 
HETATM    9  C3  UNL     1     -34.459   5.689   3.803  1.00 20.00    -0.012 A 
HETATM   10  C5  UNL     1     -34.618   5.359   5.248  1.00 20.00     0.010 C 
ENDBRANCH   6   7
ENDBRANCH   4   6
ENDBRANCH   2   4
TORSDOF 3
ENDMDL
MODEL 2
REMARK VINA RESULT:      -4.9      2.141      4.833
REMARK  3 active torsions:
REMARK  status: ('A' for Active; 'I' for Inactive)
REMARK    1  A    between atoms: C4_4  and  C8_8 
REMARK    2  A    between atoms: C7_7  and  N10_10 
REMARK    3  A    between atoms: C8_8  and  N10_10 
ROOT
HETATM    1  C1  UNL     1     -34.355   6.223   5.497  1.00 20.00     0.089 C 
HETATM    2  C7  UNL     1     -34.729   5.301   4.426  1.00 20.00     0.394 C 
HETATM    3  N9  UNL     1     -34.058   6.952   6.350  1.00 20.00    -0.195 NA
ENDROOT
BRANCH   2   4
HETATM    4  N10 UNL     1     -34.200   5.759   3.132  1.00 20.00     0.097 N 
HETATM    5  C6  UNL     1     -33.029   4.947   2.765  1.00 20.00     0.311 C 
BRANCH   4   6
HETATM    6  C8  UNL     1     -33.878   7.159   3.163  1.00 20.00     0.278 C 
BRANCH   6   7
HETATM    7  C4  UNL     1     -32.584   7.430   2.478  1.00 20.00     0.018 A 
HETATM    8  C2  UNL     1     -31.548   8.304   3.134  1.00 20.00     0.011 A 
HETATM    9  C3  UNL     1     -32.294   8.801   1.924  1.00 20.00    -0.012 A 
HETATM   10  C5  UNL     1     -31.590   8.946   0.618  1.00 20.00     0.010 C 
ENDBRANCH   6   7
ENDBRANCH   4   6
ENDBRANCH   2   4
TORSDOF 3
ENDMDL
MODEL 3
REMARK VINA RESULT:      -4.9      2.414      4.882
REMARK  3 active torsions:
REMARK  status: ('A' for Active; 'I' for Inactive)
REMARK    1  A    between atoms: C4_4  and  C8_8 
REMARK    2  A    between atoms: C7_7  and  N10_10 
REMARK    3  A    between atoms: C8_8  and  N10_10 
ROOT
HETATM    1  C1  UNL     1     -34.395   4.392   4.455  1.00 20.00     0.089 C 
HETATM    2  C7  UNL     1     -34.796   5.713   4.935  1.00 20.00     0.394 C 
HETATM    3  N9  UNL     1     -34.081   3.341   4.074  1.00 20.00    -0.195 NA
ENDROOT
BRANCH   2   4
HETATM    4  N10 UNL     1     -33.701   6.683   4.774  1.00 20.00     0.097 N 
HETATM    5  C6  UNL     1     -33.620   7.534   5.972  1.00 20.00     0.311 C 
BRANCH   4   6
HETATM    6  C8  UNL     1     -33.869   7.470   3.583  1.00 20.00     0.278 C 
BRANCH   6   7
HETATM    7  C4  UNL     1     -32.616   7.506   2.780  1.00 20.00     0.018 A 
HETATM    8  C2  UNL     1     -31.420   8.275   3.277  1.00 20.00     0.011 A 
HETATM    9  C3  UNL     1     -32.197   8.778   2.089  1.00 20.00    -0.012 A 
HETATM   10  C5  UNL     1     -31.597   8.725   0.726  1.00 20.00     0.010 C 
ENDBRANCH   6   7
ENDBRANCH   4   6
ENDBRANCH   2   4
TORSDOF 3
ENDMDL
MODEL 4
REMARK VINA RESULT:      -4.8      2.045      4.997
REMARK  3 active torsions:
REMARK  status: ('A' for Active; 'I' for Inactive)
REMARK    1  A    between atoms: C4_4  and  C8_8 
REMARK    2  A    between atoms: C7_7  and  N10_10 
REMARK    3  A    between atoms: C8_8  and  N10_10 
ROOT
HETATM    1  C1  UNL     1     -34.277   5.981   5.399  1.00 20.00     0.089 C 
HETATM    2  C7  UNL     1     -33.631   7.214   4.950  1.00 20.00     0.394 C 
HETATM    3  N9  UNL     1     -34.790   5.004   5.760  1.00 20.00    -0.195 NA
ENDROOT
BRANCH   2   4
HETATM    4  N10 UNL     1     -33.544   7.254   3.482  1.00 20.00     0.097 N 
HETATM    5  C6  UNL     1     -33.455   5.882   2.958  1.00 20.00     0.311 C 
BRANCH   4   6
HETATM    6  C8  UNL     1     -32.433   8.055   3.044  1.00 20.00     0.278 C 
BRANCH   6   7
HETATM    7  C4  UNL     1     -32.395   8.158   1.560  1.00 20.00     0.018 A 
HETATM    8  C2  UNL     1     -31.196   8.756   0.873  1.00 20.00     0.011 A 
HETATM    9  C3  UNL     1     -32.501   9.506   0.893  1.00 20.00    -0.012 A 
HETATM   10  C5  UNL     1     -33.295   9.660  -0.359  1.00 20.00     0.010 C 
ENDBRANCH   6   7
ENDBRANCH   4   6
ENDBRANCH   2   4
TORSDOF 3
ENDMDL
MODEL 5
REMARK VINA RESULT:      -4.2     10.211     11.028
REMARK  3 active torsions:
REMARK  status: ('A' for Active; 'I' for Inactive)
REMARK    1  A    between atoms: C4_4  and  C8_8 
REMARK    2  A    between atoms: C7_7  and  N10_10 
REMARK    3  A    between atoms: C8_8  and  N10_10 
ROOT
HETATM    1  C1  UNL     1     -35.313  13.739  -5.672  1.00 20.00     0.089 C 
HETATM    2  C7  UNL     1     -34.484  14.810  -6.222  1.00 20.00     0.394 C 
HETATM    3  N9  UNL     1     -35.971  12.887  -5.239  1.00 20.00    -0.195 NA
ENDROOT
BRANCH   2   4
HETATM    4  N10 UNL     1     -33.786  15.536  -5.149  1.00 20.00     0.097 N 
HETATM    5  C6  UNL     1     -32.961  14.595  -4.376  1.00 20.00     0.311 C 
BRANCH   4   6
HETATM    6  C8  UNL     1     -34.713  16.238  -4.302  1.00 20.00     0.278 C 
BRANCH   6   7
HETATM    7  C4  UNL     1     -34.210  16.316  -2.903  1.00 20.00     0.018 A 
HETATM    8  C2  UNL     1     -35.141  16.706  -1.785  1.00 20.00     0.011 A 
HETATM    9  C3  UNL     1     -34.059  17.655  -2.228  1.00 20.00    -0.012 A 
HETATM   10  C5  UNL     1     -32.888  17.919  -1.345  1.00 20.00     0.010 C 
ENDBRANCH   6   7
ENDBRANCH   4   6
ENDBRANCH   2   4
TORSDOF 3
ENDMDL
MODEL 6
REMARK VINA RESULT:      -4.2      1.181      1.859
REMARK  3 active torsions:
REMARK  status: ('A' for Active; 'I' for Inactive)
REMARK    1  A    between atoms: C4_4  and  C8_8 
REMARK    2  A    between atoms: C7_7  and  N10_10 
REMARK    3  A    between atoms: C8_8  and  N10_10 
ROOT
HETATM    1  C1  UNL     1     -32.578   9.164   0.672  1.00 20.00     0.089 C 
HETATM    2  C7  UNL     1     -32.136   9.100   2.064  1.00 20.00     0.394 C 
HETATM    3  N9  UNL     1     -32.927   9.219  -0.434  1.00 20.00    -0.195 NA
ENDROOT
BRANCH   2   4
HETATM    4  N10 UNL     1     -32.254   7.731   2.589  1.00 20.00     0.097 N 
HETATM    5  C6  UNL     1     -33.453   7.091   2.024  1.00 20.00     0.311 C 
BRANCH   4   6
HETATM    6  C8  UNL     1     -32.284   7.721   4.026  1.00 20.00     0.278 C 
BRANCH   6   7
HETATM    7  C4  UNL     1     -33.605   7.261   4.535  1.00 20.00     0.018 A 
HETATM    8  C2  UNL     1     -33.922   7.346   6.004  1.00 20.00     0.011 A 
HETATM    9  C3  UNL     1     -33.701   6.003   5.360  1.00 20.00    -0.012 A 
HETATM   10  C5  UNL     1     -34.844   5.068   5.167  1.00 20.00     0.010 C 
ENDBRANCH   6   7
ENDBRANCH   4   6
ENDBRANCH   2   4
TORSDOF 3
ENDMDL
MODEL 7
REMARK VINA RESULT:      -4.0     10.407     10.923
REMARK  3 active torsions:
REMARK  status: ('A' for Active; 'I' for Inactive)
REMARK    1  A    between atoms: C4_4  and  C8_8 
REMARK    2  A    between atoms: C7_7  and  N10_10 
REMARK    3  A    between atoms: C8_8  and  N10_10 
ROOT
HETATM    1  C1  UNL     1     -35.621  13.966  -5.458  1.00 20.00     0.089 C 
HETATM    2  C7  UNL     1     -35.303  15.378  -5.661  1.00 20.00     0.394 C 
HETATM    3  N9  UNL     1     -35.876  12.844  -5.301  1.00 20.00    -0.195 NA
ENDROOT
BRANCH   2   4
HETATM    4  N10 UNL     1     -34.368  15.857  -4.632  1.00 20.00     0.097 N 
HETATM    5  C6  UNL     1     -33.069  15.185  -4.796  1.00 20.00     0.311 C 
BRANCH   4   6
HETATM    6  C8  UNL     1     -34.896  15.658  -3.309  1.00 20.00     0.278 C 
BRANCH   6   7
HETATM    7  C4  UNL     1     -34.939  16.937  -2.548  1.00 20.00     0.018 A 
HETATM    8  C2  UNL     1     -33.731  17.401  -1.780  1.00 20.00     0.011 A 
HETATM    9  C3  UNL     1     -34.951  16.919  -1.041  1.00 20.00    -0.012 A 
HETATM   10  C5  UNL     1     -35.801  17.885  -0.289  1.00 20.00     0.010 C 
ENDBRANCH   6   7
ENDBRANCH   4   6
ENDBRANCH   2   4
TORSDOF 3
ENDMDL
MODEL 8
REMARK VINA RESULT:      -3.7     10.444     11.451
REMARK  3 active torsions:
REMARK  status: ('A' for Active; 'I' for Inactive)
REMARK    1  A    between atoms: C4_4  and  C8_8 
REMARK    2  A    between atoms: C7_7  and  N10_10 
REMARK    3  A    between atoms: C8_8  and  N10_10 
ROOT
HETATM    1  C1  UNL     1     -36.423  13.656  -5.270  1.00 20.00     0.089 C 
HETATM    2  C7  UNL     1     -37.512  14.618  -5.103  1.00 20.00     0.394 C 
HETATM    3  N9  UNL     1     -35.562  12.890  -5.404  1.00 20.00    -0.195 NA
ENDROOT
BRANCH   2   4
HETATM    4  N10 UNL     1     -36.989  15.940  -4.727  1.00 20.00     0.097 N 
HETATM    5  C6  UNL     1     -36.165  16.472  -5.825  1.00 20.00     0.311 C 
BRANCH   4   6
HETATM    6  C8  UNL     1     -36.247  15.881  -3.497  1.00 20.00     0.278 C 
BRANCH   6   7
HETATM    7  C4  UNL     1     -34.923  16.548  -3.634  1.00 20.00     0.018 A 
HETATM    8  C2  UNL     1     -33.656  15.740  -3.545  1.00 20.00     0.011 A 
HETATM    9  C3  UNL     1     -34.021  16.690  -2.435  1.00 20.00    -0.012 A 
HETATM   10  C5  UNL     1     -33.237  17.941  -2.233  1.00 20.00     0.010 C 
ENDBRANCH   6   7
ENDBRANCH   4   6
ENDBRANCH   2   4
TORSDOF 3
ENDMDL
MODEL 9
REMARK VINA RESULT:      -3.5     10.070     11.222
REMARK  3 active torsions:
REMARK  status: ('A' for Active; 'I' for Inactive)
REMARK    1  A    between atoms: C4_4  and  C8_8 
REMARK    2  A    between atoms: C7_7  and  N10_10 
REMARK    3  A    between atoms: C8_8  and  N10_10 
ROOT
HETATM    1  C1  UNL     1     -34.435  14.424  -4.382  1.00 20.00     0.089 C 
HETATM    2  C7  UNL     1     -35.592  15.312  -4.482  1.00 20.00     0.394 C 
HETATM    3  N9  UNL     1     -33.517  13.717  -4.306  1.00 20.00    -0.195 NA
ENDROOT
BRANCH   2   4
HETATM    4  N10 UNL     1     -35.651  16.227  -3.332  1.00 20.00     0.097 N 
HETATM    5  C6  UNL     1     -36.901  17.001  -3.385  1.00 20.00     0.311 C 
BRANCH   4   6
HETATM    6  C8  UNL     1     -34.502  17.090  -3.289  1.00 20.00     0.278 C 
BRANCH   6   7
HETATM    7  C4  UNL     1     -33.840  17.040  -1.957  1.00 20.00     0.018 A 
HETATM    8  C2  UNL     1     -34.570  17.518  -0.730  1.00 20.00     0.011 A 
HETATM    9  C3  UNL     1     -33.415  18.316  -1.275  1.00 20.00    -0.012 A 
HETATM   10  C5  UNL     1     -32.126  18.372  -0.530  1.00 20.00     0.010 C 
ENDBRANCH   6   7
ENDBRANCH   4   6
ENDBRANCH   2   4
TORSDOF 3
ENDMDL
