MODEL 1
REMARK VINA RESULT:      -5.3      0.000      0.000
REMARK  4 active torsions:
REMARK  status: ('A' for Active; 'I' for Inactive)
REMARK    1  A    between atoms: C4_4  and  C8_8 
REMARK    2  A    between atoms: C5_5  and  C9_9 
REMARK    3  A    between atoms: C8_8  and  N10_10 
REMARK    4  A    between atoms: C9_9  and  N10_10 
ROOT
HETATM    1  C7  UNL     1     -31.371   8.255   3.645  1.00 20.00     0.310 C 
HETATM    2  N10 UNL     1     -32.199   7.637   2.596  1.00 20.00     0.087 N 
ENDROOT
BRANCH   2   3
HETATM    3  C8  UNL     1     -32.834   6.439   3.069  1.00 20.00     0.277 C 
BRANCH   3   4
HETATM    4  C4  UNL     1     -34.074   6.753   3.834  1.00 20.00     0.018 A 
HETATM    5  C1  UNL     1     -34.069   6.713   5.340  1.00 20.00     0.011 A 
HETATM    6  C3  UNL     1     -34.864   5.694   4.569  1.00 20.00    -0.012 A 
HETATM    7  C6  UNL     1     -34.461   4.259   4.580  1.00 20.00     0.010 C 
ENDBRANCH   3   4
ENDBRANCH   2   3
BRANCH   2   8
HETATM    8  C9  UNL     1     -33.187   8.615   2.113  1.00 20.00     0.305 C 
BRANCH   8   9
HETATM    9  C5  UNL     1     -32.570   9.576   1.155  1.00 20.00     0.173 A 
HETATM   10  C2  UNL     1     -32.922   9.554  -0.306  1.00 20.00     0.201 A 
HETATM   11  O11 UNL     1     -31.703   8.977   0.187  1.00 20.00    -0.379 OA
ENDBRANCH   8   9
ENDBRANCH   2   8
TORSDOF 4
ENDMDL
MODEL 2
REMARK VINA RESULT:      -5.1      0.979      1.414
REMARK  4 active torsions:
REMARK  status: ('A' for Active; 'I' for Inactive)
REMARK    1  A    between atoms: C4_4  and  C8_8 
REMARK    2  A    between atoms: C5_5  and  C9_9 
REMARK    3  A    between atoms: C8_8  and  N10_10 
REMARK    4  A    between atoms: C9_9  and  N10_10 
ROOT
HETATM    1  C7  UNL     1     -31.403   8.324   3.876  1.00 20.00     0.310 C 
HETATM    2  N10 UNL     1     -32.056   7.630   2.755  1.00 20.00     0.087 N 
ENDROOT
BRANCH   2   3
HETATM    3  C8  UNL     1     -33.474   7.518   2.963  1.00 20.00     0.277 C 
BRANCH   3   4
HETATM    4  C4  UNL     1     -33.842   6.153   3.433  1.00 20.00     0.018 A 
HETATM    5  C1  UNL     1     -35.252   5.855   3.874  1.00 20.00     0.011 A 
HETATM    6  C3  UNL     1     -34.136   5.847   4.884  1.00 20.00    -0.012 A 
HETATM    7  C6  UNL     1     -34.077   6.887   5.949  1.00 20.00     0.010 C 
ENDBRANCH   3   4
ENDBRANCH   2   3
BRANCH   2   8
HETATM    8  C9  UNL     1     -31.752   8.335   1.498  1.00 20.00     0.305 C 
BRANCH   8   9
HETATM    9  C5  UNL     1     -32.861   9.253   1.114  1.00 20.00     0.173 A 
HETATM   10  C2  UNL     1     -33.080   9.653  -0.317  1.00 20.00     0.201 A 
HETATM   11  O11 UNL     1     -32.434  10.528   0.622  1.00 20.00    -0.379 OA
ENDBRANCH   8   9
ENDBRANCH   2   8
TORSDOF 4
ENDMDL
MODEL 3
REMARK VINA RESULT:      -4.8      2.266      5.103
REMARK  4 active torsions:
REMARK  status: ('A' for Active; 'I' for Inactive)
REMARK    1  A    between atoms: C4_4  and  C8_8 
REMARK    2  A    between atoms: C5_5  and  C9_9 
REMARK    3  A    between atoms: C8_8  and  N10_10 
REMARK    4  A    between atoms: C9_9  and  N10_10 
ROOT
HETATM    1  C7  UNL     1     -31.812   8.026   3.951  1.00 20.00     0.310 C 
HETATM    2  N10 UNL     1     -33.027   7.596   3.242  1.00 20.00     0.087 N 
ENDROOT
BRANCH   2   3
HETATM    3  C8  UNL     1     -32.952   7.904   1.840  1.00 20.00     0.277 C 
BRANCH   3   4
HETATM    4  C4  UNL     1     -32.220   9.182   1.609  1.00 20.00     0.018 A 
HETATM    5  C1  UNL     1     -32.969  10.488   1.558  1.00 20.00     0.011 A 
HETATM    6  C3  UNL     1     -32.319   9.950   0.311  1.00 20.00    -0.012 A 
HETATM    7  C6  UNL     1     -33.155   9.484  -0.832  1.00 20.00     0.010 C 
ENDBRANCH   3   4
ENDBRANCH   2   3
BRANCH   2   8
HETATM    8  C9  UNL     1     -33.240   6.156   3.464  1.00 20.00     0.305 C 
BRANCH   8   9
HETATM    9  C5  UNL     1     -34.536   5.904   4.155  1.00 20.00     0.173 A 
HETATM   10  C2  UNL     1     -34.579   5.396   5.569  1.00 20.00     0.201 A 
HETATM   11  O11 UNL     1     -34.798   4.528   4.446  1.00 20.00    -0.379 OA
ENDBRANCH   8   9
ENDBRANCH   2   8
TORSDOF 4
ENDMDL
MODEL 4
REMARK VINA RESULT:      -4.8      2.379      5.117
REMARK  4 active torsions:
REMARK  status: ('A' for Active; 'I' for Inactive)
REMARK    1  A    between atoms: C4_4  and  C8_8 
REMARK    2  A    between atoms: C5_5  and  C9_9 
REMARK    3  A    between atoms: C8_8  and  N10_10 
REMARK    4  A    between atoms: C9_9  and  N10_10 
ROOT
HETATM    1  C7  UNL     1     -33.293   7.656   5.192  1.00 20.00     0.310 C 
HETATM    2  N10 UNL     1     -33.350   7.450   3.737  1.00 20.00     0.087 N 
ENDROOT
BRANCH   2   3
HETATM    3  C8  UNL     1     -32.219   8.045   3.079  1.00 20.00     0.277 C 
BRANCH   3   4
HETATM    4  C4  UNL     1     -32.416   8.086   1.602  1.00 20.00     0.018 A 
HETATM    5  C1  UNL     1     -31.341   8.648   0.708  1.00 20.00     0.011 A 
HETATM    6  C3  UNL     1     -32.651   9.377   0.852  1.00 20.00    -0.012 A 
HETATM    7  C6  UNL     1     -32.703  10.701   1.534  1.00 20.00     0.010 C 
ENDBRANCH   3   4
ENDBRANCH   2   3
BRANCH   2   8
HETATM    8  C9  UNL     1     -33.442   6.009   3.449  1.00 20.00     0.305 C 
BRANCH   8   9
HETATM    9  C5  UNL     1     -34.631   5.403   4.112  1.00 20.00     0.173 A 
HETATM   10  C2  UNL     1     -34.520   4.738   5.455  1.00 20.00     0.201 A 
HETATM   11  O11 UNL     1     -34.582   3.978   4.237  1.00 20.00    -0.379 OA
ENDBRANCH   8   9
ENDBRANCH   2   8
TORSDOF 4
ENDMDL
MODEL 5
REMARK VINA RESULT:      -4.5     10.231     11.097
REMARK  4 active torsions:
REMARK  status: ('A' for Active; 'I' for Inactive)
REMARK    1  A    between atoms: C4_4  and  C8_8 
REMARK    2  A    between atoms: C5_5  and  C9_9 
REMARK    3  A    between atoms: C8_8  and  N10_10 
REMARK    4  A    between atoms: C9_9  and  N10_10 
ROOT
HETATM    1  C7  UNL     1     -33.352  15.626  -5.839  1.00 20.00     0.310 C 
HETATM    2  N10 UNL     1     -33.417  15.379  -4.390  1.00 20.00     0.087 N 
ENDROOT
BRANCH   2   3
HETATM    3  C8  UNL     1     -33.763  16.574  -3.670  1.00 20.00     0.277 C 
BRANCH   3   4
HETATM    4  C4  UNL     1     -34.777  16.293  -2.615  1.00 20.00     0.018 A 
HETATM    5  C1  UNL     1     -35.824  17.321  -2.273  1.00 20.00     0.011 A 
HETATM    6  C3  UNL     1     -34.757  16.978  -1.268  1.00 20.00    -0.012 A 
HETATM    7  C6  UNL     1     -33.721  17.983  -0.897  1.00 20.00     0.010 C 
ENDBRANCH   3   4
ENDBRANCH   2   3
BRANCH   2   8
HETATM    8  C9  UNL     1     -34.375  14.294  -4.121  1.00 20.00     0.305 C 
BRANCH   8   9
HETATM    9  C5  UNL     1     -35.164  13.958  -5.339  1.00 20.00     0.173 A 
HETATM   10  C2  UNL     1     -36.666  13.934  -5.313  1.00 20.00     0.201 A 
HETATM   11  O11 UNL     1     -35.889  12.727  -5.258  1.00 20.00    -0.379 OA
ENDBRANCH   8   9
ENDBRANCH   2   8
TORSDOF 4
ENDMDL
MODEL 6
REMARK VINA RESULT:      -4.1      1.372      2.305
REMARK  4 active torsions:
REMARK  status: ('A' for Active; 'I' for Inactive)
REMARK    1  A    between atoms: C4_4  and  C8_8 
REMARK    2  A    between atoms: C5_5  and  C9_9 
REMARK    3  A    between atoms: C8_8  and  N10_10 
REMARK    4  A    between atoms: C9_9  and  N10_10 
ROOT
HETATM    1  C7  UNL     1     -32.893   4.769   2.334  1.00 20.00     0.310 C 
HETATM    2  N10 UNL     1     -33.539   6.088   2.411  1.00 20.00     0.087 N 
ENDROOT
BRANCH   2   3
HETATM    3  C8  UNL     1     -34.567   6.110   3.415  1.00 20.00     0.277 C 
BRANCH   3   4
HETATM    4  C4  UNL     1     -34.155   5.342   4.624  1.00 20.00     0.018 A 
HETATM    5  C1  UNL     1     -35.068   5.259   5.820  1.00 20.00     0.011 A 
HETATM    6  C3  UNL     1     -33.771   6.017   5.921  1.00 20.00    -0.012 A 
HETATM    7  C6  UNL     1     -33.775   7.498   6.084  1.00 20.00     0.010 C 
ENDBRANCH   3   4
ENDBRANCH   2   3
BRANCH   2   8
HETATM    8  C9  UNL     1     -32.519   7.119   2.664  1.00 20.00     0.305 C 
BRANCH   8   9
HETATM    9  C5  UNL     1     -32.833   8.378   1.931  1.00 20.00     0.173 A 
HETATM   10  C2  UNL     1     -31.891   8.935   0.901  1.00 20.00     0.201 A 
HETATM   11  O11 UNL     1     -31.962   9.474   2.231  1.00 20.00    -0.379 OA
ENDBRANCH   8   9
ENDBRANCH   2   8
TORSDOF 4
ENDMDL
MODEL 7
REMARK VINA RESULT:      -4.1     10.260     11.256
REMARK  4 active torsions:
REMARK  status: ('A' for Active; 'I' for Inactive)
REMARK    1  A    between atoms: C4_4  and  C8_8 
REMARK    2  A    between atoms: C5_5  and  C9_9 
REMARK    3  A    between atoms: C8_8  and  N10_10 
REMARK    4  A    between atoms: C9_9  and  N10_10 
ROOT
HETATM    1  C7  UNL     1     -33.258  15.975  -5.431  1.00 20.00     0.310 C 
HETATM    2  N10 UNL     1     -33.811  15.758  -4.085  1.00 20.00     0.087 N 
ENDROOT
BRANCH   2   3
HETATM    3  C8  UNL     1     -34.749  16.788  -3.732  1.00 20.00     0.277 C 
BRANCH   3   4
HETATM    4  C4  UNL     1     -34.107  17.833  -2.885  1.00 20.00     0.018 A 
HETATM    5  C1  UNL     1     -33.114  17.444  -1.820  1.00 20.00     0.011 A 
HETATM    6  C3  UNL     1     -34.450  18.016  -1.424  1.00 20.00    -0.012 A 
HETATM    7  C6  UNL     1     -35.456  17.166  -0.726  1.00 20.00     0.010 C 
ENDBRANCH   3   4
ENDBRANCH   2   3
BRANCH   2   8
HETATM    8  C9  UNL     1     -34.429  14.423  -4.019  1.00 20.00     0.305 C 
BRANCH   8   9
HETATM    9  C5  UNL     1     -35.121  14.086  -5.295  1.00 20.00     0.173 A 
HETATM   10  C2  UNL     1     -36.602  13.835  -5.336  1.00 20.00     0.201 A 
HETATM   11  O11 UNL     1     -35.651  12.758  -5.353  1.00 20.00    -0.379 OA
ENDBRANCH   8   9
ENDBRANCH   2   8
TORSDOF 4
ENDMDL
MODEL 8
REMARK VINA RESULT:      -3.7      2.423      4.937
REMARK  4 active torsions:
REMARK  status: ('A' for Active; 'I' for Inactive)
REMARK    1  A    between atoms: C4_4  and  C8_8 
REMARK    2  A    between atoms: C5_5  and  C9_9 
REMARK    3  A    between atoms: C8_8  and  N10_10 
REMARK    4  A    between atoms: C9_9  and  N10_10 
ROOT
HETATM    1  C7  UNL     1     -33.166   4.677   2.599  1.00 20.00     0.310 C 
HETATM    2  N10 UNL     1     -33.534   5.912   3.310  1.00 20.00     0.087 N 
ENDROOT
BRANCH   2   3
HETATM    3  C8  UNL     1     -33.449   7.058   2.448  1.00 20.00     0.277 C 
BRANCH   3   4
HETATM    4  C4  UNL     1     -32.042   7.529   2.315  1.00 20.00     0.018 A 
HETATM    5  C1  UNL     1     -31.599   8.802   2.989  1.00 20.00     0.011 A 
HETATM    6  C3  UNL     1     -31.665   8.735   1.486  1.00 20.00    -0.012 A 
HETATM    7  C6  UNL     1     -32.673   9.539   0.740  1.00 20.00     0.010 C 
ENDBRANCH   3   4
ENDBRANCH   2   3
BRANCH   2   8
HETATM    8  C9  UNL     1     -34.884   5.765   3.879  1.00 20.00     0.305 C 
BRANCH   8   9
HETATM    9  C5  UNL     1     -34.860   5.892   5.363  1.00 20.00     0.173 A 
HETATM   10  C2  UNL     1     -34.093   6.994   6.038  1.00 20.00     0.201 A 
HETATM   11  O11 UNL     1     -33.581   5.654   5.960  1.00 20.00    -0.379 OA
ENDBRANCH   8   9
ENDBRANCH   2   8
TORSDOF 4
ENDMDL
MODEL 9
REMARK VINA RESULT:      -3.6     10.954     11.643
REMARK  4 active torsions:
REMARK  status: ('A' for Active; 'I' for Inactive)
REMARK    1  A    between atoms: C4_4  and  C8_8 
REMARK    2  A    between atoms: C5_5  and  C9_9 
REMARK    3  A    between atoms: C8_8  and  N10_10 
REMARK    4  A    between atoms: C9_9  and  N10_10 
ROOT
HETATM    1  C7  UNL     1     -37.718  15.115  -4.403  1.00 20.00     0.310 C 
HETATM    2  N10 UNL     1     -36.731  15.888  -5.175  1.00 20.00     0.087 N 
ENDROOT
BRANCH   2   3
HETATM    3  C8  UNL     1     -35.590  16.228  -4.372  1.00 20.00     0.277 C 
BRANCH   3   4
HETATM    4  C4  UNL     1     -35.953  16.316  -2.929  1.00 20.00     0.018 A 
HETATM    5  C1  UNL     1     -36.069  17.659  -2.255  1.00 20.00     0.011 A 
HETATM    6  C3  UNL     1     -34.958  16.720  -1.865  1.00 20.00    -0.012 A 
HETATM    7  C6  UNL     1     -33.542  17.059  -2.182  1.00 20.00     0.010 C 
ENDBRANCH   3   4
ENDBRANCH   2   3
BRANCH   2   8
HETATM    8  C9  UNL     1     -36.339  15.124  -6.371  1.00 20.00     0.305 C 
BRANCH   8   9
HETATM    9  C5  UNL     1     -35.172  14.242  -6.087  1.00 20.00     0.173 A 
HETATM   10  C2  UNL     1     -34.680  13.250  -7.103  1.00 20.00     0.201 A 
HETATM   11  O11 UNL     1     -35.489  12.850  -5.985  1.00 20.00    -0.379 OA
ENDBRANCH   8   9
ENDBRANCH   2   8
TORSDOF 4
ENDMDL
