MODEL 1
REMARK VINA RESULT:      -5.8      0.000      0.000
REMARK  3 active torsions:
REMARK  status: ('A' for Active; 'I' for Inactive)
REMARK    1  A    between atoms: C4_4  and  C8_8 
REMARK    2  A    between atoms: C8_8  and  N11_11 
REMARK    3  A    between atoms: C9_9  and  N11_11 
ROOT
HETATM    1  C1  UNL     1     -34.209   6.622   5.373  1.00 20.00     0.095 C 
HETATM    2  C6  UNL     1     -34.481   4.305   4.575  1.00 20.00     0.059 C 
HETATM    3  C9  UNL     1     -34.662   5.783   4.256  1.00 20.00     0.324 C 
HETATM    4  N10 UNL     1     -33.854   7.285   6.256  1.00 20.00    -0.195 NA
ENDROOT
BRANCH   3   5
HETATM    5  N11 UNL     1     -33.932   6.144   3.031  1.00 20.00     0.102 N 
HETATM    6  C7  UNL     1     -33.022   5.049   2.661  1.00 20.00     0.311 C 
BRANCH   5   7
HETATM    7  C8  UNL     1     -33.222   7.384   3.190  1.00 20.00     0.278 C 
BRANCH   7   8
HETATM    8  C4  UNL     1     -32.579   7.804   1.914  1.00 20.00     0.018 A 
HETATM    9  C2  UNL     1     -31.373   8.706   1.935  1.00 20.00     0.011 A 
HETATM   10  C3  UNL     1     -32.696   9.231   1.443  1.00 20.00    -0.012 A 
HETATM   11  C5  UNL     1     -32.892   9.526  -0.005  1.00 20.00     0.010 C 
ENDBRANCH   7   8
ENDBRANCH   5   7
ENDBRANCH   3   5
TORSDOF 3
ENDMDL
MODEL 2
REMARK VINA RESULT:      -5.2      1.211      1.755
REMARK  3 active torsions:
REMARK  status: ('A' for Active; 'I' for Inactive)
REMARK    1  A    between atoms: C4_4  and  C8_8 
REMARK    2  A    between atoms: C8_8  and  N11_11 
REMARK    3  A    between atoms: C9_9  and  N11_11 
ROOT
HETATM    1  C1  UNL     1     -34.272   5.211   4.805  1.00 20.00     0.095 C 
HETATM    2  C6  UNL     1     -33.827   7.370   5.909  1.00 20.00     0.059 C 
HETATM    3  C9  UNL     1     -33.485   6.449   4.746  1.00 20.00     0.324 C 
HETATM    4  N10 UNL     1     -34.892   4.231   4.853  1.00 20.00    -0.195 NA
ENDROOT
BRANCH   3   5
HETATM    5  N11 UNL     1     -33.714   7.127   3.461  1.00 20.00     0.102 N 
HETATM    6  C7  UNL     1     -33.954   6.123   2.413  1.00 20.00     0.311 C 
BRANCH   5   7
HETATM    7  C8  UNL     1     -32.614   7.988   3.119  1.00 20.00     0.278 C 
BRANCH   7   8
HETATM    8  C4  UNL     1     -32.457   8.100   1.642  1.00 20.00     0.018 A 
HETATM    9  C2  UNL     1     -31.217   8.724   1.058  1.00 20.00     0.011 A 
HETATM   10  C3  UNL     1     -32.534   9.449   0.975  1.00 20.00    -0.012 A 
HETATM   11  C5  UNL     1     -33.226   9.596  -0.337  1.00 20.00     0.010 C 
ENDBRANCH   7   8
ENDBRANCH   5   7
ENDBRANCH   3   5
TORSDOF 3
ENDMDL
MODEL 3
REMARK VINA RESULT:      -5.1      1.389      2.305
REMARK  3 active torsions:
REMARK  status: ('A' for Active; 'I' for Inactive)
REMARK    1  A    between atoms: C4_4  and  C8_8 
REMARK    2  A    between atoms: C8_8  and  N11_11 
REMARK    3  A    between atoms: C9_9  and  N11_11 
ROOT
HETATM    1  C1  UNL     1     -34.311   4.356   4.420  1.00 20.00     0.095 C 
HETATM    2  C6  UNL     1     -35.816   6.094   3.530  1.00 20.00     0.059 C 
HETATM    3  C9  UNL     1     -34.817   5.720   4.617  1.00 20.00     0.324 C 
HETATM    4  N10 UNL     1     -33.912   3.277   4.267  1.00 20.00    -0.195 NA
ENDROOT
BRANCH   3   5
HETATM    5  N11 UNL     1     -33.695   6.672   4.643  1.00 20.00     0.102 N 
HETATM    6  C7  UNL     1     -33.659   7.351   5.947  1.00 20.00     0.311 C 
BRANCH   5   7
HETATM    7  C8  UNL     1     -33.784   7.616   3.562  1.00 20.00     0.278 C 
BRANCH   7   8
HETATM    8  C4  UNL     1     -32.541   7.614   2.742  1.00 20.00     0.018 A 
HETATM    9  C2  UNL     1     -31.320   8.356   3.217  1.00 20.00     0.011 A 
HETATM   10  C3  UNL     1     -32.099   8.869   2.036  1.00 20.00    -0.012 A 
HETATM   11  C5  UNL     1     -31.519   8.791   0.665  1.00 20.00     0.010 C 
ENDBRANCH   7   8
ENDBRANCH   5   7
ENDBRANCH   3   5
TORSDOF 3
ENDMDL
MODEL 4
REMARK VINA RESULT:      -4.8     10.860     11.641
REMARK  3 active torsions:
REMARK  status: ('A' for Active; 'I' for Inactive)
REMARK    1  A    between atoms: C4_4  and  C8_8 
REMARK    2  A    between atoms: C8_8  and  N11_11 
REMARK    3  A    between atoms: C9_9  and  N11_11 
ROOT
HETATM    1  C1  UNL     1     -35.300  13.820  -4.963  1.00 20.00     0.095 C 
HETATM    2  C6  UNL     1     -33.016  14.592  -4.446  1.00 20.00     0.059 C 
HETATM    3  C9  UNL     1     -34.465  14.995  -4.683  1.00 20.00     0.324 C 
HETATM    4  N10 UNL     1     -35.960  12.892  -5.186  1.00 20.00    -0.195 NA
ENDROOT
BRANCH   3   5
HETATM    5  N11 UNL     1     -34.999  15.724  -3.522  1.00 20.00     0.102 N 
HETATM    6  C7  UNL     1     -36.434  15.978  -3.720  1.00 20.00     0.311 C 
BRANCH   5   7
HETATM    7  C8  UNL     1     -34.278  16.947  -3.294  1.00 20.00     0.278 C 
BRANCH   7   8
HETATM    8  C4  UNL     1     -33.739  17.003  -1.907  1.00 20.00     0.018 A 
HETATM    9  C2  UNL     1     -34.595  17.523  -0.782  1.00 20.00     0.011 A 
HETATM   10  C3  UNL     1     -33.424  18.333  -1.272  1.00 20.00    -0.012 A 
HETATM   11  C5  UNL     1     -32.210  18.485  -0.419  1.00 20.00     0.010 C 
ENDBRANCH   7   8
ENDBRANCH   5   7
ENDBRANCH   3   5
TORSDOF 3
ENDMDL
MODEL 5
REMARK VINA RESULT:      -4.8     11.052     11.995
REMARK  3 active torsions:
REMARK  status: ('A' for Active; 'I' for Inactive)
REMARK    1  A    between atoms: C4_4  and  C8_8 
REMARK    2  A    between atoms: C8_8  and  N11_11 
REMARK    3  A    between atoms: C9_9  and  N11_11 
ROOT
HETATM    1  C1  UNL     1     -35.435  13.819  -5.639  1.00 20.00     0.095 C 
HETATM    2  C6  UNL     1     -33.945  14.757  -7.365  1.00 20.00     0.059 C 
HETATM    3  C9  UNL     1     -34.871  15.056  -6.194  1.00 20.00     0.324 C 
HETATM    4  N10 UNL     1     -35.883  12.842  -5.202  1.00 20.00    -0.195 NA
ENDROOT
BRANCH   3   5
HETATM    5  N11 UNL     1     -34.158  15.797  -5.142  1.00 20.00     0.102 N 
HETATM    6  C7  UNL     1     -33.117  14.938  -4.557  1.00 20.00     0.311 C 
BRANCH   5   7
HETATM    7  C8  UNL     1     -35.064  16.282  -4.136  1.00 20.00     0.278 C 
BRANCH   7   8
HETATM    8  C4  UNL     1     -34.405  16.339  -2.802  1.00 20.00     0.018 A 
HETATM    9  C2  UNL     1     -35.192  16.756  -1.587  1.00 20.00     0.011 A 
HETATM   10  C3  UNL     1     -34.136  17.670  -2.149  1.00 20.00    -0.012 A 
HETATM   11  C5  UNL     1     -32.865  17.893  -1.403  1.00 20.00     0.010 C 
ENDBRANCH   7   8
ENDBRANCH   5   7
ENDBRANCH   3   5
TORSDOF 3
ENDMDL
MODEL 6
REMARK VINA RESULT:      -4.7      1.962      5.019
REMARK  3 active torsions:
REMARK  status: ('A' for Active; 'I' for Inactive)
REMARK    1  A    between atoms: C4_4  and  C8_8 
REMARK    2  A    between atoms: C8_8  and  N11_11 
REMARK    3  A    between atoms: C9_9  and  N11_11 
ROOT
HETATM    1  C1  UNL     1     -32.989   9.445   0.103  1.00 20.00     0.095 C 
HETATM    2  C6  UNL     1     -30.817   8.393   0.604  1.00 20.00     0.059 C 
HETATM    3  C9  UNL     1     -31.959   9.251   1.131  1.00 20.00     0.324 C 
HETATM    4  N10 UNL     1     -33.803   9.600  -0.709  1.00 20.00    -0.195 NA
ENDROOT
BRANCH   3   5
HETATM    5  N11 UNL     1     -32.556   8.644   2.331  1.00 20.00     0.102 N 
HETATM    6  C7  UNL     1     -31.506   8.402   3.332  1.00 20.00     0.311 C 
BRANCH   5   7
HETATM    7  C8  UNL     1     -33.262   7.433   2.009  1.00 20.00     0.278 C 
BRANCH   7   8
HETATM    8  C4  UNL     1     -33.183   6.452   3.126  1.00 20.00     0.018 A 
HETATM    9  C2  UNL     1     -33.336   4.979   2.851  1.00 20.00     0.011 A 
HETATM   10  C3  UNL     1     -34.422   5.723   3.581  1.00 20.00    -0.012 A 
HETATM   11  C5  UNL     1     -34.653   5.477   5.033  1.00 20.00     0.010 C 
ENDBRANCH   7   8
ENDBRANCH   5   7
ENDBRANCH   3   5
TORSDOF 3
ENDMDL
MODEL 7
REMARK VINA RESULT:      -4.7      1.183      1.781
REMARK  3 active torsions:
REMARK  status: ('A' for Active; 'I' for Inactive)
REMARK    1  A    between atoms: C4_4  and  C8_8 
REMARK    2  A    between atoms: C8_8  and  N11_11 
REMARK    3  A    between atoms: C9_9  and  N11_11 
ROOT
HETATM    1  C1  UNL     1     -34.458   5.223   4.685  1.00 20.00     0.095 C 
HETATM    2  C6  UNL     1     -33.064   4.987   2.665  1.00 20.00     0.059 C 
HETATM    3  C9  UNL     1     -33.904   5.926   3.521  1.00 20.00     0.324 C 
HETATM    4  N10 UNL     1     -34.898   4.667   5.604  1.00 20.00    -0.195 NA
ENDROOT
BRANCH   3   5
HETATM    5  N11 UNL     1     -33.107   7.080   3.965  1.00 20.00     0.102 N 
HETATM    6  C7  UNL     1     -33.322   7.300   5.403  1.00 20.00     0.311 C 
BRANCH   5   7
HETATM    7  C8  UNL     1     -33.419   8.258   3.202  1.00 20.00     0.278 C 
BRANCH   7   8
HETATM    8  C4  UNL     1     -32.871   8.165   1.821  1.00 20.00     0.018 A 
HETATM    9  C2  UNL     1     -31.480   8.661   1.524  1.00 20.00     0.011 A 
HETATM   10  C3  UNL     1     -32.674   9.414   1.000  1.00 20.00    -0.012 A 
HETATM   11  C5  UNL     1     -32.983   9.407  -0.458  1.00 20.00     0.010 C 
ENDBRANCH   7   8
ENDBRANCH   5   7
ENDBRANCH   3   5
TORSDOF 3
ENDMDL
MODEL 8
REMARK VINA RESULT:      -4.5     10.871     11.804
REMARK  3 active torsions:
REMARK  status: ('A' for Active; 'I' for Inactive)
REMARK    1  A    between atoms: C4_4  and  C8_8 
REMARK    2  A    between atoms: C8_8  and  N11_11 
REMARK    3  A    between atoms: C9_9  and  N11_11 
ROOT
HETATM    1  C1  UNL     1     -35.195  13.810  -5.220  1.00 20.00     0.095 C 
HETATM    2  C6  UNL     1     -32.940  14.494  -4.497  1.00 20.00     0.059 C 
HETATM    3  C9  UNL     1     -34.243  14.926  -5.156  1.00 20.00     0.324 C 
HETATM    4  N10 UNL     1     -35.947  12.927  -5.273  1.00 20.00    -0.195 NA
ENDROOT
BRANCH   3   5
HETATM    5  N11 UNL     1     -34.844  16.055  -4.430  1.00 20.00     0.102 N 
HETATM    6  C7  UNL     1     -34.144  17.298  -4.790  1.00 20.00     0.311 C 
BRANCH   5   7
HETATM    7  C8  UNL     1     -34.825  15.836  -3.009  1.00 20.00     0.278 C 
BRANCH   7   8
HETATM    8  C4  UNL     1     -34.951  17.119  -2.265  1.00 20.00     0.018 A 
HETATM    9  C2  UNL     1     -33.961  17.469  -1.185  1.00 20.00     0.011 A 
HETATM   10  C3  UNL     1     -35.378  17.115  -0.819  1.00 20.00    -0.012 A 
HETATM   11  C5  UNL     1     -36.304  18.166  -0.310  1.00 20.00     0.010 C 
ENDBRANCH   7   8
ENDBRANCH   5   7
ENDBRANCH   3   5
TORSDOF 3
ENDMDL
MODEL 9
REMARK VINA RESULT:      -4.3     11.192     12.036
REMARK  3 active torsions:
REMARK  status: ('A' for Active; 'I' for Inactive)
REMARK    1  A    between atoms: C4_4  and  C8_8 
REMARK    2  A    between atoms: C8_8  and  N11_11 
REMARK    3  A    between atoms: C9_9  and  N11_11 
ROOT
HETATM    1  C1  UNL     1     -34.974  13.627  -6.335  1.00 20.00     0.095 C 
HETATM    2  C6  UNL     1     -33.421  15.526  -6.084  1.00 20.00     0.059 C 
HETATM    3  C9  UNL     1     -34.807  14.976  -5.777  1.00 20.00     0.324 C 
HETATM    4  N10 UNL     1     -35.107  12.563  -6.778  1.00 20.00    -0.195 NA
ENDROOT
BRANCH   3   5
HETATM    5  N11 UNL     1     -35.048  14.950  -4.326  1.00 20.00     0.102 N 
HETATM    6  C7  UNL     1     -36.348  15.571  -4.033  1.00 20.00     0.311 C 
BRANCH   5   7
HETATM    7  C8  UNL     1     -33.984  15.598  -3.607  1.00 20.00     0.278 C 
BRANCH   7   8
HETATM    8  C4  UNL     1     -34.491  16.765  -2.833  1.00 20.00     0.018 A 
HETATM    9  C2  UNL     1     -33.764  18.082  -2.885  1.00 20.00     0.011 A 
HETATM   10  C3  UNL     1     -33.734  17.258  -1.626  1.00 20.00    -0.012 A 
HETATM   11  C5  UNL     1     -34.474  17.714  -0.415  1.00 20.00     0.010 C 
ENDBRANCH   7   8
ENDBRANCH   5   7
ENDBRANCH   3   5
TORSDOF 3
ENDMDL
