MODEL 1
REMARK VINA RESULT:      -5.4      0.000      0.000
REMARK  3 active torsions:
REMARK  status: ('A' for Active; 'I' for Inactive)
REMARK    1  A    between atoms: C5_5  and  C9_9 
REMARK    2  A    between atoms: C8_8  and  N10_10 
REMARK    3  A    between atoms: C9_9  and  N10_10 
ROOT
HETATM    1  C1  UNL     1     -32.780  10.570   1.417  1.00 20.00     0.013 C 
HETATM    2  C2  UNL     1     -32.537   9.394   1.463  1.00 20.00    -0.087 C 
HETATM    3  C8  UNL     1     -32.240   7.960   1.513  1.00 20.00     0.364 C 
ENDROOT
BRANCH   3   4
HETATM    4  N10 UNL     1     -32.274   7.471   2.901  1.00 20.00     0.095 N 
HETATM    5  C7  UNL     1     -31.394   8.305   3.736  1.00 20.00     0.310 C 
BRANCH   4   6
HETATM    6  C9  UNL     1     -33.615   7.448   3.415  1.00 20.00     0.278 C 
BRANCH   6   7
HETATM    7  C5  UNL     1     -34.280   6.146   3.124  1.00 20.00     0.018 A 
HETATM    8  C3  UNL     1     -33.548   4.851   3.351  1.00 20.00     0.011 A 
HETATM    9  C4  UNL     1     -34.730   5.204   4.216  1.00 20.00    -0.012 A 
HETATM   10  C6  UNL     1     -34.540   5.506   5.662  1.00 20.00     0.010 C 
ENDBRANCH   6   7
ENDBRANCH   4   6
ENDBRANCH   3   4
TORSDOF 3
ENDMDL
MODEL 2
REMARK VINA RESULT:      -5.1      1.180      4.857
REMARK  3 active torsions:
REMARK  status: ('A' for Active; 'I' for Inactive)
REMARK    1  A    between atoms: C5_5  and  C9_9 
REMARK    2  A    between atoms: C8_8  and  N10_10 
REMARK    3  A    between atoms: C9_9  and  N10_10 
ROOT
HETATM    1  C1  UNL     1     -34.713   5.046   5.547  1.00 20.00     0.013 C 
HETATM    2  C2  UNL     1     -34.220   6.037   5.080  1.00 20.00    -0.087 C 
HETATM    3  C8  UNL     1     -33.621   7.248   4.514  1.00 20.00     0.364 C 
ENDROOT
BRANCH   3   4
HETATM    4  N10 UNL     1     -32.904   6.940   3.267  1.00 20.00     0.095 N 
HETATM    5  C7  UNL     1     -33.139   5.534   2.902  1.00 20.00     0.310 C 
BRANCH   4   6
HETATM    6  C9  UNL     1     -33.293   7.827   2.206  1.00 20.00     0.278 C 
BRANCH   6   7
HETATM    7  C5  UNL     1     -32.239   8.849   1.946  1.00 20.00     0.018 A 
HETATM    8  C3  UNL     1     -31.210   8.623   0.871  1.00 20.00     0.011 A 
HETATM    9  C4  UNL     1     -32.237   9.714   0.707  1.00 20.00    -0.012 A 
HETATM   10  C6  UNL     1     -33.286   9.607  -0.345  1.00 20.00     0.010 C 
ENDBRANCH   6   7
ENDBRANCH   4   6
ENDBRANCH   3   4
TORSDOF 3
ENDMDL
MODEL 3
REMARK VINA RESULT:      -4.9      1.081      1.387
REMARK  3 active torsions:
REMARK  status: ('A' for Active; 'I' for Inactive)
REMARK    1  A    between atoms: C5_5  and  C9_9 
REMARK    2  A    between atoms: C8_8  and  N10_10 
REMARK    3  A    between atoms: C9_9  and  N10_10 
ROOT
HETATM    1  C1  UNL     1     -32.714   9.437  -0.402  1.00 20.00     0.013 C 
HETATM    2  C2  UNL     1     -32.899   9.136   0.746  1.00 20.00    -0.087 C 
HETATM    3  C8  UNL     1     -33.129   8.772   2.146  1.00 20.00     0.364 C 
ENDROOT
BRANCH   3   4
HETATM    4  N10 UNL     1     -32.223   7.687   2.557  1.00 20.00     0.095 N 
HETATM    5  C7  UNL     1     -31.466   8.106   3.746  1.00 20.00     0.310 C 
BRANCH   4   6
HETATM    6  C9  UNL     1     -32.943   6.467   2.797  1.00 20.00     0.278 C 
BRANCH   6   7
HETATM    7  C5  UNL     1     -33.997   6.659   3.832  1.00 20.00     0.018 A 
HETATM    8  C3  UNL     1     -35.406   6.191   3.578  1.00 20.00     0.011 A 
HETATM    9  C4  UNL     1     -34.569   5.509   4.629  1.00 20.00    -0.012 A 
HETATM   10  C6  UNL     1     -34.122   4.101   4.437  1.00 20.00     0.010 C 
ENDBRANCH   6   7
ENDBRANCH   4   6
ENDBRANCH   3   4
TORSDOF 3
ENDMDL
MODEL 4
REMARK VINA RESULT:      -4.9      1.146      4.821
REMARK  3 active torsions:
REMARK  status: ('A' for Active; 'I' for Inactive)
REMARK    1  A    between atoms: C5_5  and  C9_9 
REMARK    2  A    between atoms: C8_8  and  N10_10 
REMARK    3  A    between atoms: C9_9  and  N10_10 
ROOT
HETATM    1  C1  UNL     1     -34.761   5.013   5.695  1.00 20.00     0.013 C 
HETATM    2  C2  UNL     1     -34.310   5.258   4.609  1.00 20.00    -0.087 C 
HETATM    3  C8  UNL     1     -33.761   5.553   3.284  1.00 20.00     0.364 C 
ENDROOT
BRANCH   3   4
HETATM    4  N10 UNL     1     -33.575   7.002   3.109  1.00 20.00     0.095 N 
HETATM    5  C7  UNL     1     -32.735   7.524   4.198  1.00 20.00     0.310 C 
BRANCH   4   6
HETATM    6  C9  UNL     1     -33.012   7.307   1.822  1.00 20.00     0.278 C 
BRANCH   6   7
HETATM    7  C5  UNL     1     -32.257   8.591   1.856  1.00 20.00     0.018 A 
HETATM    8  C3  UNL     1     -31.126   8.834   0.892  1.00 20.00     0.011 A 
HETATM    9  C4  UNL     1     -32.394   9.640   0.776  1.00 20.00    -0.012 A 
HETATM   10  C6  UNL     1     -33.290   9.465  -0.401  1.00 20.00     0.010 C 
ENDBRANCH   6   7
ENDBRANCH   4   6
ENDBRANCH   3   4
TORSDOF 3
ENDMDL
MODEL 5
REMARK VINA RESULT:      -4.9      1.129      1.961
REMARK  3 active torsions:
REMARK  status: ('A' for Active; 'I' for Inactive)
REMARK    1  A    between atoms: C5_5  and  C9_9 
REMARK    2  A    between atoms: C8_8  and  N10_10 
REMARK    3  A    between atoms: C9_9  and  N10_10 
ROOT
HETATM    1  C1  UNL     1     -32.471  10.052   0.969  1.00 20.00     0.013 C 
HETATM    2  C2  UNL     1     -32.267   9.060   1.617  1.00 20.00    -0.087 C 
HETATM    3  C8  UNL     1     -32.014   7.854   2.408  1.00 20.00     0.364 C 
ENDROOT
BRANCH   3   4
HETATM    4  N10 UNL     1     -33.221   7.015   2.476  1.00 20.00     0.095 N 
HETATM    5  C7  UNL     1     -32.829   5.597   2.531  1.00 20.00     0.310 C 
BRANCH   4   6
HETATM    6  C9  UNL     1     -34.046   7.373   3.597  1.00 20.00     0.278 C 
BRANCH   6   7
HETATM    7  C5  UNL     1     -33.338   7.129   4.885  1.00 20.00     0.018 A 
HETATM    8  C3  UNL     1     -34.017   7.433   6.195  1.00 20.00     0.011 A 
HETATM    9  C4  UNL     1     -33.721   6.004   5.819  1.00 20.00    -0.012 A 
HETATM   10  C6  UNL     1     -34.833   5.059   5.520  1.00 20.00     0.010 C 
ENDBRANCH   6   7
ENDBRANCH   4   6
ENDBRANCH   3   4
TORSDOF 3
ENDMDL
MODEL 6
REMARK VINA RESULT:      -4.8      1.373      4.580
REMARK  3 active torsions:
REMARK  status: ('A' for Active; 'I' for Inactive)
REMARK    1  A    between atoms: C5_5  and  C9_9 
REMARK    2  A    between atoms: C8_8  and  N10_10 
REMARK    3  A    between atoms: C9_9  and  N10_10 
ROOT
HETATM    1  C1  UNL     1     -33.681   7.403   6.242  1.00 20.00     0.013 C 
HETATM    2  C2  UNL     1     -33.980   6.973   5.160  1.00 20.00    -0.087 C 
HETATM    3  C8  UNL     1     -34.348   6.448   3.843  1.00 20.00     0.364 C 
ENDROOT
BRANCH   3   4
HETATM    4  N10 UNL     1     -33.164   6.339   2.977  1.00 20.00     0.095 N 
HETATM    5  C7  UNL     1     -32.967   4.933   2.591  1.00 20.00     0.310 C 
BRANCH   4   6
HETATM    6  C9  UNL     1     -33.279   7.188   1.823  1.00 20.00     0.278 C 
BRANCH   6   7
HETATM    7  C5  UNL     1     -32.483   8.437   1.993  1.00 20.00     0.018 A 
HETATM    8  C3  UNL     1     -31.244   8.667   1.170  1.00 20.00     0.011 A 
HETATM    9  C4  UNL     1     -32.459   9.530   0.950  1.00 20.00    -0.012 A 
HETATM   10  C6  UNL     1     -33.226   9.438  -0.324  1.00 20.00     0.010 C 
ENDBRANCH   6   7
ENDBRANCH   4   6
ENDBRANCH   3   4
TORSDOF 3
ENDMDL
MODEL 7
REMARK VINA RESULT:      -4.2      1.308      4.646
REMARK  3 active torsions:
REMARK  status: ('A' for Active; 'I' for Inactive)
REMARK    1  A    between atoms: C5_5  and  C9_9 
REMARK    2  A    between atoms: C8_8  and  N10_10 
REMARK    3  A    between atoms: C9_9  and  N10_10 
ROOT
HETATM    1  C1  UNL     1     -34.768   5.582   6.112  1.00 20.00     0.013 C 
HETATM    2  C2  UNL     1     -34.412   5.072   5.084  1.00 20.00    -0.087 C 
HETATM    3  C8  UNL     1     -33.978   4.444   3.834  1.00 20.00     0.364 C 
ENDROOT
BRANCH   3   4
HETATM    4  N10 UNL     1     -33.950   5.429   2.741  1.00 20.00     0.095 N 
HETATM    5  C7  UNL     1     -35.054   6.386   2.916  1.00 20.00     0.310 C 
BRANCH   4   6
HETATM    6  C9  UNL     1     -32.681   6.101   2.673  1.00 20.00     0.278 C 
BRANCH   6   7
HETATM    7  C5  UNL     1     -32.799   7.519   3.115  1.00 20.00     0.018 A 
HETATM    8  C3  UNL     1     -31.581   8.278   3.570  1.00 20.00     0.011 A 
HETATM    9  C4  UNL     1     -32.272   8.671   2.290  1.00 20.00    -0.012 A 
HETATM   10  C6  UNL     1     -31.595   8.471   0.978  1.00 20.00     0.010 C 
ENDBRANCH   6   7
ENDBRANCH   4   6
ENDBRANCH   3   4
TORSDOF 3
ENDMDL
MODEL 8
REMARK VINA RESULT:      -4.0     10.794     11.650
REMARK  3 active torsions:
REMARK  status: ('A' for Active; 'I' for Inactive)
REMARK    1  A    between atoms: C5_5  and  C9_9 
REMARK    2  A    between atoms: C8_8  and  N10_10 
REMARK    3  A    between atoms: C9_9  and  N10_10 
ROOT
HETATM    1  C1  UNL     1     -35.855  13.758  -4.998  1.00 20.00     0.013 C 
HETATM    2  C2  UNL     1     -34.724  14.088  -4.764  1.00 20.00    -0.087 C 
HETATM    3  C8  UNL     1     -33.344  14.487  -4.476  1.00 20.00     0.364 C 
ENDROOT
BRANCH   3   4
HETATM    4  N10 UNL     1     -33.109  15.880  -4.886  1.00 20.00     0.095 N 
HETATM    5  C7  UNL     1     -33.416  16.028  -6.318  1.00 20.00     0.310 C 
BRANCH   4   6
HETATM    6  C9  UNL     1     -33.876  16.797  -4.089  1.00 20.00     0.278 C 
BRANCH   6   7
HETATM    7  C5  UNL     1     -33.536  16.667  -2.644  1.00 20.00     0.018 A 
HETATM    8  C3  UNL     1     -33.399  17.894  -1.782  1.00 20.00     0.011 A 
HETATM    9  C4  UNL     1     -34.541  16.939  -1.548  1.00 20.00    -0.012 A 
HETATM   10  C6  UNL     1     -35.942  17.358  -1.833  1.00 20.00     0.010 C 
ENDBRANCH   6   7
ENDBRANCH   4   6
ENDBRANCH   3   4
TORSDOF 3
ENDMDL
MODEL 9
REMARK VINA RESULT:      -3.9     10.628     11.444
REMARK  3 active torsions:
REMARK  status: ('A' for Active; 'I' for Inactive)
REMARK    1  A    between atoms: C5_5  and  C9_9 
REMARK    2  A    between atoms: C8_8  and  N10_10 
REMARK    3  A    between atoms: C9_9  and  N10_10 
ROOT
HETATM    1  C1  UNL     1     -35.488  16.996  -1.156  1.00 20.00     0.013 C 
HETATM    2  C2  UNL     1     -34.620  16.819  -1.968  1.00 20.00    -0.087 C 
HETATM    3  C8  UNL     1     -33.558  16.603  -2.953  1.00 20.00     0.364 C 
ENDROOT
BRANCH   3   4
HETATM    4  N10 UNL     1     -34.126  16.195  -4.248  1.00 20.00     0.095 N 
HETATM    5  C7  UNL     1     -33.584  17.054  -5.313  1.00 20.00     0.310 C 
BRANCH   4   6
HETATM    6  C9  UNL     1     -33.874  14.806  -4.516  1.00 20.00     0.278 C 
BRANCH   6   7
HETATM    7  C5  UNL     1     -35.118  13.997  -4.376  1.00 20.00     0.018 A 
HETATM    8  C3  UNL     1     -36.439  14.546  -4.846  1.00 20.00     0.011 A 
HETATM    9  C4  UNL     1     -35.818  13.375  -5.563  1.00 20.00    -0.012 A 
HETATM   10  C6  UNL     1     -35.317  13.528  -6.958  1.00 20.00     0.010 C 
ENDBRANCH   6   7
ENDBRANCH   4   6
ENDBRANCH   3   4
TORSDOF 3
ENDMDL
