MODEL 1
REMARK VINA RESULT:      -5.5      0.000      0.000
REMARK  3 active torsions:
REMARK  status: ('A' for Active; 'I' for Inactive)
REMARK    1  A    between atoms: C5_5  and  C9_9 
REMARK    2  A    between atoms: C8_8  and  N10_10 
REMARK    3  A    between atoms: C9_9  and  N10_10 
ROOT
HETATM    1  C1  UNL     1     -33.212   9.454  -0.669  1.00 20.00     0.013 C 
HETATM    2  C2  UNL     1     -32.762   9.490   0.443  1.00 20.00    -0.087 C 
HETATM    3  C8  UNL     1     -32.213   9.540   1.801  1.00 20.00     0.364 C 
ENDROOT
BRANCH   3   4
HETATM    4  N10 UNL     1     -32.035   8.182   2.340  1.00 20.00     0.095 N 
HETATM    5  C7  UNL     1     -31.386   8.259   3.657  1.00 20.00     0.310 C 
BRANCH   4   6
HETATM    6  C9  UNL     1     -33.286   7.480   2.412  1.00 20.00     0.278 C 
BRANCH   6   7
HETATM    7  C5  UNL     1     -33.221   6.364   3.397  1.00 20.00     0.018 A 
HETATM    8  C3  UNL     1     -33.460   4.945   2.951  1.00 20.00     0.011 A 
HETATM    9  C4  UNL     1     -34.480   5.645   3.809  1.00 20.00    -0.012 A 
HETATM   10  C6  UNL     1     -34.675   5.233   5.227  1.00 20.00     0.010 C 
ENDBRANCH   6   7
ENDBRANCH   4   6
ENDBRANCH   3   4
TORSDOF 3
ENDMDL
MODEL 2
REMARK VINA RESULT:      -5.4      1.186      4.925
REMARK  3 active torsions:
REMARK  status: ('A' for Active; 'I' for Inactive)
REMARK    1  A    between atoms: C5_5  and  C9_9 
REMARK    2  A    between atoms: C8_8  and  N10_10 
REMARK    3  A    between atoms: C9_9  and  N10_10 
ROOT
HETATM    1  C1  UNL     1     -34.780   5.005   5.603  1.00 20.00     0.013 C 
HETATM    2  C2  UNL     1     -34.272   6.021   5.216  1.00 20.00    -0.087 C 
HETATM    3  C8  UNL     1     -33.655   7.266   4.748  1.00 20.00     0.364 C 
ENDROOT
BRANCH   3   4
HETATM    4  N10 UNL     1     -32.762   7.006   3.609  1.00 20.00     0.095 N 
HETATM    5  C7  UNL     1     -33.485   6.238   2.584  1.00 20.00     0.310 C 
BRANCH   4   6
HETATM    6  C9  UNL     1     -32.230   8.227   3.070  1.00 20.00     0.278 C 
BRANCH   6   7
HETATM    7  C5  UNL     1     -32.325   8.247   1.584  1.00 20.00     0.018 A 
HETATM    8  C3  UNL     1     -31.179   8.771   0.758  1.00 20.00     0.011 A 
HETATM    9  C4  UNL     1     -32.460   9.558   0.852  1.00 20.00    -0.012 A 
HETATM   10  C6  UNL     1     -33.361   9.665  -0.329  1.00 20.00     0.010 C 
ENDBRANCH   6   7
ENDBRANCH   4   6
ENDBRANCH   3   4
TORSDOF 3
ENDMDL
MODEL 3
REMARK VINA RESULT:      -5.2      1.483      4.739
REMARK  3 active torsions:
REMARK  status: ('A' for Active; 'I' for Inactive)
REMARK    1  A    between atoms: C5_5  and  C9_9 
REMARK    2  A    between atoms: C8_8  and  N10_10 
REMARK    3  A    between atoms: C9_9  and  N10_10 
ROOT
HETATM    1  C1  UNL     1     -34.057   3.938   4.461  1.00 20.00     0.013 C 
HETATM    2  C2  UNL     1     -34.408   5.030   4.107  1.00 20.00    -0.087 C 
HETATM    3  C8  UNL     1     -34.841   6.362   3.674  1.00 20.00     0.364 C 
ENDROOT
BRANCH   3   4
HETATM    4  N10 UNL     1     -33.888   7.389   4.123  1.00 20.00     0.095 N 
HETATM    5  C7  UNL     1     -33.668   7.254   5.571  1.00 20.00     0.310 C 
BRANCH   4   6
HETATM    6  C9  UNL     1     -32.652   7.312   3.395  1.00 20.00     0.278 C 
BRANCH   6   7
HETATM    7  C5  UNL     1     -32.750   8.025   2.090  1.00 20.00     0.018 A 
HETATM    8  C3  UNL     1     -31.513   8.270   1.267  1.00 20.00     0.011 A 
HETATM    9  C4  UNL     1     -32.202   9.422   1.949  1.00 20.00    -0.012 A 
HETATM   10  C6  UNL     1     -32.939  10.436   1.145  1.00 20.00     0.010 C 
ENDBRANCH   6   7
ENDBRANCH   4   6
ENDBRANCH   3   4
TORSDOF 3
ENDMDL
MODEL 4
REMARK VINA RESULT:      -4.9      1.356      2.064
REMARK  3 active torsions:
REMARK  status: ('A' for Active; 'I' for Inactive)
REMARK    1  A    between atoms: C5_5  and  C9_9 
REMARK    2  A    between atoms: C8_8  and  N10_10 
REMARK    3  A    between atoms: C9_9  and  N10_10 
ROOT
HETATM    1  C1  UNL     1     -32.565  10.321   0.652  1.00 20.00     0.013 C 
HETATM    2  C2  UNL     1     -32.193   9.337   1.229  1.00 20.00    -0.087 C 
HETATM    3  C8  UNL     1     -31.733   8.136   1.933  1.00 20.00     0.364 C 
ENDROOT
BRANCH   3   4
HETATM    4  N10 UNL     1     -32.848   7.490   2.641  1.00 20.00     0.095 N 
HETATM    5  C7  UNL     1     -32.848   6.049   2.347  1.00 20.00     0.310 C 
BRANCH   4   6
HETATM    6  C9  UNL     1     -32.783   7.736   4.055  1.00 20.00     0.278 C 
BRANCH   6   7
HETATM    7  C5  UNL     1     -33.953   7.142   4.760  1.00 20.00     0.018 A 
HETATM    8  C3  UNL     1     -34.052   7.218   6.261  1.00 20.00     0.011 A 
HETATM    9  C4  UNL     1     -33.782   5.896   5.592  1.00 20.00    -0.012 A 
HETATM   10  C6  UNL     1     -34.829   4.837   5.576  1.00 20.00     0.010 C 
ENDBRANCH   6   7
ENDBRANCH   4   6
ENDBRANCH   3   4
TORSDOF 3
ENDMDL
MODEL 5
REMARK VINA RESULT:      -4.6      1.489      4.840
REMARK  3 active torsions:
REMARK  status: ('A' for Active; 'I' for Inactive)
REMARK    1  A    between atoms: C5_5  and  C9_9 
REMARK    2  A    between atoms: C8_8  and  N10_10 
REMARK    3  A    between atoms: C9_9  and  N10_10 
ROOT
HETATM    1  C1  UNL     1     -34.032   7.270   6.312  1.00 20.00     0.013 C 
HETATM    2  C2  UNL     1     -34.156   6.404   5.490  1.00 20.00    -0.087 C 
HETATM    3  C8  UNL     1     -34.312   5.345   4.489  1.00 20.00     0.364 C 
ENDROOT
BRANCH   3   4
HETATM    4  N10 UNL     1     -33.361   5.532   3.382  1.00 20.00     0.095 N 
HETATM    5  C7  UNL     1     -33.312   4.309   2.567  1.00 20.00     0.310 C 
BRANCH   4   6
HETATM    6  C9  UNL     1     -33.703   6.679   2.587  1.00 20.00     0.278 C 
BRANCH   6   7
HETATM    7  C5  UNL     1     -32.482   7.382   2.103  1.00 20.00     0.018 A 
HETATM    8  C3  UNL     1     -31.760   8.351   3.001  1.00 20.00     0.011 A 
HETATM    9  C4  UNL     1     -32.527   8.859   1.809  1.00 20.00    -0.012 A 
HETATM   10  C6  UNL     1     -31.801   9.409   0.631  1.00 20.00     0.010 C 
ENDBRANCH   6   7
ENDBRANCH   4   6
ENDBRANCH   3   4
TORSDOF 3
ENDMDL
MODEL 6
REMARK VINA RESULT:      -4.1     10.272     11.267
REMARK  3 active torsions:
REMARK  status: ('A' for Active; 'I' for Inactive)
REMARK    1  A    between atoms: C5_5  and  C9_9 
REMARK    2  A    between atoms: C8_8  and  N10_10 
REMARK    3  A    between atoms: C9_9  and  N10_10 
ROOT
HETATM    1  C1  UNL     1     -35.903  13.704  -5.000  1.00 20.00     0.013 C 
HETATM    2  C2  UNL     1     -34.784  14.045  -4.729  1.00 20.00    -0.087 C 
HETATM    3  C8  UNL     1     -33.417  14.457  -4.398  1.00 20.00     0.364 C 
ENDROOT
BRANCH   3   4
HETATM    4  N10 UNL     1     -33.192  15.861  -4.773  1.00 20.00     0.095 N 
HETATM    5  C7  UNL     1     -33.424  16.026  -6.216  1.00 20.00     0.310 C 
BRANCH   4   6
HETATM    6  C9  UNL     1     -34.019  16.748  -4.004  1.00 20.00     0.278 C 
BRANCH   6   7
HETATM    7  C5  UNL     1     -33.616  16.754  -2.570  1.00 20.00     0.018 A 
HETATM    8  C3  UNL     1     -34.638  17.022  -1.497  1.00 20.00     0.011 A 
HETATM    9  C4  UNL     1     -33.580  18.049  -1.800  1.00 20.00    -0.012 A 
HETATM   10  C6  UNL     1     -32.485  18.308  -0.824  1.00 20.00     0.010 C 
ENDBRANCH   6   7
ENDBRANCH   4   6
ENDBRANCH   3   4
TORSDOF 3
ENDMDL
MODEL 7
REMARK VINA RESULT:      -4.1      1.461      3.227
REMARK  3 active torsions:
REMARK  status: ('A' for Active; 'I' for Inactive)
REMARK    1  A    between atoms: C5_5  and  C9_9 
REMARK    2  A    between atoms: C8_8  and  N10_10 
REMARK    3  A    between atoms: C9_9  and  N10_10 
ROOT
HETATM    1  C1  UNL     1     -32.911   4.136   2.449  1.00 20.00     0.013 C 
HETATM    2  C2  UNL     1     -33.141   5.313   2.413  1.00 20.00    -0.087 C 
HETATM    3  C8  UNL     1     -33.428   6.750   2.368  1.00 20.00     0.364 C 
ENDROOT
BRANCH   3   4
HETATM    4  N10 UNL     1     -32.262   7.527   2.815  1.00 20.00     0.095 N 
HETATM    5  C7  UNL     1     -32.140   8.743   1.997  1.00 20.00     0.310 C 
BRANCH   4   6
HETATM    6  C9  UNL     1     -32.348   7.842   4.214  1.00 20.00     0.278 C 
BRANCH   6   7
HETATM    7  C5  UNL     1     -33.633   7.365   4.796  1.00 20.00     0.018 A 
HETATM    8  C3  UNL     1     -33.943   7.610   6.249  1.00 20.00     0.011 A 
HETATM    9  C4  UNL     1     -33.642   6.214   5.769  1.00 20.00    -0.012 A 
HETATM   10  C6  UNL     1     -34.724   5.193   5.709  1.00 20.00     0.010 C 
ENDBRANCH   6   7
ENDBRANCH   4   6
ENDBRANCH   3   4
TORSDOF 3
ENDMDL
MODEL 8
REMARK VINA RESULT:      -3.9      1.323      3.004
REMARK  3 active torsions:
REMARK  status: ('A' for Active; 'I' for Inactive)
REMARK    1  A    between atoms: C5_5  and  C9_9 
REMARK    2  A    between atoms: C8_8  and  N10_10 
REMARK    3  A    between atoms: C9_9  and  N10_10 
ROOT
HETATM    1  C1  UNL     1     -33.665   7.604   6.046  1.00 20.00     0.013 C 
HETATM    2  C2  UNL     1     -32.945   7.759   5.098  1.00 20.00    -0.087 C 
HETATM    3  C8  UNL     1     -32.062   7.947   3.944  1.00 20.00     0.364 C 
ENDROOT
BRANCH   3   4
HETATM    4  N10 UNL     1     -32.847   8.127   2.713  1.00 20.00     0.095 N 
HETATM    5  C7  UNL     1     -32.169   9.095   1.837  1.00 20.00     0.310 C 
BRANCH   4   6
HETATM    6  C9  UNL     1     -33.063   6.875   2.042  1.00 20.00     0.278 C 
BRANCH   6   7
HETATM    7  C5  UNL     1     -32.945   5.730   2.987  1.00 20.00     0.018 A 
HETATM    8  C3  UNL     1     -32.982   4.315   2.471  1.00 20.00     0.011 A 
HETATM    9  C4  UNL     1     -34.141   4.856   3.268  1.00 20.00    -0.012 A 
HETATM   10  C6  UNL     1     -34.396   4.359   4.649  1.00 20.00     0.010 C 
ENDBRANCH   6   7
ENDBRANCH   4   6
ENDBRANCH   3   4
TORSDOF 3
ENDMDL
MODEL 9
REMARK VINA RESULT:      -3.8     10.453     11.134
REMARK  3 active torsions:
REMARK  status: ('A' for Active; 'I' for Inactive)
REMARK    1  A    between atoms: C5_5  and  C9_9 
REMARK    2  A    between atoms: C8_8  and  N10_10 
REMARK    3  A    between atoms: C9_9  and  N10_10 
ROOT
HETATM    1  C1  UNL     1     -34.394  13.636  -7.529  1.00 20.00     0.013 C 
HETATM    2  C2  UNL     1     -35.018  13.677  -6.504  1.00 20.00    -0.087 C 
HETATM    3  C8  UNL     1     -35.780  13.722  -5.253  1.00 20.00     0.364 C 
ENDROOT
BRANCH   3   4
HETATM    4  N10 UNL     1     -35.768  15.079  -4.685  1.00 20.00     0.095 N 
HETATM    5  C7  UNL     1     -37.100  15.398  -4.149  1.00 20.00     0.310 C 
BRANCH   4   6
HETATM    6  C9  UNL     1     -34.751  15.216  -3.679  1.00 20.00     0.278 C 
BRANCH   6   7
HETATM    7  C5  UNL     1     -34.801  16.563  -3.043  1.00 20.00     0.018 A 
HETATM    8  C3  UNL     1     -33.618  17.078  -2.266  1.00 20.00     0.011 A 
HETATM    9  C4  UNL     1     -34.881  16.688  -1.543  1.00 20.00    -0.012 A 
HETATM   10  C6  UNL     1     -35.743  17.733  -0.925  1.00 20.00     0.010 C 
ENDBRANCH   6   7
ENDBRANCH   4   6
ENDBRANCH   3   4
TORSDOF 3
ENDMDL
