MODEL 1
REMARK VINA RESULT:      -5.8      0.000      0.000
REMARK  3 active torsions:
REMARK  status: ('A' for Active; 'I' for Inactive)
REMARK    1  A    between atoms: C1_1  and  C6_6 
REMARK    2  A    between atoms: C6_6  and  C7_7 
REMARK    3  A    between atoms: C7_7  and  C8_8 
ROOT
HETATM    1  C2  UNL     1     -32.955   4.713   2.475  1.00 20.00     0.011 C 
HETATM    2  C7  UNL     1     -33.108   5.947   3.385  1.00 20.00    -0.003 C 
ENDROOT
BRANCH   2   3
HETATM    3  C6  UNL     1     -33.228   7.210   2.497  1.00 20.00     0.101 C 
BRANCH   3   4
HETATM    4  C1  UNL     1     -32.014   8.126   2.579  1.00 20.00     0.219 C 
HETATM    5  O9  UNL     1     -31.377   8.296   3.614  1.00 20.00    -0.280 OA
HETATM    6 CL10 UNL     1     -31.629   8.828   1.031  1.00 20.00    -0.044 Cl
ENDBRANCH   3   4
ENDBRANCH   2   3
BRANCH   2   7
HETATM    7  C8  UNL     1     -34.284   5.813   4.426  1.00 20.00    -0.048 C 
HETATM    8  C3  UNL     1     -34.377   4.366   4.960  1.00 20.00     0.015 C 
HETATM    9  C4  UNL     1     -35.635   6.130   3.746  1.00 20.00     0.015 C 
HETATM   10  C5  UNL     1     -34.115   6.760   5.628  1.00 20.00     0.015 C 
ENDBRANCH   2   7
TORSDOF 3
ENDMDL
MODEL 2
REMARK VINA RESULT:      -5.7      0.038      1.364
REMARK  3 active torsions:
REMARK  status: ('A' for Active; 'I' for Inactive)
REMARK    1  A    between atoms: C1_1  and  C6_6 
REMARK    2  A    between atoms: C6_6  and  C7_7 
REMARK    3  A    between atoms: C7_7  and  C8_8 
ROOT
HETATM    1  C2  UNL     1     -32.945   4.757   2.434  1.00 20.00     0.011 C 
HETATM    2  C7  UNL     1     -33.108   5.967   3.374  1.00 20.00    -0.003 C 
ENDROOT
BRANCH   2   3
HETATM    3  C6  UNL     1     -33.237   7.251   2.517  1.00 20.00     0.101 C 
BRANCH   3   4
HETATM    4  C1  UNL     1     -32.003   8.143   2.574  1.00 20.00     0.219 C 
HETATM    5  O9  UNL     1     -31.365   8.332   3.606  1.00 20.00    -0.280 OA
HETATM    6 CL10 UNL     1     -31.601   8.789   1.006  1.00 20.00    -0.044 Cl
ENDBRANCH   3   4
ENDBRANCH   2   3
BRANCH   2   7
HETATM    7  C8  UNL     1     -34.283   5.799   4.410  1.00 20.00    -0.048 C 
HETATM    8  C3  UNL     1     -35.641   6.139   3.754  1.00 20.00     0.015 C 
HETATM    9  C4  UNL     1     -34.096   6.777   5.592  1.00 20.00     0.015 C 
HETATM   10  C5  UNL     1     -34.368   4.369   4.976  1.00 20.00     0.015 C 
ENDBRANCH   2   7
TORSDOF 3
ENDMDL
MODEL 3
REMARK VINA RESULT:      -4.8      1.231      1.972
REMARK  3 active torsions:
REMARK  status: ('A' for Active; 'I' for Inactive)
REMARK    1  A    between atoms: C1_1  and  C6_6 
REMARK    2  A    between atoms: C6_6  and  C7_7 
REMARK    3  A    between atoms: C7_7  and  C8_8 
ROOT
HETATM    1  C2  UNL     1     -33.229   7.594   5.629  1.00 20.00     0.011 C 
HETATM    2  C7  UNL     1     -33.606   7.269   4.170  1.00 20.00    -0.003 C 
ENDROOT
BRANCH   2   3
HETATM    3  C6  UNL     1     -32.351   7.443   3.280  1.00 20.00     0.101 C 
BRANCH   3   4
HETATM    4  C1  UNL     1     -32.534   8.471   2.170  1.00 20.00     0.219 C 
HETATM    5  O9  UNL     1     -33.461   9.275   2.153  1.00 20.00    -0.280 OA
HETATM    6 CL10 UNL     1     -31.249   8.388   0.996  1.00 20.00    -0.044 Cl
ENDBRANCH   3   4
ENDBRANCH   2   3
BRANCH   2   7
HETATM    7  C8  UNL     1     -34.289   5.859   4.001  1.00 20.00    -0.048 C 
HETATM    8  C3  UNL     1     -33.484   4.978   3.019  1.00 20.00     0.015 C 
HETATM    9  C4  UNL     1     -35.705   6.022   3.405  1.00 20.00     0.015 C 
HETATM   10  C5  UNL     1     -34.411   5.102   5.337  1.00 20.00     0.015 C 
ENDBRANCH   2   7
TORSDOF 3
ENDMDL
MODEL 4
REMARK VINA RESULT:      -4.8      1.228      2.318
REMARK  3 active torsions:
REMARK  status: ('A' for Active; 'I' for Inactive)
REMARK    1  A    between atoms: C1_1  and  C6_6 
REMARK    2  A    between atoms: C6_6  and  C7_7 
REMARK    3  A    between atoms: C7_7  and  C8_8 
ROOT
HETATM    1  C2  UNL     1     -33.254   7.583   5.620  1.00 20.00     0.011 C 
HETATM    2  C7  UNL     1     -33.595   7.296   4.145  1.00 20.00    -0.003 C 
ENDROOT
BRANCH   2   3
HETATM    3  C6  UNL     1     -32.323   7.506   3.288  1.00 20.00     0.101 C 
BRANCH   3   4
HETATM    4  C1  UNL     1     -32.512   8.510   2.158  1.00 20.00     0.219 C 
HETATM    5  O9  UNL     1     -33.435   9.320   2.134  1.00 20.00    -0.280 OA
HETATM    6 CL10 UNL     1     -31.241   8.394   0.972  1.00 20.00    -0.044 Cl
ENDBRANCH   3   4
ENDBRANCH   2   3
BRANCH   2   7
HETATM    7  C8  UNL     1     -34.261   5.886   3.921  1.00 20.00    -0.048 C 
HETATM    8  C3  UNL     1     -35.698   6.042   3.375  1.00 20.00     0.015 C 
HETATM    9  C4  UNL     1     -34.370   5.129   5.265  1.00 20.00     0.015 C 
HETATM   10  C5  UNL     1     -33.465   5.009   2.936  1.00 20.00     0.015 C 
ENDBRANCH   2   7
TORSDOF 3
ENDMDL
MODEL 5
REMARK VINA RESULT:      -4.8      1.240      2.153
REMARK  3 active torsions:
REMARK  status: ('A' for Active; 'I' for Inactive)
REMARK    1  A    between atoms: C1_1  and  C6_6 
REMARK    2  A    between atoms: C6_6  and  C7_7 
REMARK    3  A    between atoms: C7_7  and  C8_8 
ROOT
HETATM    1  C2  UNL     1     -33.202   7.614   5.599  1.00 20.00     0.011 C 
HETATM    2  C7  UNL     1     -33.589   7.302   4.140  1.00 20.00    -0.003 C 
ENDROOT
BRANCH   2   3
HETATM    3  C6  UNL     1     -32.336   7.468   3.245  1.00 20.00     0.101 C 
BRANCH   3   4
HETATM    4  C1  UNL     1     -32.515   8.498   2.137  1.00 20.00     0.219 C 
HETATM    5  O9  UNL     1     -33.442   9.303   2.119  1.00 20.00    -0.280 OA
HETATM    6 CL10 UNL     1     -31.226   8.418   0.967  1.00 20.00    -0.044 Cl
ENDBRANCH   3   4
ENDBRANCH   2   3
BRANCH   2   7
HETATM    7  C8  UNL     1     -34.288   5.901   3.965  1.00 20.00    -0.048 C 
HETATM    8  C3  UNL     1     -34.373   5.162   5.319  1.00 20.00     0.015 C 
HETATM    9  C4  UNL     1     -33.459   5.007   3.015  1.00 20.00     0.015 C 
HETATM   10  C5  UNL     1     -35.713   6.022   3.393  1.00 20.00     0.015 C 
ENDBRANCH   2   7
TORSDOF 3
ENDMDL
MODEL 6
REMARK VINA RESULT:      -4.5      1.363      2.073
REMARK  3 active torsions:
REMARK  status: ('A' for Active; 'I' for Inactive)
REMARK    1  A    between atoms: C1_1  and  C6_6 
REMARK    2  A    between atoms: C6_6  and  C7_7 
REMARK    3  A    between atoms: C7_7  and  C8_8 
ROOT
HETATM    1  C2  UNL     1     -33.291   7.666   5.608  1.00 20.00     0.011 C 
HETATM    2  C7  UNL     1     -33.542   7.304   4.132  1.00 20.00    -0.003 C 
ENDROOT
BRANCH   2   3
HETATM    3  C6  UNL     1     -32.202   7.394   3.361  1.00 20.00     0.101 C 
BRANCH   3   4
HETATM    4  C1  UNL     1     -32.247   8.353   2.177  1.00 20.00     0.219 C 
HETATM    5  O9  UNL     1     -31.401   8.354   1.289  1.00 20.00    -0.280 OA
HETATM    6 CL10 UNL     1     -33.658   9.374   2.227  1.00 20.00    -0.044 Cl
ENDBRANCH   3   4
ENDBRANCH   2   3
BRANCH   2   7
HETATM    7  C8  UNL     1     -34.268   5.918   3.943  1.00 20.00    -0.048 C 
HETATM    8  C3  UNL     1     -33.473   5.015   2.974  1.00 20.00     0.015 C 
HETATM    9  C4  UNL     1     -35.666   6.130   3.319  1.00 20.00     0.015 C 
HETATM   10  C5  UNL     1     -34.443   5.161   5.273  1.00 20.00     0.015 C 
ENDBRANCH   2   7
TORSDOF 3
ENDMDL
MODEL 7
REMARK VINA RESULT:      -4.4      1.564      2.458
REMARK  3 active torsions:
REMARK  status: ('A' for Active; 'I' for Inactive)
REMARK    1  A    between atoms: C1_1  and  C6_6 
REMARK    2  A    between atoms: C6_6  and  C7_7 
REMARK    3  A    between atoms: C7_7  and  C8_8 
ROOT
HETATM    1  C2  UNL     1     -31.708   8.008   3.695  1.00 20.00     0.011 C 
HETATM    2  C7  UNL     1     -33.119   7.767   3.126  1.00 20.00    -0.003 C 
ENDROOT
BRANCH   2   3
HETATM    3  C6  UNL     1     -33.054   7.843   1.581  1.00 20.00     0.101 C 
BRANCH   3   4
HETATM    4  C1  UNL     1     -32.145   8.953   1.067  1.00 20.00     0.219 C 
HETATM    5  O9  UNL     1     -31.073   8.732   0.511  1.00 20.00    -0.280 OA
HETATM    6 CL10 UNL     1     -32.847  10.528   1.315  1.00 20.00    -0.044 Cl
ENDBRANCH   3   4
ENDBRANCH   2   3
BRANCH   2   7
HETATM    7  C8  UNL     1     -33.784   6.437   3.648  1.00 20.00    -0.048 C 
HETATM    8  C3  UNL     1     -35.261   6.354   3.202  1.00 20.00     0.015 C 
HETATM    9  C4  UNL     1     -33.777   6.409   5.193  1.00 20.00     0.015 C 
HETATM   10  C5  UNL     1     -33.057   5.177   3.140  1.00 20.00     0.015 C 
ENDBRANCH   2   7
TORSDOF 3
ENDMDL
MODEL 8
REMARK VINA RESULT:      -4.2      2.675      4.638
REMARK  3 active torsions:
REMARK  status: ('A' for Active; 'I' for Inactive)
REMARK    1  A    between atoms: C1_1  and  C6_6 
REMARK    2  A    between atoms: C6_6  and  C7_7 
REMARK    3  A    between atoms: C7_7  and  C8_8 
ROOT
HETATM    1  C2  UNL     1     -31.452   8.336   3.517  1.00 20.00     0.011 C 
HETATM    2  C7  UNL     1     -32.286   7.875   2.307  1.00 20.00    -0.003 C 
ENDROOT
BRANCH   2   3
HETATM    3  C6  UNL     1     -33.699   7.474   2.798  1.00 20.00     0.101 C 
BRANCH   3   4
HETATM    4  C1  UNL     1     -33.831   5.991   3.121  1.00 20.00     0.219 C 
HETATM    5  O9  UNL     1     -33.045   5.146   2.702  1.00 20.00    -0.280 OA
HETATM    6 CL10 UNL     1     -35.174   5.680   4.186  1.00 20.00    -0.044 Cl
ENDBRANCH   3   4
ENDBRANCH   2   3
BRANCH   2   7
HETATM    7  C8  UNL     1     -32.319   8.926   1.133  1.00 20.00    -0.048 C 
HETATM    8  C3  UNL     1     -33.438   8.583   0.125  1.00 20.00     0.015 C 
HETATM    9  C4  UNL     1     -30.984   8.895   0.354  1.00 20.00     0.015 C 
HETATM   10  C5  UNL     1     -32.549  10.363   1.638  1.00 20.00     0.015 C 
ENDBRANCH   2   7
TORSDOF 3
ENDMDL
MODEL 9
REMARK VINA RESULT:      -4.0     11.634     12.454
REMARK  3 active torsions:
REMARK  status: ('A' for Active; 'I' for Inactive)
REMARK    1  A    between atoms: C1_1  and  C6_6 
REMARK    2  A    between atoms: C6_6  and  C7_7 
REMARK    3  A    between atoms: C7_7  and  C8_8 
ROOT
HETATM    1  C2  UNL     1     -36.382  16.308  -3.465  1.00 20.00     0.011 C 
HETATM    2  C7  UNL     1     -35.375  15.353  -4.134  1.00 20.00    -0.003 C 
ENDROOT
BRANCH   2   3
HETATM    3  C6  UNL     1     -35.883  15.010  -5.556  1.00 20.00     0.101 C 
BRANCH   3   4
HETATM    4  C1  UNL     1     -35.623  13.563  -5.959  1.00 20.00     0.219 C 
HETATM    5  O9  UNL     1     -35.953  12.609  -5.262  1.00 20.00    -0.280 OA
HETATM    6 CL10 UNL     1     -34.870  13.455  -7.527  1.00 20.00    -0.044 Cl
ENDBRANCH   3   4
ENDBRANCH   2   3
BRANCH   2   7
HETATM    7  C8  UNL     1     -33.897  15.898  -4.124  1.00 20.00    -0.048 C 
HETATM    8  C3  UNL     1     -32.886  14.733  -4.220  1.00 20.00     0.015 C 
HETATM    9  C4  UNL     1     -33.610  16.636  -2.796  1.00 20.00     0.015 C 
HETATM   10  C5  UNL     1     -33.621  16.871  -5.286  1.00 20.00     0.015 C 
ENDBRANCH   2   7
TORSDOF 3
ENDMDL
