MODEL 1
REMARK VINA RESULT:      -6.3      0.000      0.000
REMARK  5 active torsions:
REMARK  status: ('A' for Active; 'I' for Inactive)
REMARK    1  A    between atoms: C4_4  and  C5_5 
REMARK    2  A    between atoms: C4_4  and  C6_6 
REMARK    3  A    between atoms: C5_5  and  C8_8 
REMARK    4  A    between atoms: C6_6  and  C9_9 
REMARK    5  A    between atoms: C7_7  and  C9_9 
ROOT
HETATM    1  C4  UNL     1     -32.085   8.300   2.763  1.00 20.00     0.001 C 
ENDROOT
BRANCH   1   2
HETATM    2  C5  UNL     1     -31.640   8.435   1.303  1.00 20.00     0.004 C 
BRANCH   2   3
HETATM    3  C8  UNL     1     -32.184   9.698   0.609  1.00 20.00    -0.023 C 
HETATM    4  C1  UNL     1     -32.866  10.654   1.589  1.00 20.00     0.009 C 
HETATM    5  C2  UNL     1     -33.167   9.301  -0.494  1.00 20.00     0.009 C 
ENDBRANCH   2   3
ENDBRANCH   1   2
BRANCH   1   6
HETATM    6  C6  UNL     1     -32.773   6.952   3.007  1.00 20.00     0.005 C 
BRANCH   6   7
HETATM    7  C9  UNL     1     -34.015   7.050   3.915  1.00 20.00    -0.005 C 
HETATM    8  C3  UNL     1     -33.579   7.257   5.371  1.00 20.00     0.011 C 
BRANCH   7   9
HETATM    9  C7  UNL     1     -34.991   5.868   3.786  1.00 20.00     0.119 C 
HETATM   10 CL10 UNL     1     -34.416   4.379   4.572  1.00 20.00    -0.130 Cl
ENDBRANCH   7   9
ENDBRANCH   6   7
ENDBRANCH   1   6
TORSDOF 5
ENDMDL
MODEL 2
REMARK VINA RESULT:      -6.2      0.372      1.177
REMARK  5 active torsions:
REMARK  status: ('A' for Active; 'I' for Inactive)
REMARK    1  A    between atoms: C4_4  and  C5_5 
REMARK    2  A    between atoms: C4_4  and  C6_6 
REMARK    3  A    between atoms: C5_5  and  C8_8 
REMARK    4  A    between atoms: C6_6  and  C9_9 
REMARK    5  A    between atoms: C7_7  and  C9_9 
ROOT
HETATM    1  C4  UNL     1     -31.994   8.023   3.051  1.00 20.00     0.001 C 
ENDROOT
BRANCH   1   2
HETATM    2  C5  UNL     1     -31.754   8.498   1.614  1.00 20.00     0.004 C 
BRANCH   2   3
HETATM    3  C8  UNL     1     -32.873   9.410   1.074  1.00 20.00    -0.023 C 
HETATM    4  C1  UNL     1     -33.015   9.324  -0.446  1.00 20.00     0.009 C 
HETATM    5  C2  UNL     1     -32.603  10.859   1.487  1.00 20.00     0.009 C 
ENDBRANCH   2   3
ENDBRANCH   1   2
BRANCH   1   6
HETATM    6  C6  UNL     1     -32.898   6.786   3.079  1.00 20.00     0.005 C 
BRANCH   6   7
HETATM    7  C9  UNL     1     -34.114   6.932   4.016  1.00 20.00    -0.005 C 
HETATM    8  C3  UNL     1     -33.637   7.232   5.443  1.00 20.00     0.011 C 
BRANCH   7   9
HETATM    9  C7  UNL     1     -35.084   5.739   3.990  1.00 20.00     0.119 C 
HETATM   10 CL10 UNL     1     -34.372   4.228   4.604  1.00 20.00    -0.130 Cl
ENDBRANCH   7   9
ENDBRANCH   6   7
ENDBRANCH   1   6
TORSDOF 5
ENDMDL
MODEL 3
REMARK VINA RESULT:      -5.8      2.519      5.084
REMARK  5 active torsions:
REMARK  status: ('A' for Active; 'I' for Inactive)
REMARK    1  A    between atoms: C4_4  and  C5_5 
REMARK    2  A    between atoms: C4_4  and  C6_6 
REMARK    3  A    between atoms: C5_5  and  C8_8 
REMARK    4  A    between atoms: C6_6  and  C9_9 
REMARK    5  A    between atoms: C7_7  and  C9_9 
ROOT
HETATM    1  C4  UNL     1     -33.184   6.302   3.031  1.00 20.00     0.001 C 
ENDROOT
BRANCH   1   2
HETATM    2  C5  UNL     1     -34.595   5.954   3.516  1.00 20.00     0.004 C 
BRANCH   2   3
HETATM    3  C8  UNL     1     -34.752   6.018   5.047  1.00 20.00    -0.023 C 
HETATM    4  C1  UNL     1     -33.842   7.070   5.683  1.00 20.00     0.009 C 
HETATM    5  C2  UNL     1     -34.459   4.645   5.656  1.00 20.00     0.009 C 
ENDBRANCH   2   3
ENDBRANCH   1   2
BRANCH   1   6
HETATM    6  C6  UNL     1     -33.225   7.368   1.931  1.00 20.00     0.005 C 
BRANCH   6   7
HETATM    7  C9  UNL     1     -31.991   8.292   1.920  1.00 20.00    -0.005 C 
HETATM    8  C3  UNL     1     -31.445   8.445   3.345  1.00 20.00     0.011 C 
BRANCH   7   9
HETATM    9  C7  UNL     1     -32.228   9.661   1.263  1.00 20.00     0.119 C 
HETATM   10 CL10 UNL     1     -33.105   9.568  -0.282  1.00 20.00    -0.130 Cl
ENDBRANCH   7   9
ENDBRANCH   6   7
ENDBRANCH   1   6
TORSDOF 5
ENDMDL
MODEL 4
REMARK VINA RESULT:      -5.7      1.334      1.629
REMARK  5 active torsions:
REMARK  status: ('A' for Active; 'I' for Inactive)
REMARK    1  A    between atoms: C4_4  and  C5_5 
REMARK    2  A    between atoms: C4_4  and  C6_6 
REMARK    3  A    between atoms: C5_5  and  C8_8 
REMARK    4  A    between atoms: C6_6  and  C9_9 
REMARK    5  A    between atoms: C7_7  and  C9_9 
ROOT
HETATM    1  C4  UNL     1     -32.015   8.289   2.555  1.00 20.00     0.001 C 
ENDROOT
BRANCH   1   2
HETATM    2  C5  UNL     1     -31.528   8.554   1.126  1.00 20.00     0.004 C 
BRANCH   2   3
HETATM    3  C8  UNL     1     -32.156   9.808   0.487  1.00 20.00    -0.023 C 
HETATM    4  C1  UNL     1     -32.790  10.736   1.523  1.00 20.00     0.009 C 
HETATM    5  C2  UNL     1     -33.205   9.392  -0.547  1.00 20.00     0.009 C 
ENDBRANCH   2   3
ENDBRANCH   1   2
BRANCH   1   6
HETATM    6  C6  UNL     1     -33.278   7.421   2.555  1.00 20.00     0.005 C 
BRANCH   6   7
HETATM    7  C9  UNL     1     -33.203   6.224   3.524  1.00 20.00    -0.005 C 
HETATM    8  C3  UNL     1     -33.181   4.913   2.729  1.00 20.00     0.011 C 
BRANCH   7   9
HETATM    9  C7  UNL     1     -34.302   6.207   4.599  1.00 20.00     0.119 C 
HETATM   10 CL10 UNL     1     -33.921   7.202   6.024  1.00 20.00    -0.130 Cl
ENDBRANCH   7   9
ENDBRANCH   6   7
ENDBRANCH   1   6
TORSDOF 5
ENDMDL
MODEL 5
REMARK VINA RESULT:      -5.5      1.377      1.996
REMARK  5 active torsions:
REMARK  status: ('A' for Active; 'I' for Inactive)
REMARK    1  A    between atoms: C4_4  and  C5_5 
REMARK    2  A    between atoms: C4_4  and  C6_6 
REMARK    3  A    between atoms: C5_5  and  C8_8 
REMARK    4  A    between atoms: C6_6  and  C9_9 
REMARK    5  A    between atoms: C7_7  and  C9_9 
ROOT
HETATM    1  C4  UNL     1     -31.899   7.938   2.784  1.00 20.00     0.001 C 
ENDROOT
BRANCH   1   2
HETATM    2  C5  UNL     1     -31.636   8.613   1.434  1.00 20.00     0.004 C 
BRANCH   2   3
HETATM    3  C8  UNL     1     -32.807   9.490   0.949  1.00 20.00    -0.023 C 
HETATM    4  C1  UNL     1     -32.981   9.442  -0.570  1.00 20.00     0.009 C 
HETATM    5  C2  UNL     1     -32.592  10.936   1.400  1.00 20.00     0.009 C 
ENDBRANCH   2   3
ENDBRANCH   1   2
BRANCH   1   6
HETATM    6  C6  UNL     1     -33.281   7.276   2.810  1.00 20.00     0.005 C 
BRANCH   6   7
HETATM    7  C9  UNL     1     -33.340   6.003   3.678  1.00 20.00    -0.005 C 
HETATM    8  C3  UNL     1     -33.476   4.768   2.780  1.00 20.00     0.011 C 
BRANCH   7   9
HETATM    9  C7  UNL     1     -34.426   6.026   4.767  1.00 20.00     0.119 C 
HETATM   10 CL10 UNL     1     -34.075   7.149   6.101  1.00 20.00    -0.130 Cl
ENDBRANCH   7   9
ENDBRANCH   6   7
ENDBRANCH   1   6
TORSDOF 5
ENDMDL
MODEL 6
REMARK VINA RESULT:      -5.4      2.497      5.076
REMARK  5 active torsions:
REMARK  status: ('A' for Active; 'I' for Inactive)
REMARK    1  A    between atoms: C4_4  and  C5_5 
REMARK    2  A    between atoms: C4_4  and  C6_6 
REMARK    3  A    between atoms: C5_5  and  C8_8 
REMARK    4  A    between atoms: C6_6  and  C9_9 
REMARK    5  A    between atoms: C7_7  and  C9_9 
ROOT
HETATM    1  C4  UNL     1     -33.357   7.422   2.614  1.00 20.00     0.001 C 
ENDROOT
BRANCH   1   2
HETATM    2  C5  UNL     1     -33.374   6.173   3.503  1.00 20.00     0.004 C 
BRANCH   2   3
HETATM    3  C8  UNL     1     -34.335   6.287   4.702  1.00 20.00    -0.023 C 
HETATM    4  C1  UNL     1     -33.799   7.212   5.795  1.00 20.00     0.009 C 
HETATM    5  C2  UNL     1     -34.601   4.897   5.285  1.00 20.00     0.009 C 
ENDBRANCH   2   3
ENDBRANCH   1   2
BRANCH   1   6
HETATM    6  C6  UNL     1     -32.027   8.172   2.743  1.00 20.00     0.005 C 
BRANCH   6   7
HETATM    7  C9  UNL     1     -31.842   9.284   1.690  1.00 20.00    -0.005 C 
HETATM    8  C3  UNL     1     -32.960  10.323   1.831  1.00 20.00     0.011 C 
BRANCH   7   9
HETATM    9  C7  UNL     1     -31.729   8.775   0.243  1.00 20.00     0.119 C 
HETATM   10 CL10 UNL     1     -33.135   9.182  -0.768  1.00 20.00    -0.130 Cl
ENDBRANCH   7   9
ENDBRANCH   6   7
ENDBRANCH   1   6
TORSDOF 5
ENDMDL
MODEL 7
REMARK VINA RESULT:      -5.0      2.614      5.085
REMARK  5 active torsions:
REMARK  status: ('A' for Active; 'I' for Inactive)
REMARK    1  A    between atoms: C4_4  and  C5_5 
REMARK    2  A    between atoms: C4_4  and  C6_6 
REMARK    3  A    between atoms: C5_5  and  C8_8 
REMARK    4  A    between atoms: C6_6  and  C9_9 
REMARK    5  A    between atoms: C7_7  and  C9_9 
ROOT
HETATM    1  C4  UNL     1     -32.326   7.129   3.287  1.00 20.00     0.001 C 
ENDROOT
BRANCH   1   2
HETATM    2  C5  UNL     1     -33.826   6.827   3.206  1.00 20.00     0.004 C 
BRANCH   2   3
HETATM    3  C8  UNL     1     -34.473   6.565   4.580  1.00 20.00    -0.023 C 
HETATM    4  C1  UNL     1     -33.695   7.213   5.725  1.00 20.00     0.009 C 
HETATM    5  C2  UNL     1     -34.589   5.058   4.820  1.00 20.00     0.009 C 
ENDBRANCH   2   3
ENDBRANCH   1   2
BRANCH   1   6
HETATM    6  C6  UNL     1     -32.020   8.542   2.774  1.00 20.00     0.005 C 
BRANCH   6   7
HETATM    7  C9  UNL     1     -32.428   8.765   1.304  1.00 20.00    -0.005 C 
HETATM    8  C3  UNL     1     -31.222   8.523   0.388  1.00 20.00     0.011 C 
BRANCH   7   9
HETATM    9  C7  UNL     1     -33.077  10.132   1.026  1.00 20.00     0.119 C 
HETATM   10 CL10 UNL     1     -32.430  11.447   2.034  1.00 20.00    -0.130 Cl
ENDBRANCH   7   9
ENDBRANCH   6   7
ENDBRANCH   1   6
TORSDOF 5
ENDMDL
MODEL 8
REMARK VINA RESULT:      -4.8      1.902      4.885
REMARK  5 active torsions:
REMARK  status: ('A' for Active; 'I' for Inactive)
REMARK    1  A    between atoms: C4_4  and  C5_5 
REMARK    2  A    between atoms: C4_4  and  C6_6 
REMARK    3  A    between atoms: C5_5  and  C8_8 
REMARK    4  A    between atoms: C6_6  and  C9_9 
REMARK    5  A    between atoms: C7_7  and  C9_9 
ROOT
HETATM    1  C4  UNL     1     -33.260   5.917   2.791  1.00 20.00     0.001 C 
ENDROOT
BRANCH   1   2
HETATM    2  C5  UNL     1     -34.629   6.207   3.416  1.00 20.00     0.004 C 
BRANCH   2   3
HETATM    3  C8  UNL     1     -34.917   5.370   4.677  1.00 20.00    -0.023 C 
HETATM    4  C1  UNL     1     -34.461   6.070   5.959  1.00 20.00     0.009 C 
HETATM    5  C2  UNL     1     -34.233   4.006   4.561  1.00 20.00     0.009 C 
ENDBRANCH   2   3
ENDBRANCH   1   2
BRANCH   1   6
HETATM    6  C6  UNL     1     -32.919   6.948   1.709  1.00 20.00     0.005 C 
BRANCH   6   7
HETATM    7  C9  UNL     1     -32.537   8.331   2.273  1.00 20.00    -0.005 C 
HETATM    8  C3  UNL     1     -32.118   9.262   1.129  1.00 20.00     0.011 C 
BRANCH   7   9
HETATM    9  C7  UNL     1     -31.472   8.293   3.382  1.00 20.00     0.119 C 
HETATM   10 CL10 UNL     1     -32.139   8.488   5.019  1.00 20.00    -0.130 Cl
ENDBRANCH   7   9
ENDBRANCH   6   7
ENDBRANCH   1   6
TORSDOF 5
ENDMDL
MODEL 9
REMARK VINA RESULT:      -4.8      1.468      2.490
REMARK  5 active torsions:
REMARK  status: ('A' for Active; 'I' for Inactive)
REMARK    1  A    between atoms: C4_4  and  C5_5 
REMARK    2  A    between atoms: C4_4  and  C6_6 
REMARK    3  A    between atoms: C5_5  and  C8_8 
REMARK    4  A    between atoms: C6_6  and  C9_9 
REMARK    5  A    between atoms: C7_7  and  C9_9 
ROOT
HETATM    1  C4  UNL     1     -34.018   7.233   3.826  1.00 20.00     0.001 C 
ENDROOT
BRANCH   1   2
HETATM    2  C5  UNL     1     -33.592   7.830   2.481  1.00 20.00     0.004 C 
BRANCH   2   3
HETATM    3  C8  UNL     1     -32.064   7.912   2.302  1.00 20.00    -0.023 C 
HETATM    4  C1  UNL     1     -31.346   8.321   3.589  1.00 20.00     0.009 C 
HETATM    5  C2  UNL     1     -31.726   8.902   1.185  1.00 20.00     0.009 C 
ENDBRANCH   2   3
ENDBRANCH   1   2
BRANCH   1   6
HETATM    6  C6  UNL     1     -35.059   6.124   3.633  1.00 20.00     0.005 C 
BRANCH   6   7
HETATM    7  C9  UNL     1     -34.874   4.931   4.593  1.00 20.00    -0.005 C 
HETATM    8  C3  UNL     1     -34.460   5.440   5.979  1.00 20.00     0.011 C 
BRANCH   7   9
HETATM    9  C7  UNL     1     -33.909   3.849   4.082  1.00 20.00     0.119 C 
HETATM   10 CL10 UNL     1     -32.976   4.343   2.650  1.00 20.00    -0.130 Cl
ENDBRANCH   7   9
ENDBRANCH   6   7
ENDBRANCH   1   6
TORSDOF 5
ENDMDL
