MODEL 1
REMARK VINA RESULT:      -5.2      0.000      0.000
REMARK  0 active torsions:
REMARK  status: ('A' for Active; 'I' for Inactive)
ROOT
HETATM    1  C1  UNL     1     -33.722   5.809   3.426  1.00 20.00    -0.066 C 
HETATM    2  C2  UNL     1     -33.201   4.971   2.519  1.00 20.00     0.016 C 
HETATM    3  C3  UNL     1     -34.804   5.400   4.386  1.00 20.00     0.037 C 
HETATM    4  C4  UNL     1     -33.252   7.229   3.586  1.00 20.00     0.201 C 
HETATM    5  C5  UNL     1     -34.416   5.805   5.808  1.00 20.00     0.030 C 
HETATM    6  C6  UNL     1     -33.957   7.261   5.856  1.00 20.00     0.168 C 
HETATM    7  O7  UNL     1     -32.875   7.473   4.946  1.00 20.00    -0.387 OA
ENDROOT
TORSDOF 0
ENDMDL
MODEL 2
REMARK VINA RESULT:      -5.0      1.416      2.646
REMARK  0 active torsions:
REMARK  status: ('A' for Active; 'I' for Inactive)
ROOT
HETATM    1  C1  UNL     1     -34.405   5.968   4.942  1.00 20.00    -0.066 C 
HETATM    2  C2  UNL     1     -34.635   4.947   5.779  1.00 20.00     0.016 C 
HETATM    3  C3  UNL     1     -33.822   7.278   5.395  1.00 20.00     0.037 C 
HETATM    4  C4  UNL     1     -34.685   5.889   3.466  1.00 20.00     0.201 C 
HETATM    5  C5  UNL     1     -32.657   7.668   4.486  1.00 20.00     0.030 C 
HETATM    6  C6  UNL     1     -33.049   7.554   3.014  1.00 20.00     0.168 C 
HETATM    7  O7  UNL     1     -33.510   6.232   2.723  1.00 20.00    -0.387 OA
ENDROOT
TORSDOF 0
ENDMDL
MODEL 3
REMARK VINA RESULT:      -4.8      1.101      1.998
REMARK  0 active torsions:
REMARK  status: ('A' for Active; 'I' for Inactive)
ROOT
HETATM    1  C1  UNL     1     -33.397   6.926   3.788  1.00 20.00    -0.066 C 
HETATM    2  C2  UNL     1     -32.367   7.547   3.197  1.00 20.00     0.016 C 
HETATM    3  C3  UNL     1     -34.137   5.786   3.145  1.00 20.00     0.037 C 
HETATM    4  C4  UNL     1     -33.891   7.293   5.161  1.00 20.00     0.201 C 
HETATM    5  C5  UNL     1     -34.256   4.624   4.132  1.00 20.00     0.030 C 
HETATM    6  C6  UNL     1     -34.765   5.107   5.488  1.00 20.00     0.168 C 
HETATM    7  O7  UNL     1     -33.915   6.136   6.002  1.00 20.00    -0.387 OA
ENDROOT
TORSDOF 0
ENDMDL
MODEL 4
REMARK VINA RESULT:      -4.7      1.432      3.222
REMARK  0 active torsions:
REMARK  status: ('A' for Active; 'I' for Inactive)
ROOT
HETATM    1  C1  UNL     1     -34.054   6.695   4.888  1.00 20.00    -0.066 C 
HETATM    2  C2  UNL     1     -33.864   7.271   6.083  1.00 20.00     0.016 C 
HETATM    3  C3  UNL     1     -33.548   7.294   3.605  1.00 20.00     0.037 C 
HETATM    4  C4  UNL     1     -34.767   5.381   4.722  1.00 20.00     0.201 C 
HETATM    5  C5  UNL     1     -32.793   6.235   2.802  1.00 20.00     0.030 C 
HETATM    6  C6  UNL     1     -33.605   4.946   2.695  1.00 20.00     0.168 C 
HETATM    7  O7  UNL     1     -33.944   4.461   3.996  1.00 20.00    -0.387 OA
ENDROOT
TORSDOF 0
ENDMDL
MODEL 5
REMARK VINA RESULT:      -4.6      1.409      2.286
REMARK  0 active torsions:
REMARK  status: ('A' for Active; 'I' for Inactive)
ROOT
HETATM    1  C1  UNL     1     -33.022   7.135   3.288  1.00 20.00    -0.066 C 
HETATM    2  C2  UNL     1     -32.738   8.025   2.327  1.00 20.00     0.016 C 
HETATM    3  C3  UNL     1     -32.843   7.430   4.751  1.00 20.00     0.037 C 
HETATM    4  C4  UNL     1     -33.573   5.766   2.993  1.00 20.00     0.201 C 
HETATM    5  C5  UNL     1     -34.113   7.056   5.515  1.00 20.00     0.030 C 
HETATM    6  C6  UNL     1     -34.583   5.652   5.141  1.00 20.00     0.168 C 
HETATM    7  O7  UNL     1     -34.782   5.552   3.729  1.00 20.00    -0.387 OA
ENDROOT
TORSDOF 0
ENDMDL
MODEL 6
REMARK VINA RESULT:      -4.1      1.152      2.679
REMARK  0 active torsions:
REMARK  status: ('A' for Active; 'I' for Inactive)
ROOT
HETATM    1  C1  UNL     1     -33.659   6.996   5.282  1.00 20.00    -0.066 C 
HETATM    2  C2  UNL     1     -33.747   7.826   6.331  1.00 20.00     0.016 C 
HETATM    3  C3  UNL     1     -34.461   5.729   5.176  1.00 20.00     0.037 C 
HETATM    4  C4  UNL     1     -32.771   7.270   4.099  1.00 20.00     0.201 C 
HETATM    5  C5  UNL     1     -35.147   5.662   3.812  1.00 20.00     0.030 C 
HETATM    6  C6  UNL     1     -34.157   5.953   2.687  1.00 20.00     0.168 C 
HETATM    7  O7  UNL     1     -33.533   7.224   2.889  1.00 20.00    -0.387 OA
ENDROOT
TORSDOF 0
ENDMDL
MODEL 7
REMARK VINA RESULT:      -3.9      1.047      2.458
REMARK  0 active torsions:
REMARK  status: ('A' for Active; 'I' for Inactive)
ROOT
HETATM    1  C1  UNL     1     -34.080   6.188   4.013  1.00 20.00    -0.066 C 
HETATM    2  C2  UNL     1     -35.349   5.756   3.985  1.00 20.00     0.016 C 
HETATM    3  C3  UNL     1     -33.175   6.133   2.814  1.00 20.00     0.037 C 
HETATM    4  C4  UNL     1     -33.453   6.795   5.238  1.00 20.00     0.201 C 
HETATM    5  C5  UNL     1     -32.509   7.492   2.605  1.00 20.00     0.030 C 
HETATM    6  C6  UNL     1     -31.906   8.014   3.908  1.00 20.00     0.168 C 
HETATM    7  O7  UNL     1     -32.907   8.080   4.927  1.00 20.00    -0.387 OA
ENDROOT
TORSDOF 0
ENDMDL
MODEL 8
REMARK VINA RESULT:      -3.5     12.230     13.296
REMARK  0 active torsions:
REMARK  status: ('A' for Active; 'I' for Inactive)
ROOT
HETATM    1  C1  UNL     1     -34.043  14.559  -5.258  1.00 20.00    -0.066 C 
HETATM    2  C2  UNL     1     -33.089  14.771  -4.340  1.00 20.00     0.016 C 
HETATM    3  C3  UNL     1     -33.916  15.015  -6.685  1.00 20.00     0.037 C 
HETATM    4  C4  UNL     1     -35.317  13.819  -4.952  1.00 20.00     0.201 C 
HETATM    5  C5  UNL     1     -34.246  13.859  -7.629  1.00 20.00     0.030 C 
HETATM    6  C6  UNL     1     -35.555  13.182  -7.229  1.00 20.00     0.168 C 
HETATM    7  O7  UNL     1     -35.491  12.737  -5.872  1.00 20.00    -0.387 OA
ENDROOT
TORSDOF 0
ENDMDL
MODEL 9
REMARK VINA RESULT:      -3.3     12.437     12.956
REMARK  0 active torsions:
REMARK  status: ('A' for Active; 'I' for Inactive)
ROOT
HETATM    1  C1  UNL     1     -33.633  18.091  -0.572  1.00 20.00    -0.066 C 
HETATM    2  C2  UNL     1     -34.483  17.215  -1.127  1.00 20.00     0.016 C 
HETATM    3  C3  UNL     1     -33.893  18.750   0.754  1.00 20.00     0.037 C 
HETATM    4  C4  UNL     1     -32.327  18.475  -1.212  1.00 20.00     0.201 C 
HETATM    5  C5  UNL     1     -32.662  18.618   1.649  1.00 20.00     0.030 C 
HETATM    6  C6  UNL     1     -31.395  19.032   0.903  1.00 20.00     0.168 C 
HETATM    7  O7  UNL     1     -31.248  18.265  -0.294  1.00 20.00    -0.387 OA
ENDROOT
TORSDOF 0
ENDMDL
