MODEL 1
REMARK VINA RESULT:      -4.3      0.000      0.000
REMARK  3 active torsions:
REMARK  status: ('A' for Active; 'I' for Inactive)
REMARK    1  A    between atoms: C1_1  and  C5_5 
REMARK    2  A    between atoms: C1_1  and  C7_7 
REMARK    3  A    between atoms: C6_6  and  C7_7 
ROOT
HETATM    1  C3  UNL     1     -35.777   6.117   3.365  1.00 20.00     0.023 C 
HETATM    2  C4  UNL     1     -34.324   4.872   4.950  1.00 20.00     0.023 C 
HETATM    3  C7  UNL     1     -34.400   6.124   4.058  1.00 20.00     0.014 C 
ENDROOT
BRANCH   3   4
HETATM    4  C1  UNL     1     -33.282   6.063   2.990  1.00 20.00     0.148 C 
HETATM    5  O8  UNL     1     -32.782   4.985   2.659  1.00 20.00    -0.296 OA
BRANCH   4   6
HETATM    6  C5  UNL     1     -32.822   7.373   2.376  1.00 20.00     0.193 C 
HETATM    7 CL9  UNL     1     -31.465   8.045   3.300  1.00 20.00    -0.123 Cl
ENDBRANCH   4   6
ENDBRANCH   3   4
BRANCH   3   8
HETATM    8  C6  UNL     1     -34.241   7.386   4.940  1.00 20.00     0.012 C 
HETATM    9  C2  UNL     1     -33.603   7.146   6.304  1.00 20.00     0.006 C 
ENDBRANCH   3   8
TORSDOF 3
ENDMDL
MODEL 2
REMARK VINA RESULT:      -4.2      1.718      2.076
REMARK  3 active torsions:
REMARK  status: ('A' for Active; 'I' for Inactive)
REMARK    1  A    between atoms: C1_1  and  C5_5 
REMARK    2  A    between atoms: C1_1  and  C7_7 
REMARK    3  A    between atoms: C6_6  and  C7_7 
ROOT
HETATM    1  C3  UNL     1     -34.791   6.538   2.347  1.00 20.00     0.023 C 
HETATM    2  C4  UNL     1     -32.939   5.017   3.005  1.00 20.00     0.023 C 
HETATM    3  C7  UNL     1     -33.599   6.374   3.310  1.00 20.00     0.014 C 
ENDROOT
BRANCH   3   4
HETATM    4  C1  UNL     1     -32.576   7.509   3.067  1.00 20.00     0.148 C 
HETATM    5  O8  UNL     1     -31.933   7.993   4.001  1.00 20.00    -0.296 OA
BRANCH   4   6
HETATM    6  C5  UNL     1     -32.401   8.005   1.643  1.00 20.00     0.193 C 
HETATM    7 CL9  UNL     1     -32.419   9.778   1.600  1.00 20.00    -0.123 Cl
ENDBRANCH   4   6
ENDBRANCH   3   4
BRANCH   3   8
HETATM    8  C6  UNL     1     -34.082   6.383   4.781  1.00 20.00     0.012 C 
HETATM    9  C2  UNL     1     -34.646   5.060   5.286  1.00 20.00     0.006 C 
ENDBRANCH   3   8
TORSDOF 3
ENDMDL
MODEL 3
REMARK VINA RESULT:      -4.2      1.635      2.659
REMARK  3 active torsions:
REMARK  status: ('A' for Active; 'I' for Inactive)
REMARK    1  A    between atoms: C1_1  and  C5_5 
REMARK    2  A    between atoms: C1_1  and  C7_7 
REMARK    3  A    between atoms: C6_6  and  C7_7 
ROOT
HETATM    1  C3  UNL     1     -34.771   5.362   5.890  1.00 20.00     0.023 C 
HETATM    2  C4  UNL     1     -35.536   5.962   3.603  1.00 20.00     0.023 C 
HETATM    3  C7  UNL     1     -34.287   5.745   4.477  1.00 20.00     0.014 C 
ENDROOT
BRANCH   3   4
HETATM    4  C1  UNL     1     -33.473   7.059   4.546  1.00 20.00     0.148 C 
HETATM    5  O8  UNL     1     -33.142   7.542   5.631  1.00 20.00    -0.296 OA
BRANCH   4   6
HETATM    6  C5  UNL     1     -33.109   7.730   3.234  1.00 20.00     0.193 C 
HETATM    7 CL9  UNL     1     -31.430   8.302   3.279  1.00 20.00    -0.123 Cl
ENDBRANCH   4   6
ENDBRANCH   3   4
BRANCH   3   8
HETATM    8  C6  UNL     1     -33.434   4.607   3.867  1.00 20.00     0.012 C 
HETATM    9  C2  UNL     1     -33.135   4.747   2.379  1.00 20.00     0.006 C 
ENDBRANCH   3   8
TORSDOF 3
ENDMDL
MODEL 4
REMARK VINA RESULT:      -4.1      2.005      3.252
REMARK  3 active torsions:
REMARK  status: ('A' for Active; 'I' for Inactive)
REMARK    1  A    between atoms: C1_1  and  C5_5 
REMARK    2  A    between atoms: C1_1  and  C7_7 
REMARK    3  A    between atoms: C6_6  and  C7_7 
ROOT
HETATM    1  C3  UNL     1     -32.884   4.668   2.784  1.00 20.00     0.023 C 
HETATM    2  C4  UNL     1     -34.259   6.337   1.560  1.00 20.00     0.023 C 
HETATM    3  C7  UNL     1     -33.601   6.025   2.917  1.00 20.00     0.014 C 
ENDROOT
BRANCH   3   4
HETATM    4  C1  UNL     1     -34.695   5.930   4.008  1.00 20.00     0.148 C 
HETATM    5  O8  UNL     1     -35.890   5.988   3.712  1.00 20.00    -0.296 OA
BRANCH   4   6
HETATM    6  C5  UNL     1     -34.240   5.771   5.447  1.00 20.00     0.193 C 
HETATM    7 CL9  UNL     1     -33.914   7.357   6.171  1.00 20.00    -0.123 Cl
ENDBRANCH   4   6
ENDBRANCH   3   4
BRANCH   3   8
HETATM    8  C6  UNL     1     -32.589   7.145   3.258  1.00 20.00     0.012 C 
HETATM    9  C2  UNL     1     -32.398   8.199   2.173  1.00 20.00     0.006 C 
ENDBRANCH   3   8
TORSDOF 3
ENDMDL
MODEL 5
REMARK VINA RESULT:      -4.0      2.453      3.796
REMARK  3 active torsions:
REMARK  status: ('A' for Active; 'I' for Inactive)
REMARK    1  A    between atoms: C1_1  and  C5_5 
REMARK    2  A    between atoms: C1_1  and  C7_7 
REMARK    3  A    between atoms: C6_6  and  C7_7 
ROOT
HETATM    1  C3  UNL     1     -31.474   7.975   3.769  1.00 20.00     0.023 C 
HETATM    2  C4  UNL     1     -32.487   6.047   2.571  1.00 20.00     0.023 C 
HETATM    3  C7  UNL     1     -32.807   7.377   3.278  1.00 20.00     0.014 C 
ENDROOT
BRANCH   3   4
HETATM    4  C1  UNL     1     -33.730   7.105   4.490  1.00 20.00     0.148 C 
HETATM    5  O8  UNL     1     -33.578   7.715   5.551  1.00 20.00    -0.296 OA
BRANCH   4   6
HETATM    6  C5  UNL     1     -34.819   6.060   4.324  1.00 20.00     0.193 C 
HETATM    7 CL9  UNL     1     -34.599   4.748   5.498  1.00 20.00    -0.123 Cl
ENDBRANCH   4   6
ENDBRANCH   3   4
BRANCH   3   8
HETATM    8  C6  UNL     1     -33.495   8.332   2.273  1.00 20.00     0.012 C 
HETATM    9  C2  UNL     1     -32.548   9.205   1.457  1.00 20.00     0.006 C 
ENDBRANCH   3   8
TORSDOF 3
ENDMDL
MODEL 6
REMARK VINA RESULT:      -3.8     11.901     12.669
REMARK  3 active torsions:
REMARK  status: ('A' for Active; 'I' for Inactive)
REMARK    1  A    between atoms: C1_1  and  C5_5 
REMARK    2  A    between atoms: C1_1  and  C7_7 
REMARK    3  A    between atoms: C6_6  and  C7_7 
ROOT
HETATM    1  C3  UNL     1     -35.428  16.318  -5.797  1.00 20.00     0.023 C 
HETATM    2  C4  UNL     1     -36.997  15.342  -4.135  1.00 20.00     0.023 C 
HETATM    3  C7  UNL     1     -35.675  15.099  -4.888  1.00 20.00     0.014 C 
ENDROOT
BRANCH   3   4
HETATM    4  C1  UNL     1     -35.804  13.823  -5.754  1.00 20.00     0.148 C 
HETATM    5  O8  UNL     1     -35.911  12.711  -5.232  1.00 20.00    -0.296 OA
BRANCH   4   6
HETATM    6  C5  UNL     1     -35.787  13.992  -7.263  1.00 20.00     0.193 C 
HETATM    7 CL9  UNL     1     -34.134  13.823  -7.884  1.00 20.00    -0.123 Cl
ENDBRANCH   4   6
ENDBRANCH   3   4
BRANCH   3   8
HETATM    8  C6  UNL     1     -34.528  14.945  -3.860  1.00 20.00     0.012 C 
HETATM    9  C2  UNL     1     -33.137  14.774  -4.461  1.00 20.00     0.006 C 
ENDBRANCH   3   8
TORSDOF 3
ENDMDL
MODEL 7
REMARK VINA RESULT:      -3.7     11.641     13.176
REMARK  3 active torsions:
REMARK  status: ('A' for Active; 'I' for Inactive)
REMARK    1  A    between atoms: C1_1  and  C5_5 
REMARK    2  A    between atoms: C1_1  and  C7_7 
REMARK    3  A    between atoms: C6_6  and  C7_7 
ROOT
HETATM    1  C3  UNL     1     -34.272  13.955  -7.630  1.00 20.00     0.023 C 
HETATM    2  C4  UNL     1     -36.713  14.372  -7.409  1.00 20.00     0.023 C 
HETATM    3  C7  UNL     1     -35.352  14.563  -6.714  1.00 20.00     0.014 C 
ENDROOT
BRANCH   3   4
HETATM    4  C1  UNL     1     -35.360  13.819  -5.357  1.00 20.00     0.148 C 
HETATM    5  O8  UNL     1     -35.911  12.722  -5.240  1.00 20.00    -0.296 OA
BRANCH   4   6
HETATM    6  C5  UNL     1     -34.674  14.492  -4.181  1.00 20.00     0.193 C 
HETATM    7 CL9  UNL     1     -32.915  14.301  -4.301  1.00 20.00    -0.123 Cl
ENDBRANCH   4   6
ENDBRANCH   3   4
BRANCH   3   8
HETATM    8  C6  UNL     1     -35.099  16.076  -6.503  1.00 20.00     0.012 C 
HETATM    9  C2  UNL     1     -33.842  16.622  -7.171  1.00 20.00     0.006 C 
ENDBRANCH   3   8
TORSDOF 3
ENDMDL
MODEL 8
REMARK VINA RESULT:      -3.7     11.652     12.230
REMARK  3 active torsions:
REMARK  status: ('A' for Active; 'I' for Inactive)
REMARK    1  A    between atoms: C1_1  and  C5_5 
REMARK    2  A    between atoms: C1_1  and  C7_7 
REMARK    3  A    between atoms: C6_6  and  C7_7 
ROOT
HETATM    1  C3  UNL     1     -34.954  16.522  -5.427  1.00 20.00     0.023 C 
HETATM    2  C4  UNL     1     -36.736  15.893  -3.813  1.00 20.00     0.023 C 
HETATM    3  C7  UNL     1     -35.253  15.683  -4.169  1.00 20.00     0.014 C 
ENDROOT
BRANCH   3   4
HETATM    4  C1  UNL     1     -35.004  14.186  -4.474  1.00 20.00     0.148 C 
HETATM    5  O8  UNL     1     -34.020  13.602  -4.015  1.00 20.00    -0.296 OA
BRANCH   4   6
HETATM    6  C5  UNL     1     -36.010  13.472  -5.359  1.00 20.00     0.193 C 
HETATM    7 CL9  UNL     1     -35.289  13.099  -6.936  1.00 20.00    -0.123 Cl
ENDBRANCH   4   6
ENDBRANCH   3   4
BRANCH   3   8
HETATM    8  C6  UNL     1     -34.376  16.150  -2.982  1.00 20.00     0.012 C 
HETATM    9  C2  UNL     1     -35.144  16.711  -1.791  1.00 20.00     0.006 C 
ENDBRANCH   3   8
TORSDOF 3
ENDMDL
MODEL 9
REMARK VINA RESULT:      -3.7      2.078      3.211
REMARK  3 active torsions:
REMARK  status: ('A' for Active; 'I' for Inactive)
REMARK    1  A    between atoms: C1_1  and  C5_5 
REMARK    2  A    between atoms: C1_1  and  C7_7 
REMARK    3  A    between atoms: C6_6  and  C7_7 
ROOT
HETATM    1  C3  UNL     1     -34.247   8.302   3.048  1.00 20.00     0.023 C 
HETATM    2  C4  UNL     1     -33.148   7.613   5.168  1.00 20.00     0.023 C 
HETATM    3  C7  UNL     1     -33.207   7.339   3.654  1.00 20.00     0.014 C 
ENDROOT
BRANCH   3   4
HETATM    4  C1  UNL     1     -33.653   5.876   3.415  1.00 20.00     0.148 C 
HETATM    5  O8  UNL     1     -32.988   5.120   2.703  1.00 20.00    -0.296 OA
BRANCH   4   6
HETATM    6  C5  UNL     1     -34.938   5.415   4.079  1.00 20.00     0.193 C 
HETATM    7 CL9  UNL     1     -34.579   4.561   5.591  1.00 20.00    -0.123 Cl
ENDBRANCH   4   6
ENDBRANCH   3   4
BRANCH   3   8
HETATM    8  C6  UNL     1     -31.809   7.589   3.039  1.00 20.00     0.012 C 
HETATM    9  C2  UNL     1     -31.795   8.486   1.806  1.00 20.00     0.006 C 
ENDBRANCH   3   8
TORSDOF 3
ENDMDL
