MODEL 1
REMARK VINA RESULT:      -5.2      0.000      0.000
REMARK  3 active torsions:
REMARK  status: ('A' for Active; 'I' for Inactive)
REMARK    1  A    between atoms: C3_3  and  C5_5 
REMARK    2  A    between atoms: C5_5  and  C7_7 
REMARK    3  A    between atoms: C6_6  and  C7_7 
ROOT
HETATM    1  C5  UNL     1     -33.711   7.138   3.409  1.00 20.00     0.010 C 
ENDROOT
BRANCH   1   2
HETATM    2  C3  UNL     1     -32.378   7.373   2.763  1.00 20.00    -0.014 A 
HETATM    3  C1  UNL     1     -32.100   8.666   2.049  1.00 20.00     0.005 A 
HETATM    4  C2  UNL     1     -31.416   8.367   3.353  1.00 20.00     0.005 A 
ENDBRANCH   1   2
BRANCH   1   5
HETATM    5  C7  UNL     1     -34.200   5.681   3.276  1.00 20.00    -0.004 C 
HETATM    6  C4  UNL     1     -33.124   4.772   2.672  1.00 20.00     0.011 C 
BRANCH   5   7
HETATM    7  C6  UNL     1     -34.713   5.129   4.617  1.00 20.00     0.119 C 
HETATM    8 CL8  UNL     1     -34.340   6.175   6.010  1.00 20.00    -0.130 Cl
ENDBRANCH   5   7
ENDBRANCH   1   5
TORSDOF 3
ENDMDL
MODEL 2
REMARK VINA RESULT:      -5.1      1.048      1.730
REMARK  3 active torsions:
REMARK  status: ('A' for Active; 'I' for Inactive)
REMARK    1  A    between atoms: C3_3  and  C5_5 
REMARK    2  A    between atoms: C5_5  and  C7_7 
REMARK    3  A    between atoms: C6_6  and  C7_7 
ROOT
HETATM    1  C5  UNL     1     -32.377   7.924   3.002  1.00 20.00     0.010 C 
ENDROOT
BRANCH   1   2
HETATM    2  C3  UNL     1     -32.632   8.435   1.614  1.00 20.00    -0.014 A 
HETATM    3  C1  UNL     1     -32.484   9.899   1.306  1.00 20.00     0.005 A 
HETATM    4  C2  UNL     1     -31.488   8.913   0.762  1.00 20.00     0.005 A 
ENDBRANCH   1   2
BRANCH   1   5
HETATM    5  C7  UNL     1     -33.564   7.128   3.580  1.00 20.00    -0.004 C 
HETATM    6  C4  UNL     1     -33.605   5.693   3.042  1.00 20.00     0.011 C 
BRANCH   5   7
HETATM    7  C6  UNL     1     -33.567   7.150   5.118  1.00 20.00     0.119 C 
HETATM    8 CL8  UNL     1     -34.456   5.793   5.851  1.00 20.00    -0.130 Cl
ENDBRANCH   5   7
ENDBRANCH   1   5
TORSDOF 3
ENDMDL
MODEL 3
REMARK VINA RESULT:      -5.0      2.469      4.212
REMARK  3 active torsions:
REMARK  status: ('A' for Active; 'I' for Inactive)
REMARK    1  A    between atoms: C3_3  and  C5_5 
REMARK    2  A    between atoms: C5_5  and  C7_7 
REMARK    3  A    between atoms: C6_6  and  C7_7 
ROOT
HETATM    1  C5  UNL     1     -33.160   6.540   2.930  1.00 20.00     0.010 C 
ENDROOT
BRANCH   1   2
HETATM    2  C3  UNL     1     -34.396   6.360   3.760  1.00 20.00    -0.014 A 
HETATM    3  C1  UNL     1     -34.693   5.032   4.400  1.00 20.00     0.005 A 
HETATM    4  C2  UNL     1     -34.290   6.202   5.252  1.00 20.00     0.005 A 
ENDBRANCH   1   2
BRANCH   1   5
HETATM    5  C7  UNL     1     -32.690   8.007   2.856  1.00 20.00    -0.004 C 
HETATM    6  C4  UNL     1     -31.438   8.249   3.706  1.00 20.00     0.011 C 
BRANCH   5   7
HETATM    7  C6  UNL     1     -32.478   8.463   1.403  1.00 20.00     0.119 C 
HETATM    8 CL8  UNL     1     -32.648  10.221   1.173  1.00 20.00    -0.130 Cl
ENDBRANCH   5   7
ENDBRANCH   1   5
TORSDOF 3
ENDMDL
MODEL 4
REMARK VINA RESULT:      -4.9      1.528      1.988
REMARK  3 active torsions:
REMARK  status: ('A' for Active; 'I' for Inactive)
REMARK    1  A    between atoms: C3_3  and  C5_5 
REMARK    2  A    between atoms: C5_5  and  C7_7 
REMARK    3  A    between atoms: C6_6  and  C7_7 
ROOT
HETATM    1  C5  UNL     1     -33.828   7.266   3.534  1.00 20.00     0.010 C 
ENDROOT
BRANCH   1   2
HETATM    2  C3  UNL     1     -32.530   7.322   2.785  1.00 20.00    -0.014 A 
HETATM    3  C1  UNL     1     -32.251   8.453   1.834  1.00 20.00     0.005 A 
HETATM    4  C2  UNL     1     -31.500   8.362   3.132  1.00 20.00     0.005 A 
ENDBRANCH   1   2
BRANCH   1   5
HETATM    5  C7  UNL     1     -33.723   6.505   4.871  1.00 20.00    -0.004 C 
HETATM    6  C4  UNL     1     -33.812   7.450   6.074  1.00 20.00     0.011 C 
BRANCH   5   7
HETATM    7  C6  UNL     1     -34.764   5.377   4.966  1.00 20.00     0.119 C 
HETATM    8 CL8  UNL     1     -34.207   3.832   4.277  1.00 20.00    -0.130 Cl
ENDBRANCH   5   7
ENDBRANCH   1   5
TORSDOF 3
ENDMDL
MODEL 5
REMARK VINA RESULT:      -4.8      1.549      2.504
REMARK  3 active torsions:
REMARK  status: ('A' for Active; 'I' for Inactive)
REMARK    1  A    between atoms: C3_3  and  C5_5 
REMARK    2  A    between atoms: C5_5  and  C7_7 
REMARK    3  A    between atoms: C6_6  and  C7_7 
ROOT
HETATM    1  C5  UNL     1     -31.924   8.284   2.936  1.00 20.00     0.010 C 
ENDROOT
BRANCH   1   2
HETATM    2  C3  UNL     1     -32.616   8.669   1.662  1.00 20.00    -0.014 A 
HETATM    3  C1  UNL     1     -32.654  10.107   1.225  1.00 20.00     0.005 A 
HETATM    4  C2  UNL     1     -31.814   9.116   0.470  1.00 20.00     0.005 A 
ENDBRANCH   1   2
BRANCH   1   5
HETATM    5  C7  UNL     1     -32.618   7.121   3.673  1.00 20.00    -0.004 C 
HETATM    6  C4  UNL     1     -33.237   7.575   4.999  1.00 20.00     0.011 C 
BRANCH   5   7
HETATM    7  C6  UNL     1     -33.656   6.420   2.780  1.00 20.00     0.119 C 
HETATM    8 CL8  UNL     1     -35.114   5.894   3.657  1.00 20.00    -0.130 Cl
ENDBRANCH   5   7
ENDBRANCH   1   5
TORSDOF 3
ENDMDL
MODEL 6
REMARK VINA RESULT:      -4.6      2.330      4.017
REMARK  3 active torsions:
REMARK  status: ('A' for Active; 'I' for Inactive)
REMARK    1  A    between atoms: C3_3  and  C5_5 
REMARK    2  A    between atoms: C5_5  and  C7_7 
REMARK    3  A    between atoms: C6_6  and  C7_7 
ROOT
HETATM    1  C5  UNL     1     -33.690   6.968   4.545  1.00 20.00     0.010 C 
ENDROOT
BRANCH   1   2
HETATM    2  C3  UNL     1     -34.713   5.878   4.671  1.00 20.00    -0.014 A 
HETATM    3  C1  UNL     1     -34.314   4.439   4.496  1.00 20.00     0.005 A 
HETATM    4  C2  UNL     1     -34.691   4.952   5.857  1.00 20.00     0.005 A 
ENDBRANCH   1   2
BRANCH   1   5
HETATM    5  C7  UNL     1     -32.811   6.829   3.287  1.00 20.00    -0.004 C 
HETATM    6  C4  UNL     1     -33.650   6.587   2.027  1.00 20.00     0.011 C 
BRANCH   5   7
HETATM    7  C6  UNL     1     -31.874   8.036   3.113  1.00 20.00     0.119 C 
HETATM    8 CL8  UNL     1     -31.917   8.745   1.479  1.00 20.00    -0.130 Cl
ENDBRANCH   5   7
ENDBRANCH   1   5
TORSDOF 3
ENDMDL
MODEL 7
REMARK VINA RESULT:      -4.1      2.846      4.445
REMARK  3 active torsions:
REMARK  status: ('A' for Active; 'I' for Inactive)
REMARK    1  A    between atoms: C3_3  and  C5_5 
REMARK    2  A    between atoms: C5_5  and  C7_7 
REMARK    3  A    between atoms: C6_6  and  C7_7 
ROOT
HETATM    1  C5  UNL     1     -32.026   8.095   2.826  1.00 20.00     0.010 C 
ENDROOT
BRANCH   1   2
HETATM    2  C3  UNL     1     -33.269   7.279   2.630  1.00 20.00    -0.014 A 
HETATM    3  C1  UNL     1     -33.248   5.795   2.868  1.00 20.00     0.005 A 
HETATM    4  C2  UNL     1     -33.988   6.697   3.816  1.00 20.00     0.005 A 
ENDBRANCH   1   2
BRANCH   1   5
HETATM    5  C7  UNL     1     -31.761   9.082   1.671  1.00 20.00    -0.004 C 
HETATM    6  C4  UNL     1     -31.108   8.393   0.469  1.00 20.00     0.011 C 
BRANCH   5   7
HETATM    7  C6  UNL     1     -33.040   9.832   1.261  1.00 20.00     0.119 C 
HETATM    8 CL8  UNL     1     -33.440   9.670  -0.466  1.00 20.00    -0.130 Cl
ENDBRANCH   5   7
ENDBRANCH   1   5
TORSDOF 3
ENDMDL
MODEL 8
REMARK VINA RESULT:      -4.0      0.947      3.258
REMARK  3 active torsions:
REMARK  status: ('A' for Active; 'I' for Inactive)
REMARK    1  A    between atoms: C3_3  and  C5_5 
REMARK    2  A    between atoms: C5_5  and  C7_7 
REMARK    3  A    between atoms: C6_6  and  C7_7 
ROOT
HETATM    1  C5  UNL     1     -34.021   7.114   3.089  1.00 20.00     0.010 C 
ENDROOT
BRANCH   1   2
HETATM    2  C3  UNL     1     -34.172   5.660   2.749  1.00 20.00    -0.014 A 
HETATM    3  C1  UNL     1     -32.992   4.734   2.845  1.00 20.00     0.005 A 
HETATM    4  C2  UNL     1     -34.117   4.620   3.835  1.00 20.00     0.005 A 
ENDBRANCH   1   2
BRANCH   1   5
HETATM    5  C7  UNL     1     -32.549   7.565   3.178  1.00 20.00    -0.004 C 
HETATM    6  C4  UNL     1     -32.200   8.591   2.095  1.00 20.00     0.011 C 
BRANCH   5   7
HETATM    7  C6  UNL     1     -32.200   8.090   4.581  1.00 20.00     0.119 C 
HETATM    8 CL8  UNL     1     -33.343   7.569   5.844  1.00 20.00    -0.130 Cl
ENDBRANCH   5   7
ENDBRANCH   1   5
TORSDOF 3
ENDMDL
MODEL 9
REMARK VINA RESULT:      -4.0      1.793      3.809
REMARK  3 active torsions:
REMARK  status: ('A' for Active; 'I' for Inactive)
REMARK    1  A    between atoms: C3_3  and  C5_5 
REMARK    2  A    between atoms: C5_5  and  C7_7 
REMARK    3  A    between atoms: C6_6  and  C7_7 
ROOT
HETATM    1  C5  UNL     1     -33.597   6.889   4.787  1.00 20.00     0.010 C 
ENDROOT
BRANCH   1   2
HETATM    2  C3  UNL     1     -34.716   5.908   4.972  1.00 20.00    -0.014 A 
HETATM    3  C1  UNL     1     -34.439   4.431   4.967  1.00 20.00     0.005 A 
HETATM    4  C2  UNL     1     -34.826   5.117   6.246  1.00 20.00     0.005 A 
ENDBRANCH   1   2
BRANCH   1   5
HETATM    5  C7  UNL     1     -33.424   7.341   3.323  1.00 20.00    -0.004 C 
HETATM    6  C4  UNL     1     -32.000   7.833   3.041  1.00 20.00     0.011 C 
BRANCH   5   7
HETATM    7  C6  UNL     1     -33.842   6.238   2.335  1.00 20.00     0.119 C 
HETATM    8 CL8  UNL     1     -32.758   4.825   2.341  1.00 20.00    -0.130 Cl
ENDBRANCH   5   7
ENDBRANCH   1   5
TORSDOF 3
ENDMDL
