MODEL 1
REMARK VINA RESULT:      -4.8      0.000      0.000
REMARK  2 active torsions:
REMARK  status: ('A' for Active; 'I' for Inactive)
REMARK    1  A    between atoms: C5_5  and  C7_7 
REMARK    2  A    between atoms: C6_6  and  C7_7 
ROOT
HETATM    1  C3  UNL     1     -32.985   4.840   2.957  1.00 20.00     0.016 C 
HETATM    2  C4  UNL     1     -34.651   6.508   2.147  1.00 20.00     0.016 C 
HETATM    3  C7  UNL     1     -33.667   6.186   3.297  1.00 20.00    -0.032 C 
ENDROOT
BRANCH   3   4
HETATM    4  C5  UNL     1     -32.545   7.263   3.310  1.00 20.00     0.123 C 
HETATM    5 CL8  UNL     1     -32.524   8.315   1.871  1.00 20.00    -0.130 Cl
ENDBRANCH   3   4
BRANCH   3   6
HETATM    6  C6  UNL     1     -34.444   6.112   4.665  1.00 20.00    -0.014 C 
HETATM    7  C1  UNL     1     -33.881   7.039   5.753  1.00 20.00     0.010 C 
HETATM    8  C2  UNL     1     -34.544   4.693   5.250  1.00 20.00     0.010 C 
ENDBRANCH   3   6
TORSDOF 2
ENDMDL
MODEL 2
REMARK VINA RESULT:      -4.4      1.246      1.849
REMARK  2 active torsions:
REMARK  status: ('A' for Active; 'I' for Inactive)
REMARK    1  A    between atoms: C5_5  and  C7_7 
REMARK    2  A    between atoms: C6_6  and  C7_7 
ROOT
HETATM    1  C3  UNL     1     -31.663   7.897   3.816  1.00 20.00     0.016 C 
HETATM    2  C4  UNL     1     -32.604   5.903   2.653  1.00 20.00     0.016 C 
HETATM    3  C7  UNL     1     -32.953   7.308   3.198  1.00 20.00    -0.032 C 
ENDROOT
BRANCH   3   4
HETATM    4  C5  UNL     1     -33.334   8.227   2.002  1.00 20.00     0.123 C 
HETATM    5 CL8  UNL     1     -31.936   8.899   1.124  1.00 20.00    -0.130 Cl
ENDBRANCH   3   4
BRANCH   3   6
HETATM    6  C6  UNL     1     -34.109   7.201   4.264  1.00 20.00    -0.014 C 
HETATM    7  C1  UNL     1     -33.633   7.354   5.716  1.00 20.00     0.010 C 
HETATM    8  C2  UNL     1     -34.933   5.907   4.162  1.00 20.00     0.010 C 
ENDBRANCH   3   6
TORSDOF 2
ENDMDL
MODEL 3
REMARK VINA RESULT:      -4.3      1.648      3.016
REMARK  2 active torsions:
REMARK  status: ('A' for Active; 'I' for Inactive)
REMARK    1  A    between atoms: C5_5  and  C7_7 
REMARK    2  A    between atoms: C6_6  and  C7_7 
ROOT
HETATM    1  C3  UNL     1     -35.695   6.094   3.655  1.00 20.00     0.016 C 
HETATM    2  C4  UNL     1     -34.473   4.142   4.610  1.00 20.00     0.016 C 
HETATM    3  C7  UNL     1     -34.372   5.661   4.330  1.00 20.00    -0.032 C 
ENDROOT
BRANCH   3   4
HETATM    4  C5  UNL     1     -34.296   6.415   5.688  1.00 20.00     0.123 C 
HETATM    5 CL8  UNL     1     -33.058   7.696   5.746  1.00 20.00    -0.130 Cl
ENDBRANCH   3   4
BRANCH   3   6
HETATM    6  C6  UNL     1     -33.129   5.958   3.409  1.00 20.00    -0.014 C 
HETATM    7  C1  UNL     1     -33.239   7.269   2.617  1.00 20.00     0.010 C 
HETATM    8  C2  UNL     1     -32.800   4.826   2.421  1.00 20.00     0.010 C 
ENDBRANCH   3   6
TORSDOF 2
ENDMDL
MODEL 4
REMARK VINA RESULT:      -4.3      1.733      2.717
REMARK  2 active torsions:
REMARK  status: ('A' for Active; 'I' for Inactive)
REMARK    1  A    between atoms: C5_5  and  C7_7 
REMARK    2  A    between atoms: C6_6  and  C7_7 
ROOT
HETATM    1  C3  UNL     1     -34.854   5.113   5.911  1.00 20.00     0.016 C 
HETATM    2  C4  UNL     1     -35.609   5.967   3.694  1.00 20.00     0.016 C 
HETATM    3  C7  UNL     1     -34.364   5.537   4.506  1.00 20.00    -0.032 C 
ENDROOT
BRANCH   3   4
HETATM    4  C5  UNL     1     -33.753   4.268   3.846  1.00 20.00     0.123 C 
HETATM    5 CL8  UNL     1     -32.860   4.587   2.337  1.00 20.00    -0.130 Cl
ENDBRANCH   3   4
BRANCH   3   6
HETATM    6  C6  UNL     1     -33.335   6.727   4.586  1.00 20.00    -0.014 C 
HETATM    7  C1  UNL     1     -33.453   7.567   5.866  1.00 20.00     0.010 C 
HETATM    8  C2  UNL     1     -33.387   7.679   3.380  1.00 20.00     0.010 C 
ENDBRANCH   3   6
TORSDOF 2
ENDMDL
MODEL 5
REMARK VINA RESULT:      -4.2      1.140      2.443
REMARK  2 active torsions:
REMARK  status: ('A' for Active; 'I' for Inactive)
REMARK    1  A    between atoms: C5_5  and  C7_7 
REMARK    2  A    between atoms: C6_6  and  C7_7 
ROOT
HETATM    1  C3  UNL     1     -35.561   6.377   3.638  1.00 20.00     0.016 C 
HETATM    2  C4  UNL     1     -33.924   6.971   5.421  1.00 20.00     0.016 C 
HETATM    3  C7  UNL     1     -34.052   6.451   3.969  1.00 20.00    -0.032 C 
ENDROOT
BRANCH   3   4
HETATM    4  C5  UNL     1     -33.436   7.505   3.005  1.00 20.00     0.123 C 
HETATM    5 CL8  UNL     1     -31.771   7.988   3.420  1.00 20.00    -0.130 Cl
ENDBRANCH   3   4
BRANCH   3   6
HETATM    6  C6  UNL     1     -33.362   5.041   3.839  1.00 20.00    -0.014 C 
HETATM    7  C1  UNL     1     -32.993   4.659   2.398  1.00 20.00     0.010 C 
HETATM    8  C2  UNL     1     -34.177   3.888   4.448  1.00 20.00     0.010 C 
ENDBRANCH   3   6
TORSDOF 2
ENDMDL
MODEL 6
REMARK VINA RESULT:      -4.1      2.143      3.141
REMARK  2 active torsions:
REMARK  status: ('A' for Active; 'I' for Inactive)
REMARK    1  A    between atoms: C5_5  and  C7_7 
REMARK    2  A    between atoms: C6_6  and  C7_7 
ROOT
HETATM    1  C3  UNL     1     -34.772   6.281   1.835  1.00 20.00     0.016 C 
HETATM    2  C4  UNL     1     -32.934   5.032   2.964  1.00 20.00     0.016 C 
HETATM    3  C7  UNL     1     -34.043   6.088   3.186  1.00 20.00    -0.032 C 
ENDROOT
BRANCH   3   4
HETATM    4  C5  UNL     1     -35.091   5.510   4.180  1.00 20.00     0.123 C 
HETATM    5 CL8  UNL     1     -34.464   4.215   5.232  1.00 20.00    -0.130 Cl
ENDBRANCH   3   4
BRANCH   3   6
HETATM    6  C6  UNL     1     -33.409   7.435   3.699  1.00 20.00    -0.014 C 
HETATM    7  C1  UNL     1     -32.020   7.733   3.115  1.00 20.00     0.010 C 
HETATM    8  C2  UNL     1     -33.317   7.538   5.231  1.00 20.00     0.010 C 
ENDBRANCH   3   6
TORSDOF 2
ENDMDL
MODEL 7
REMARK VINA RESULT:      -4.1      2.130      3.229
REMARK  2 active torsions:
REMARK  status: ('A' for Active; 'I' for Inactive)
REMARK    1  A    between atoms: C5_5  and  C7_7 
REMARK    2  A    between atoms: C6_6  and  C7_7 
ROOT
HETATM    1  C3  UNL     1     -34.484   6.327   1.703  1.00 20.00     0.016 C 
HETATM    2  C4  UNL     1     -33.055   4.621   2.825  1.00 20.00     0.016 C 
HETATM    3  C7  UNL     1     -33.766   5.980   3.029  1.00 20.00    -0.032 C 
ENDROOT
BRANCH   3   4
HETATM    4  C5  UNL     1     -34.876   5.806   4.105  1.00 20.00     0.123 C 
HETATM    5 CL8  UNL     1     -34.560   4.501   5.277  1.00 20.00    -0.130 Cl
ENDBRANCH   3   4
BRANCH   3   6
HETATM    6  C6  UNL     1     -32.715   7.085   3.424  1.00 20.00    -0.014 C 
HETATM    7  C1  UNL     1     -32.980   7.737   4.788  1.00 20.00     0.010 C 
HETATM    8  C2  UNL     1     -32.562   8.202   2.378  1.00 20.00     0.010 C 
ENDBRANCH   3   6
TORSDOF 2
ENDMDL
MODEL 8
REMARK VINA RESULT:      -4.0      1.513      2.104
REMARK  2 active torsions:
REMARK  status: ('A' for Active; 'I' for Inactive)
REMARK    1  A    between atoms: C5_5  and  C7_7 
REMARK    2  A    between atoms: C6_6  and  C7_7 
ROOT
HETATM    1  C3  UNL     1     -34.708   6.252   2.388  1.00 20.00     0.016 C 
HETATM    2  C4  UNL     1     -32.655   7.316   3.318  1.00 20.00     0.016 C 
HETATM    3  C7  UNL     1     -33.689   6.188   3.549  1.00 20.00    -0.032 C 
ENDROOT
BRANCH   3   4
HETATM    4  C5  UNL     1     -32.965   4.816   3.432  1.00 20.00     0.123 C 
HETATM    5 CL8  UNL     1     -32.868   4.181   1.769  1.00 20.00    -0.130 Cl
ENDBRANCH   3   4
BRANCH   3   6
HETATM    6  C6  UNL     1     -34.391   6.378   4.947  1.00 20.00    -0.014 C 
HETATM    7  C1  UNL     1     -33.654   7.343   5.887  1.00 20.00     0.010 C 
HETATM    8  C2  UNL     1     -34.639   5.064   5.705  1.00 20.00     0.010 C 
ENDBRANCH   3   6
TORSDOF 2
ENDMDL
MODEL 9
REMARK VINA RESULT:      -3.7      2.124      3.384
REMARK  2 active torsions:
REMARK  status: ('A' for Active; 'I' for Inactive)
REMARK    1  A    between atoms: C5_5  and  C7_7 
REMARK    2  A    between atoms: C6_6  and  C7_7 
ROOT
HETATM    1  C3  UNL     1     -33.900   6.897   4.715  1.00 20.00     0.016 C 
HETATM    2  C4  UNL     1     -34.747   6.642   2.385  1.00 20.00     0.016 C 
HETATM    3  C7  UNL     1     -33.496   6.480   3.282  1.00 20.00    -0.032 C 
ENDROOT
BRANCH   3   4
HETATM    4  C5  UNL     1     -33.120   4.972   3.345  1.00 20.00     0.123 C 
HETATM    5 CL8  UNL     1     -34.218   3.986   4.345  1.00 20.00    -0.130 Cl
ENDBRANCH   3   4
BRANCH   3   6
HETATM    6  C6  UNL     1     -32.319   7.370   2.731  1.00 20.00    -0.014 C 
HETATM    7  C1  UNL     1     -31.566   8.151   3.818  1.00 20.00     0.010 C 
HETATM    8  C2  UNL     1     -32.745   8.361   1.635  1.00 20.00     0.010 C 
ENDBRANCH   3   6
TORSDOF 2
ENDMDL
