MODEL 1
REMARK VINA RESULT:      -4.9      0.000      0.000
REMARK  2 active torsions:
REMARK  status: ('A' for Active; 'I' for Inactive)
REMARK    1  A    between atoms: C1_1  and  C5_5 
REMARK    2  A    between atoms: C1_1  and  C6_6 
ROOT
HETATM    1  C2  UNL     1     -33.367   5.866   3.031  1.00 20.00     0.023 C 
HETATM    2  C3  UNL     1     -34.452   5.168   3.833  1.00 20.00     0.075 C 
HETATM    3  C4  UNL     1     -33.410   7.379   4.946  1.00 20.00     0.086 C 
HETATM    4  C5  UNL     1     -33.417   7.337   3.424  1.00 20.00     0.066 C 
HETATM    5  S8  UNL     1     -34.408   5.956   5.465  1.00 20.00    -0.168 SA
ENDROOT
BRANCH   4   6
HETATM    6  C1  UNL     1     -32.241   8.068   2.860  1.00 20.00     0.145 C 
HETATM    7  O7  UNL     1     -31.245   8.278   3.551  1.00 20.00    -0.296 OA
BRANCH   6   8
HETATM    8  C6  UNL     1     -32.372   8.513   1.422  1.00 20.00     0.193 C 
HETATM    9 CL9  UNL     1     -32.639  10.260   1.329  1.00 20.00    -0.123 Cl
ENDBRANCH   6   8
ENDBRANCH   4   6
TORSDOF 2
ENDMDL
MODEL 2
REMARK VINA RESULT:      -4.5      0.846      1.491
REMARK  2 active torsions:
REMARK  status: ('A' for Active; 'I' for Inactive)
REMARK    1  A    between atoms: C1_1  and  C5_5 
REMARK    2  A    between atoms: C1_1  and  C6_6 
ROOT
HETATM    1  C2  UNL     1     -33.476   7.419   5.074  1.00 20.00     0.023 C 
HETATM    2  C3  UNL     1     -34.314   6.285   5.639  1.00 20.00     0.075 C 
HETATM    3  C4  UNL     1     -33.926   6.246   2.981  1.00 20.00     0.086 C 
HETATM    4  C5  UNL     1     -32.818   6.882   3.809  1.00 20.00     0.066 C 
HETATM    5  S8  UNL     1     -35.034   5.468   4.190  1.00 20.00    -0.168 SA
ENDROOT
BRANCH   4   6
HETATM    6  C1  UNL     1     -32.153   7.990   3.057  1.00 20.00     0.145 C 
HETATM    7  O7  UNL     1     -31.177   8.570   3.531  1.00 20.00    -0.296 OA
BRANCH   6   8
HETATM    8  C6  UNL     1     -32.759   8.330   1.716  1.00 20.00     0.193 C 
HETATM    9 CL9  UNL     1     -32.463  10.027   1.306  1.00 20.00    -0.123 Cl
ENDBRANCH   6   8
ENDBRANCH   4   6
TORSDOF 2
ENDMDL
MODEL 3
REMARK VINA RESULT:      -3.7     11.153     11.621
REMARK  2 active torsions:
REMARK  status: ('A' for Active; 'I' for Inactive)
REMARK    1  A    between atoms: C1_1  and  C5_5 
REMARK    2  A    between atoms: C1_1  and  C6_6 
ROOT
HETATM    1  C2  UNL     1     -33.889  15.412  -4.300  1.00 20.00     0.023 C 
HETATM    2  C3  UNL     1     -33.766  16.359  -3.119  1.00 20.00     0.075 C 
HETATM    3  C4  UNL     1     -36.268  15.699  -3.839  1.00 20.00     0.086 C 
HETATM    4  C5  UNL     1     -35.197  14.653  -4.112  1.00 20.00     0.066 C 
HETATM    5  S8  UNL     1     -35.450  16.963  -2.827  1.00 20.00    -0.168 SA
ENDROOT
BRANCH   4   6
HETATM    6  C1  UNL     1     -35.519  13.860  -5.338  1.00 20.00     0.145 C 
HETATM    7  O7  UNL     1     -35.871  12.684  -5.248  1.00 20.00    -0.296 OA
BRANCH   6   8
HETATM    8  C6  UNL     1     -35.379  14.594  -6.651  1.00 20.00     0.193 C 
HETATM    9 CL9  UNL     1     -34.199  13.789  -7.696  1.00 20.00    -0.123 Cl
ENDBRANCH   6   8
ENDBRANCH   4   6
TORSDOF 2
ENDMDL
MODEL 4
REMARK VINA RESULT:      -3.7      3.339      4.238
REMARK  2 active torsions:
REMARK  status: ('A' for Active; 'I' for Inactive)
REMARK    1  A    between atoms: C1_1  and  C5_5 
REMARK    2  A    between atoms: C1_1  and  C6_6 
ROOT
HETATM    1  C2  UNL     1     -32.244   7.952   4.409  1.00 20.00     0.023 C 
HETATM    2  C3  UNL     1     -31.611   8.746   3.280  1.00 20.00     0.075 C 
HETATM    3  C4  UNL     1     -33.454   6.933   2.550  1.00 20.00     0.086 C 
HETATM    4  C5  UNL     1     -33.633   7.551   3.930  1.00 20.00     0.066 C 
HETATM    5  S8  UNL     1     -32.139   7.906   1.764  1.00 20.00    -0.168 SA
ENDROOT
BRANCH   4   6
HETATM    6  C1  UNL     1     -34.250   6.574   4.880  1.00 20.00     0.145 C 
HETATM    7  O7  UNL     1     -34.091   6.698   6.094  1.00 20.00    -0.296 OA
BRANCH   6   8
HETATM    8  C6  UNL     1     -35.053   5.461   4.249  1.00 20.00     0.193 C 
HETATM    9 CL9  UNL     1     -34.203   3.916   4.391  1.00 20.00    -0.123 Cl
ENDBRANCH   6   8
ENDBRANCH   4   6
TORSDOF 2
ENDMDL
MODEL 5
REMARK VINA RESULT:      -3.5      3.258      4.193
REMARK  2 active torsions:
REMARK  status: ('A' for Active; 'I' for Inactive)
REMARK    1  A    between atoms: C1_1  and  C5_5 
REMARK    2  A    between atoms: C1_1  and  C6_6 
ROOT
HETATM    1  C2  UNL     1     -31.961   7.562   3.525  1.00 20.00     0.023 C 
HETATM    2  C3  UNL     1     -31.571   8.939   3.014  1.00 20.00     0.075 C 
HETATM    3  C4  UNL     1     -33.304   7.566   1.487  1.00 20.00     0.086 C 
HETATM    4  C5  UNL     1     -33.355   7.277   2.981  1.00 20.00     0.066 C 
HETATM    5  S8  UNL     1     -32.214   9.007   1.321  1.00 20.00    -0.168 SA
ENDROOT
BRANCH   4   6
HETATM    6  C1  UNL     1     -33.734   5.854   3.241  1.00 20.00     0.145 C 
HETATM    7  O7  UNL     1     -33.133   4.935   2.685  1.00 20.00    -0.296 OA
BRANCH   6   8
HETATM    8  C6  UNL     1     -34.878   5.645   4.205  1.00 20.00     0.193 C 
HETATM    9 CL9  UNL     1     -34.383   6.037   5.859  1.00 20.00    -0.123 Cl
ENDBRANCH   6   8
ENDBRANCH   4   6
TORSDOF 2
ENDMDL
MODEL 6
REMARK VINA RESULT:      -3.5     11.461     11.988
REMARK  2 active torsions:
REMARK  status: ('A' for Active; 'I' for Inactive)
REMARK    1  A    between atoms: C1_1  and  C5_5 
REMARK    2  A    between atoms: C1_1  and  C6_6 
ROOT
HETATM    1  C2  UNL     1     -33.998  14.862  -5.769  1.00 20.00     0.023 C 
HETATM    2  C3  UNL     1     -32.984  15.890  -5.299  1.00 20.00     0.075 C 
HETATM    3  C4  UNL     1     -35.353  15.915  -4.033  1.00 20.00     0.086 C 
HETATM    4  C5  UNL     1     -34.900  14.567  -4.577  1.00 20.00     0.066 C 
HETATM    5  S8  UNL     1     -33.917  17.008  -4.220  1.00 20.00    -0.168 SA
ENDROOT
BRANCH   4   6
HETATM    6  C1  UNL     1     -36.069  13.737  -5.001  1.00 20.00     0.145 C 
HETATM    7  O7  UNL     1     -35.919  12.555  -5.307  1.00 20.00    -0.296 OA
BRANCH   6   8
HETATM    8  C6  UNL     1     -37.403  14.446  -5.026  1.00 20.00     0.193 C 
HETATM    9 CL9  UNL     1     -37.725  15.118  -6.631  1.00 20.00    -0.123 Cl
ENDBRANCH   6   8
ENDBRANCH   4   6
TORSDOF 2
ENDMDL
MODEL 7
REMARK VINA RESULT:      -3.5      3.515      4.416
REMARK  2 active torsions:
REMARK  status: ('A' for Active; 'I' for Inactive)
REMARK    1  A    between atoms: C1_1  and  C5_5 
REMARK    2  A    between atoms: C1_1  and  C6_6 
ROOT
HETATM    1  C2  UNL     1     -33.223   7.415   5.209  1.00 20.00     0.023 C 
HETATM    2  C3  UNL     1     -32.174   8.448   4.835  1.00 20.00     0.075 C 
HETATM    3  C4  UNL     1     -33.109   6.940   2.818  1.00 20.00     0.086 C 
HETATM    4  C5  UNL     1     -34.076   7.194   3.966  1.00 20.00     0.066 C 
HETATM    5  S8  UNL     1     -31.698   8.036   3.135  1.00 20.00    -0.168 SA
ENDROOT
BRANCH   4   6
HETATM    6  C1  UNL     1     -34.993   6.030   4.164  1.00 20.00     0.145 C 
HETATM    7  O7  UNL     1     -36.025   5.927   3.501  1.00 20.00    -0.296 OA
BRANCH   6   8
HETATM    8  C6  UNL     1     -34.566   5.028   5.210  1.00 20.00     0.193 C 
HETATM    9 CL9  UNL     1     -33.849   3.598   4.452  1.00 20.00    -0.123 Cl
ENDBRANCH   6   8
ENDBRANCH   4   6
TORSDOF 2
ENDMDL
MODEL 8
REMARK VINA RESULT:      -3.5     10.967     11.441
REMARK  2 active torsions:
REMARK  status: ('A' for Active; 'I' for Inactive)
REMARK    1  A    between atoms: C1_1  and  C5_5 
REMARK    2  A    between atoms: C1_1  and  C6_6 
ROOT
HETATM    1  C2  UNL     1     -35.583  15.869  -4.164  1.00 20.00     0.023 C 
HETATM    2  C3  UNL     1     -37.092  15.724  -4.072  1.00 20.00     0.075 C 
HETATM    3  C4  UNL     1     -35.795  13.723  -5.308  1.00 20.00     0.086 C 
HETATM    4  C5  UNL     1     -35.016  14.455  -4.225  1.00 20.00     0.066 C 
HETATM    5  S8  UNL     1     -37.497  14.336  -5.164  1.00 20.00    -0.168 SA
ENDROOT
BRANCH   4   6
HETATM    6  C1  UNL     1     -33.556  14.494  -4.545  1.00 20.00     0.145 C 
HETATM    7  O7  UNL     1     -32.827  13.545  -4.256  1.00 20.00    -0.296 OA
BRANCH   6   8
HETATM    8  C6  UNL     1     -33.065  15.750  -5.226  1.00 20.00     0.193 C 
HETATM    9 CL9  UNL     1     -33.379  15.683  -6.966  1.00 20.00    -0.123 Cl
ENDBRANCH   6   8
ENDBRANCH   4   6
TORSDOF 2
ENDMDL
MODEL 9
REMARK VINA RESULT:      -3.4     11.250     11.642
REMARK  2 active torsions:
REMARK  status: ('A' for Active; 'I' for Inactive)
REMARK    1  A    between atoms: C1_1  and  C5_5 
REMARK    2  A    between atoms: C1_1  and  C6_6 
ROOT
HETATM    1  C2  UNL     1     -33.894  17.268  -1.225  1.00 20.00     0.023 C 
HETATM    2  C3  UNL     1     -35.380  17.214  -1.537  1.00 20.00     0.075 C 
HETATM    3  C4  UNL     1     -34.679  18.704   0.586  1.00 20.00     0.086 C 
HETATM    4  C5  UNL     1     -33.646  18.600  -0.528  1.00 20.00     0.066 C 
HETATM    5  S8  UNL     1     -36.188  17.960  -0.096  1.00 20.00    -0.168 SA
ENDROOT
BRANCH   4   6
HETATM    6  C1  UNL     1     -32.257  18.649   0.022  1.00 20.00     0.145 C 
HETATM    7  O7  UNL     1     -31.301  18.283  -0.661  1.00 20.00    -0.296 OA
BRANCH   6   8
HETATM    8  C6  UNL     1     -32.127  19.164   1.436  1.00 20.00     0.193 C 
HETATM    9 CL9  UNL     1     -30.580  18.673   2.142  1.00 20.00    -0.123 Cl
ENDBRANCH   6   8
ENDBRANCH   4   6
TORSDOF 2
ENDMDL
