MODEL 1
REMARK VINA RESULT:      -5.2      0.000      0.000
REMARK  4 active torsions:
REMARK  status: ('A' for Active; 'I' for Inactive)
REMARK    1  A    between atoms: C1_1  and  C6_6 
REMARK    2  A    between atoms: C2_2  and  C7_7 
REMARK    3  A    between atoms: C6_6  and  S9_9 
REMARK    4  A    between atoms: C8_8  and  S9_9 
ROOT
HETATM    1  C6  UNL     1     -32.341   7.279   3.186  1.00 20.00     0.101 C 
ENDROOT
BRANCH   1   2
HETATM    2  C1  UNL     1     -32.715   8.162   2.038  1.00 20.00    -0.020 C 
HETATM    3  C2  UNL     1     -32.193   9.380   1.835  1.00 20.00    -0.015 C 
BRANCH   3   4
HETATM    4  C7  UNL     1     -32.561  10.258   0.685  1.00 20.00     0.141 C 
HETATM    5 CL10 UNL     1     -33.181   9.271  -0.655  1.00 20.00    -0.126 Cl
ENDBRANCH   3   4
ENDBRANCH   1   2
BRANCH   1   6
HETATM    6  S9  UNL     1     -33.073   5.643   2.976  1.00 20.00    -0.156 SA
BRANCH   6   7
HETATM    7  C8  UNL     1     -34.332   5.762   4.305  1.00 20.00    -0.003 C 
HETATM    8  C3  UNL     1     -33.907   6.859   5.286  1.00 20.00     0.026 C 
HETATM    9  C4  UNL     1     -35.678   6.113   3.665  1.00 20.00     0.026 C 
HETATM   10  C5  UNL     1     -34.419   4.411   5.021  1.00 20.00     0.026 C 
ENDBRANCH   6   7
ENDBRANCH   1   6
TORSDOF 4
ENDMDL
MODEL 2
REMARK VINA RESULT:      -4.2      2.973      5.413
REMARK  4 active torsions:
REMARK  status: ('A' for Active; 'I' for Inactive)
REMARK    1  A    between atoms: C1_1  and  C6_6 
REMARK    2  A    between atoms: C2_2  and  C7_7 
REMARK    3  A    between atoms: C6_6  and  S9_9 
REMARK    4  A    between atoms: C8_8  and  S9_9 
ROOT
HETATM    1  C6  UNL     1     -31.993   8.265   3.235  1.00 20.00     0.101 C 
ENDROOT
BRANCH   1   2
HETATM    2  C1  UNL     1     -32.551   7.728   4.515  1.00 20.00    -0.020 C 
HETATM    3  C2  UNL     1     -33.717   7.070   4.601  1.00 20.00    -0.015 C 
BRANCH   3   4
HETATM    4  C7  UNL     1     -34.270   6.527   5.876  1.00 20.00     0.141 C 
HETATM    5 CL10 UNL     1     -34.602   4.791   5.702  1.00 20.00    -0.126 Cl
ENDBRANCH   3   4
ENDBRANCH   1   2
BRANCH   1   6
HETATM    6  S9  UNL     1     -33.214   8.116   1.915  1.00 20.00    -0.156 SA
BRANCH   6   7
HETATM    7  C8  UNL     1     -32.461   9.312   0.745  1.00 20.00    -0.003 C 
HETATM    8  C3  UNL     1     -32.481  10.704   1.385  1.00 20.00     0.026 C 
HETATM    9  C4  UNL     1     -31.019   8.875   0.470  1.00 20.00     0.026 C 
HETATM   10  C5  UNL     1     -33.274   9.310  -0.553  1.00 20.00     0.026 C 
ENDBRANCH   6   7
ENDBRANCH   1   6
TORSDOF 4
ENDMDL
MODEL 3
REMARK VINA RESULT:      -4.2      2.977      5.429
REMARK  4 active torsions:
REMARK  status: ('A' for Active; 'I' for Inactive)
REMARK    1  A    between atoms: C1_1  and  C6_6 
REMARK    2  A    between atoms: C2_2  and  C7_7 
REMARK    3  A    between atoms: C6_6  and  S9_9 
REMARK    4  A    between atoms: C8_8  and  S9_9 
ROOT
HETATM    1  C6  UNL     1     -31.965   8.209   3.180  1.00 20.00     0.101 C 
ENDROOT
BRANCH   1   2
HETATM    2  C1  UNL     1     -32.513   7.700   4.476  1.00 20.00    -0.020 C 
HETATM    3  C2  UNL     1     -33.687   7.060   4.587  1.00 20.00    -0.015 C 
BRANCH   3   4
HETATM    4  C7  UNL     1     -34.230   6.546   5.879  1.00 20.00     0.141 C 
HETATM    5 CL10 UNL     1     -34.639   4.825   5.720  1.00 20.00    -0.126 Cl
ENDBRANCH   3   4
ENDBRANCH   1   2
BRANCH   1   6
HETATM    6  S9  UNL     1     -33.236   8.145   1.900  1.00 20.00    -0.156 SA
BRANCH   6   7
HETATM    7  C8  UNL     1     -32.463   9.323   0.725  1.00 20.00    -0.003 C 
HETATM    8  C3  UNL     1     -33.268   9.315  -0.578  1.00 20.00     0.026 C 
HETATM    9  C4  UNL     1     -32.486  10.719   1.356  1.00 20.00     0.026 C 
HETATM   10  C5  UNL     1     -31.020   8.882   0.464  1.00 20.00     0.026 C 
ENDBRANCH   6   7
ENDBRANCH   1   6
TORSDOF 4
ENDMDL
MODEL 4
REMARK VINA RESULT:      -4.1      2.996      5.411
REMARK  4 active torsions:
REMARK  status: ('A' for Active; 'I' for Inactive)
REMARK    1  A    between atoms: C1_1  and  C6_6 
REMARK    2  A    between atoms: C2_2  and  C7_7 
REMARK    3  A    between atoms: C6_6  and  S9_9 
REMARK    4  A    between atoms: C8_8  and  S9_9 
ROOT
HETATM    1  C6  UNL     1     -31.962   8.267   3.216  1.00 20.00     0.101 C 
ENDROOT
BRANCH   1   2
HETATM    2  C1  UNL     1     -32.549   7.815   4.515  1.00 20.00    -0.020 C 
HETATM    3  C2  UNL     1     -33.630   7.027   4.610  1.00 20.00    -0.015 C 
BRANCH   3   4
HETATM    4  C7  UNL     1     -34.211   6.570   5.907  1.00 20.00     0.141 C 
HETATM    5 CL10 UNL     1     -34.676   4.860   5.793  1.00 20.00    -0.126 Cl
ENDBRANCH   3   4
ENDBRANCH   1   2
BRANCH   1   6
HETATM    6  S9  UNL     1     -33.186   8.120   1.898  1.00 20.00    -0.156 SA
BRANCH   6   7
HETATM    7  C8  UNL     1     -32.432   9.313   0.725  1.00 20.00    -0.003 C 
HETATM    8  C3  UNL     1     -30.988   8.882   0.448  1.00 20.00     0.026 C 
HETATM    9  C4  UNL     1     -33.249   9.299  -0.570  1.00 20.00     0.026 C 
HETATM   10  C5  UNL     1     -32.460  10.708   1.357  1.00 20.00     0.026 C 
ENDBRANCH   6   7
ENDBRANCH   1   6
TORSDOF 4
ENDMDL
MODEL 5
REMARK VINA RESULT:      -3.7     10.889     11.554
REMARK  4 active torsions:
REMARK  status: ('A' for Active; 'I' for Inactive)
REMARK    1  A    between atoms: C1_1  and  C6_6 
REMARK    2  A    between atoms: C2_2  and  C7_7 
REMARK    3  A    between atoms: C6_6  and  S9_9 
REMARK    4  A    between atoms: C8_8  and  S9_9 
ROOT
HETATM    1  C6  UNL     1     -35.345  16.147  -2.924  1.00 20.00     0.101 C 
ENDROOT
BRANCH   1   2
HETATM    2  C1  UNL     1     -34.581  16.895  -1.878  1.00 20.00    -0.020 C 
HETATM    3  C2  UNL     1     -33.379  17.451  -2.090  1.00 20.00    -0.015 C 
BRANCH   3   4
HETATM    4  C7  UNL     1     -32.619  18.203  -1.048  1.00 20.00     0.141 C 
HETATM    5 CL10 UNL     1     -33.615  18.387   0.411  1.00 20.00    -0.126 Cl
ENDBRANCH   3   4
ENDBRANCH   1   2
BRANCH   1   6
HETATM    6  S9  UNL     1     -34.738  16.582  -4.567  1.00 20.00    -0.156 SA
BRANCH   6   7
HETATM    7  C8  UNL     1     -34.263  14.896  -5.110  1.00 20.00    -0.003 C 
HETATM    8  C3  UNL     1     -32.963  14.501  -4.403  1.00 20.00     0.026 C 
HETATM    9  C4  UNL     1     -35.389  13.931  -4.729  1.00 20.00     0.026 C 
HETATM   10  C5  UNL     1     -34.063  14.906  -6.629  1.00 20.00     0.026 C 
ENDBRANCH   6   7
ENDBRANCH   1   6
TORSDOF 4
ENDMDL
MODEL 6
REMARK VINA RESULT:      -3.6     10.871     11.599
REMARK  4 active torsions:
REMARK  status: ('A' for Active; 'I' for Inactive)
REMARK    1  A    between atoms: C1_1  and  C6_6 
REMARK    2  A    between atoms: C2_2  and  C7_7 
REMARK    3  A    between atoms: C6_6  and  S9_9 
REMARK    4  A    between atoms: C8_8  and  S9_9 
ROOT
HETATM    1  C6  UNL     1     -33.479  16.241  -4.507  1.00 20.00     0.101 C 
ENDROOT
BRANCH   1   2
HETATM    2  C1  UNL     1     -33.784  16.671  -3.108  1.00 20.00    -0.020 C 
HETATM    3  C2  UNL     1     -34.980  16.507  -2.523  1.00 20.00    -0.015 C 
BRANCH   3   4
HETATM    4  C7  UNL     1     -35.283  16.930  -1.124  1.00 20.00     0.141 C 
HETATM    5 CL10 UNL     1     -33.931  17.881  -0.473  1.00 20.00    -0.126 Cl
ENDBRANCH   3   4
ENDBRANCH   1   2
BRANCH   1   6
HETATM    6  S9  UNL     1     -33.567  14.443  -4.637  1.00 20.00    -0.156 SA
BRANCH   6   7
HETATM    7  C8  UNL     1     -34.929  14.350  -5.863  1.00 20.00    -0.003 C 
HETATM    8  C3  UNL     1     -36.101  13.589  -5.237  1.00 20.00     0.026 C 
HETATM    9  C4  UNL     1     -35.352  15.777  -6.223  1.00 20.00     0.026 C 
HETATM   10  C5  UNL     1     -34.420  13.616  -7.108  1.00 20.00     0.026 C 
ENDBRANCH   6   7
ENDBRANCH   1   6
TORSDOF 4
ENDMDL
MODEL 7
REMARK VINA RESULT:      -3.6     10.878     11.597
REMARK  4 active torsions:
REMARK  status: ('A' for Active; 'I' for Inactive)
REMARK    1  A    between atoms: C1_1  and  C6_6 
REMARK    2  A    between atoms: C2_2  and  C7_7 
REMARK    3  A    between atoms: C6_6  and  S9_9 
REMARK    4  A    between atoms: C8_8  and  S9_9 
ROOT
HETATM    1  C6  UNL     1     -36.323  16.037  -3.811  1.00 20.00     0.101 C 
ENDROOT
BRANCH   1   2
HETATM    2  C1  UNL     1     -35.872  16.653  -2.524  1.00 20.00    -0.020 C 
HETATM    3  C2  UNL     1     -34.585  16.861  -2.209  1.00 20.00    -0.015 C 
BRANCH   3   4
HETATM    4  C7  UNL     1     -34.136  17.482  -0.928  1.00 20.00     0.141 C 
HETATM    5 CL10 UNL     1     -32.498  18.141  -1.117  1.00 20.00    -0.126 Cl
ENDBRANCH   3   4
ENDBRANCH   1   2
BRANCH   1   6
HETATM    6  S9  UNL     1     -35.108  16.350  -5.108  1.00 20.00    -0.156 SA
BRANCH   6   7
HETATM    7  C8  UNL     1     -34.541  14.621  -5.340  1.00 20.00    -0.003 C 
HETATM    8  C3  UNL     1     -34.230  14.402  -6.823  1.00 20.00     0.026 C 
HETATM    9  C4  UNL     1     -33.282  14.408  -4.495  1.00 20.00     0.026 C 
HETATM   10  C5  UNL     1     -35.655  13.674  -4.883  1.00 20.00     0.026 C 
ENDBRANCH   6   7
ENDBRANCH   1   6
TORSDOF 4
ENDMDL
MODEL 8
REMARK VINA RESULT:      -3.6     10.763     11.488
REMARK  4 active torsions:
REMARK  status: ('A' for Active; 'I' for Inactive)
REMARK    1  A    between atoms: C1_1  and  C6_6 
REMARK    2  A    between atoms: C2_2  and  C7_7 
REMARK    3  A    between atoms: C6_6  and  S9_9 
REMARK    4  A    between atoms: C8_8  and  S9_9 
ROOT
HETATM    1  C6  UNL     1     -33.630  16.690  -3.312  1.00 20.00     0.101 C 
ENDROOT
BRANCH   1   2
HETATM    2  C1  UNL     1     -33.959  17.076  -1.905  1.00 20.00    -0.020 C 
HETATM    3  C2  UNL     1     -35.192  17.006  -1.383  1.00 20.00    -0.015 C 
BRANCH   3   4
HETATM    4  C7  UNL     1     -35.519  17.385   0.023  1.00 20.00     0.141 C 
HETATM    5 CL10 UNL     1     -34.181  18.318   0.725  1.00 20.00    -0.126 Cl
ENDBRANCH   3   4
ENDBRANCH   1   2
BRANCH   1   6
HETATM    6  S9  UNL     1     -35.141  16.302  -4.219  1.00 20.00    -0.156 SA
BRANCH   6   7
HETATM    7  C8  UNL     1     -34.542  14.785  -5.060  1.00 20.00    -0.003 C 
HETATM    8  C3  UNL     1     -35.619  13.702  -4.944  1.00 20.00     0.026 C 
HETATM    9  C4  UNL     1     -34.282  15.120  -6.532  1.00 20.00     0.026 C 
HETATM   10  C5  UNL     1     -33.248  14.326  -4.383  1.00 20.00     0.026 C 
ENDBRANCH   6   7
ENDBRANCH   1   6
TORSDOF 4
ENDMDL
MODEL 9
REMARK VINA RESULT:      -3.3     10.876     11.695
REMARK  4 active torsions:
REMARK  status: ('A' for Active; 'I' for Inactive)
REMARK    1  A    between atoms: C1_1  and  C6_6 
REMARK    2  A    between atoms: C2_2  and  C7_7 
REMARK    3  A    between atoms: C6_6  and  S9_9 
REMARK    4  A    between atoms: C8_8  and  S9_9 
ROOT
HETATM    1  C6  UNL     1     -33.542  15.736  -3.715  1.00 20.00     0.101 C 
ENDROOT
BRANCH   1   2
HETATM    2  C1  UNL     1     -34.269  14.991  -4.790  1.00 20.00    -0.020 C 
HETATM    3  C2  UNL     1     -35.228  14.086  -4.550  1.00 20.00    -0.015 C 
BRANCH   3   4
HETATM    4  C7  UNL     1     -35.958  13.348  -5.622  1.00 20.00     0.141 C 
HETATM    5 CL10 UNL     1     -34.939  13.223  -7.072  1.00 20.00    -0.126 Cl
ENDBRANCH   3   4
ENDBRANCH   1   2
BRANCH   1   6
HETATM    6  S9  UNL     1     -33.783  17.513  -3.919  1.00 20.00    -0.156 SA
BRANCH   6   7
HETATM    7  C8  UNL     1     -34.171  17.912  -2.171  1.00 20.00    -0.003 C 
HETATM    8  C3  UNL     1     -34.896  19.261  -2.125  1.00 20.00     0.026 C 
HETATM    9  C4  UNL     1     -35.070  16.806  -1.611  1.00 20.00     0.026 C 
HETATM   10  C5  UNL     1     -32.861  17.984  -1.381  1.00 20.00     0.026 C 
ENDBRANCH   6   7
ENDBRANCH   1   6
TORSDOF 4
ENDMDL
