MODEL 1
REMARK VINA RESULT:      -6.0      0.000      0.000
REMARK  4 active torsions:
REMARK  status: ('A' for Active; 'I' for Inactive)
REMARK    1  A    between atoms: C4_4  and  C5_5 
REMARK    2  A    between atoms: C5_5  and  C6_6 
REMARK    3  A    between atoms: C6_6  and  C8_8 
REMARK    4  A    between atoms: C7_7  and  C8_8 
ROOT
HETATM    1  C1  UNL     1     -32.835  10.250   1.031  1.00 20.00     0.012 C 
HETATM    2  C2  UNL     1     -32.407   9.229   1.495  1.00 20.00    -0.117 C 
HETATM    3  C4  UNL     1     -31.881   7.979   2.059  1.00 20.00     0.093 C 
ENDROOT
BRANCH   3   4
HETATM    4  C5  UNL     1     -32.423   7.704   3.465  1.00 20.00     0.012 C 
BRANCH   4   5
HETATM    5  C6  UNL     1     -33.576   6.692   3.468  1.00 20.00     0.006 C 
BRANCH   5   6
HETATM    6  C8  UNL     1     -34.339   6.633   4.809  1.00 20.00    -0.005 C 
HETATM    7  C3  UNL     1     -33.568   7.419   5.876  1.00 20.00     0.011 C 
BRANCH   6   8
HETATM    8  C7  UNL     1     -34.671   5.212   5.294  1.00 20.00     0.119 C 
HETATM    9 CL9  UNL     1     -34.123   3.934   4.185  1.00 20.00    -0.130 Cl
ENDBRANCH   6   8
ENDBRANCH   5   6
ENDBRANCH   4   5
ENDBRANCH   3   4
TORSDOF 4
ENDMDL
MODEL 2
REMARK VINA RESULT:      -5.6      2.568      4.675
REMARK  4 active torsions:
REMARK  status: ('A' for Active; 'I' for Inactive)
REMARK    1  A    between atoms: C4_4  and  C5_5 
REMARK    2  A    between atoms: C5_5  and  C6_6 
REMARK    3  A    between atoms: C6_6  and  C8_8 
REMARK    4  A    between atoms: C7_7  and  C8_8 
ROOT
HETATM    1  C1  UNL     1     -33.853   7.248   6.074  1.00 20.00     0.012 C 
HETATM    2  C2  UNL     1     -34.130   6.524   5.157  1.00 20.00    -0.117 C 
HETATM    3  C4  UNL     1     -34.472   5.638   4.036  1.00 20.00     0.093 C 
ENDROOT
BRANCH   3   4
HETATM    4  C5  UNL     1     -33.605   5.902   2.802  1.00 20.00     0.012 C 
BRANCH   4   5
HETATM    5  C6  UNL     1     -33.480   7.396   2.475  1.00 20.00     0.006 C 
BRANCH   5   6
HETATM    6  C8  UNL     1     -32.028   7.848   2.212  1.00 20.00    -0.005 C 
HETATM    7  C3  UNL     1     -31.416   8.399   3.506  1.00 20.00     0.011 C 
BRANCH   6   8
HETATM    8  C7  UNL     1     -31.867   8.843   1.051  1.00 20.00     0.119 C 
HETATM    9 CL9  UNL     1     -32.854  10.312   1.230  1.00 20.00    -0.130 Cl
ENDBRANCH   6   8
ENDBRANCH   5   6
ENDBRANCH   4   5
ENDBRANCH   3   4
TORSDOF 4
ENDMDL
MODEL 3
REMARK VINA RESULT:      -5.5      2.450      4.464
REMARK  4 active torsions:
REMARK  status: ('A' for Active; 'I' for Inactive)
REMARK    1  A    between atoms: C4_4  and  C5_5 
REMARK    2  A    between atoms: C5_5  and  C6_6 
REMARK    3  A    between atoms: C6_6  and  C8_8 
REMARK    4  A    between atoms: C7_7  and  C8_8 
ROOT
HETATM    1  C1  UNL     1     -33.667   7.676   6.119  1.00 20.00     0.012 C 
HETATM    2  C2  UNL     1     -34.081   6.557   5.982  1.00 20.00    -0.117 C 
HETATM    3  C4  UNL     1     -34.587   5.188   5.819  1.00 20.00     0.093 C 
ENDROOT
BRANCH   3   4
HETATM    4  C5  UNL     1     -34.855   4.840   4.351  1.00 20.00     0.012 C 
BRANCH   4   5
HETATM    5  C6  UNL     1     -34.794   6.066   3.431  1.00 20.00     0.006 C 
BRANCH   5   6
HETATM    6  C8  UNL     1     -33.560   6.079   2.505  1.00 20.00    -0.005 C 
HETATM    7  C3  UNL     1     -32.891   4.699   2.516  1.00 20.00     0.011 C 
BRANCH   6   8
HETATM    8  C7  UNL     1     -32.545   7.194   2.807  1.00 20.00     0.119 C 
HETATM    9 CL9  UNL     1     -32.530   8.492   1.590  1.00 20.00    -0.130 Cl
ENDBRANCH   6   8
ENDBRANCH   5   6
ENDBRANCH   4   5
ENDBRANCH   3   4
TORSDOF 4
ENDMDL
MODEL 4
REMARK VINA RESULT:      -5.4      2.498      4.834
REMARK  4 active torsions:
REMARK  status: ('A' for Active; 'I' for Inactive)
REMARK    1  A    between atoms: C4_4  and  C5_5 
REMARK    2  A    between atoms: C5_5  and  C6_6 
REMARK    3  A    between atoms: C6_6  and  C8_8 
REMARK    4  A    between atoms: C7_7  and  C8_8 
ROOT
HETATM    1  C1  UNL     1     -34.406   4.022   4.509  1.00 20.00     0.012 C 
HETATM    2  C2  UNL     1     -34.396   5.062   5.109  1.00 20.00    -0.117 C 
HETATM    3  C4  UNL     1     -34.385   6.333   5.847  1.00 20.00     0.093 C 
ENDROOT
BRANCH   3   4
HETATM    4  C5  UNL     1     -33.550   7.405   5.142  1.00 20.00     0.012 C 
BRANCH   4   5
HETATM    5  C6  UNL     1     -33.748   7.406   3.621  1.00 20.00     0.006 C 
BRANCH   5   6
HETATM    6  C8  UNL     1     -32.438   7.611   2.830  1.00 20.00    -0.005 C 
HETATM    7  C3  UNL     1     -31.416   8.346   3.706  1.00 20.00     0.011 C 
BRANCH   6   8
HETATM    8  C7  UNL     1     -32.613   8.309   1.471  1.00 20.00     0.119 C 
HETATM    9 CL9  UNL     1     -32.464  10.080   1.556  1.00 20.00    -0.130 Cl
ENDBRANCH   6   8
ENDBRANCH   5   6
ENDBRANCH   4   5
ENDBRANCH   3   4
TORSDOF 4
ENDMDL
MODEL 5
REMARK VINA RESULT:      -5.4      1.449      1.962
REMARK  4 active torsions:
REMARK  status: ('A' for Active; 'I' for Inactive)
REMARK    1  A    between atoms: C4_4  and  C5_5 
REMARK    2  A    between atoms: C5_5  and  C6_6 
REMARK    3  A    between atoms: C6_6  and  C8_8 
REMARK    4  A    between atoms: C7_7  and  C8_8 
ROOT
HETATM    1  C1  UNL     1     -33.176   9.364  -0.450  1.00 20.00     0.012 C 
HETATM    2  C2  UNL     1     -32.623   9.320   0.615  1.00 20.00    -0.117 C 
HETATM    3  C4  UNL     1     -31.947   9.270   1.919  1.00 20.00     0.093 C 
ENDROOT
BRANCH   3   4
HETATM    4  C5  UNL     1     -31.992   7.872   2.542  1.00 20.00     0.012 C 
BRANCH   4   5
HETATM    5  C6  UNL     1     -33.423   7.369   2.769  1.00 20.00     0.006 C 
BRANCH   5   6
HETATM    6  C8  UNL     1     -33.489   6.003   3.483  1.00 20.00    -0.005 C 
HETATM    7  C3  UNL     1     -33.044   4.895   2.520  1.00 20.00     0.011 C 
BRANCH   6   8
HETATM    8  C7  UNL     1     -34.851   5.677   4.118  1.00 20.00     0.119 C 
HETATM    9 CL9  UNL     1     -34.741   5.170   5.820  1.00 20.00    -0.130 Cl
ENDBRANCH   6   8
ENDBRANCH   5   6
ENDBRANCH   4   5
ENDBRANCH   3   4
TORSDOF 4
ENDMDL
MODEL 6
REMARK VINA RESULT:      -5.0      2.608      4.966
REMARK  4 active torsions:
REMARK  status: ('A' for Active; 'I' for Inactive)
REMARK    1  A    between atoms: C4_4  and  C5_5 
REMARK    2  A    between atoms: C5_5  and  C6_6 
REMARK    3  A    between atoms: C6_6  and  C8_8 
REMARK    4  A    between atoms: C7_7  and  C8_8 
ROOT
HETATM    1  C1  UNL     1     -34.466   4.571   5.742  1.00 20.00     0.012 C 
HETATM    2  C2  UNL     1     -34.680   5.243   4.770  1.00 20.00    -0.117 C 
HETATM    3  C4  UNL     1     -34.947   6.064   3.582  1.00 20.00     0.093 C 
ENDROOT
BRANCH   3   4
HETATM    4  C5  UNL     1     -33.958   7.226   3.446  1.00 20.00     0.012 C 
BRANCH   4   5
HETATM    5  C6  UNL     1     -32.948   7.015   2.311  1.00 20.00     0.006 C 
BRANCH   5   6
HETATM    6  C8  UNL     1     -31.948   8.180   2.154  1.00 20.00    -0.005 C 
HETATM    7  C3  UNL     1     -31.312   8.501   3.512  1.00 20.00     0.011 C 
BRANCH   6   8
HETATM    8  C7  UNL     1     -32.532   9.442   1.499  1.00 20.00     0.119 C 
HETATM    9 CL9  UNL     1     -32.871   9.252  -0.237  1.00 20.00    -0.130 Cl
ENDBRANCH   6   8
ENDBRANCH   5   6
ENDBRANCH   4   5
ENDBRANCH   3   4
TORSDOF 4
ENDMDL
MODEL 7
REMARK VINA RESULT:      -5.0      1.207      4.242
REMARK  4 active torsions:
REMARK  status: ('A' for Active; 'I' for Inactive)
REMARK    1  A    between atoms: C4_4  and  C5_5 
REMARK    2  A    between atoms: C5_5  and  C6_6 
REMARK    3  A    between atoms: C6_6  and  C8_8 
REMARK    4  A    between atoms: C7_7  and  C8_8 
ROOT
HETATM    1  C1  UNL     1     -34.808   4.759   5.577  1.00 20.00     0.012 C 
HETATM    2  C2  UNL     1     -34.333   5.845   5.770  1.00 20.00    -0.117 C 
HETATM    3  C4  UNL     1     -33.751   7.172   6.009  1.00 20.00     0.093 C 
ENDROOT
BRANCH   3   4
HETATM    4  C5  UNL     1     -33.628   7.992   4.722  1.00 20.00     0.012 C 
BRANCH   4   5
HETATM    5  C6  UNL     1     -32.232   7.904   4.093  1.00 20.00     0.006 C 
BRANCH   5   6
HETATM    6  C8  UNL     1     -32.246   7.415   2.630  1.00 20.00    -0.005 C 
HETATM    7  C3  UNL     1     -32.274   8.621   1.683  1.00 20.00     0.011 C 
BRANCH   6   8
HETATM    8  C7  UNL     1     -33.370   6.419   2.298  1.00 20.00     0.119 C 
HETATM    9 CL9  UNL     1     -32.921   4.720   2.574  1.00 20.00    -0.130 Cl
ENDBRANCH   6   8
ENDBRANCH   5   6
ENDBRANCH   4   5
ENDBRANCH   3   4
TORSDOF 4
ENDMDL
MODEL 8
REMARK VINA RESULT:      -4.8      2.611      5.076
REMARK  4 active torsions:
REMARK  status: ('A' for Active; 'I' for Inactive)
REMARK    1  A    between atoms: C4_4  and  C5_5 
REMARK    2  A    between atoms: C5_5  and  C6_6 
REMARK    3  A    between atoms: C6_6  and  C8_8 
REMARK    4  A    between atoms: C7_7  and  C8_8 
ROOT
HETATM    1  C1  UNL     1     -34.725   4.798   4.564  1.00 20.00     0.012 C 
HETATM    2  C2  UNL     1     -34.272   5.895   4.382  1.00 20.00    -0.117 C 
HETATM    3  C4  UNL     1     -33.717   7.238   4.163  1.00 20.00     0.093 C 
ENDROOT
BRANCH   3   4
HETATM    4  C5  UNL     1     -33.026   7.365   2.803  1.00 20.00     0.012 C 
BRANCH   4   5
HETATM    5  C6  UNL     1     -31.836   8.333   2.831  1.00 20.00     0.006 C 
BRANCH   5   6
HETATM    6  C8  UNL     1     -31.817   9.318   1.643  1.00 20.00    -0.005 C 
HETATM    7  C3  UNL     1     -32.956  10.333   1.795  1.00 20.00     0.011 C 
BRANCH   6   8
HETATM    8  C7  UNL     1     -31.845   8.652   0.258  1.00 20.00     0.119 C 
HETATM    9 CL9  UNL     1     -33.174   9.220  -0.779  1.00 20.00    -0.130 Cl
ENDBRANCH   6   8
ENDBRANCH   5   6
ENDBRANCH   4   5
ENDBRANCH   3   4
TORSDOF 4
ENDMDL
MODEL 9
REMARK VINA RESULT:      -4.8      2.016      4.475
REMARK  4 active torsions:
REMARK  status: ('A' for Active; 'I' for Inactive)
REMARK    1  A    between atoms: C4_4  and  C5_5 
REMARK    2  A    between atoms: C5_5  and  C6_6 
REMARK    3  A    between atoms: C6_6  and  C8_8 
REMARK    4  A    between atoms: C7_7  and  C8_8 
ROOT
HETATM    1  C1  UNL     1     -34.557   4.847   5.844  1.00 20.00     0.012 C 
HETATM    2  C2  UNL     1     -34.826   5.389   4.807  1.00 20.00    -0.117 C 
HETATM    3  C4  UNL     1     -35.158   6.055   3.540  1.00 20.00     0.093 C 
ENDROOT
BRANCH   3   4
HETATM    4  C5  UNL     1     -34.129   5.762   2.444  1.00 20.00     0.012 C 
BRANCH   4   5
HETATM    5  C6  UNL     1     -32.719   6.243   2.811  1.00 20.00     0.006 C 
BRANCH   5   6
HETATM    6  C8  UNL     1     -32.600   7.779   2.911  1.00 20.00    -0.005 C 
HETATM    7  C3  UNL     1     -31.896   8.325   1.663  1.00 20.00     0.011 C 
BRANCH   6   8
HETATM    8  C7  UNL     1     -31.928   8.286   4.197  1.00 20.00     0.119 C 
HETATM    9 CL9  UNL     1     -32.885   7.987   5.667  1.00 20.00    -0.130 Cl
ENDBRANCH   6   8
ENDBRANCH   5   6
ENDBRANCH   4   5
ENDBRANCH   3   4
TORSDOF 4
ENDMDL
