MODEL 1
REMARK VINA RESULT:      -5.0      0.000      0.000
REMARK  1 active torsions:
REMARK  status: ('A' for Active; 'I' for Inactive)
REMARK    1  A    between atoms: C2_2  and  C6_6 
ROOT
HETATM    1  C1  UNL     1     -35.097   6.212   3.360  1.00 20.00     0.015 A 
HETATM    2  C2  UNL     1     -33.593   6.247   3.344  1.00 20.00     0.008 A 
HETATM    3  C3  UNL     1     -34.323   5.531   4.470  1.00 20.00    -0.043 A 
HETATM    4  C4  UNL     1     -34.272   4.026   4.473  1.00 20.00     0.015 C 
HETATM    5  C5  UNL     1     -34.372   6.143   5.845  1.00 20.00     0.015 C 
ENDROOT
BRANCH   2   6
HETATM    6  C6  UNL     1     -32.867   7.534   3.544  1.00 20.00     0.120 C 
HETATM    7 CL7  UNL     1     -32.081   8.073   2.036  1.00 20.00    -0.130 Cl
ENDBRANCH   2   6
TORSDOF 1
ENDMDL
MODEL 2
REMARK VINA RESULT:      -4.7      2.505      3.665
REMARK  1 active torsions:
REMARK  status: ('A' for Active; 'I' for Inactive)
REMARK    1  A    between atoms: C2_2  and  C6_6 
ROOT
HETATM    1  C1  UNL     1     -32.928   6.273   2.886  1.00 20.00     0.015 A 
HETATM    2  C2  UNL     1     -33.791   7.208   3.688  1.00 20.00     0.008 A 
HETATM    3  C3  UNL     1     -32.578   7.745   2.944  1.00 20.00    -0.043 A 
HETATM    4  C4  UNL     1     -32.839   8.581   1.719  1.00 20.00     0.015 C 
HETATM    5  C5  UNL     1     -31.343   8.149   3.706  1.00 20.00     0.015 C 
ENDROOT
BRANCH   2   6
HETATM    6  C6  UNL     1     -33.840   7.099   5.174  1.00 20.00     0.120 C 
HETATM    7 CL7  UNL     1     -34.541   5.538   5.683  1.00 20.00    -0.130 Cl
ENDBRANCH   2   6
TORSDOF 1
ENDMDL
MODEL 3
REMARK VINA RESULT:      -4.4      3.316      4.987
REMARK  1 active torsions:
REMARK  status: ('A' for Active; 'I' for Inactive)
REMARK    1  A    between atoms: C2_2  and  C6_6 
ROOT
HETATM    1  C1  UNL     1     -31.143   8.780   0.743  1.00 20.00     0.015 A 
HETATM    2  C2  UNL     1     -32.267   8.155   1.524  1.00 20.00     0.008 A 
HETATM    3  C3  UNL     1     -32.502   9.448   0.759  1.00 20.00    -0.043 A 
HETATM    4  C4  UNL     1     -33.342   9.364  -0.488  1.00 20.00     0.015 C 
HETATM    5  C5  UNL     1     -32.642  10.749   1.503  1.00 20.00     0.015 C 
ENDROOT
BRANCH   2   6
HETATM    6  C6  UNL     1     -32.209   8.098   3.012  1.00 20.00     0.120 C 
HETATM    7 CL7  UNL     1     -33.659   7.303   3.684  1.00 20.00    -0.130 Cl
ENDBRANCH   2   6
TORSDOF 1
ENDMDL
MODEL 4
REMARK VINA RESULT:      -4.4      1.465      2.151
REMARK  1 active torsions:
REMARK  status: ('A' for Active; 'I' for Inactive)
REMARK    1  A    between atoms: C2_2  and  C6_6 
ROOT
HETATM    1  C1  UNL     1     -33.114   7.126   4.505  1.00 20.00     0.015 A 
HETATM    2  C2  UNL     1     -33.423   7.690   3.145  1.00 20.00     0.008 A 
HETATM    3  C3  UNL     1     -33.814   6.259   3.480  1.00 20.00    -0.043 A 
HETATM    4  C4  UNL     1     -35.281   5.978   3.679  1.00 20.00     0.015 C 
HETATM    5  C5  UNL     1     -33.048   5.108   2.884  1.00 20.00     0.015 C 
ENDROOT
BRANCH   2   6
HETATM    6  C6  UNL     1     -32.319   8.022   2.199  1.00 20.00     0.120 C 
HETATM    7 CL7  UNL     1     -32.622   9.575   1.374  1.00 20.00    -0.130 Cl
ENDBRANCH   2   6
TORSDOF 1
ENDMDL
MODEL 5
REMARK VINA RESULT:      -4.1      1.933      2.498
REMARK  1 active torsions:
REMARK  status: ('A' for Active; 'I' for Inactive)
REMARK    1  A    between atoms: C2_2  and  C6_6 
ROOT
HETATM    1  C1  UNL     1     -35.266   5.977   3.515  1.00 20.00     0.015 A 
HETATM    2  C2  UNL     1     -34.109   6.493   4.327  1.00 20.00     0.008 A 
HETATM    3  C3  UNL     1     -34.020   5.128   3.662  1.00 20.00    -0.043 A 
HETATM    4  C4  UNL     1     -33.107   5.004   2.471  1.00 20.00     0.015 C 
HETATM    5  C5  UNL     1     -34.112   3.876   4.494  1.00 20.00     0.015 C 
ENDROOT
BRANCH   2   6
HETATM    6  C6  UNL     1     -34.242   6.663   5.802  1.00 20.00     0.120 C 
HETATM    7 CL7  UNL     1     -33.197   7.982   6.396  1.00 20.00    -0.130 Cl
ENDBRANCH   2   6
TORSDOF 1
ENDMDL
MODEL 6
REMARK VINA RESULT:      -3.9      1.867      2.075
REMARK  1 active torsions:
REMARK  status: ('A' for Active; 'I' for Inactive)
REMARK    1  A    between atoms: C2_2  and  C6_6 
ROOT
HETATM    1  C1  UNL     1     -35.426   6.030   3.854  1.00 20.00     0.015 A 
HETATM    2  C2  UNL     1     -34.200   5.174   3.689  1.00 20.00     0.008 A 
HETATM    3  C3  UNL     1     -34.408   5.962   4.973  1.00 20.00    -0.043 A 
HETATM    4  C4  UNL     1     -34.769   5.179   6.208  1.00 20.00     0.015 C 
HETATM    5  C5  UNL     1     -33.577   7.187   5.249  1.00 20.00     0.015 C 
ENDROOT
BRANCH   2   6
HETATM    6  C6  UNL     1     -33.161   5.534   2.683  1.00 20.00     0.120 C 
HETATM    7 CL7  UNL     1     -32.535   4.082   1.854  1.00 20.00    -0.130 Cl
ENDBRANCH   2   6
TORSDOF 1
ENDMDL
MODEL 7
REMARK VINA RESULT:      -3.8      2.453      3.314
REMARK  1 active torsions:
REMARK  status: ('A' for Active; 'I' for Inactive)
REMARK    1  A    between atoms: C2_2  and  C6_6 
ROOT
HETATM    1  C1  UNL     1     -34.948   6.488   3.318  1.00 20.00     0.015 A 
HETATM    2  C2  UNL     1     -34.024   6.903   4.430  1.00 20.00     0.008 A 
HETATM    3  C3  UNL     1     -33.451   6.470   3.089  1.00 20.00    -0.043 A 
HETATM    4  C4  UNL     1     -32.859   7.545   2.216  1.00 20.00     0.015 C 
HETATM    5  C5  UNL     1     -32.772   5.132   2.956  1.00 20.00     0.015 C 
ENDROOT
BRANCH   2   6
HETATM    6  C6  UNL     1     -33.907   6.072   5.662  1.00 20.00     0.120 C 
HETATM    7 CL7  UNL     1     -34.901   4.595   5.540  1.00 20.00    -0.130 Cl
ENDBRANCH   2   6
TORSDOF 1
ENDMDL
MODEL 8
REMARK VINA RESULT:      -3.7      2.921      4.186
REMARK  1 active torsions:
REMARK  status: ('A' for Active; 'I' for Inactive)
REMARK    1  A    between atoms: C2_2  and  C6_6 
ROOT
HETATM    1  C1  UNL     1     -31.321   8.457   1.161  1.00 20.00     0.015 A 
HETATM    2  C2  UNL     1     -32.125   9.607   1.703  1.00 20.00     0.008 A 
HETATM    3  C3  UNL     1     -32.104   8.280   2.445  1.00 20.00    -0.043 A 
HETATM    4  C4  UNL     1     -31.334   8.230   3.738  1.00 20.00     0.015 C 
HETATM    5  C5  UNL     1     -33.313   7.382   2.419  1.00 20.00     0.015 C 
ENDROOT
BRANCH   2   6
HETATM    6  C6  UNL     1     -33.325  10.100   0.968  1.00 20.00     0.120 C 
HETATM    7 CL7  UNL     1     -33.352   9.486  -0.708  1.00 20.00    -0.130 Cl
ENDBRANCH   2   6
TORSDOF 1
ENDMDL
MODEL 9
REMARK VINA RESULT:      -3.6      2.269      3.438
REMARK  1 active torsions:
REMARK  status: ('A' for Active; 'I' for Inactive)
REMARK    1  A    between atoms: C2_2  and  C6_6 
ROOT
HETATM    1  C1  UNL     1     -33.986   7.643   5.583  1.00 20.00     0.015 A 
HETATM    2  C2  UNL     1     -33.544   6.213   5.431  1.00 20.00     0.008 A 
HETATM    3  C3  UNL     1     -33.524   7.145   4.229  1.00 20.00    -0.043 A 
HETATM    4  C4  UNL     1     -32.176   7.598   3.734  1.00 20.00     0.015 C 
HETATM    5  C5  UNL     1     -34.555   6.995   3.142  1.00 20.00     0.015 C 
ENDROOT
BRANCH   2   6
HETATM    6  C6  UNL     1     -34.527   5.101   5.572  1.00 20.00     0.120 C 
HETATM    7 CL7  UNL     1     -34.206   3.801   4.392  1.00 20.00    -0.130 Cl
ENDBRANCH   2   6
TORSDOF 1
ENDMDL
