MODEL 1
REMARK VINA RESULT:      -5.1      0.000      0.000
REMARK  2 active torsions:
REMARK  status: ('A' for Active; 'I' for Inactive)
REMARK    1  A    between atoms: C7_7  and  C8_8 
REMARK    2  A    between atoms: C7_7  and  N9_9 
ROOT
HETATM    1  C1  UNL     1     -33.473   4.992   3.406  1.00 20.00     0.038 C 
HETATM    2  C2  UNL     1     -33.009   5.970   2.337  1.00 20.00     0.235 C 
HETATM    3  C3  UNL     1     -33.624   7.139   4.394  1.00 20.00     0.243 C 
HETATM    4  C4  UNL     1     -34.376   5.810   4.332  1.00 20.00    -0.022 C 
HETATM    5  C5  UNL     1     -35.783   5.983   3.734  1.00 20.00     0.016 C 
HETATM    6  C6  UNL     1     -34.493   5.172   5.718  1.00 20.00     0.016 C 
HETATM    7  N9  UNL     1     -33.123   7.339   2.978  1.00 20.00    -0.069 N 
HETATM    8  H27 UNL     1     -33.860   7.848   2.469  1.00 20.00     0.280 HD
ENDROOT
BRANCH   7   9
HETATM    9  C7  UNL     1     -31.883   8.168   2.888  1.00 20.00     0.250 C 
BRANCH   9  10
HETATM   10  C8  UNL     1     -31.710   8.697   1.477  1.00 20.00     0.142 C 
HETATM   11 CL10 UNL     1     -32.627  10.202   1.225  1.00 20.00    -0.129 Cl
ENDBRANCH   9  10
ENDBRANCH   7   9
TORSDOF 2
ENDMDL
MODEL 2
REMARK VINA RESULT:      -4.5      1.283      2.032
REMARK  2 active torsions:
REMARK  status: ('A' for Active; 'I' for Inactive)
REMARK    1  A    between atoms: C7_7  and  C8_8 
REMARK    2  A    between atoms: C7_7  and  N9_9 
ROOT
HETATM    1  C1  UNL     1     -33.270   7.085   4.586  1.00 20.00     0.038 C 
HETATM    2  C2  UNL     1     -32.081   7.799   3.959  1.00 20.00     0.235 C 
HETATM    3  C3  UNL     1     -33.767   7.249   2.276  1.00 20.00     0.243 C 
HETATM    4  C4  UNL     1     -33.896   6.276   3.448  1.00 20.00    -0.022 C 
HETATM    5  C5  UNL     1     -33.119   4.974   3.191  1.00 20.00     0.016 C 
HETATM    6  C6  UNL     1     -35.362   5.940   3.733  1.00 20.00     0.016 C 
HETATM    7  N9  UNL     1     -32.408   7.885   2.481  1.00 20.00    -0.069 N 
HETATM    8  H27 UNL     1     -31.723   7.294   1.988  1.00 20.00     0.280 HD
ENDROOT
BRANCH   7   9
HETATM    9  C7  UNL     1     -32.290   9.258   1.902  1.00 20.00     0.250 C 
BRANCH   9  10
HETATM   10  C8  UNL     1     -31.870   9.177   0.447  1.00 20.00     0.142 C 
HETATM   11 CL10 UNL     1     -33.252   9.429  -0.648  1.00 20.00    -0.129 Cl
ENDBRANCH   9  10
ENDBRANCH   7   9
TORSDOF 2
ENDMDL
MODEL 3
REMARK VINA RESULT:      -4.3      2.268      4.673
REMARK  2 active torsions:
REMARK  status: ('A' for Active; 'I' for Inactive)
REMARK    1  A    between atoms: C7_7  and  C8_8 
REMARK    2  A    between atoms: C7_7  and  N9_9 
ROOT
HETATM    1  C1  UNL     1     -31.311   8.728   1.175  1.00 20.00     0.038 C 
HETATM    2  C2  UNL     1     -31.380   8.185   2.596  1.00 20.00     0.235 C 
HETATM    3  C3  UNL     1     -33.601   8.273   1.576  1.00 20.00     0.243 C 
HETATM    4  C4  UNL     1     -32.701   9.307   0.900  1.00 20.00    -0.022 C 
HETATM    5  C5  UNL     1     -32.863  10.700   1.534  1.00 20.00     0.016 C 
HETATM    6  C6  UNL     1     -32.988   9.401  -0.600  1.00 20.00     0.016 C 
HETATM    7  N9  UNL     1     -32.851   7.911   2.842  1.00 20.00    -0.069 N 
HETATM    8  H27 UNL     1     -33.160   8.569   3.571  1.00 20.00     0.280 HD
ENDROOT
BRANCH   7   9
HETATM    9  C7  UNL     1     -33.147   6.535   3.346  1.00 20.00     0.250 C 
BRANCH   9  10
HETATM   10  C8  UNL     1     -34.226   6.590   4.409  1.00 20.00     0.142 C 
HETATM   11 CL10 UNL     1     -33.628   7.334   5.912  1.00 20.00    -0.129 Cl
ENDBRANCH   9  10
ENDBRANCH   7   9
TORSDOF 2
ENDMDL
MODEL 4
REMARK VINA RESULT:      -3.7     11.587     12.483
REMARK  2 active torsions:
REMARK  status: ('A' for Active; 'I' for Inactive)
REMARK    1  A    between atoms: C7_7  and  C8_8 
REMARK    2  A    between atoms: C7_7  and  N9_9 
ROOT
HETATM    1  C1  UNL     1     -34.713  18.104  -3.738  1.00 20.00     0.038 C 
HETATM    2  C2  UNL     1     -33.725  17.920  -4.881  1.00 20.00     0.235 C 
HETATM    3  C3  UNL     1     -33.892  15.892  -3.526  1.00 20.00     0.243 C 
HETATM    4  C4  UNL     1     -34.280  17.097  -2.669  1.00 20.00    -0.022 C 
HETATM    5  C5  UNL     1     -33.085  17.622  -1.856  1.00 20.00     0.016 C 
HETATM    6  C6  UNL     1     -35.427  16.756  -1.716  1.00 20.00     0.016 C 
HETATM    7  N9  UNL     1     -33.199  16.507  -4.724  1.00 20.00    -0.069 N 
HETATM    8  H27 UNL     1     -32.200  16.584  -4.486  1.00 20.00     0.280 HD
ENDROOT
BRANCH   7   9
HETATM    9  C7  UNL     1     -33.285  15.676  -5.964  1.00 20.00     0.250 C 
BRANCH   9  10
HETATM   10  C8  UNL     1     -34.242  14.518  -5.750  1.00 20.00     0.142 C 
HETATM   11 CL10 UNL     1     -34.402  13.522  -7.217  1.00 20.00    -0.129 Cl
ENDBRANCH   9  10
ENDBRANCH   7   9
TORSDOF 2
ENDMDL
MODEL 5
REMARK VINA RESULT:      -3.7     10.762     12.127
REMARK  2 active torsions:
REMARK  status: ('A' for Active; 'I' for Inactive)
REMARK    1  A    between atoms: C7_7  and  C8_8 
REMARK    2  A    between atoms: C7_7  and  N9_9 
ROOT
HETATM    1  C1  UNL     1     -33.278  15.180  -4.196  1.00 20.00     0.038 C 
HETATM    2  C2  UNL     1     -34.181  13.959  -4.100  1.00 20.00     0.235 C 
HETATM    3  C3  UNL     1     -35.455  15.950  -4.724  1.00 20.00     0.243 C 
HETATM    4  C4  UNL     1     -34.201  16.380  -3.963  1.00 20.00    -0.022 C 
HETATM    5  C5  UNL     1     -34.488  16.584  -2.466  1.00 20.00     0.016 C 
HETATM    6  C6  UNL     1     -33.611  17.667  -4.543  1.00 20.00     0.016 C 
HETATM    7  N9  UNL     1     -35.571  14.470  -4.426  1.00 20.00    -0.069 N 
HETATM    8  H27 UNL     1     -36.133  14.380  -3.568  1.00 20.00     0.280 HD
ENDROOT
BRANCH   7   9
HETATM    9  C7  UNL     1     -36.278  13.694  -5.491  1.00 20.00     0.250 C 
BRANCH   9  10
HETATM   10  C8  UNL     1     -35.983  14.289  -6.854  1.00 20.00     0.142 C 
HETATM   11 CL10 UNL     1     -34.511  13.589  -7.569  1.00 20.00    -0.129 Cl
ENDBRANCH   9  10
ENDBRANCH   7   9
TORSDOF 2
ENDMDL
MODEL 6
REMARK VINA RESULT:      -3.7     10.856     11.871
REMARK  2 active torsions:
REMARK  status: ('A' for Active; 'I' for Inactive)
REMARK    1  A    between atoms: C7_7  and  C8_8 
REMARK    2  A    between atoms: C7_7  and  N9_9 
ROOT
HETATM    1  C1  UNL     1     -34.410  14.033  -4.230  1.00 20.00     0.038 C 
HETATM    2  C2  UNL     1     -33.299  15.065  -4.093  1.00 20.00     0.235 C 
HETATM    3  C3  UNL     1     -35.315  16.060  -5.056  1.00 20.00     0.243 C 
HETATM    4  C4  UNL     1     -35.311  14.560  -5.349  1.00 20.00    -0.022 C 
HETATM    5  C5  UNL     1     -34.719  14.256  -6.736  1.00 20.00     0.016 C 
HETATM    6  C6  UNL     1     -36.721  13.972  -5.264  1.00 20.00     0.016 C 
HETATM    7  N9  UNL     1     -33.889  16.352  -4.638  1.00 20.00    -0.069 N 
HETATM    8  H27 UNL     1     -33.366  16.581  -5.495  1.00 20.00     0.280 HD
ENDROOT
BRANCH   7   9
HETATM    9  C7  UNL     1     -33.756  17.526  -3.722  1.00 20.00     0.250 C 
BRANCH   9  10
HETATM   10  C8  UNL     1     -33.575  17.055  -2.292  1.00 20.00     0.142 C 
HETATM   11 CL10 UNL     1     -35.141  16.771  -1.493  1.00 20.00    -0.129 Cl
ENDBRANCH   9  10
ENDBRANCH   7   9
TORSDOF 2
ENDMDL
MODEL 7
REMARK VINA RESULT:      -3.6     10.951     12.097
REMARK  2 active torsions:
REMARK  status: ('A' for Active; 'I' for Inactive)
REMARK    1  A    between atoms: C7_7  and  C8_8 
REMARK    2  A    between atoms: C7_7  and  N9_9 
ROOT
HETATM    1  C1  UNL     1     -33.536  15.729  -5.733  1.00 20.00     0.038 C 
HETATM    2  C2  UNL     1     -34.025  14.653  -6.693  1.00 20.00     0.235 C 
HETATM    3  C3  UNL     1     -34.883  14.277  -4.434  1.00 20.00     0.243 C 
HETATM    4  C4  UNL     1     -33.586  15.082  -4.347  1.00 20.00    -0.022 C 
HETATM    5  C5  UNL     1     -32.370  14.172  -4.108  1.00 20.00     0.016 C 
HETATM    6  C6  UNL     1     -33.656  16.132  -3.236  1.00 20.00     0.016 C 
HETATM    7  N9  UNL     1     -34.873  13.726  -5.845  1.00 20.00    -0.069 N 
HETATM    8  H27 UNL     1     -34.383  12.821  -5.809  1.00 20.00     0.280 HD
ENDROOT
BRANCH   7   9
HETATM    9  C7  UNL     1     -36.236  13.459  -6.398  1.00 20.00     0.250 C 
BRANCH   9  10
HETATM   10  C8  UNL     1     -37.096  14.704  -6.288  1.00 20.00     0.142 C 
HETATM   11 CL10 UNL     1     -38.445  14.468  -5.149  1.00 20.00    -0.129 Cl
ENDBRANCH   9  10
ENDBRANCH   7   9
TORSDOF 2
ENDMDL
MODEL 8
REMARK VINA RESULT:      -3.5     11.468     12.428
REMARK  2 active torsions:
REMARK  status: ('A' for Active; 'I' for Inactive)
REMARK    1  A    between atoms: C7_7  and  C8_8 
REMARK    2  A    between atoms: C7_7  and  N9_9 
ROOT
HETATM    1  C1  UNL     1     -34.817  16.721  -1.805  1.00 20.00     0.038 C 
HETATM    2  C2  UNL     1     -35.641  16.456  -3.056  1.00 20.00     0.235 C 
HETATM    3  C3  UNL     1     -33.640  17.760  -3.579  1.00 20.00     0.243 C 
HETATM    4  C4  UNL     1     -34.015  17.988  -2.115  1.00 20.00    -0.022 C 
HETATM    5  C5  UNL     1     -34.875  19.252  -1.941  1.00 20.00     0.016 C 
HETATM    6  C6  UNL     1     -32.771  18.101  -1.232  1.00 20.00     0.016 C 
HETATM    7  N9  UNL     1     -34.883  17.137  -4.179  1.00 20.00    -0.069 N 
HETATM    8  H27 UNL     1     -35.475  17.911  -4.513  1.00 20.00     0.280 HD
ENDROOT
BRANCH   7   9
HETATM    9  C7  UNL     1     -34.609  16.260  -5.359  1.00 20.00     0.250 C 
BRANCH   9  10
HETATM   10  C8  UNL     1     -33.167  15.794  -5.338  1.00 20.00     0.142 C 
HETATM   11 CL10 UNL     1     -32.962  14.344  -4.324  1.00 20.00    -0.129 Cl
ENDBRANCH   9  10
ENDBRANCH   7   9
TORSDOF 2
ENDMDL
MODEL 9
REMARK VINA RESULT:      -3.5     11.282     12.272
REMARK  2 active torsions:
REMARK  status: ('A' for Active; 'I' for Inactive)
REMARK    1  A    between atoms: C7_7  and  C8_8 
REMARK    2  A    between atoms: C7_7  and  N9_9 
ROOT
HETATM    1  C1  UNL     1     -33.402  16.062  -4.980  1.00 20.00     0.038 C 
HETATM    2  C2  UNL     1     -33.585  14.556  -4.866  1.00 20.00     0.235 C 
HETATM    3  C3  UNL     1     -35.602  15.744  -4.163  1.00 20.00     0.243 C 
HETATM    4  C4  UNL     1     -34.394  16.662  -3.980  1.00 20.00    -0.022 C 
HETATM    5  C5  UNL     1     -33.849  16.602  -2.543  1.00 20.00     0.016 C 
HETATM    6  C6  UNL     1     -34.739  18.112  -4.327  1.00 20.00     0.016 C 
HETATM    7  N9  UNL     1     -34.991  14.368  -4.330  1.00 20.00    -0.069 N 
HETATM    8  H27 UNL     1     -34.901  13.964  -3.387  1.00 20.00     0.280 HD
ENDROOT
BRANCH   7   9
HETATM    9  C7  UNL     1     -35.834  13.426  -5.127  1.00 20.00     0.250 C 
BRANCH   9  10
HETATM   10  C8  UNL     1     -35.406  13.446  -6.582  1.00 20.00     0.142 C 
HETATM   11 CL10 UNL     1     -36.314  14.662  -7.514  1.00 20.00    -0.129 Cl
ENDBRANCH   9  10
ENDBRANCH   7   9
TORSDOF 2
ENDMDL
