MODEL 1
REMARK VINA RESULT:      -4.8      0.000      0.000
REMARK  1 active torsions:
REMARK  status: ('A' for Active; 'I' for Inactive)
REMARK    1  A    between atoms: C6_6  and  C9_9 
ROOT
HETATM    1  C1  UNL     1     -33.913   6.983   4.594  1.00 20.00    -0.085 C 
HETATM    2  C2  UNL     1     -33.945   6.929   5.932  1.00 20.00     0.014 C 
HETATM    3  C3  UNL     1     -34.327   5.834   3.715  1.00 20.00     0.059 C 
HETATM    4  C4  UNL     1     -33.428   8.187   3.830  1.00 20.00     0.065 C 
HETATM    5  C5  UNL     1     -33.220   5.542   2.706  1.00 20.00     0.172 C 
HETATM    6  C6  UNL     1     -32.363   7.752   2.817  1.00 20.00     0.128 C 
HETATM    7  O10 UNL     1     -32.882   6.719   1.966  1.00 20.00    -0.385 OA
ENDROOT
BRANCH   6   8
HETATM    8  C9  UNL     1     -31.946   8.917   1.929  1.00 20.00     0.007 C 
HETATM    9  C7  UNL     1     -31.363   8.411   0.610  1.00 20.00     0.012 C 
HETATM   10  C8  UNL     1     -33.131   9.847   1.666  1.00 20.00     0.012 C 
ENDBRANCH   6   8
TORSDOF 1
ENDMDL
MODEL 2
REMARK VINA RESULT:      -4.6      1.384      2.461
REMARK  1 active torsions:
REMARK  status: ('A' for Active; 'I' for Inactive)
REMARK    1  A    between atoms: C6_6  and  C9_9 
ROOT
HETATM    1  C1  UNL     1     -34.399   5.449   4.486  1.00 20.00    -0.085 C 
HETATM    2  C2  UNL     1     -35.492   4.714   4.247  1.00 20.00     0.014 C 
HETATM    3  C3  UNL     1     -34.020   5.936   5.859  1.00 20.00     0.059 C 
HETATM    4  C4  UNL     1     -33.452   5.893   3.402  1.00 20.00     0.065 C 
HETATM    5  C5  UNL     1     -33.769   7.441   5.812  1.00 20.00     0.172 C 
HETATM    6  C6  UNL     1     -33.242   7.408   3.498  1.00 20.00     0.128 C 
HETATM    7  O10 UNL     1     -32.793   7.763   4.815  1.00 20.00    -0.385 OA
ENDROOT
BRANCH   6   8
HETATM    8  C9  UNL     1     -32.184   7.876   2.508  1.00 20.00     0.007 C 
HETATM    9  C7  UNL     1     -32.767   8.900   1.536  1.00 20.00     0.012 C 
HETATM   10  C8  UNL     1     -30.979   8.465   3.243  1.00 20.00     0.012 C 
ENDBRANCH   6   8
TORSDOF 1
ENDMDL
MODEL 3
REMARK VINA RESULT:      -4.3      1.306      4.111
REMARK  1 active torsions:
REMARK  status: ('A' for Active; 'I' for Inactive)
REMARK    1  A    between atoms: C6_6  and  C9_9 
ROOT
HETATM    1  C1  UNL     1     -32.456   8.688   1.593  1.00 20.00    -0.085 C 
HETATM    2  C2  UNL     1     -32.122   8.876   0.309  1.00 20.00     0.014 C 
HETATM    3  C3  UNL     1     -31.742   9.360   2.735  1.00 20.00     0.059 C 
HETATM    4  C4  UNL     1     -33.559   7.760   2.028  1.00 20.00     0.065 C 
HETATM    5  C5  UNL     1     -31.320   8.310   3.758  1.00 20.00     0.172 C 
HETATM    6  C6  UNL     1     -33.023   6.796   3.092  1.00 20.00     0.128 C 
HETATM    7  O10 UNL     1     -32.445   7.531   4.181  1.00 20.00    -0.385 OA
ENDROOT
BRANCH   6   8
HETATM    8  C9  UNL     1     -34.140   5.932   3.660  1.00 20.00     0.007 C 
HETATM    9  C7  UNL     1     -33.813   4.448   3.500  1.00 20.00     0.012 C 
HETATM   10  C8  UNL     1     -34.390   6.268   5.130  1.00 20.00     0.012 C 
ENDBRANCH   6   8
TORSDOF 1
ENDMDL
MODEL 4
REMARK VINA RESULT:      -4.2     10.715     11.498
REMARK  1 active torsions:
REMARK  status: ('A' for Active; 'I' for Inactive)
REMARK    1  A    between atoms: C6_6  and  C9_9 
ROOT
HETATM    1  C1  UNL     1     -35.272  14.799  -4.968  1.00 20.00    -0.085 C 
HETATM    2  C2  UNL     1     -35.829  13.584  -5.055  1.00 20.00     0.014 C 
HETATM    3  C3  UNL     1     -34.636  15.497  -6.140  1.00 20.00     0.059 C 
HETATM    4  C4  UNL     1     -35.197  15.580  -3.683  1.00 20.00     0.065 C 
HETATM    5  C5  UNL     1     -33.231  15.953  -5.757  1.00 20.00     0.172 C 
HETATM    6  C6  UNL     1     -33.750  16.025  -3.442  1.00 20.00     0.128 C 
HETATM    7  O10 UNL     1     -33.263  16.760  -4.575  1.00 20.00    -0.385 OA
ENDROOT
BRANCH   6   8
HETATM    8  C9  UNL     1     -33.654  16.935  -2.225  1.00 20.00     0.007 C 
HETATM    9  C7  UNL     1     -33.258  18.352  -2.637  1.00 20.00     0.012 C 
HETATM   10  C8  UNL     1     -34.976  16.953  -1.457  1.00 20.00     0.012 C 
ENDBRANCH   6   8
TORSDOF 1
ENDMDL
MODEL 5
REMARK VINA RESULT:      -4.0     10.488     11.247
REMARK  1 active torsions:
REMARK  status: ('A' for Active; 'I' for Inactive)
REMARK    1  A    between atoms: C6_6  and  C9_9 
ROOT
HETATM    1  C1  UNL     1     -35.004  14.328  -5.214  1.00 20.00    -0.085 C 
HETATM    2  C2  UNL     1     -34.406  14.016  -6.371  1.00 20.00     0.014 C 
HETATM    3  C3  UNL     1     -36.491  14.230  -5.005  1.00 20.00     0.059 C 
HETATM    4  C4  UNL     1     -34.255  14.842  -4.013  1.00 20.00     0.065 C 
HETATM    5  C5  UNL     1     -37.015  15.551  -4.449  1.00 20.00     0.172 C 
HETATM    6  C6  UNL     1     -34.911  16.138  -3.521  1.00 20.00     0.128 C 
HETATM    7  O10 UNL     1     -36.306  15.920  -3.261  1.00 20.00    -0.385 OA
ENDROOT
BRANCH   6   8
HETATM    8  C9  UNL     1     -34.269  16.616  -2.225  1.00 20.00     0.007 C 
HETATM    9  C7  UNL     1     -33.329  17.791  -2.487  1.00 20.00     0.012 C 
HETATM   10  C8  UNL     1     -35.339  17.005  -1.204  1.00 20.00     0.012 C 
ENDBRANCH   6   8
TORSDOF 1
ENDMDL
MODEL 6
REMARK VINA RESULT:      -4.0     10.718     11.633
REMARK  1 active torsions:
REMARK  status: ('A' for Active; 'I' for Inactive)
REMARK    1  A    between atoms: C6_6  and  C9_9 
ROOT
HETATM    1  C1  UNL     1     -33.684  17.524  -2.257  1.00 20.00    -0.085 C 
HETATM    2  C2  UNL     1     -33.500  17.800  -3.555  1.00 20.00     0.014 C 
HETATM    3  C3  UNL     1     -34.828  16.688  -1.750  1.00 20.00     0.059 C 
HETATM    4  C4  UNL     1     -32.784  18.046  -1.169  1.00 20.00     0.065 C 
HETATM    5  C5  UNL     1     -35.551  17.441  -0.636  1.00 20.00     0.172 C 
HETATM    6  C6  UNL     1     -33.633  18.728  -0.090  1.00 20.00     0.128 C 
HETATM    7  O10 UNL     1     -34.636  17.823   0.397  1.00 20.00    -0.385 OA
ENDROOT
BRANCH   6   8
HETATM    8  C9  UNL     1     -32.776  19.148   1.096  1.00 20.00     0.007 C 
HETATM    9  C7  UNL     1     -33.325  18.564   2.396  1.00 20.00     0.012 C 
HETATM   10  C8  UNL     1     -31.322  18.718   0.891  1.00 20.00     0.012 C 
ENDBRANCH   6   8
TORSDOF 1
ENDMDL
MODEL 7
REMARK VINA RESULT:      -4.0     10.484     11.631
REMARK  1 active torsions:
REMARK  status: ('A' for Active; 'I' for Inactive)
REMARK    1  A    between atoms: C6_6  and  C9_9 
ROOT
HETATM    1  C1  UNL     1     -33.755  15.714  -6.031  1.00 20.00    -0.085 C 
HETATM    2  C2  UNL     1     -33.766  16.362  -7.203  1.00 20.00     0.014 C 
HETATM    3  C3  UNL     1     -34.166  14.273  -5.885  1.00 20.00     0.059 C 
HETATM    4  C4  UNL     1     -33.364  16.368  -4.733  1.00 20.00     0.065 C 
HETATM    5  C5  UNL     1     -35.205  14.152  -4.775  1.00 20.00     0.172 C 
HETATM    6  C6  UNL     1     -34.461  16.127  -3.690  1.00 20.00     0.128 C 
HETATM    7  O10 UNL     1     -34.717  14.721  -3.555  1.00 20.00    -0.385 OA
ENDROOT
BRANCH   6   8
HETATM    8  C9  UNL     1     -34.041  16.653  -2.324  1.00 20.00     0.007 C 
HETATM    9  C7  UNL     1     -33.253  17.954  -2.463  1.00 20.00     0.012 C 
HETATM   10  C8  UNL     1     -35.262  16.863  -1.427  1.00 20.00     0.012 C 
ENDBRANCH   6   8
TORSDOF 1
ENDMDL
MODEL 8
REMARK VINA RESULT:      -4.0     10.248     11.234
REMARK  1 active torsions:
REMARK  status: ('A' for Active; 'I' for Inactive)
REMARK    1  A    between atoms: C6_6  and  C9_9 
ROOT
HETATM    1  C1  UNL     1     -33.307  18.130  -1.196  1.00 20.00    -0.085 C 
HETATM    2  C2  UNL     1     -32.154  18.382  -0.563  1.00 20.00     0.014 C 
HETATM    3  C3  UNL     1     -34.655  18.331  -0.559  1.00 20.00     0.059 C 
HETATM    4  C4  UNL     1     -33.373  17.589  -2.600  1.00 20.00     0.065 C 
HETATM    5  C5  UNL     1     -35.482  17.058  -0.709  1.00 20.00     0.172 C 
HETATM    6  C6  UNL     1     -34.274  16.348  -2.625  1.00 20.00     0.128 C 
HETATM    7  O10 UNL     1     -35.565  16.663  -2.083  1.00 20.00    -0.385 OA
ENDROOT
BRANCH   6   8
HETATM    8  C9  UNL     1     -34.479  15.851  -4.049  1.00 20.00     0.007 C 
HETATM    9  C7  UNL     1     -33.381  16.380  -4.971  1.00 20.00     0.012 C 
HETATM   10  C8  UNL     1     -34.519  14.323  -4.088  1.00 20.00     0.012 C 
ENDBRANCH   6   8
TORSDOF 1
ENDMDL
MODEL 9
REMARK VINA RESULT:      -4.0     10.611     11.368
REMARK  1 active torsions:
REMARK  status: ('A' for Active; 'I' for Inactive)
REMARK    1  A    between atoms: C6_6  and  C9_9 
ROOT
HETATM    1  C1  UNL     1     -33.800  15.572  -4.253  1.00 20.00    -0.085 C 
HETATM    2  C2  UNL     1     -32.964  15.544  -5.299  1.00 20.00     0.014 C 
HETATM    3  C3  UNL     1     -35.095  14.806  -4.215  1.00 20.00     0.059 C 
HETATM    4  C4  UNL     1     -33.548  16.398  -3.019  1.00 20.00     0.065 C 
HETATM    5  C5  UNL     1     -36.233  15.751  -3.841  1.00 20.00     0.172 C 
HETATM    6  C6  UNL     1     -34.781  17.258  -2.722  1.00 20.00     0.128 C 
HETATM    7  O10 UNL     1     -35.948  16.430  -2.613  1.00 20.00    -0.385 OA
ENDROOT
BRANCH   6   8
HETATM    8  C9  UNL     1     -34.621  18.005  -1.405  1.00 20.00     0.007 C 
HETATM    9  C7  UNL     1     -35.472  17.364  -0.310  1.00 20.00     0.012 C 
HETATM   10  C8  UNL     1     -33.152  18.048  -0.982  1.00 20.00     0.012 C 
ENDBRANCH   6   8
TORSDOF 1
ENDMDL
