MODEL 1
REMARK VINA RESULT:      -4.9      0.000      0.000
REMARK  1 active torsions:
REMARK  status: ('A' for Active; 'I' for Inactive)
REMARK    1  A    between atoms: C6_6  and  N8_8 
ROOT
HETATM    1  C1  UNL     1     -32.626   7.236   2.416  1.00 20.00     0.158 C 
HETATM    2  N8  UNL     1     -32.894   6.141   2.737  1.00 20.00    -0.265 NA
HETATM    3  S9  UNL     1     -32.237   8.711   1.959  1.00 20.00    -0.055 SA
ENDROOT
BRANCH   2   4
HETATM    4  C6  UNL     1     -33.976   6.039   3.718  1.00 20.00     0.051 C 
HETATM    5  C4  UNL     1     -33.699   6.950   4.914  1.00 20.00     0.033 C 
HETATM    6  C2  UNL     1     -34.479   6.324   6.068  1.00 20.00     0.002 C 
HETATM    7  C3  UNL     1     -34.666   4.850   5.708  1.00 20.00     0.002 C 
HETATM    8  C5  UNL     1     -33.989   4.650   4.355  1.00 20.00     0.033 C 
HETATM    9  C7  UNL     1     -35.292   6.377   3.017  1.00 20.00     0.041 C 
ENDBRANCH   2   4
TORSDOF 1
ENDMDL
MODEL 2
REMARK VINA RESULT:      -4.1      1.002      1.750
REMARK  1 active torsions:
REMARK  status: ('A' for Active; 'I' for Inactive)
REMARK    1  A    between atoms: C6_6  and  N8_8 
ROOT
HETATM    1  C1  UNL     1     -32.971   7.916   1.988  1.00 20.00     0.158 C 
HETATM    2  N8  UNL     1     -33.917   7.272   2.242  1.00 20.00    -0.265 NA
HETATM    3  S9  UNL     1     -31.703   8.805   1.616  1.00 20.00    -0.055 SA
ENDROOT
BRANCH   2   4
HETATM    4  C6  UNL     1     -33.765   6.394   3.403  1.00 20.00     0.051 C 
HETATM    5  C4  UNL     1     -35.123   5.837   3.832  1.00 20.00     0.033 C 
HETATM    6  C2  UNL     1     -34.955   5.502   5.312  1.00 20.00     0.002 C 
HETATM    7  C3  UNL     1     -33.809   6.376   5.822  1.00 20.00     0.002 C 
HETATM    8  C5  UNL     1     -33.337   7.201   4.628  1.00 20.00     0.033 C 
HETATM    9  C7  UNL     1     -32.767   5.294   3.046  1.00 20.00     0.041 C 
ENDBRANCH   2   4
TORSDOF 1
ENDMDL
MODEL 3
REMARK VINA RESULT:      -3.8      2.451      3.872
REMARK  1 active torsions:
REMARK  status: ('A' for Active; 'I' for Inactive)
REMARK    1  A    between atoms: C6_6  and  N8_8 
ROOT
HETATM    1  C1  UNL     1     -34.639   5.860   4.534  1.00 20.00     0.158 C 
HETATM    2  N8  UNL     1     -34.636   6.585   3.612  1.00 20.00    -0.265 NA
HETATM    3  S9  UNL     1     -34.679   4.880   5.788  1.00 20.00    -0.055 SA
ENDROOT
BRANCH   2   4
HETATM    4  C6  UNL     1     -33.310   6.856   3.053  1.00 20.00     0.051 C 
HETATM    5  C4  UNL     1     -32.435   7.574   4.080  1.00 20.00     0.033 C 
HETATM    6  C2  UNL     1     -31.402   8.331   3.248  1.00 20.00     0.002 C 
HETATM    7  C3  UNL     1     -32.025   8.527   1.866  1.00 20.00     0.002 C 
HETATM    8  C5  UNL     1     -33.408   7.882   1.925  1.00 20.00     0.033 C 
HETATM    9  C7  UNL     1     -32.704   5.531   2.591  1.00 20.00     0.041 C 
ENDBRANCH   2   4
TORSDOF 1
ENDMDL
MODEL 4
REMARK VINA RESULT:      -3.8      1.243      2.012
REMARK  1 active torsions:
REMARK  status: ('A' for Active; 'I' for Inactive)
REMARK    1  A    between atoms: C6_6  and  N8_8 
ROOT
HETATM    1  C1  UNL     1     -32.957   8.159   2.224  1.00 20.00     0.158 C 
HETATM    2  N8  UNL     1     -33.957   7.822   2.734  1.00 20.00    -0.265 NA
HETATM    3  S9  UNL     1     -31.617   8.641   1.511  1.00 20.00    -0.055 SA
ENDROOT
BRANCH   2   4
HETATM    4  C6  UNL     1     -33.814   6.719   3.686  1.00 20.00     0.051 C 
HETATM    5  C4  UNL     1     -33.091   5.542   3.033  1.00 20.00     0.033 C 
HETATM    6  C2  UNL     1     -33.546   4.318   3.825  1.00 20.00     0.002 C 
HETATM    7  C3  UNL     1     -34.886   4.692   4.459  1.00 20.00     0.002 C 
HETATM    8  C5  UNL     1     -35.182   6.124   4.019  1.00 20.00     0.033 C 
HETATM    9  C7  UNL     1     -33.085   7.242   4.922  1.00 20.00     0.041 C 
ENDBRANCH   2   4
TORSDOF 1
ENDMDL
MODEL 5
REMARK VINA RESULT:      -3.6      9.280     10.325
REMARK  1 active torsions:
REMARK  status: ('A' for Active; 'I' for Inactive)
REMARK    1  A    between atoms: C6_6  and  N8_8 
ROOT
HETATM    1  C1  UNL     1     -43.387   4.250  -1.112  1.00 20.00     0.158 C 
HETATM    2  N8  UNL     1     -43.417   4.589   0.010  1.00 20.00    -0.265 NA
HETATM    3  S9  UNL     1     -43.363   3.759  -2.627  1.00 20.00    -0.055 SA
ENDROOT
BRANCH   2   4
HETATM    4  C6  UNL     1     -42.772   5.876   0.276  1.00 20.00     0.051 C 
HETATM    5  C4  UNL     1     -43.169   6.901  -0.786  1.00 20.00     0.033 C 
HETATM    6  C2  UNL     1     -42.027   7.915  -0.794  1.00 20.00     0.002 C 
HETATM    7  C3  UNL     1     -40.804   7.186  -0.237  1.00 20.00     0.002 C 
HETATM    8  C5  UNL     1     -41.260   5.764   0.079  1.00 20.00     0.033 C 
HETATM    9  C7  UNL     1     -43.149   6.320   1.689  1.00 20.00     0.041 C 
ENDBRANCH   2   4
TORSDOF 1
ENDMDL
MODEL 6
REMARK VINA RESULT:      -3.6     11.634     12.651
REMARK  1 active torsions:
REMARK  status: ('A' for Active; 'I' for Inactive)
REMARK    1  A    between atoms: C6_6  and  N8_8 
ROOT
HETATM    1  C1  UNL     1     -35.989  13.933  -4.920  1.00 20.00     0.158 C 
HETATM    2  N8  UNL     1     -34.902  13.597  -4.639  1.00 20.00    -0.265 NA
HETATM    3  S9  UNL     1     -37.477  14.353  -5.303  1.00 20.00    -0.055 SA
ENDROOT
BRANCH   2   4
HETATM    4  C6  UNL     1     -33.948  14.696  -4.473  1.00 20.00     0.051 C 
HETATM    5  C4  UNL     1     -34.430  15.660  -3.389  1.00 20.00     0.033 C 
HETATM    6  C2  UNL     1     -33.767  16.992  -3.730  1.00 20.00     0.002 C 
HETATM    7  C3  UNL     1     -33.446  16.940  -5.224  1.00 20.00     0.002 C 
HETATM    8  C5  UNL     1     -33.933  15.580  -5.719  1.00 20.00     0.033 C 
HETATM    9  C7  UNL     1     -32.577  14.099  -4.159  1.00 20.00     0.041 C 
ENDBRANCH   2   4
TORSDOF 1
ENDMDL
MODEL 7
REMARK VINA RESULT:      -3.6      2.452      4.624
REMARK  1 active torsions:
REMARK  status: ('A' for Active; 'I' for Inactive)
REMARK    1  A    between atoms: C6_6  and  N8_8 
ROOT
HETATM    1  C1  UNL     1     -33.494   6.931   3.820  1.00 20.00     0.158 C 
HETATM    2  N8  UNL     1     -33.152   6.962   2.699  1.00 20.00    -0.265 NA
HETATM    3  S9  UNL     1     -33.973   6.855   5.337  1.00 20.00    -0.055 SA
ENDROOT
BRANCH   2   4
HETATM    4  C6  UNL     1     -32.449   8.186   2.310  1.00 20.00     0.051 C 
HETATM    5  C4  UNL     1     -33.437   9.341   2.152  1.00 20.00     0.033 C 
HETATM    6  C2  UNL     1     -32.753  10.308   1.188  1.00 20.00     0.002 C 
HETATM    7  C3  UNL     1     -31.751   9.477   0.386  1.00 20.00     0.002 C 
HETATM    8  C5  UNL     1     -31.876   8.045   0.900  1.00 20.00     0.033 C 
HETATM    9  C7  UNL     1     -31.372   8.474   3.355  1.00 20.00     0.041 C 
ENDBRANCH   2   4
TORSDOF 1
ENDMDL
MODEL 8
REMARK VINA RESULT:      -3.6     12.020     12.812
REMARK  1 active torsions:
REMARK  status: ('A' for Active; 'I' for Inactive)
REMARK    1  A    between atoms: C6_6  and  N8_8 
ROOT
HETATM    1  C1  UNL     1     -38.606  14.774  -4.990  1.00 20.00     0.158 C 
HETATM    2  N8  UNL     1     -37.698  14.034  -4.934  1.00 20.00    -0.265 NA
HETATM    3  S9  UNL     1     -39.861  15.752  -5.065  1.00 20.00    -0.055 SA
ENDROOT
BRANCH   2   4
HETATM    4  C6  UNL     1     -36.383  14.678  -4.950  1.00 20.00     0.051 C 
HETATM    5  C4  UNL     1     -35.283  13.648  -4.701  1.00 20.00     0.033 C 
HETATM    6  C2  UNL     1     -34.119  14.453  -4.127  1.00 20.00     0.002 C 
HETATM    7  C3  UNL     1     -34.731  15.716  -3.520  1.00 20.00     0.002 C 
HETATM    8  C5  UNL     1     -36.236  15.616  -3.753  1.00 20.00     0.033 C 
HETATM    9  C7  UNL     1     -36.218  15.401  -6.286  1.00 20.00     0.041 C 
ENDBRANCH   2   4
TORSDOF 1
ENDMDL
MODEL 9
REMARK VINA RESULT:      -3.6     11.942     12.848
REMARK  1 active torsions:
REMARK  status: ('A' for Active; 'I' for Inactive)
REMARK    1  A    between atoms: C6_6  and  N8_8 
ROOT
HETATM    1  C1  UNL     1     -33.552  15.598  -6.390  1.00 20.00     0.158 C 
HETATM    2  N8  UNL     1     -33.218  16.052  -5.362  1.00 20.00    -0.265 NA
HETATM    3  S9  UNL     1     -33.977  14.995  -7.801  1.00 20.00    -0.055 SA
ENDROOT
BRANCH   2   4
HETATM    4  C6  UNL     1     -34.114  15.754  -4.243  1.00 20.00     0.051 C 
HETATM    5  C4  UNL     1     -35.487  16.384  -4.477  1.00 20.00     0.033 C 
HETATM    6  C2  UNL     1     -36.076  16.561  -3.080  1.00 20.00     0.002 C 
HETATM    7  C3  UNL     1     -34.890  16.610  -2.117  1.00 20.00     0.002 C 
HETATM    8  C5  UNL     1     -33.636  16.463  -2.976  1.00 20.00     0.033 C 
HETATM    9  C7  UNL     1     -34.185  14.237  -4.076  1.00 20.00     0.041 C 
ENDBRANCH   2   4
TORSDOF 1
ENDMDL
