MODEL 1
REMARK VINA RESULT:      -5.0      0.000      0.000
REMARK  4 active torsions:
REMARK  status: ('A' for Active; 'I' for Inactive)
REMARK    1  A    between atoms: C1_1  and  C5_5 
REMARK    2  A    between atoms: C2_2  and  C6_6 
REMARK    3  A    between atoms: C5_5  and  N8_8 
REMARK    4  A    between atoms: C7_7  and  N8_8 
ROOT
HETATM    1  C5  UNL     1     -32.598   7.636   4.000  1.00 20.00     0.299 C 
ENDROOT
BRANCH   1   2
HETATM    2  C1  UNL     1     -32.256   7.776   2.553  1.00 20.00     0.000 C 
HETATM    3  C2  UNL     1     -32.151   8.957   1.926  1.00 20.00    -0.014 C 
BRANCH   3   4
HETATM    4  C6  UNL     1     -31.790   9.100   0.483  1.00 20.00     0.141 C 
HETATM    5 CL9  UNL     1     -33.236   9.505  -0.464  1.00 20.00    -0.126 Cl
ENDBRANCH   3   4
ENDBRANCH   1   2
BRANCH   1   6
HETATM    6  N8  UNL     1     -33.875   6.992   4.119  1.00 20.00     0.087 N 
HETATM    7  C4  UNL     1     -33.971   5.820   3.234  1.00 20.00     0.310 C 
BRANCH   6   8
HETATM    8  C7  UNL     1     -34.143   6.579   5.506  1.00 20.00     0.268 C 
HETATM    9  C3  UNL     1     -34.630   5.172   5.565  1.00 20.00     0.037 C 
ENDBRANCH   6   8
ENDBRANCH   1   6
TORSDOF 4
ENDMDL
MODEL 2
REMARK VINA RESULT:      -4.6      2.901      5.071
REMARK  4 active torsions:
REMARK  status: ('A' for Active; 'I' for Inactive)
REMARK    1  A    between atoms: C1_1  and  C5_5 
REMARK    2  A    between atoms: C2_2  and  C6_6 
REMARK    3  A    between atoms: C5_5  and  N8_8 
REMARK    4  A    between atoms: C7_7  and  N8_8 
ROOT
HETATM    1  C5  UNL     1     -32.990   7.028   2.109  1.00 20.00     0.299 C 
ENDROOT
BRANCH   1   2
HETATM    2  C1  UNL     1     -33.444   6.365   3.368  1.00 20.00     0.000 C 
HETATM    3  C2  UNL     1     -34.053   5.170   3.401  1.00 20.00    -0.014 C 
BRANCH   3   4
HETATM    4  C6  UNL     1     -34.491   4.498   4.660  1.00 20.00     0.141 C 
HETATM    5 CL9  UNL     1     -34.579   5.682   5.979  1.00 20.00    -0.126 Cl
ENDBRANCH   3   4
ENDBRANCH   1   2
BRANCH   1   6
HETATM    6  N8  UNL     1     -32.484   8.334   2.424  1.00 20.00     0.087 N 
HETATM    7  C4  UNL     1     -31.471   8.275   3.491  1.00 20.00     0.310 C 
BRANCH   6   8
HETATM    8  C7  UNL     1     -31.906   8.987   1.238  1.00 20.00     0.268 C 
HETATM    9  C3  UNL     1     -32.669  10.215   0.875  1.00 20.00     0.037 C 
ENDBRANCH   6   8
ENDBRANCH   1   6
TORSDOF 4
ENDMDL
MODEL 3
REMARK VINA RESULT:      -4.4      0.727      1.339
REMARK  4 active torsions:
REMARK  status: ('A' for Active; 'I' for Inactive)
REMARK    1  A    between atoms: C1_1  and  C5_5 
REMARK    2  A    between atoms: C2_2  and  C6_6 
REMARK    3  A    between atoms: C5_5  and  N8_8 
REMARK    4  A    between atoms: C7_7  and  N8_8 
ROOT
HETATM    1  C5  UNL     1     -32.361   8.035   4.173  1.00 20.00     0.299 C 
ENDROOT
BRANCH   1   2
HETATM    2  C1  UNL     1     -32.170   7.956   2.694  1.00 20.00     0.000 C 
HETATM    3  C2  UNL     1     -31.973   9.028   1.911  1.00 20.00    -0.014 C 
BRANCH   3   4
HETATM    4  C6  UNL     1     -31.763   8.948   0.435  1.00 20.00     0.141 C 
HETATM    5 CL9  UNL     1     -33.213   9.522  -0.414  1.00 20.00    -0.126 Cl
ENDBRANCH   3   4
ENDBRANCH   1   2
BRANCH   1   6
HETATM    6  N8  UNL     1     -33.133   6.906   4.607  1.00 20.00     0.087 N 
HETATM    7  C4  UNL     1     -33.855   7.196   5.857  1.00 20.00     0.310 C 
BRANCH   6   8
HETATM    8  C7  UNL     1     -34.093   6.481   3.575  1.00 20.00     0.268 C 
HETATM    9  C3  UNL     1     -35.137   5.585   4.149  1.00 20.00     0.037 C 
ENDBRANCH   6   8
ENDBRANCH   1   6
TORSDOF 4
ENDMDL
MODEL 4
REMARK VINA RESULT:      -4.2      2.759      4.971
REMARK  4 active torsions:
REMARK  status: ('A' for Active; 'I' for Inactive)
REMARK    1  A    between atoms: C1_1  and  C5_5 
REMARK    2  A    between atoms: C2_2  and  C6_6 
REMARK    3  A    between atoms: C5_5  and  N8_8 
REMARK    4  A    between atoms: C7_7  and  N8_8 
ROOT
HETATM    1  C5  UNL     1     -31.754   8.471   2.613  1.00 20.00     0.299 C 
ENDROOT
BRANCH   1   2
HETATM    2  C1  UNL     1     -32.613   7.599   3.470  1.00 20.00     0.000 C 
HETATM    3  C2  UNL     1     -33.409   6.634   2.986  1.00 20.00    -0.014 C 
BRANCH   3   4
HETATM    4  C6  UNL     1     -34.253   5.750   3.844  1.00 20.00     0.141 C 
HETATM    5 CL9  UNL     1     -34.261   6.354   5.513  1.00 20.00    -0.126 Cl
ENDBRANCH   3   4
ENDBRANCH   1   2
BRANCH   1   6
HETATM    6  N8  UNL     1     -32.581   9.144   1.652  1.00 20.00     0.087 N 
HETATM    7  C4  UNL     1     -32.641  10.591   1.914  1.00 20.00     0.310 C 
BRANCH   6   8
HETATM    8  C7  UNL     1     -32.105   8.915   0.278  1.00 20.00     0.268 C 
HETATM    9  C3  UNL     1     -33.130   9.327  -0.722  1.00 20.00     0.037 C 
ENDBRANCH   6   8
ENDBRANCH   1   6
TORSDOF 4
ENDMDL
MODEL 5
REMARK VINA RESULT:      -4.0      1.363      1.924
REMARK  4 active torsions:
REMARK  status: ('A' for Active; 'I' for Inactive)
REMARK    1  A    between atoms: C1_1  and  C5_5 
REMARK    2  A    between atoms: C2_2  and  C6_6 
REMARK    3  A    between atoms: C5_5  and  N8_8 
REMARK    4  A    between atoms: C7_7  and  N8_8 
ROOT
HETATM    1  C5  UNL     1     -34.842   6.210   3.586  1.00 20.00     0.299 C 
ENDROOT
BRANCH   1   2
HETATM    2  C1  UNL     1     -33.524   6.507   2.948  1.00 20.00     0.000 C 
HETATM    3  C2  UNL     1     -33.115   7.744   2.630  1.00 20.00    -0.014 C 
BRANCH   3   4
HETATM    4  C6  UNL     1     -31.790   8.044   2.009  1.00 20.00     0.141 C 
HETATM    5 CL9  UNL     1     -31.932   9.444   0.927  1.00 20.00    -0.126 Cl
ENDBRANCH   3   4
ENDBRANCH   1   2
BRANCH   1   6
HETATM    6  N8  UNL     1     -34.745   4.973   4.307  1.00 20.00     0.087 N 
HETATM    7  C4  UNL     1     -33.672   4.120   3.771  1.00 20.00     0.310 C 
BRANCH   6   8
HETATM    8  C7  UNL     1     -34.514   5.204   5.743  1.00 20.00     0.268 C 
HETATM    9  C3  UNL     1     -34.223   6.639   6.017  1.00 20.00     0.037 C 
ENDBRANCH   6   8
ENDBRANCH   1   6
TORSDOF 4
ENDMDL
MODEL 6
REMARK VINA RESULT:      -3.8      3.023      4.953
REMARK  4 active torsions:
REMARK  status: ('A' for Active; 'I' for Inactive)
REMARK    1  A    between atoms: C1_1  and  C5_5 
REMARK    2  A    between atoms: C2_2  and  C6_6 
REMARK    3  A    between atoms: C5_5  and  N8_8 
REMARK    4  A    between atoms: C7_7  and  N8_8 
ROOT
HETATM    1  C5  UNL     1     -31.715   8.473   1.459  1.00 20.00     0.299 C 
ENDROOT
BRANCH   1   2
HETATM    2  C1  UNL     1     -32.861   7.951   2.261  1.00 20.00     0.000 C 
HETATM    3  C2  UNL     1     -32.717   7.252   3.396  1.00 20.00    -0.014 C 
BRANCH   3   4
HETATM    4  C6  UNL     1     -33.863   6.746   4.209  1.00 20.00     0.141 C 
HETATM    5 CL9  UNL     1     -33.738   7.350   5.873  1.00 20.00    -0.126 Cl
ENDBRANCH   3   4
ENDBRANCH   1   2
BRANCH   1   6
HETATM    6  N8  UNL     1     -32.182   9.526   0.603  1.00 20.00     0.087 N 
HETATM    7  C4  UNL     1     -32.893   8.991  -0.570  1.00 20.00     0.310 C 
BRANCH   6   8
HETATM    8  C7  UNL     1     -33.064  10.457   1.326  1.00 20.00     0.268 C 
HETATM    9  C3  UNL     1     -32.274  11.462   2.092  1.00 20.00     0.037 C 
ENDBRANCH   6   8
ENDBRANCH   1   6
TORSDOF 4
ENDMDL
MODEL 7
REMARK VINA RESULT:      -3.4     10.716     11.281
REMARK  4 active torsions:
REMARK  status: ('A' for Active; 'I' for Inactive)
REMARK    1  A    between atoms: C1_1  and  C5_5 
REMARK    2  A    between atoms: C2_2  and  C6_6 
REMARK    3  A    between atoms: C5_5  and  N8_8 
REMARK    4  A    between atoms: C7_7  and  N8_8 
ROOT
HETATM    1  C5  UNL     1     -34.407  14.430  -4.590  1.00 20.00     0.299 C 
ENDROOT
BRANCH   1   2
HETATM    2  C1  UNL     1     -34.613  15.437  -3.506  1.00 20.00     0.000 C 
HETATM    3  C2  UNL     1     -33.666  16.295  -3.099  1.00 20.00    -0.014 C 
BRANCH   3   4
HETATM    4  C6  UNL     1     -33.876  17.314  -2.028  1.00 20.00     0.141 C 
HETATM    5 CL9  UNL     1     -35.308  16.895  -1.066  1.00 20.00    -0.126 Cl
ENDBRANCH   3   4
ENDBRANCH   1   2
BRANCH   1   6
HETATM    6  N8  UNL     1     -35.668  13.826  -4.914  1.00 20.00     0.087 N 
HETATM    7  C4  UNL     1     -36.781  14.773  -4.733  1.00 20.00     0.310 C 
BRANCH   6   8
HETATM    8  C7  UNL     1     -35.681  13.315  -6.294  1.00 20.00     0.268 C 
HETATM    9  C3  UNL     1     -34.463  13.743  -7.038  1.00 20.00     0.037 C 
ENDBRANCH   6   8
ENDBRANCH   1   6
TORSDOF 4
ENDMDL
MODEL 8
REMARK VINA RESULT:      -3.4     10.605     11.312
REMARK  4 active torsions:
REMARK  status: ('A' for Active; 'I' for Inactive)
REMARK    1  A    between atoms: C1_1  and  C5_5 
REMARK    2  A    between atoms: C2_2  and  C6_6 
REMARK    3  A    between atoms: C5_5  and  N8_8 
REMARK    4  A    between atoms: C7_7  and  N8_8 
ROOT
HETATM    1  C5  UNL     1     -33.758  16.535  -3.154  1.00 20.00     0.299 C 
ENDROOT
BRANCH   1   2
HETATM    2  C1  UNL     1     -33.774  17.136  -1.787  1.00 20.00     0.000 C 
HETATM    3  C2  UNL     1     -32.896  18.061  -1.371  1.00 20.00    -0.014 C 
BRANCH   3   4
HETATM    4  C6  UNL     1     -32.923  18.676  -0.010  1.00 20.00     0.141 C 
HETATM    5 CL9  UNL     1     -31.290  18.671   0.688  1.00 20.00    -0.126 Cl
ENDBRANCH   3   4
ENDBRANCH   1   2
BRANCH   1   6
HETATM    6  N8  UNL     1     -34.840  15.600  -3.268  1.00 20.00     0.087 N 
HETATM    7  C4  UNL     1     -36.035  16.229  -3.855  1.00 20.00     0.310 C 
BRANCH   6   8
HETATM    8  C7  UNL     1     -34.459  14.430  -4.075  1.00 20.00     0.268 C 
HETATM    9  C3  UNL     1     -33.009  14.462  -4.418  1.00 20.00     0.037 C 
ENDBRANCH   6   8
ENDBRANCH   1   6
TORSDOF 4
ENDMDL
MODEL 9
REMARK VINA RESULT:      -3.4     10.770     11.311
REMARK  4 active torsions:
REMARK  status: ('A' for Active; 'I' for Inactive)
REMARK    1  A    between atoms: C1_1  and  C5_5 
REMARK    2  A    between atoms: C2_2  and  C6_6 
REMARK    3  A    between atoms: C5_5  and  N8_8 
REMARK    4  A    between atoms: C7_7  and  N8_8 
ROOT
HETATM    1  C5  UNL     1     -35.312  15.792  -3.500  1.00 20.00     0.299 C 
ENDROOT
BRANCH   1   2
HETATM    2  C1  UNL     1     -34.497  16.599  -2.544  1.00 20.00     0.000 C 
HETATM    3  C2  UNL     1     -34.963  17.055  -1.371  1.00 20.00    -0.014 C 
BRANCH   3   4
HETATM    4  C6  UNL     1     -34.144  17.847  -0.406  1.00 20.00     0.141 C 
HETATM    5 CL9  UNL     1     -32.529  18.142  -1.082  1.00 20.00    -0.126 Cl
ENDBRANCH   3   4
ENDBRANCH   1   2
BRANCH   1   6
HETATM    6  N8  UNL     1     -34.544  14.657  -3.927  1.00 20.00     0.087 N 
HETATM    7  C4  UNL     1     -35.267  13.870  -4.941  1.00 20.00     0.310 C 
BRANCH   6   8
HETATM    8  C7  UNL     1     -33.236  15.063  -4.466  1.00 20.00     0.268 C 
HETATM    9  C3  UNL     1     -33.361  15.567  -5.862  1.00 20.00     0.037 C 
ENDBRANCH   6   8
ENDBRANCH   1   6
TORSDOF 4
ENDMDL
