MODEL 1
REMARK VINA RESULT:      -6.2      0.000      0.000
REMARK  4 active torsions:
REMARK  status: ('A' for Active; 'I' for Inactive)
REMARK    1  A    between atoms: C1_1  and  C12_12 
REMARK    2  A    between atoms: C6_6  and  C10_10 
REMARK    3  A    between atoms: C7_7  and  C11_11 
REMARK    4  A    between atoms: C11_11  and  C12_12 
ROOT
HETATM    1  C2  UNL     1     -33.465   3.882   3.860  1.00 20.00     0.001 C 
HETATM    2  C3  UNL     1     -34.821   4.264   4.450  1.00 20.00     0.005 C 
HETATM    3  C4  UNL     1     -33.110   4.749   2.655  1.00 20.00     0.005 C 
HETATM    4  C5  UNL     1     -34.533   6.622   3.581  1.00 20.00     0.009 C 
HETATM    5  C6  UNL     1     -34.930   5.758   4.787  1.00 20.00    -0.014 C 
HETATM    6  C7  UNL     1     -33.166   6.244   2.989  1.00 20.00    -0.013 C 
ENDROOT
BRANCH   6   7
HETATM    7  C11 UNL     1     -32.870   7.083   1.746  1.00 20.00     0.015 C 
BRANCH   7   8
HETATM    8  C12 UNL     1     -32.490   8.526   2.092  1.00 20.00     0.043 C 
HETATM    9  C9  UNL     1     -31.374   8.550   3.134  1.00 20.00     0.017 C 
BRANCH   8  10
HETATM   10  C1  UNL     1     -32.016   9.321   0.888  1.00 20.00     0.235 C 
HETATM   11  O13 UNL     1     -32.750   9.910   0.101  1.00 20.00    -0.306 OA
ENDBRANCH   8  10
ENDBRANCH   7   8
ENDBRANCH   6   7
BRANCH   5  12
HETATM   12  C10 UNL     1     -34.116   6.116   6.035  1.00 20.00     0.000 C 
HETATM   13  C8  UNL     1     -33.625   7.525   5.984  1.00 20.00     0.005 C 
ENDBRANCH   5  12
TORSDOF 4
ENDMDL
MODEL 2
REMARK VINA RESULT:      -6.0      1.127      1.699
REMARK  4 active torsions:
REMARK  status: ('A' for Active; 'I' for Inactive)
REMARK    1  A    between atoms: C1_1  and  C12_12 
REMARK    2  A    between atoms: C6_6  and  C10_10 
REMARK    3  A    between atoms: C7_7  and  C11_11 
REMARK    4  A    between atoms: C11_11  and  C12_12 
ROOT
HETATM    1  C2  UNL     1     -33.351   5.103   2.878  1.00 20.00     0.001 C 
HETATM    2  C3  UNL     1     -34.721   5.566   3.369  1.00 20.00     0.005 C 
HETATM    3  C4  UNL     1     -32.583   6.234   2.200  1.00 20.00     0.005 C 
HETATM    4  C5  UNL     1     -33.840   7.926   3.596  1.00 20.00     0.009 C 
HETATM    5  C6  UNL     1     -34.648   6.806   4.270  1.00 20.00    -0.014 C 
HETATM    6  C7  UNL     1     -32.458   7.464   3.107  1.00 20.00    -0.013 C 
ENDROOT
BRANCH   6   7
HETATM    7  C11 UNL     1     -31.742   8.600   2.375  1.00 20.00     0.015 C 
BRANCH   7   8
HETATM    8  C12 UNL     1     -32.693   9.420   1.498  1.00 20.00     0.043 C 
HETATM    9  C9  UNL     1     -32.494  10.913   1.745  1.00 20.00     0.017 C 
BRANCH   8  10
HETATM   10  C1  UNL     1     -32.500   9.167   0.013  1.00 20.00     0.235 C 
HETATM   11  O13 UNL     1     -33.407   9.071  -0.808  1.00 20.00    -0.306 OA
ENDBRANCH   8  10
ENDBRANCH   7   8
ENDBRANCH   6   7
BRANCH   5  12
HETATM   12  C10 UNL     1     -34.097   6.465   5.658  1.00 20.00     0.000 C 
HETATM   13  C8  UNL     1     -34.534   5.108   6.104  1.00 20.00     0.005 C 
ENDBRANCH   5  12
TORSDOF 4
ENDMDL
MODEL 3
REMARK VINA RESULT:      -5.0     10.777     12.225
REMARK  4 active torsions:
REMARK  status: ('A' for Active; 'I' for Inactive)
REMARK    1  A    between atoms: C1_1  and  C12_12 
REMARK    2  A    between atoms: C6_6  and  C10_10 
REMARK    3  A    between atoms: C7_7  and  C11_11 
REMARK    4  A    between atoms: C11_11  and  C12_12 
ROOT
HETATM    1  C2  UNL     1     -34.891  17.613  -0.092  1.00 20.00     0.001 C 
HETATM    2  C3  UNL     1     -34.316  19.026  -0.136  1.00 20.00     0.005 C 
HETATM    3  C4  UNL     1     -34.959  16.988  -1.483  1.00 20.00     0.005 C 
HETATM    4  C5  UNL     1     -33.025  18.436  -2.228  1.00 20.00     0.009 C 
HETATM    5  C6  UNL     1     -32.957  19.101  -0.845  1.00 20.00    -0.014 C 
HETATM    6  C7  UNL     1     -33.597  17.010  -2.187  1.00 20.00    -0.013 C 
ENDROOT
BRANCH   6   7
HETATM    7  C11 UNL     1     -33.714  16.438  -3.599  1.00 20.00     0.015 C 
BRANCH   7   8
HETATM    8  C12 UNL     1     -34.916  15.500  -3.751  1.00 20.00     0.043 C 
HETATM    9  C9  UNL     1     -35.872  16.024  -4.819  1.00 20.00     0.017 C 
BRANCH   8  10
HETATM   10  C1  UNL     1     -34.520  14.085  -4.139  1.00 20.00     0.235 C 
HETATM   11  O13 UNL     1     -35.250  13.284  -4.715  1.00 20.00    -0.306 OA
ENDBRANCH   8  10
ENDBRANCH   7   8
ENDBRANCH   6   7
BRANCH   5  12
HETATM   12  C10 UNL     1     -31.837  18.509   0.016  1.00 20.00     0.000 C 
HETATM   13  C8  UNL     1     -31.774  19.160   1.358  1.00 20.00     0.005 C 
ENDBRANCH   5  12
TORSDOF 4
ENDMDL
MODEL 4
REMARK VINA RESULT:      -4.8     11.328     12.565
REMARK  4 active torsions:
REMARK  status: ('A' for Active; 'I' for Inactive)
REMARK    1  A    between atoms: C1_1  and  C12_12 
REMARK    2  A    between atoms: C6_6  and  C10_10 
REMARK    3  A    between atoms: C7_7  and  C11_11 
REMARK    4  A    between atoms: C11_11  and  C12_12 
ROOT
HETATM    1  C2  UNL     1     -33.984  18.678  -4.038  1.00 20.00     0.001 C 
HETATM    2  C3  UNL     1     -33.399  18.272  -2.688  1.00 20.00     0.005 C 
HETATM    3  C4  UNL     1     -33.684  17.641  -5.117  1.00 20.00     0.005 C 
HETATM    4  C5  UNL     1     -33.558  15.837  -3.350  1.00 20.00     0.009 C 
HETATM    5  C6  UNL     1     -33.829  16.867  -2.244  1.00 20.00    -0.014 C 
HETATM    6  C7  UNL     1     -34.152  16.239  -4.710  1.00 20.00    -0.013 C 
ENDROOT
BRANCH   6   7
HETATM    7  C11 UNL     1     -33.778  15.216  -5.782  1.00 20.00     0.015 C 
BRANCH   7   8
HETATM    8  C12 UNL     1     -35.008  14.577  -6.434  1.00 20.00     0.043 C 
HETATM    9  C9  UNL     1     -34.585  13.562  -7.492  1.00 20.00     0.017 C 
BRANCH   8  10
HETATM   10  C1  UNL     1     -35.905  13.862  -5.438  1.00 20.00     0.235 C 
HETATM   11  O13 UNL     1     -35.880  12.657  -5.209  1.00 20.00    -0.306 OA
ENDBRANCH   8  10
ENDBRANCH   7   8
ENDBRANCH   6   7
BRANCH   5  12
HETATM   12  C10 UNL     1     -35.291  16.841  -1.788  1.00 20.00     0.000 C 
HETATM   13  C8  UNL     1     -35.438  17.330  -0.385  1.00 20.00     0.005 C 
ENDBRANCH   5  12
TORSDOF 4
ENDMDL
MODEL 5
REMARK VINA RESULT:      -4.7     11.151     12.316
REMARK  4 active torsions:
REMARK  status: ('A' for Active; 'I' for Inactive)
REMARK    1  A    between atoms: C1_1  and  C12_12 
REMARK    2  A    between atoms: C6_6  and  C10_10 
REMARK    3  A    between atoms: C7_7  and  C11_11 
REMARK    4  A    between atoms: C11_11  and  C12_12 
ROOT
HETATM    1  C2  UNL     1     -36.323  17.470  -2.372  1.00 20.00     0.001 C 
HETATM    2  C3  UNL     1     -35.319  18.609  -2.537  1.00 20.00     0.005 C 
HETATM    3  C4  UNL     1     -36.003  16.299  -3.298  1.00 20.00     0.005 C 
HETATM    4  C5  UNL     1     -33.561  16.951  -3.282  1.00 20.00     0.009 C 
HETATM    5  C6  UNL     1     -33.862  18.154  -2.375  1.00 20.00    -0.014 C 
HETATM    6  C7  UNL     1     -34.565  15.800  -3.114  1.00 20.00    -0.013 C 
ENDROOT
BRANCH   6   7
HETATM    7  C11 UNL     1     -34.258  14.673  -4.100  1.00 20.00     0.015 C 
BRANCH   7   8
HETATM    8  C12 UNL     1     -34.947  14.876  -5.452  1.00 20.00     0.043 C 
HETATM    9  C9  UNL     1     -33.913  15.127  -6.547  1.00 20.00     0.017 C 
BRANCH   8  10
HETATM   10  C1  UNL     1     -35.790  13.686  -5.876  1.00 20.00     0.235 C 
HETATM   11  O13 UNL     1     -35.895  12.638  -5.245  1.00 20.00    -0.306 OA
ENDBRANCH   8  10
ENDBRANCH   7   8
ENDBRANCH   6   7
BRANCH   5  12
HETATM   12  C10 UNL     1     -33.520  17.862  -0.911  1.00 20.00     0.000 C 
HETATM   13  C8  UNL     1     -32.242  18.518  -0.504  1.00 20.00     0.005 C 
ENDBRANCH   5  12
TORSDOF 4
ENDMDL
MODEL 6
REMARK VINA RESULT:      -4.7     10.807     12.200
REMARK  4 active torsions:
REMARK  status: ('A' for Active; 'I' for Inactive)
REMARK    1  A    between atoms: C1_1  and  C12_12 
REMARK    2  A    between atoms: C6_6  and  C10_10 
REMARK    3  A    between atoms: C7_7  and  C11_11 
REMARK    4  A    between atoms: C11_11  and  C12_12 
ROOT
HETATM    1  C2  UNL     1     -33.214  18.791  -0.300  1.00 20.00     0.001 C 
HETATM    2  C3  UNL     1     -34.308  18.239   0.612  1.00 20.00     0.005 C 
HETATM    3  C4  UNL     1     -32.856  17.807  -1.410  1.00 20.00     0.005 C 
HETATM    4  C5  UNL     1     -35.184  16.828  -1.295  1.00 20.00     0.009 C 
HETATM    5  C6  UNL     1     -35.558  17.787  -0.156  1.00 20.00    -0.014 C 
HETATM    6  C7  UNL     1     -34.088  17.383  -2.219  1.00 20.00    -0.013 C 
ENDROOT
BRANCH   6   7
HETATM    7  C11 UNL     1     -33.705  16.350  -3.278  1.00 20.00     0.015 C 
BRANCH   7   8
HETATM    8  C12 UNL     1     -34.908  15.531  -3.757  1.00 20.00     0.043 C 
HETATM    9  C9  UNL     1     -35.555  16.191  -4.971  1.00 20.00     0.017 C 
BRANCH   8  10
HETATM   10  C1  UNL     1     -34.543  14.108  -4.143  1.00 20.00     0.235 C 
HETATM   11  O13 UNL     1     -35.215  13.381  -4.867  1.00 20.00    -0.306 OA
ENDBRANCH   8  10
ENDBRANCH   7   8
ENDBRANCH   6   7
BRANCH   5  12
HETATM   12  C10 UNL     1     -36.373  18.981  -0.662  1.00 20.00     0.000 C 
HETATM   13  C8  UNL     1     -37.534  18.542  -1.492  1.00 20.00     0.005 C 
ENDBRANCH   5  12
TORSDOF 4
ENDMDL
MODEL 7
REMARK VINA RESULT:      -4.6     11.142     12.320
REMARK  4 active torsions:
REMARK  status: ('A' for Active; 'I' for Inactive)
REMARK    1  A    between atoms: C1_1  and  C12_12 
REMARK    2  A    between atoms: C6_6  and  C10_10 
REMARK    3  A    between atoms: C7_7  and  C11_11 
REMARK    4  A    between atoms: C11_11  and  C12_12 
ROOT
HETATM    1  C2  UNL     1     -36.964  15.016  -5.029  1.00 20.00     0.001 C 
HETATM    2  C3  UNL     1     -36.163  13.732  -5.238  1.00 20.00     0.005 C 
HETATM    3  C4  UNL     1     -36.561  15.727  -3.739  1.00 20.00     0.005 C 
HETATM    4  C5  UNL     1     -34.254  14.704  -3.895  1.00 20.00     0.009 C 
HETATM    5  C6  UNL     1     -34.646  13.954  -5.177  1.00 20.00    -0.014 C 
HETATM    6  C7  UNL     1     -35.053  16.000  -3.684  1.00 20.00    -0.013 C 
ENDROOT
BRANCH   6   7
HETATM    7  C11 UNL     1     -34.675  16.653  -2.355  1.00 20.00     0.015 C 
BRANCH   7   8
HETATM    8  C12 UNL     1     -33.340  17.400  -2.430  1.00 20.00     0.043 C 
HETATM    9  C9  UNL     1     -33.399  18.496  -3.490  1.00 20.00     0.017 C 
BRANCH   8  10
HETATM   10  C1  UNL     1     -32.947  18.049  -1.114  1.00 20.00     0.235 C 
HETATM   11  O13 UNL     1     -31.803  18.360  -0.797  1.00 20.00    -0.306 OA
ENDBRANCH   8  10
ENDBRANCH   7   8
ENDBRANCH   6   7
BRANCH   5  12
HETATM   12  C10 UNL     1     -34.126  14.663  -6.431  1.00 20.00     0.000 C 
HETATM   13  C8  UNL     1     -34.391  13.863  -7.663  1.00 20.00     0.005 C 
ENDBRANCH   5  12
TORSDOF 4
ENDMDL
MODEL 8
REMARK VINA RESULT:      -4.5     11.054     12.210
REMARK  4 active torsions:
REMARK  status: ('A' for Active; 'I' for Inactive)
REMARK    1  A    between atoms: C1_1  and  C12_12 
REMARK    2  A    between atoms: C6_6  and  C10_10 
REMARK    3  A    between atoms: C7_7  and  C11_11 
REMARK    4  A    between atoms: C11_11  and  C12_12 
ROOT
HETATM    1  C2  UNL     1     -35.639  13.491  -4.909  1.00 20.00     0.001 C 
HETATM    2  C3  UNL     1     -36.293  14.346  -5.993  1.00 20.00     0.005 C 
HETATM    3  C4  UNL     1     -34.483  14.225  -4.234  1.00 20.00     0.005 C 
HETATM    4  C5  UNL     1     -35.572  16.441  -4.774  1.00 20.00     0.009 C 
HETATM    5  C6  UNL     1     -36.731  15.727  -5.486  1.00 20.00    -0.014 C 
HETATM    6  C7  UNL     1     -34.916  15.586  -3.678  1.00 20.00    -0.013 C 
ENDROOT
BRANCH   6   7
HETATM    7  C11 UNL     1     -33.722  16.321  -3.068  1.00 20.00     0.015 C 
BRANCH   7   8
HETATM    8  C12 UNL     1     -34.151  17.423  -2.095  1.00 20.00     0.043 C 
HETATM    9  C9  UNL     1     -35.280  16.933  -1.194  1.00 20.00     0.017 C 
BRANCH   8  10
HETATM   10  C1  UNL     1     -33.019  17.900  -1.201  1.00 20.00     0.235 C 
HETATM   11  O13 UNL     1     -32.193  18.754  -1.506  1.00 20.00    -0.306 OA
ENDBRANCH   8  10
ENDBRANCH   7   8
ENDBRANCH   6   7
BRANCH   5  12
HETATM   12  C10 UNL     1     -37.974  15.635  -4.596  1.00 20.00     0.000 C 
HETATM   13  C8  UNL     1     -39.073  14.876  -5.264  1.00 20.00     0.005 C 
ENDBRANCH   5  12
TORSDOF 4
ENDMDL
MODEL 9
REMARK VINA RESULT:      -4.5     11.230     12.904
REMARK  4 active torsions:
REMARK  status: ('A' for Active; 'I' for Inactive)
REMARK    1  A    between atoms: C1_1  and  C12_12 
REMARK    2  A    between atoms: C6_6  and  C10_10 
REMARK    3  A    between atoms: C7_7  and  C11_11 
REMARK    4  A    between atoms: C11_11  and  C12_12 
ROOT
HETATM    1  C2  UNL     1     -35.558  13.717  -5.891  1.00 20.00     0.001 C 
HETATM    2  C3  UNL     1     -34.474  13.748  -6.966  1.00 20.00     0.005 C 
HETATM    3  C4  UNL     1     -35.014  14.145  -4.530  1.00 20.00     0.005 C 
HETATM    4  C5  UNL     1     -33.245  15.542  -5.675  1.00 20.00     0.009 C 
HETATM    5  C6  UNL     1     -33.755  15.101  -7.055  1.00 20.00    -0.014 C 
HETATM    6  C7  UNL     1     -34.335  15.518  -4.592  1.00 20.00    -0.013 C 
ENDROOT
BRANCH   6   7
HETATM    7  C11 UNL     1     -33.745  15.886  -3.230  1.00 20.00     0.015 C 
BRANCH   7   8
HETATM    8  C12 UNL     1     -34.265  17.231  -2.713  1.00 20.00     0.043 C 
HETATM    9  C9  UNL     1     -34.714  17.108  -1.260  1.00 20.00     0.017 C 
BRANCH   8  10
HETATM   10  C1  UNL     1     -33.225  18.337  -2.783  1.00 20.00     0.235 C 
HETATM   11  O13 UNL     1     -32.471  18.652  -1.869  1.00 20.00    -0.306 OA
ENDBRANCH   8  10
ENDBRANCH   7   8
ENDBRANCH   6   7
BRANCH   5  12
HETATM   12  C10 UNL     1     -34.640  16.171  -7.702  1.00 20.00     0.000 C 
HETATM   13  C8  UNL     1     -33.947  17.492  -7.767  1.00 20.00     0.005 C 
ENDBRANCH   5  12
TORSDOF 4
ENDMDL
