MODEL 1
REMARK VINA RESULT:      -5.8      0.000      0.000
REMARK  4 active torsions:
REMARK  status: ('A' for Active; 'I' for Inactive)
REMARK    1  A    between atoms: C2_2  and  C5_5 
REMARK    2  A    between atoms: C5_5  and  C6_6 
REMARK    3  A    between atoms: C6_6  and  C8_8 
REMARK    4  A    between atoms: C7_7  and  C8_8 
ROOT
HETATM    1  C1  UNL     1     -32.550   9.139   1.044  1.00 20.00    -0.111 C 
HETATM    2  C2  UNL     1     -32.238   8.574   2.057  1.00 20.00    -0.107 C 
HETATM    3  C3  UNL     1     -32.930   9.829  -0.188  1.00 20.00     0.112 C 
ENDROOT
BRANCH   2   4
HETATM    4  C5  UNL     1     -31.859   7.882   3.296  1.00 20.00     0.094 C 
BRANCH   4   5
HETATM    5  C6  UNL     1     -33.071   7.322   4.047  1.00 20.00     0.017 C 
BRANCH   5   6
HETATM    6  C8  UNL     1     -33.913   6.285   3.271  1.00 20.00    -0.004 C 
HETATM    7  C4  UNL     1     -32.997   5.181   2.727  1.00 20.00     0.011 C 
BRANCH   6   8
HETATM    8  C7  UNL     1     -35.087   5.694   4.067  1.00 20.00     0.119 C 
HETATM    9 CL9  UNL     1     -34.599   4.944   5.606  1.00 20.00    -0.130 Cl
ENDBRANCH   6   8
ENDBRANCH   5   6
ENDBRANCH   4   5
ENDBRANCH   2   4
TORSDOF 4
ENDMDL
MODEL 2
REMARK VINA RESULT:      -5.7      1.449      1.873
REMARK  4 active torsions:
REMARK  status: ('A' for Active; 'I' for Inactive)
REMARK    1  A    between atoms: C2_2  and  C5_5 
REMARK    2  A    between atoms: C5_5  and  C6_6 
REMARK    3  A    between atoms: C6_6  and  C8_8 
REMARK    4  A    between atoms: C7_7  and  C8_8 
ROOT
HETATM    1  C1  UNL     1     -32.538   8.656   1.754  1.00 20.00    -0.111 C 
HETATM    2  C2  UNL     1     -32.793   7.606   2.277  1.00 20.00    -0.107 C 
HETATM    3  C3  UNL     1     -32.231   9.936   1.117  1.00 20.00     0.112 C 
ENDROOT
BRANCH   2   4
HETATM    4  C5  UNL     1     -33.105   6.320   2.916  1.00 20.00     0.094 C 
BRANCH   4   5
HETATM    5  C6  UNL     1     -34.554   6.248   3.407  1.00 20.00     0.017 C 
BRANCH   5   6
HETATM    6  C8  UNL     1     -34.819   5.245   4.552  1.00 20.00    -0.004 C 
HETATM    7  C4  UNL     1     -34.070   3.935   4.273  1.00 20.00     0.011 C 
BRANCH   6   8
HETATM    8  C7  UNL     1     -34.500   5.783   5.956  1.00 20.00     0.119 C 
HETATM    9 CL9  UNL     1     -33.772   7.408   5.948  1.00 20.00    -0.130 Cl
ENDBRANCH   6   8
ENDBRANCH   5   6
ENDBRANCH   4   5
ENDBRANCH   2   4
TORSDOF 4
ENDMDL
MODEL 3
REMARK VINA RESULT:      -5.2      1.164      1.412
REMARK  4 active torsions:
REMARK  status: ('A' for Active; 'I' for Inactive)
REMARK    1  A    between atoms: C2_2  and  C5_5 
REMARK    2  A    between atoms: C5_5  and  C6_6 
REMARK    3  A    between atoms: C6_6  and  C8_8 
REMARK    4  A    between atoms: C7_7  and  C8_8 
ROOT
HETATM    1  C1  UNL     1     -32.496   9.134   1.553  1.00 20.00    -0.111 C 
HETATM    2  C2  UNL     1     -32.522   8.175   2.275  1.00 20.00    -0.107 C 
HETATM    3  C3  UNL     1     -32.467  10.302   0.674  1.00 20.00     0.112 C 
ENDROOT
BRANCH   2   4
HETATM    4  C5  UNL     1     -32.553   7.001   3.158  1.00 20.00     0.094 C 
BRANCH   4   5
HETATM    5  C6  UNL     1     -33.270   7.285   4.482  1.00 20.00     0.017 C 
BRANCH   5   6
HETATM    6  C8  UNL     1     -34.569   6.482   4.721  1.00 20.00    -0.004 C 
HETATM    7  C4  UNL     1     -35.237   6.171   3.375  1.00 20.00     0.011 C 
BRANCH   6   8
HETATM    8  C7  UNL     1     -34.383   5.207   5.560  1.00 20.00     0.119 C 
HETATM    9 CL9  UNL     1     -34.063   3.752   4.585  1.00 20.00    -0.130 Cl
ENDBRANCH   6   8
ENDBRANCH   5   6
ENDBRANCH   4   5
ENDBRANCH   2   4
TORSDOF 4
ENDMDL
MODEL 4
REMARK VINA RESULT:      -4.9      2.069      2.955
REMARK  4 active torsions:
REMARK  status: ('A' for Active; 'I' for Inactive)
REMARK    1  A    between atoms: C2_2  and  C5_5 
REMARK    2  A    between atoms: C5_5  and  C6_6 
REMARK    3  A    between atoms: C6_6  and  C8_8 
REMARK    4  A    between atoms: C7_7  and  C8_8 
ROOT
HETATM    1  C1  UNL     1     -32.366   7.864   3.807  1.00 20.00    -0.111 C 
HETATM    2  C2  UNL     1     -33.108   7.548   4.697  1.00 20.00    -0.107 C 
HETATM    3  C3  UNL     1     -31.465   8.251   2.723  1.00 20.00     0.112 C 
ENDROOT
BRANCH   2   4
HETATM    4  C5  UNL     1     -34.017   7.161   5.785  1.00 20.00     0.094 C 
BRANCH   4   5
HETATM    5  C6  UNL     1     -34.140   5.641   5.929  1.00 20.00     0.017 C 
BRANCH   5   6
HETATM    6  C8  UNL     1     -34.844   4.917   4.760  1.00 20.00    -0.004 C 
HETATM    7  C4  UNL     1     -35.465   5.952   3.812  1.00 20.00     0.011 C 
BRANCH   6   8
HETATM    8  C7  UNL     1     -33.953   3.924   3.997  1.00 20.00     0.119 C 
HETATM    9 CL9  UNL     1     -33.099   4.650   2.614  1.00 20.00    -0.130 Cl
ENDBRANCH   6   8
ENDBRANCH   5   6
ENDBRANCH   4   5
ENDBRANCH   2   4
TORSDOF 4
ENDMDL
MODEL 5
REMARK VINA RESULT:      -4.8      2.840      5.044
REMARK  4 active torsions:
REMARK  status: ('A' for Active; 'I' for Inactive)
REMARK    1  A    between atoms: C2_2  and  C5_5 
REMARK    2  A    between atoms: C5_5  and  C6_6 
REMARK    3  A    between atoms: C6_6  and  C8_8 
REMARK    4  A    between atoms: C7_7  and  C8_8 
ROOT
HETATM    1  C1  UNL     1     -34.195   5.734   4.443  1.00 20.00    -0.111 C 
HETATM    2  C2  UNL     1     -33.739   6.333   3.507  1.00 20.00    -0.107 C 
HETATM    3  C3  UNL     1     -34.748   5.004   5.583  1.00 20.00     0.112 C 
ENDROOT
BRANCH   2   4
HETATM    4  C5  UNL     1     -33.182   7.064   2.361  1.00 20.00     0.094 C 
BRANCH   4   5
HETATM    5  C6  UNL     1     -32.241   8.193   2.790  1.00 20.00     0.017 C 
BRANCH   5   6
HETATM    6  C8  UNL     1     -31.864   9.203   1.682  1.00 20.00    -0.004 C 
HETATM    7  C4  UNL     1     -31.140   8.471   0.544  1.00 20.00     0.011 C 
BRANCH   6   8
HETATM    8  C7  UNL     1     -33.042  10.034   1.152  1.00 20.00     0.119 C 
HETATM    9 CL9  UNL     1     -33.446   9.694  -0.549  1.00 20.00    -0.130 Cl
ENDBRANCH   6   8
ENDBRANCH   5   6
ENDBRANCH   4   5
ENDBRANCH   2   4
TORSDOF 4
ENDMDL
MODEL 6
REMARK VINA RESULT:      -4.6      2.808      4.885
REMARK  4 active torsions:
REMARK  status: ('A' for Active; 'I' for Inactive)
REMARK    1  A    between atoms: C2_2  and  C5_5 
REMARK    2  A    between atoms: C5_5  and  C6_6 
REMARK    3  A    between atoms: C6_6  and  C8_8 
REMARK    4  A    between atoms: C7_7  and  C8_8 
ROOT
HETATM    1  C1  UNL     1     -33.718   6.521   3.619  1.00 20.00    -0.111 C 
HETATM    2  C2  UNL     1     -32.887   7.315   3.270  1.00 20.00    -0.107 C 
HETATM    3  C3  UNL     1     -34.727   5.551   4.042  1.00 20.00     0.112 C 
ENDROOT
BRANCH   2   4
HETATM    4  C5  UNL     1     -31.873   8.288   2.843  1.00 20.00     0.094 C 
BRANCH   4   5
HETATM    5  C6  UNL     1     -31.715   8.336   1.320  1.00 20.00     0.017 C 
BRANCH   5   6
HETATM    6  C8  UNL     1     -32.266   9.606   0.633  1.00 20.00    -0.004 C 
HETATM    7  C4  UNL     1     -33.066   9.211  -0.615  1.00 20.00     0.011 C 
BRANCH   6   8
HETATM    8  C7  UNL     1     -33.085  10.523   1.556  1.00 20.00     0.119 C 
HETATM    9 CL9  UNL     1     -32.129  11.834   2.288  1.00 20.00    -0.130 Cl
ENDBRANCH   6   8
ENDBRANCH   5   6
ENDBRANCH   4   5
ENDBRANCH   2   4
TORSDOF 4
ENDMDL
MODEL 7
REMARK VINA RESULT:      -3.9      1.759      4.636
REMARK  4 active torsions:
REMARK  status: ('A' for Active; 'I' for Inactive)
REMARK    1  A    between atoms: C2_2  and  C5_5 
REMARK    2  A    between atoms: C5_5  and  C6_6 
REMARK    3  A    between atoms: C6_6  and  C8_8 
REMARK    4  A    between atoms: C7_7  and  C8_8 
ROOT
HETATM    1  C1  UNL     1     -34.391   5.196   4.679  1.00 20.00    -0.111 C 
HETATM    2  C2  UNL     1     -34.052   5.578   3.592  1.00 20.00    -0.107 C 
HETATM    3  C3  UNL     1     -34.801   4.728   6.002  1.00 20.00     0.112 C 
ENDROOT
BRANCH   2   4
HETATM    4  C5  UNL     1     -33.640   6.045   2.262  1.00 20.00     0.094 C 
BRANCH   4   5
HETATM    5  C6  UNL     1     -33.496   7.569   2.197  1.00 20.00     0.017 C 
BRANCH   5   6
HETATM    6  C8  UNL     1     -32.054   8.094   2.019  1.00 20.00    -0.004 C 
HETATM    7  C4  UNL     1     -32.060   9.306   1.078  1.00 20.00     0.011 C 
BRANCH   6   8
HETATM    8  C7  UNL     1     -31.325   8.411   3.335  1.00 20.00     0.119 C 
HETATM    9 CL9  UNL     1     -32.349   8.223   4.779  1.00 20.00    -0.130 Cl
ENDBRANCH   6   8
ENDBRANCH   5   6
ENDBRANCH   4   5
ENDBRANCH   2   4
TORSDOF 4
ENDMDL
MODEL 8
REMARK VINA RESULT:      -3.8     10.825     11.784
REMARK  4 active torsions:
REMARK  status: ('A' for Active; 'I' for Inactive)
REMARK    1  A    between atoms: C2_2  and  C5_5 
REMARK    2  A    between atoms: C5_5  and  C6_6 
REMARK    3  A    between atoms: C6_6  and  C8_8 
REMARK    4  A    between atoms: C7_7  and  C8_8 
ROOT
HETATM    1  C1  UNL     1     -33.251  17.908  -0.882  1.00 20.00    -0.111 C 
HETATM    2  C2  UNL     1     -34.246  17.363  -1.277  1.00 20.00    -0.107 C 
HETATM    3  C3  UNL     1     -32.040  18.571  -0.400  1.00 20.00     0.112 C 
ENDROOT
BRANCH   2   4
HETATM    4  C5  UNL     1     -35.463  16.697  -1.759  1.00 20.00     0.094 C 
BRANCH   4   5
HETATM    5  C6  UNL     1     -35.396  16.367  -3.253  1.00 20.00     0.017 C 
BRANCH   5   6
HETATM    6  C8  UNL     1     -34.129  15.609  -3.711  1.00 20.00    -0.004 C 
HETATM    7  C4  UNL     1     -34.507  14.182  -4.131  1.00 20.00     0.011 C 
BRANCH   6   8
HETATM    8  C7  UNL     1     -33.324  16.320  -4.809  1.00 20.00     0.119 C 
HETATM    9 CL9  UNL     1     -33.438  18.096  -4.740  1.00 20.00    -0.130 Cl
ENDBRANCH   6   8
ENDBRANCH   5   6
ENDBRANCH   4   5
ENDBRANCH   2   4
TORSDOF 4
ENDMDL
MODEL 9
REMARK VINA RESULT:      -3.8      1.783      4.210
REMARK  4 active torsions:
REMARK  status: ('A' for Active; 'I' for Inactive)
REMARK    1  A    between atoms: C2_2  and  C5_5 
REMARK    2  A    between atoms: C5_5  and  C6_6 
REMARK    3  A    between atoms: C6_6  and  C8_8 
REMARK    4  A    between atoms: C7_7  and  C8_8 
ROOT
HETATM    1  C1  UNL     1     -34.068   6.264   5.704  1.00 20.00    -0.111 C 
HETATM    2  C2  UNL     1     -33.404   7.242   5.491  1.00 20.00    -0.107 C 
HETATM    3  C3  UNL     1     -34.876   5.073   5.961  1.00 20.00     0.112 C 
ENDROOT
BRANCH   2   4
HETATM    4  C5  UNL     1     -32.593   8.439   5.229  1.00 20.00     0.094 C 
BRANCH   4   5
HETATM    5  C6  UNL     1     -31.760   8.313   3.950  1.00 20.00     0.017 C 
BRANCH   5   6
HETATM    6  C8  UNL     1     -32.549   7.928   2.678  1.00 20.00    -0.004 C 
HETATM    7  C4  UNL     1     -31.991   8.698   1.474  1.00 20.00     0.011 C 
BRANCH   6   8
HETATM    8  C7  UNL     1     -32.606   6.417   2.398  1.00 20.00     0.119 C 
HETATM    9 CL9  UNL     1     -34.262   5.766   2.339  1.00 20.00    -0.130 Cl
ENDBRANCH   6   8
ENDBRANCH   5   6
ENDBRANCH   4   5
ENDBRANCH   2   4
TORSDOF 4
ENDMDL
