MODEL 1
REMARK VINA RESULT:      -4.9      0.000      0.000
REMARK  0 active torsions:
REMARK  status: ('A' for Active; 'I' for Inactive)
ROOT
HETATM    1  C1  UNL     1     -33.411   7.279   5.532  1.00 20.00    -0.088 C 
HETATM    2  C2  UNL     1     -33.986   8.000   6.505  1.00 20.00     0.014 C 
HETATM    3  C3  UNL     1     -32.511   7.892   4.491  1.00 20.00     0.037 C 
HETATM    4  C4  UNL     1     -33.626   5.793   5.388  1.00 20.00     0.042 C 
HETATM    5  C5  UNL     1     -33.209   6.043   2.898  1.00 20.00     0.013 C 
HETATM    6  C6  UNL     1     -33.005   7.561   3.074  1.00 20.00    -0.014 C 
HETATM    7  C7  UNL     1     -34.131   5.413   3.975  1.00 20.00    -0.044 C 
HETATM    8  C8  UNL     1     -32.023   8.092   2.029  1.00 20.00     0.010 C 
HETATM    9  C9  UNL     1     -35.589   5.877   3.780  1.00 20.00     0.015 C 
HETATM   10  C10 UNL     1     -34.096   3.880   3.827  1.00 20.00     0.015 C 
ENDROOT
TORSDOF 0
ENDMDL
MODEL 2
REMARK VINA RESULT:      -4.8      1.154      3.303
REMARK  0 active torsions:
REMARK  status: ('A' for Active; 'I' for Inactive)
ROOT
HETATM    1  C1  UNL     1     -33.930   7.015   4.669  1.00 20.00    -0.088 C 
HETATM    2  C2  UNL     1     -33.922   7.147   6.003  1.00 20.00     0.014 C 
HETATM    3  C3  UNL     1     -34.078   5.680   3.988  1.00 20.00     0.037 C 
HETATM    4  C4  UNL     1     -33.778   8.190   3.736  1.00 20.00     0.042 C 
HETATM    5  C5  UNL     1     -32.764   6.613   2.027  1.00 20.00     0.013 C 
HETATM    6  C6  UNL     1     -32.922   5.433   3.006  1.00 20.00    -0.014 C 
HETATM    7  C7  UNL     1     -32.618   7.987   2.731  1.00 20.00    -0.044 C 
HETATM    8  C8  UNL     1     -33.143   4.129   2.239  1.00 20.00     0.010 C 
HETATM    9  C9  UNL     1     -31.257   8.086   3.450  1.00 20.00     0.015 C 
HETATM   10  C10 UNL     1     -32.677   9.101   1.669  1.00 20.00     0.015 C 
ENDROOT
TORSDOF 0
ENDMDL
MODEL 3
REMARK VINA RESULT:      -4.4     11.913     12.643
REMARK  0 active torsions:
REMARK  status: ('A' for Active; 'I' for Inactive)
ROOT
HETATM    1  C1  UNL     1     -35.542  17.754  -0.159  1.00 20.00    -0.088 C 
HETATM    2  C2  UNL     1     -36.766  18.228   0.114  1.00 20.00     0.014 C 
HETATM    3  C3  UNL     1     -34.333  18.105   0.668  1.00 20.00     0.037 C 
HETATM    4  C4  UNL     1     -35.267  16.840  -1.327  1.00 20.00     0.042 C 
HETATM    5  C5  UNL     1     -32.903  17.756  -1.400  1.00 20.00     0.013 C 
HETATM    6  C6  UNL     1     -33.215  18.687  -0.212  1.00 20.00    -0.014 C 
HETATM    7  C7  UNL     1     -34.150  17.391  -2.246  1.00 20.00    -0.044 C 
HETATM    8  C8  UNL     1     -31.956  18.933   0.620  1.00 20.00     0.010 C 
HETATM    9  C9  UNL     1     -34.652  18.621  -3.029  1.00 20.00     0.015 C 
HETATM   10  C10 UNL     1     -33.761  16.304  -3.266  1.00 20.00     0.015 C 
ENDROOT
TORSDOF 0
ENDMDL
MODEL 4
REMARK VINA RESULT:      -4.0     11.984     12.775
REMARK  0 active torsions:
REMARK  status: ('A' for Active; 'I' for Inactive)
ROOT
HETATM    1  C1  UNL     1     -36.262  16.499  -3.218  1.00 20.00    -0.088 C 
HETATM    2  C2  UNL     1     -37.397  16.927  -3.789  1.00 20.00     0.014 C 
HETATM    3  C3  UNL     1     -35.783  17.009  -1.884  1.00 20.00     0.037 C 
HETATM    4  C4  UNL     1     -35.359  15.481  -3.869  1.00 20.00     0.042 C 
HETATM    5  C5  UNL     1     -33.406  16.521  -2.629  1.00 20.00     0.013 C 
HETATM    6  C6  UNL     1     -34.351  17.556  -1.987  1.00 20.00    -0.014 C 
HETATM    7  C7  UNL     1     -33.904  15.994  -4.000  1.00 20.00    -0.044 C 
HETATM    8  C8  UNL     1     -33.836  17.966  -0.607  1.00 20.00     0.010 C 
HETATM    9  C9  UNL     1     -33.815  17.099  -5.071  1.00 20.00     0.015 C 
HETATM   10  C10 UNL     1     -33.002  14.827  -4.444  1.00 20.00     0.015 C 
ENDROOT
TORSDOF 0
ENDMDL
MODEL 5
REMARK VINA RESULT:      -4.0     11.684     12.990
REMARK  0 active torsions:
REMARK  status: ('A' for Active; 'I' for Inactive)
ROOT
HETATM    1  C1  UNL     1     -33.980  16.194  -3.567  1.00 20.00    -0.088 C 
HETATM    2  C2  UNL     1     -33.926  16.730  -2.339  1.00 20.00     0.014 C 
HETATM    3  C3  UNL     1     -33.502  16.926  -4.793  1.00 20.00     0.037 C 
HETATM    4  C4  UNL     1     -34.537  14.817  -3.827  1.00 20.00     0.042 C 
HETATM    5  C5  UNL     1     -35.175  15.590  -6.158  1.00 20.00     0.013 C 
HETATM    6  C6  UNL     1     -34.607  16.992  -5.859  1.00 20.00    -0.014 C 
HETATM    7  C7  UNL     1     -35.660  14.836  -4.892  1.00 20.00    -0.044 C 
HETATM    8  C8  UNL     1     -34.075  17.637  -7.139  1.00 20.00     0.010 C 
HETATM    9  C9  UNL     1     -36.933  15.496  -4.323  1.00 20.00     0.015 C 
HETATM   10  C10 UNL     1     -36.008  13.386  -5.279  1.00 20.00     0.015 C 
ENDROOT
TORSDOF 0
ENDMDL
MODEL 6
REMARK VINA RESULT:      -4.0     11.849     13.052
REMARK  0 active torsions:
REMARK  status: ('A' for Active; 'I' for Inactive)
ROOT
HETATM    1  C1  UNL     1     -33.905  15.964  -3.982  1.00 20.00    -0.088 C 
HETATM    2  C2  UNL     1     -33.170  14.904  -4.348  1.00 20.00     0.014 C 
HETATM    3  C3  UNL     1     -33.814  16.579  -2.610  1.00 20.00     0.037 C 
HETATM    4  C4  UNL     1     -34.897  16.623  -4.907  1.00 20.00     0.042 C 
HETATM    5  C5  UNL     1     -36.222  17.339  -2.866  1.00 20.00     0.013 C 
HETATM    6  C6  UNL     1     -35.197  16.648  -1.945  1.00 20.00    -0.014 C 
HETATM    7  C7  UNL     1     -36.310  16.707  -4.280  1.00 20.00    -0.044 C 
HETATM    8  C8  UNL     1     -35.109  17.375  -0.603  1.00 20.00     0.010 C 
HETATM    9  C9  UNL     1     -36.954  15.308  -4.209  1.00 20.00     0.015 C 
HETATM   10  C10 UNL     1     -37.199  17.596  -5.169  1.00 20.00     0.015 C 
ENDROOT
TORSDOF 0
ENDMDL
MODEL 7
REMARK VINA RESULT:      -4.0     11.704     13.183
REMARK  0 active torsions:
REMARK  status: ('A' for Active; 'I' for Inactive)
ROOT
HETATM    1  C1  UNL     1     -34.192  16.415  -5.863  1.00 20.00    -0.088 C 
HETATM    2  C2  UNL     1     -33.426  16.115  -6.921  1.00 20.00     0.014 C 
HETATM    3  C3  UNL     1     -33.654  17.118  -4.645  1.00 20.00     0.037 C 
HETATM    4  C4  UNL     1     -35.657  16.061  -5.795  1.00 20.00     0.042 C 
HETATM    5  C5  UNL     1     -35.445  15.960  -3.269  1.00 20.00     0.013 C 
HETATM    6  C6  UNL     1     -33.948  16.313  -3.370  1.00 20.00    -0.014 C 
HETATM    7  C7  UNL     1     -35.998  15.241  -4.527  1.00 20.00    -0.044 C 
HETATM    8  C8  UNL     1     -33.498  17.090  -2.132  1.00 20.00     0.010 C 
HETATM    9  C9  UNL     1     -35.421  13.815  -4.634  1.00 20.00     0.015 C 
HETATM   10  C10 UNL     1     -37.529  15.126  -4.403  1.00 20.00     0.015 C 
ENDROOT
TORSDOF 0
ENDMDL
MODEL 8
REMARK VINA RESULT:      -3.9     11.597     12.862
REMARK  0 active torsions:
REMARK  status: ('A' for Active; 'I' for Inactive)
ROOT
HETATM    1  C1  UNL     1     -35.357  16.553  -3.084  1.00 20.00    -0.088 C 
HETATM    2  C2  UNL     1     -35.095  16.714  -1.779  1.00 20.00     0.014 C 
HETATM    3  C3  UNL     1     -36.716  16.154  -3.595  1.00 20.00     0.037 C 
HETATM    4  C4  UNL     1     -34.308  16.742  -4.151  1.00 20.00     0.042 C 
HETATM    5  C5  UNL     1     -35.574  15.083  -5.593  1.00 20.00     0.013 C 
HETATM    6  C6  UNL     1     -36.625  14.902  -4.480  1.00 20.00    -0.014 C 
HETATM    7  C7  UNL     1     -34.177  15.499  -5.064  1.00 20.00    -0.044 C 
HETATM    8  C8  UNL     1     -37.991  14.574  -5.084  1.00 20.00     0.010 C 
HETATM    9  C9  UNL     1     -33.518  14.333  -4.298  1.00 20.00     0.015 C 
HETATM   10  C10 UNL     1     -33.274  15.851  -6.262  1.00 20.00     0.015 C 
ENDROOT
TORSDOF 0
ENDMDL
MODEL 9
REMARK VINA RESULT:      -3.9     12.028     13.166
REMARK  0 active torsions:
REMARK  status: ('A' for Active; 'I' for Inactive)
ROOT
HETATM    1  C1  UNL     1     -34.960  13.933  -5.937  1.00 20.00    -0.088 C 
HETATM    2  C2  UNL     1     -34.420  13.616  -7.122  1.00 20.00     0.014 C 
HETATM    3  C3  UNL     1     -36.429  13.771  -5.646  1.00 20.00     0.037 C 
HETATM    4  C4  UNL     1     -34.146  14.493  -4.798  1.00 20.00     0.042 C 
HETATM    5  C5  UNL     1     -36.236  15.670  -3.973  1.00 20.00     0.013 C 
HETATM    6  C6  UNL     1     -37.040  15.092  -5.153  1.00 20.00    -0.014 C 
HETATM    7  C7  UNL     1     -34.723  15.830  -4.274  1.00 20.00    -0.044 C 
HETATM    8  C8  UNL     1     -38.502  14.886  -4.754  1.00 20.00     0.010 C 
HETATM    9  C9  UNL     1     -34.490  16.958  -5.299  1.00 20.00     0.015 C 
HETATM   10  C10 UNL     1     -33.993  16.213  -2.972  1.00 20.00     0.015 C 
ENDROOT
TORSDOF 0
ENDMDL
