MODEL 1
REMARK VINA RESULT:      -4.9      0.000      0.000
REMARK  3 active torsions:
REMARK  status: ('A' for Active; 'I' for Inactive)
REMARK    1  A    between atoms: C2_2  and  C3_3 
REMARK    2  A    between atoms: C2_2  and  S8_8 
REMARK    3  A    between atoms: C3_3  and  C4_4 
ROOT
HETATM    1  C3  UNL     1     -34.064   6.889   4.007  1.00 20.00     0.174 C 
HETATM    2 BR9  UNL     1     -33.429   7.503   5.771  1.00 20.00    -0.081 Br
ENDROOT
BRANCH   1   3
HETATM    3  C2  UNL     1     -32.840   6.744   3.103  1.00 20.00     0.098 C 
BRANCH   3   4
HETATM    4  S8  UNL     1     -31.752   8.200   3.149  1.00 20.00    -0.172 SA
HETATM    5  C1  UNL     1     -32.081   8.822   1.485  1.00 20.00     0.089 C 
ENDBRANCH   3   4
ENDBRANCH   1   3
BRANCH   1   6
HETATM    6  C4  UNL     1     -34.858   5.612   4.224  1.00 20.00     0.401 C 
HETATM    7  F5  UNL     1     -34.253   4.542   3.666  1.00 20.00    -0.170 F 
HETATM    8  F6  UNL     1     -36.099   5.709   3.695  1.00 20.00    -0.170 F 
HETATM    9  F7  UNL     1     -35.016   5.347   5.541  1.00 20.00    -0.170 F 
ENDBRANCH   1   6
TORSDOF 3
ENDMDL
MODEL 2
REMARK VINA RESULT:      -4.6      1.457      1.641
REMARK  3 active torsions:
REMARK  status: ('A' for Active; 'I' for Inactive)
REMARK    1  A    between atoms: C2_2  and  C3_3 
REMARK    2  A    between atoms: C2_2  and  S8_8 
REMARK    3  A    between atoms: C3_3  and  C4_4 
ROOT
HETATM    1  C3  UNL     1     -33.459   7.331   3.544  1.00 20.00     0.174 C 
HETATM    2 BR9  UNL     1     -33.636   7.243   5.507  1.00 20.00    -0.081 Br
ENDROOT
BRANCH   1   3
HETATM    3  C2  UNL     1     -32.081   7.917   3.233  1.00 20.00     0.098 C 
BRANCH   3   4
HETATM    4  S8  UNL     1     -31.891   8.384   1.485  1.00 20.00    -0.172 SA
HETATM    5  C1  UNL     1     -32.704   9.996   1.558  1.00 20.00     0.089 C 
ENDBRANCH   3   4
ENDBRANCH   1   3
BRANCH   1   6
HETATM    6  C4  UNL     1     -33.702   5.935   2.998  1.00 20.00     0.401 C 
HETATM    7  F5  UNL     1     -32.547   5.291   2.728  1.00 20.00    -0.170 F 
HETATM    8  F6  UNL     1     -34.430   5.974   1.858  1.00 20.00    -0.170 F 
HETATM    9  F7  UNL     1     -34.395   5.176   3.876  1.00 20.00    -0.170 F 
ENDBRANCH   1   6
TORSDOF 3
ENDMDL
MODEL 3
REMARK VINA RESULT:      -4.6      1.452      2.072
REMARK  3 active torsions:
REMARK  status: ('A' for Active; 'I' for Inactive)
REMARK    1  A    between atoms: C2_2  and  C3_3 
REMARK    2  A    between atoms: C2_2  and  S8_8 
REMARK    3  A    between atoms: C3_3  and  C4_4 
ROOT
HETATM    1  C3  UNL     1     -33.485   7.317   3.550  1.00 20.00     0.174 C 
HETATM    2 BR9  UNL     1     -33.657   7.230   5.514  1.00 20.00    -0.081 Br
ENDROOT
BRANCH   1   3
HETATM    3  C2  UNL     1     -32.111   7.909   3.235  1.00 20.00     0.098 C 
BRANCH   3   4
HETATM    4  S8  UNL     1     -31.927   8.372   1.485  1.00 20.00    -0.172 SA
HETATM    5  C1  UNL     1     -32.686  10.009   1.569  1.00 20.00     0.089 C 
ENDBRANCH   3   4
ENDBRANCH   1   3
BRANCH   1   6
HETATM    6  C4  UNL     1     -33.722   5.918   3.006  1.00 20.00     0.401 C 
HETATM    7  F5  UNL     1     -34.392   5.143   3.885  1.00 20.00    -0.170 F 
HETATM    8  F6  UNL     1     -32.554   5.300   2.716  1.00 20.00    -0.170 F 
HETATM    9  F7  UNL     1     -34.440   5.949   1.861  1.00 20.00    -0.170 F 
ENDBRANCH   1   6
TORSDOF 3
ENDMDL
MODEL 4
REMARK VINA RESULT:      -4.6      1.572      1.951
REMARK  3 active torsions:
REMARK  status: ('A' for Active; 'I' for Inactive)
REMARK    1  A    between atoms: C2_2  and  C3_3 
REMARK    2  A    between atoms: C2_2  and  S8_8 
REMARK    3  A    between atoms: C3_3  and  C4_4 
ROOT
HETATM    1  C3  UNL     1     -33.492   5.954   4.032  1.00 20.00     0.174 C 
HETATM    2 BR9  UNL     1     -33.047   4.855   2.455  1.00 20.00    -0.081 Br
ENDROOT
BRANCH   1   3
HETATM    3  C2  UNL     1     -33.542   7.412   3.577  1.00 20.00     0.098 C 
BRANCH   3   4
HETATM    4  S8  UNL     1     -31.907   8.064   3.117  1.00 20.00    -0.172 SA
HETATM    5  C1  UNL     1     -32.361   8.807   1.534  1.00 20.00     0.089 C 
ENDBRANCH   3   4
ENDBRANCH   1   3
BRANCH   1   6
HETATM    6  C4  UNL     1     -34.788   5.417   4.615  1.00 20.00     0.401 C 
HETATM    7  F5  UNL     1     -35.868   5.880   3.951  1.00 20.00    -0.170 F 
HETATM    8  F6  UNL     1     -34.922   5.764   5.916  1.00 20.00    -0.170 F 
HETATM    9  F7  UNL     1     -34.829   4.067   4.567  1.00 20.00    -0.170 F 
ENDBRANCH   1   6
TORSDOF 3
ENDMDL
MODEL 5
REMARK VINA RESULT:      -4.5      1.584      1.597
REMARK  3 active torsions:
REMARK  status: ('A' for Active; 'I' for Inactive)
REMARK    1  A    between atoms: C2_2  and  C3_3 
REMARK    2  A    between atoms: C2_2  and  S8_8 
REMARK    3  A    between atoms: C3_3  and  C4_4 
ROOT
HETATM    1  C3  UNL     1     -33.474   5.950   4.030  1.00 20.00     0.174 C 
HETATM    2 BR9  UNL     1     -33.059   4.837   2.455  1.00 20.00    -0.081 Br
ENDROOT
BRANCH   1   3
HETATM    3  C2  UNL     1     -33.534   7.404   3.562  1.00 20.00     0.098 C 
BRANCH   3   4
HETATM    4  S8  UNL     1     -31.902   8.068   3.110  1.00 20.00    -0.172 SA
HETATM    5  C1  UNL     1     -32.361   8.833   1.538  1.00 20.00     0.089 C 
ENDBRANCH   3   4
ENDBRANCH   1   3
BRANCH   1   6
HETATM    6  C4  UNL     1     -34.758   5.419   4.643  1.00 20.00     0.401 C 
HETATM    7  F5  UNL     1     -34.799   4.069   4.636  1.00 20.00    -0.170 F 
HETATM    8  F6  UNL     1     -35.844   5.869   3.974  1.00 20.00    -0.170 F 
HETATM    9  F7  UNL     1     -34.897   5.822   5.926  1.00 20.00    -0.170 F 
ENDBRANCH   1   6
TORSDOF 3
ENDMDL
MODEL 6
REMARK VINA RESULT:      -4.1      3.290      4.217
REMARK  3 active torsions:
REMARK  status: ('A' for Active; 'I' for Inactive)
REMARK    1  A    between atoms: C2_2  and  C3_3 
REMARK    2  A    between atoms: C2_2  and  S8_8 
REMARK    3  A    between atoms: C3_3  and  C4_4 
ROOT
HETATM    1  C3  UNL     1     -32.564   7.058   3.342  1.00 20.00     0.174 C 
HETATM    2 BR9  UNL     1     -33.204   7.695   5.096  1.00 20.00    -0.081 Br
ENDROOT
BRANCH   1   3
HETATM    3  C2  UNL     1     -33.670   6.195   2.735  1.00 20.00     0.098 C 
BRANCH   3   4
HETATM    4  S8  UNL     1     -34.960   5.753   3.939  1.00 20.00    -0.172 SA
HETATM    5  C1  UNL     1     -34.311   4.142   4.435  1.00 20.00     0.089 C 
ENDBRANCH   3   4
ENDBRANCH   1   3
BRANCH   1   6
HETATM    6  C4  UNL     1     -32.179   8.278   2.523  1.00 20.00     0.401 C 
HETATM    7  F5  UNL     1     -31.458   7.945   1.431  1.00 20.00    -0.170 F 
HETATM    8  F6  UNL     1     -31.445   9.148   3.253  1.00 20.00    -0.170 F 
HETATM    9  F7  UNL     1     -33.271   8.952   2.098  1.00 20.00    -0.170 F 
ENDBRANCH   1   6
TORSDOF 3
ENDMDL
MODEL 7
REMARK VINA RESULT:      -3.9      2.039      2.290
REMARK  3 active torsions:
REMARK  status: ('A' for Active; 'I' for Inactive)
REMARK    1  A    between atoms: C2_2  and  C3_3 
REMARK    2  A    between atoms: C2_2  and  S8_8 
REMARK    3  A    between atoms: C3_3  and  C4_4 
ROOT
HETATM    1  C3  UNL     1     -33.284   6.121   4.361  1.00 20.00     0.174 C 
HETATM    2 BR9  UNL     1     -34.414   4.515   4.159  1.00 20.00    -0.081 Br
ENDROOT
BRANCH   1   3
HETATM    3  C2  UNL     1     -33.221   6.812   2.999  1.00 20.00     0.098 C 
BRANCH   3   4
HETATM    4  S8  UNL     1     -31.878   8.033   2.889  1.00 20.00    -0.172 SA
HETATM    5  C1  UNL     1     -32.426   8.886   1.394  1.00 20.00     0.089 C 
ENDBRANCH   3   4
ENDBRANCH   1   3
BRANCH   1   6
HETATM    6  C4  UNL     1     -33.875   6.959   5.482  1.00 20.00     0.401 C 
HETATM    7  F5  UNL     1     -34.668   6.229   6.294  1.00 20.00    -0.170 F 
HETATM    8  F6  UNL     1     -34.613   7.982   4.993  1.00 20.00    -0.170 F 
HETATM    9  F7  UNL     1     -32.907   7.511   6.248  1.00 20.00    -0.170 F 
ENDBRANCH   1   6
TORSDOF 3
ENDMDL
MODEL 8
REMARK VINA RESULT:      -3.6      3.133      3.898
REMARK  3 active torsions:
REMARK  status: ('A' for Active; 'I' for Inactive)
REMARK    1  A    between atoms: C2_2  and  C3_3 
REMARK    2  A    between atoms: C2_2  and  S8_8 
REMARK    3  A    between atoms: C3_3  and  C4_4 
ROOT
HETATM    1  C3  UNL     1     -34.045   6.136   2.610  1.00 20.00     0.174 C 
HETATM    2 BR9  UNL     1     -32.908   4.531   2.765  1.00 20.00    -0.081 Br
ENDROOT
BRANCH   1   3
HETATM    3  C2  UNL     1     -35.140   6.028   3.672  1.00 20.00     0.098 C 
BRANCH   3   4
HETATM    4  S8  UNL     1     -34.560   5.241   5.205  1.00 20.00    -0.172 SA
HETATM    5  C1  UNL     1     -34.081   6.736   6.099  1.00 20.00     0.089 C 
ENDBRANCH   3   4
ENDBRANCH   1   3
BRANCH   1   6
HETATM    6  C4  UNL     1     -33.144   7.352   2.737  1.00 20.00     0.401 C 
HETATM    7  F5  UNL     1     -31.988   7.058   3.371  1.00 20.00    -0.170 F 
HETATM    8  F6  UNL     1     -33.752   8.344   3.426  1.00 20.00    -0.170 F 
HETATM    9  F7  UNL     1     -32.824   7.859   1.525  1.00 20.00    -0.170 F 
ENDBRANCH   1   6
TORSDOF 3
ENDMDL
MODEL 9
REMARK VINA RESULT:      -3.6      3.737      4.725
REMARK  3 active torsions:
REMARK  status: ('A' for Active; 'I' for Inactive)
REMARK    1  A    between atoms: C2_2  and  C3_3 
REMARK    2  A    between atoms: C2_2  and  S8_8 
REMARK    3  A    between atoms: C3_3  and  C4_4 
ROOT
HETATM    1  C3  UNL     1     -32.151   7.778   2.179  1.00 20.00     0.174 C 
HETATM    2 BR9  UNL     1     -31.405   8.490   3.862  1.00 20.00    -0.081 Br
ENDROOT
BRANCH   1   3
HETATM    3  C2  UNL     1     -33.521   7.180   2.501  1.00 20.00     0.098 C 
BRANCH   3   4
HETATM    4  S8  UNL     1     -33.800   6.975   4.286  1.00 20.00    -0.172 SA
HETATM    5  C1  UNL     1     -34.999   5.626   4.207  1.00 20.00     0.089 C 
ENDBRANCH   3   4
ENDBRANCH   1   3
BRANCH   1   6
HETATM    6  C4  UNL     1     -32.166   8.912   1.168  1.00 20.00     0.401 C 
HETATM    7  F5  UNL     1     -32.253  10.119   1.765  1.00 20.00    -0.170 F 
HETATM    8  F6  UNL     1     -33.209   8.796   0.316  1.00 20.00    -0.170 F 
HETATM    9  F7  UNL     1     -31.045   8.913   0.412  1.00 20.00    -0.170 F 
ENDBRANCH   1   6
TORSDOF 3
ENDMDL
