MODEL 1
REMARK VINA RESULT:      -6.1      0.000      0.000
REMARK  0 active torsions:
REMARK  status: ('A' for Active; 'I' for Inactive)
ROOT
HETATM    1  C1  UNL     1     -32.026   8.916   1.209  1.00 20.00     0.088 C 
HETATM    2  C2  UNL     1     -32.645   7.553   3.097  1.00 20.00    -0.070 C 
HETATM    3  C3  UNL     1     -32.116   8.683   2.604  1.00 20.00     0.096 C 
HETATM    4  C4  UNL     1     -33.177   6.461   2.209  1.00 20.00     0.035 C 
HETATM    5  C5  UNL     1     -32.774   7.304   4.577  1.00 20.00     0.039 C 
HETATM    6  C6  UNL     1     -34.615   6.104   2.591  1.00 20.00     0.009 C 
HETATM    7  C7  UNL     1     -34.224   6.944   4.950  1.00 20.00    -0.011 C 
HETATM    8  C8  UNL     1     -34.778   5.777   4.090  1.00 20.00    -0.014 C 
HETATM    9  C9  UNL     1     -34.339   6.681   6.453  1.00 20.00     0.010 C 
HETATM   10  C10 UNL     1     -34.163   4.413   4.421  1.00 20.00     0.010 C 
HETATM   11  N11 UNL     1     -31.948   9.113   0.068  1.00 20.00    -0.192 NA
ENDROOT
TORSDOF 0
ENDMDL
MODEL 2
REMARK VINA RESULT:      -4.9     11.426     12.170
REMARK  0 active torsions:
REMARK  status: ('A' for Active; 'I' for Inactive)
ROOT
HETATM    1  C1  UNL     1     -31.160  18.886   1.690  1.00 20.00     0.088 C 
HETATM    2  C2  UNL     1     -32.663  18.524  -0.158  1.00 20.00    -0.070 C 
HETATM    3  C3  UNL     1     -31.420  18.517   0.347  1.00 20.00     0.096 C 
HETATM    4  C4  UNL     1     -33.861  18.920   0.661  1.00 20.00     0.035 C 
HETATM    5  C5  UNL     1     -32.958  18.107  -1.576  1.00 20.00     0.039 C 
HETATM    6  C6  UNL     1     -34.936  17.832   0.613  1.00 20.00     0.009 C 
HETATM    7  C7  UNL     1     -34.041  17.013  -1.612  1.00 20.00    -0.011 C 
HETATM    8  C8  UNL     1     -35.315  17.421  -0.825  1.00 20.00    -0.014 C 
HETATM    9  C9  UNL     1     -34.341  16.607  -3.056  1.00 20.00     0.010 C 
HETATM   10  C10 UNL     1     -36.142  18.518  -1.505  1.00 20.00     0.010 C 
HETATM   11  N11 UNL     1     -30.940  19.188   2.789  1.00 20.00    -0.192 NA
ENDROOT
TORSDOF 0
ENDMDL
MODEL 3
REMARK VINA RESULT:      -4.9     11.117     11.785
REMARK  0 active torsions:
REMARK  status: ('A' for Active; 'I' for Inactive)
ROOT
HETATM    1  C1  UNL     1     -35.873  13.506  -5.509  1.00 20.00     0.088 C 
HETATM    2  C2  UNL     1     -35.642  15.477  -4.142  1.00 20.00    -0.070 C 
HETATM    3  C3  UNL     1     -36.377  14.438  -4.568  1.00 20.00     0.096 C 
HETATM    4  C4  UNL     1     -34.240  15.723  -4.630  1.00 20.00     0.035 C 
HETATM    5  C5  UNL     1     -36.153  16.461  -3.121  1.00 20.00     0.039 C 
HETATM    6  C6  UNL     1     -33.272  15.859  -3.453  1.00 20.00     0.009 C 
HETATM    7  C7  UNL     1     -35.171  16.589  -1.943  1.00 20.00    -0.011 C 
HETATM    8  C8  UNL     1     -33.726  16.904  -2.414  1.00 20.00    -0.014 C 
HETATM    9  C9  UNL     1     -35.695  17.599  -0.919  1.00 20.00     0.010 C 
HETATM   10  C10 UNL     1     -33.545  18.326  -2.957  1.00 20.00     0.010 C 
HETATM   11  N11 UNL     1     -35.467  12.740  -6.280  1.00 20.00    -0.192 NA
ENDROOT
TORSDOF 0
ENDMDL
MODEL 4
REMARK VINA RESULT:      -4.7     11.085     12.371
REMARK  0 active torsions:
REMARK  status: ('A' for Active; 'I' for Inactive)
ROOT
HETATM    1  C1  UNL     1     -33.196  17.967  -2.268  1.00 20.00     0.088 C 
HETATM    2  C2  UNL     1     -33.798  16.130  -3.707  1.00 20.00    -0.070 C 
HETATM    3  C3  UNL     1     -33.713  16.664  -2.479  1.00 20.00     0.096 C 
HETATM    4  C4  UNL     1     -33.356  16.873  -4.938  1.00 20.00     0.035 C 
HETATM    5  C5  UNL     1     -34.371  14.758  -3.950  1.00 20.00     0.039 C 
HETATM    6  C6  UNL     1     -34.477  16.914  -5.979  1.00 20.00     0.009 C 
HETATM    7  C7  UNL     1     -35.496  14.810  -4.999  1.00 20.00    -0.011 C 
HETATM    8  C8  UNL     1     -35.049  15.519  -6.306  1.00 20.00    -0.014 C 
HETATM    9  C9  UNL     1     -36.061  13.410  -5.246  1.00 20.00     0.010 C 
HETATM   10  C10 UNL     1     -34.056  14.706  -7.145  1.00 20.00     0.010 C 
HETATM   11  N11 UNL     1     -32.774  19.032  -2.087  1.00 20.00    -0.192 NA
ENDROOT
TORSDOF 0
ENDMDL
MODEL 5
REMARK VINA RESULT:      -4.4     10.767     12.283
REMARK  0 active torsions:
REMARK  status: ('A' for Active; 'I' for Inactive)
ROOT
HETATM    1  C1  UNL     1     -35.224  13.668  -4.737  1.00 20.00     0.088 C 
HETATM    2  C2  UNL     1     -34.788  15.646  -3.432  1.00 20.00    -0.070 C 
HETATM    3  C3  UNL     1     -34.346  14.532  -4.035  1.00 20.00     0.096 C 
HETATM    4  C4  UNL     1     -36.235  16.056  -3.460  1.00 20.00     0.035 C 
HETATM    5  C5  UNL     1     -33.862  16.588  -2.705  1.00 20.00     0.039 C 
HETATM    6  C6  UNL     1     -36.383  17.489  -3.974  1.00 20.00     0.009 C 
HETATM    7  C7  UNL     1     -34.021  18.027  -3.230  1.00 20.00    -0.011 C 
HETATM    8  C8  UNL     1     -35.499  18.498  -3.213  1.00 20.00    -0.014 C 
HETATM    9  C9  UNL     1     -33.086  18.975  -2.477  1.00 20.00     0.010 C 
HETATM   10  C10 UNL     1     -36.054  18.756  -1.807  1.00 20.00     0.010 C 
HETATM   11  N11 UNL     1     -35.937  12.957  -5.313  1.00 20.00    -0.192 NA
ENDROOT
TORSDOF 0
ENDMDL
MODEL 6
REMARK VINA RESULT:      -4.4     11.277     12.018
REMARK  0 active torsions:
REMARK  status: ('A' for Active; 'I' for Inactive)
ROOT
HETATM    1  C1  UNL     1     -36.884  14.670  -5.313  1.00 20.00     0.088 C 
HETATM    2  C2  UNL     1     -36.051  16.254  -3.700  1.00 20.00    -0.070 C 
HETATM    3  C3  UNL     1     -37.035  15.457  -4.144  1.00 20.00     0.096 C 
HETATM    4  C4  UNL     1     -34.728  16.367  -4.406  1.00 20.00     0.035 C 
HETATM    5  C5  UNL     1     -36.186  17.075  -2.443  1.00 20.00     0.039 C 
HETATM    6  C6  UNL     1     -33.572  16.100  -3.439  1.00 20.00     0.009 C 
HETATM    7  C7  UNL     1     -35.018  16.798  -1.479  1.00 20.00    -0.011 C 
HETATM    8  C8  UNL     1     -33.637  16.968  -2.166  1.00 20.00    -0.014 C 
HETATM    9  C9  UNL     1     -35.160  17.646  -0.213  1.00 20.00     0.010 C 
HETATM   10  C10 UNL     1     -33.273  18.423  -2.479  1.00 20.00     0.010 C 
HETATM   11  N11 UNL     1     -36.768  14.024  -6.270  1.00 20.00    -0.192 NA
ENDROOT
TORSDOF 0
ENDMDL
MODEL 7
REMARK VINA RESULT:      -4.4     11.112     11.988
REMARK  0 active torsions:
REMARK  status: ('A' for Active; 'I' for Inactive)
ROOT
HETATM    1  C1  UNL     1     -35.966  17.756  -0.170  1.00 20.00     0.088 C 
HETATM    2  C2  UNL     1     -34.958  16.952  -2.205  1.00 20.00    -0.070 C 
HETATM    3  C3  UNL     1     -34.865  17.240  -0.898  1.00 20.00     0.096 C 
HETATM    4  C4  UNL     1     -36.230  17.152  -2.984  1.00 20.00     0.035 C 
HETATM    5  C5  UNL     1     -33.805  16.377  -2.987  1.00 20.00     0.039 C 
HETATM    6  C6  UNL     1     -36.633  15.865  -3.706  1.00 20.00     0.009 C 
HETATM    7  C7  UNL     1     -34.222  15.083  -3.710  1.00 20.00    -0.011 C 
HETATM    8  C8  UNL     1     -35.499  15.277  -4.571  1.00 20.00    -0.014 C 
HETATM    9  C9  UNL     1     -33.047  14.516  -4.509  1.00 20.00     0.010 C 
HETATM   10  C10 UNL     1     -35.277  16.124  -5.829  1.00 20.00     0.010 C 
HETATM   11  N11 UNL     1     -36.863  18.178   0.433  1.00 20.00    -0.192 NA
ENDROOT
TORSDOF 0
ENDMDL
MODEL 8
REMARK VINA RESULT:      -4.2     11.510     12.202
REMARK  0 active torsions:
REMARK  status: ('A' for Active; 'I' for Inactive)
ROOT
HETATM    1  C1  UNL     1     -32.498  18.261  -0.572  1.00 20.00     0.088 C 
HETATM    2  C2  UNL     1     -34.413  17.333  -1.701  1.00 20.00    -0.070 C 
HETATM    3  C3  UNL     1     -33.898  18.113  -0.739  1.00 20.00     0.096 C 
HETATM    4  C4  UNL     1     -33.548  16.567  -2.665  1.00 20.00     0.035 C 
HETATM    5  C5  UNL     1     -35.899  17.187  -1.908  1.00 20.00     0.039 C 
HETATM    6  C6  UNL     1     -33.942  16.877  -4.111  1.00 20.00     0.009 C 
HETATM    7  C7  UNL     1     -36.283  17.499  -3.366  1.00 20.00    -0.011 C 
HETATM    8  C8  UNL     1     -35.447  16.677  -4.383  1.00 20.00    -0.014 C 
HETATM    9  C9  UNL     1     -37.791  17.336  -3.567  1.00 20.00     0.010 C 
HETATM   10  C10 UNL     1     -35.802  15.186  -4.417  1.00 20.00     0.010 C 
HETATM   11  N11 UNL     1     -31.354  18.387  -0.429  1.00 20.00    -0.192 NA
ENDROOT
TORSDOF 0
ENDMDL
MODEL 9
REMARK VINA RESULT:      -4.2     11.439     12.425
REMARK  0 active torsions:
REMARK  status: ('A' for Active; 'I' for Inactive)
ROOT
HETATM    1  C1  UNL     1     -34.590  18.145   0.627  1.00 20.00     0.088 C 
HETATM    2  C2  UNL     1     -34.831  17.076  -1.519  1.00 20.00    -0.070 C 
HETATM    3  C3  UNL     1     -35.358  17.457  -0.346  1.00 20.00     0.096 C 
HETATM    4  C4  UNL     1     -33.397  17.351  -1.883  1.00 20.00     0.035 C 
HETATM    5  C5  UNL     1     -35.642  16.369  -2.574  1.00 20.00     0.039 C 
HETATM    6  C6  UNL     1     -33.308  18.071  -3.230  1.00 20.00     0.009 C 
HETATM    7  C7  UNL     1     -35.544  17.102  -3.925  1.00 20.00    -0.011 C 
HETATM    8  C8  UNL     1     -34.073  17.345  -4.355  1.00 20.00    -0.014 C 
HETATM    9  C9  UNL     1     -36.361  16.368  -4.990  1.00 20.00     0.010 C 
HETATM   10  C10 UNL     1     -33.332  16.073  -4.785  1.00 20.00     0.010 C 
HETATM   11  N11 UNL     1     -33.968  18.707   1.428  1.00 20.00    -0.192 NA
ENDROOT
TORSDOF 0
ENDMDL
