MODEL 1
REMARK VINA RESULT:      -5.7      0.000      0.000
REMARK  2 active torsions:
REMARK  status: ('A' for Active; 'I' for Inactive)
REMARK    1  A    between atoms: C4_4  and  C9_9 
REMARK    2  A    between atoms: C9_9  and  C10_10 
ROOT
HETATM    1  C1  UNL     1     -33.724   6.678   2.084  1.00 20.00     0.005 C 
HETATM    2  C2  UNL     1     -33.569   5.250   2.591  1.00 20.00     0.005 C 
HETATM    3  C3  UNL     1     -33.294   7.227   4.549  1.00 20.00     0.009 C 
HETATM    4  C4  UNL     1     -33.177   7.706   3.090  1.00 20.00    -0.013 C 
HETATM    5  C5  UNL     1     -34.347   5.004   3.901  1.00 20.00    -0.015 C 
HETATM    6  C6  UNL     1     -34.504   6.303   4.742  1.00 20.00    -0.015 C 
HETATM    7  C7  UNL     1     -33.702   3.832   4.649  1.00 20.00     0.010 C 
HETATM    8  C8  UNL     1     -34.776   6.062   6.227  1.00 20.00     0.010 C 
ENDROOT
BRANCH   4   9
HETATM    9  C9  UNL     1     -31.729   8.083   2.775  1.00 20.00     0.020 C 
BRANCH   9  10
HETATM   10  C10 UNL     1     -31.556   8.706   1.396  1.00 20.00     0.115 C 
HETATM   11 CL11 UNL     1     -32.589  10.138   1.175  1.00 20.00    -0.130 Cl
ENDBRANCH   9  10
ENDBRANCH   4   9
TORSDOF 2
ENDMDL
MODEL 2
REMARK VINA RESULT:      -5.3      1.372      2.466
REMARK  2 active torsions:
REMARK  status: ('A' for Active; 'I' for Inactive)
REMARK    1  A    between atoms: C4_4  and  C9_9 
REMARK    2  A    between atoms: C9_9  and  C10_10 
ROOT
HETATM    1  C1  UNL     1     -32.323   8.111   4.314  1.00 20.00     0.005 C 
HETATM    2  C2  UNL     1     -33.711   7.563   4.620  1.00 20.00     0.005 C 
HETATM    3  C3  UNL     1     -32.663   6.787   2.147  1.00 20.00     0.009 C 
HETATM    4  C4  UNL     1     -31.977   7.990   2.820  1.00 20.00    -0.013 C 
HETATM    5  C5  UNL     1     -33.839   6.062   4.283  1.00 20.00    -0.015 C 
HETATM    6  C6  UNL     1     -32.877   5.636   3.139  1.00 20.00    -0.015 C 
HETATM    7  C7  UNL     1     -35.315   5.733   4.034  1.00 20.00     0.010 C 
HETATM    8  C8  UNL     1     -33.294   4.358   2.410  1.00 20.00     0.010 C 
ENDROOT
BRANCH   4   9
HETATM    9  C9  UNL     1     -32.309   9.277   2.062  1.00 20.00     0.020 C 
BRANCH   9  10
HETATM   10  C10 UNL     1     -31.883   9.241   0.601  1.00 20.00     0.115 C 
HETATM   11 CL11 UNL     1     -33.257   9.486  -0.503  1.00 20.00    -0.130 Cl
ENDBRANCH   9  10
ENDBRANCH   4   9
TORSDOF 2
ENDMDL
MODEL 3
REMARK VINA RESULT:      -4.3     11.436     12.265
REMARK  2 active torsions:
REMARK  status: ('A' for Active; 'I' for Inactive)
REMARK    1  A    between atoms: C4_4  and  C9_9 
REMARK    2  A    between atoms: C9_9  and  C10_10 
ROOT
HETATM    1  C1  UNL     1     -35.097  17.088  -1.252  1.00 20.00     0.005 C 
HETATM    2  C2  UNL     1     -36.131  17.252  -2.358  1.00 20.00     0.005 C 
HETATM    3  C3  UNL     1     -33.588  16.489  -3.235  1.00 20.00     0.009 C 
HETATM    4  C4  UNL     1     -33.662  17.067  -1.809  1.00 20.00    -0.013 C 
HETATM    5  C5  UNL     1     -36.096  16.089  -3.373  1.00 20.00    -0.015 C 
HETATM    6  C6  UNL     1     -34.685  15.444  -3.475  1.00 20.00    -0.015 C 
HETATM    7  C7  UNL     1     -36.675  16.576  -4.706  1.00 20.00     0.010 C 
HETATM    8  C8  UNL     1     -34.436  14.680  -4.776  1.00 20.00     0.010 C 
ENDROOT
BRANCH   4   9
HETATM    9  C9  UNL     1     -33.024  18.457  -1.770  1.00 20.00     0.020 C 
BRANCH   9  10
HETATM   10  C10 UNL     1     -32.959  19.049  -0.369  1.00 20.00     0.115 C 
HETATM   11 CL11 UNL     1     -31.448  18.622   0.467  1.00 20.00    -0.130 Cl
ENDBRANCH   9  10
ENDBRANCH   4   9
TORSDOF 2
ENDMDL
MODEL 4
REMARK VINA RESULT:      -4.3     11.228     12.194
REMARK  2 active torsions:
REMARK  status: ('A' for Active; 'I' for Inactive)
REMARK    1  A    between atoms: C4_4  and  C9_9 
REMARK    2  A    between atoms: C9_9  and  C10_10 
ROOT
HETATM    1  C1  UNL     1     -34.056  14.311  -4.270  1.00 20.00     0.005 C 
HETATM    2  C2  UNL     1     -33.302  15.631  -4.170  1.00 20.00     0.005 C 
HETATM    3  C3  UNL     1     -36.068  15.830  -3.814  1.00 20.00     0.009 C 
HETATM    4  C4  UNL     1     -35.566  14.528  -4.466  1.00 20.00    -0.013 C 
HETATM    5  C5  UNL     1     -33.760  16.480  -2.964  1.00 20.00    -0.015 C 
HETATM    6  C6  UNL     1     -35.238  16.194  -2.576  1.00 20.00    -0.015 C 
HETATM    7  C7  UNL     1     -33.446  17.953  -3.247  1.00 20.00     0.010 C 
HETATM    8  C8  UNL     1     -35.907  17.315  -1.780  1.00 20.00     0.010 C 
ENDROOT
BRANCH   4   9
HETATM    9  C9  UNL     1     -35.950  14.500  -5.947  1.00 20.00     0.020 C 
BRANCH   9  10
HETATM   10  C10 UNL     1     -35.211  13.430  -6.739  1.00 20.00     0.115 C 
HETATM   11 CL11 UNL     1     -34.062  14.132  -7.901  1.00 20.00    -0.130 Cl
ENDBRANCH   9  10
ENDBRANCH   4   9
TORSDOF 2
ENDMDL
MODEL 5
REMARK VINA RESULT:      -4.2     11.417     12.615
REMARK  2 active torsions:
REMARK  status: ('A' for Active; 'I' for Inactive)
REMARK    1  A    between atoms: C4_4  and  C9_9 
REMARK    2  A    between atoms: C9_9  and  C10_10 
ROOT
HETATM    1  C1  UNL     1     -33.891  14.456  -5.691  1.00 20.00     0.005 C 
HETATM    2  C2  UNL     1     -33.822  15.947  -5.994  1.00 20.00     0.005 C 
HETATM    3  C3  UNL     1     -34.999  15.301  -3.541  1.00 20.00     0.009 C 
HETATM    4  C4  UNL     1     -34.881  14.147  -4.555  1.00 20.00    -0.013 C 
HETATM    5  C5  UNL     1     -33.336  16.771  -4.782  1.00 20.00    -0.015 C 
HETATM    6  C6  UNL     1     -33.687  16.088  -3.431  1.00 20.00    -0.015 C 
HETATM    7  C7  UNL     1     -33.846  18.209  -4.923  1.00 20.00     0.010 C 
HETATM    8  C8  UNL     1     -33.719  17.040  -2.234  1.00 20.00     0.010 C 
ENDROOT
BRANCH   4   9
HETATM    9  C9  UNL     1     -36.264  13.782  -5.099  1.00 20.00     0.020 C 
BRANCH   9  10
HETATM   10  C10 UNL     1     -37.329  14.822  -4.781  1.00 20.00     0.115 C 
HETATM   11 CL11 UNL     1     -37.481  16.038  -6.071  1.00 20.00    -0.130 Cl
ENDBRANCH   9  10
ENDBRANCH   4   9
TORSDOF 2
ENDMDL
MODEL 6
REMARK VINA RESULT:      -4.2     11.083     12.083
REMARK  2 active torsions:
REMARK  status: ('A' for Active; 'I' for Inactive)
REMARK    1  A    between atoms: C4_4  and  C9_9 
REMARK    2  A    between atoms: C9_9  and  C10_10 
ROOT
HETATM    1  C1  UNL     1     -35.877  16.292  -4.233  1.00 20.00     0.005 C 
HETATM    2  C2  UNL     1     -36.325  16.576  -2.805  1.00 20.00     0.005 C 
HETATM    3  C3  UNL     1     -33.605  15.992  -3.087  1.00 20.00     0.009 C 
HETATM    4  C4  UNL     1     -34.503  15.600  -4.275  1.00 20.00    -0.013 C 
HETATM    5  C5  UNL     1     -35.358  17.524  -2.063  1.00 20.00    -0.015 C 
HETATM    6  C6  UNL     1     -33.904  17.417  -2.603  1.00 20.00    -0.015 C 
HETATM    7  C7  UNL     1     -35.499  17.296  -0.554  1.00 20.00     0.010 C 
HETATM    8  C8  UNL     1     -32.833  17.898  -1.624  1.00 20.00     0.010 C 
ENDROOT
BRANCH   4   9
HETATM    9  C9  UNL     1     -34.643  14.078  -4.349  1.00 20.00     0.020 C 
BRANCH   9  10
HETATM   10  C10 UNL     1     -35.819  13.624  -5.203  1.00 20.00     0.115 C 
HETATM   11 CL11 UNL     1     -35.316  13.184  -6.852  1.00 20.00    -0.130 Cl
ENDBRANCH   9  10
ENDBRANCH   4   9
TORSDOF 2
ENDMDL
MODEL 7
REMARK VINA RESULT:      -4.1     10.856     12.621
REMARK  2 active torsions:
REMARK  status: ('A' for Active; 'I' for Inactive)
REMARK    1  A    between atoms: C4_4  and  C9_9 
REMARK    2  A    between atoms: C9_9  and  C10_10 
ROOT
HETATM    1  C1  UNL     1     -34.669  14.149  -4.041  1.00 20.00     0.005 C 
HETATM    2  C2  UNL     1     -35.532  13.623  -5.180  1.00 20.00     0.005 C 
HETATM    3  C3  UNL     1     -34.779  16.305  -5.420  1.00 20.00     0.009 C 
HETATM    4  C4  UNL     1     -34.625  15.687  -4.018  1.00 20.00    -0.013 C 
HETATM    5  C5  UNL     1     -34.998  14.045  -6.566  1.00 20.00    -0.015 C 
HETATM    6  C6  UNL     1     -34.210  15.383  -6.506  1.00 20.00    -0.015 C 
HETATM    7  C7  UNL     1     -36.155  14.028  -7.570  1.00 20.00     0.010 C 
HETATM    8  C8  UNL     1     -34.109  16.114  -7.846  1.00 20.00     0.010 C 
ENDROOT
BRANCH   4   9
HETATM    9  C9  UNL     1     -35.678  16.265  -3.070  1.00 20.00     0.020 C 
BRANCH   9  10
HETATM   10  C10 UNL     1     -35.095  16.756  -1.753  1.00 20.00     0.115 C 
HETATM   11 CL11 UNL     1     -33.373  17.178  -1.899  1.00 20.00    -0.130 Cl
ENDBRANCH   9  10
ENDBRANCH   4   9
TORSDOF 2
ENDMDL
MODEL 8
REMARK VINA RESULT:      -4.1     11.575     12.423
REMARK  2 active torsions:
REMARK  status: ('A' for Active; 'I' for Inactive)
REMARK    1  A    between atoms: C4_4  and  C9_9 
REMARK    2  A    between atoms: C9_9  and  C10_10 
ROOT
HETATM    1  C1  UNL     1     -34.628  15.500  -3.781  1.00 20.00     0.005 C 
HETATM    2  C2  UNL     1     -33.592  16.528  -3.347  1.00 20.00     0.005 C 
HETATM    3  C3  UNL     1     -36.212  17.092  -2.548  1.00 20.00     0.009 C 
HETATM    4  C4  UNL     1     -36.061  16.048  -3.671  1.00 20.00    -0.013 C 
HETATM    5  C5  UNL     1     -33.764  16.949  -1.872  1.00 20.00    -0.015 C 
HETATM    6  C6  UNL     1     -35.238  16.820  -1.394  1.00 20.00    -0.015 C 
HETATM    7  C7  UNL     1     -33.148  18.339  -1.677  1.00 20.00     0.010 C 
HETATM    8  C8  UNL     1     -35.582  17.678  -0.176  1.00 20.00     0.010 C 
ENDROOT
BRANCH   4   9
HETATM    9  C9  UNL     1     -36.543  16.632  -5.000  1.00 20.00     0.020 C 
BRANCH   9  10
HETATM   10  C10 UNL     1     -37.973  16.240  -5.346  1.00 20.00     0.115 C 
HETATM   11 CL11 UNL     1     -38.317  14.542  -4.944  1.00 20.00    -0.130 Cl
ENDBRANCH   9  10
ENDBRANCH   4   9
TORSDOF 2
ENDMDL
MODEL 9
REMARK VINA RESULT:      -4.0     11.143     12.170
REMARK  2 active torsions:
REMARK  status: ('A' for Active; 'I' for Inactive)
REMARK    1  A    between atoms: C4_4  and  C9_9 
REMARK    2  A    between atoms: C9_9  and  C10_10 
ROOT
HETATM    1  C1  UNL     1     -33.627  15.923  -3.667  1.00 20.00     0.005 C 
HETATM    2  C2  UNL     1     -34.137  14.558  -4.113  1.00 20.00     0.005 C 
HETATM    3  C3  UNL     1     -36.120  16.502  -3.783  1.00 20.00     0.009 C 
HETATM    4  C4  UNL     1     -34.761  16.809  -3.125  1.00 20.00    -0.013 C 
HETATM    5  C5  UNL     1     -35.167  14.662  -5.258  1.00 20.00    -0.015 C 
HETATM    6  C6  UNL     1     -35.946  16.007  -5.225  1.00 20.00    -0.015 C 
HETATM    7  C7  UNL     1     -36.052  13.410  -5.244  1.00 20.00     0.010 C 
HETATM    8  C8  UNL     1     -37.289  15.974  -5.956  1.00 20.00     0.010 C 
ENDROOT
BRANCH   4   9
HETATM    9  C9  UNL     1     -34.877  16.704  -1.604  1.00 20.00     0.020 C 
BRANCH   9  10
HETATM   10  C10 UNL     1     -34.319  17.917  -0.873  1.00 20.00     0.115 C 
HETATM   11 CL11 UNL     1     -32.567  18.099  -1.120  1.00 20.00    -0.130 Cl
ENDBRANCH   9  10
ENDBRANCH   4   9
TORSDOF 2
ENDMDL
