MODEL 1
REMARK VINA RESULT:      -5.7      0.000      0.000
REMARK  3 active torsions:
REMARK  status: ('A' for Active; 'I' for Inactive)
REMARK    1  A    between atoms: C6_6  and  C7_7 
REMARK    2  A    between atoms: C6_6  and  C8_8 
REMARK    3  A    between atoms: C7_7  and  C9_9 
ROOT
HETATM    1  C1  UNL     1     -32.942   4.677   2.454  1.00 20.00     0.011 C 
HETATM    2  C7  UNL     1     -33.131   5.940   3.313  1.00 20.00    -0.010 C 
ENDROOT
BRANCH   2   3
HETATM    3  C6  UNL     1     -33.292   7.191   2.402  1.00 20.00     0.024 C 
BRANCH   3   4
HETATM    4  C8  UNL     1     -32.047   8.082   2.232  1.00 20.00     0.078 C 
HETATM    5  C2  UNL     1     -31.406   8.382   3.584  1.00 20.00     0.026 C 
HETATM    6 CL10 UNL     1     -32.463   9.629   1.438  1.00 20.00    -0.125 Cl
ENDBRANCH   3   4
ENDBRANCH   2   3
BRANCH   2   7
HETATM    7  C9  UNL     1     -34.293   5.791   4.374  1.00 20.00    -0.048 C 
HETATM    8  C3  UNL     1     -34.100   6.713   5.593  1.00 20.00     0.015 C 
HETATM    9  C4  UNL     1     -35.657   6.128   3.727  1.00 20.00     0.015 C 
HETATM   10  C5  UNL     1     -34.386   4.334   4.881  1.00 20.00     0.015 C 
ENDBRANCH   2   7
TORSDOF 3
ENDMDL
MODEL 2
REMARK VINA RESULT:      -4.6      1.094      2.344
REMARK  3 active torsions:
REMARK  status: ('A' for Active; 'I' for Inactive)
REMARK    1  A    between atoms: C6_6  and  C7_7 
REMARK    2  A    between atoms: C6_6  and  C8_8 
REMARK    3  A    between atoms: C7_7  and  C9_9 
ROOT
HETATM    1  C1  UNL     1     -33.190   7.694   5.561  1.00 20.00     0.011 C 
HETATM    2  C7  UNL     1     -33.559   7.440   4.088  1.00 20.00    -0.010 C 
ENDROOT
BRANCH   2   3
HETATM    3  C6  UNL     1     -32.336   7.729   3.171  1.00 20.00     0.024 C 
BRANCH   3   4
HETATM    4  C8  UNL     1     -32.636   8.393   1.814  1.00 20.00     0.078 C 
HETATM    5  C2  UNL     1     -31.383   8.442   0.945  1.00 20.00     0.026 C 
HETATM    6 CL10 UNL     1     -33.249  10.059   2.031  1.00 20.00    -0.125 Cl
ENDBRANCH   3   4
ENDBRANCH   2   3
BRANCH   2   7
HETATM    7  C9  UNL     1     -34.188   6.010   3.851  1.00 20.00    -0.048 C 
HETATM    8  C3  UNL     1     -33.325   5.132   2.925  1.00 20.00     0.015 C 
HETATM    9  C4  UNL     1     -34.356   5.268   5.198  1.00 20.00     0.015 C 
HETATM   10  C5  UNL     1     -35.597   6.130   3.228  1.00 20.00     0.015 C 
ENDBRANCH   2   7
TORSDOF 3
ENDMDL
MODEL 3
REMARK VINA RESULT:      -4.6      1.071      2.006
REMARK  3 active torsions:
REMARK  status: ('A' for Active; 'I' for Inactive)
REMARK    1  A    between atoms: C6_6  and  C7_7 
REMARK    2  A    between atoms: C6_6  and  C8_8 
REMARK    3  A    between atoms: C7_7  and  C9_9 
ROOT
HETATM    1  C1  UNL     1     -33.244   7.675   5.615  1.00 20.00     0.011 C 
HETATM    2  C7  UNL     1     -33.608   7.391   4.147  1.00 20.00    -0.010 C 
ENDROOT
BRANCH   2   3
HETATM    3  C6  UNL     1     -32.376   7.641   3.230  1.00 20.00     0.024 C 
BRANCH   3   4
HETATM    4  C8  UNL     1     -32.654   8.324   1.877  1.00 20.00     0.078 C 
HETATM    5  C2  UNL     1     -31.385   8.386   1.031  1.00 20.00     0.026 C 
HETATM    6 CL10 UNL     1     -33.273   9.985   2.106  1.00 20.00    -0.125 Cl
ENDBRANCH   3   4
ENDBRANCH   2   3
BRANCH   2   7
HETATM    7  C9  UNL     1     -34.255   5.963   3.940  1.00 20.00    -0.048 C 
HETATM    8  C3  UNL     1     -34.414   5.191   5.264  1.00 20.00     0.015 C 
HETATM    9  C4  UNL     1     -35.653   6.097   3.291  1.00 20.00     0.015 C 
HETATM   10  C5  UNL     1     -33.396   5.108   2.982  1.00 20.00     0.015 C 
ENDBRANCH   2   7
TORSDOF 3
ENDMDL
MODEL 4
REMARK VINA RESULT:      -4.6      1.082      2.196
REMARK  3 active torsions:
REMARK  status: ('A' for Active; 'I' for Inactive)
REMARK    1  A    between atoms: C6_6  and  C7_7 
REMARK    2  A    between atoms: C6_6  and  C8_8 
REMARK    3  A    between atoms: C7_7  and  C9_9 
ROOT
HETATM    1  C1  UNL     1     -33.228   7.669   5.599  1.00 20.00     0.011 C 
HETATM    2  C7  UNL     1     -33.605   7.408   4.130  1.00 20.00    -0.010 C 
ENDROOT
BRANCH   2   3
HETATM    3  C6  UNL     1     -32.378   7.659   3.207  1.00 20.00     0.024 C 
BRANCH   3   4
HETATM    4  C8  UNL     1     -32.660   8.353   1.862  1.00 20.00     0.078 C 
HETATM    5  C2  UNL     1     -31.397   8.419   1.010  1.00 20.00     0.026 C 
HETATM    6 CL10 UNL     1     -33.274  10.015   2.108  1.00 20.00    -0.125 Cl
ENDBRANCH   3   4
ENDBRANCH   2   3
BRANCH   2   7
HETATM    7  C9  UNL     1     -34.267   5.990   3.910  1.00 20.00    -0.048 C 
HETATM    8  C3  UNL     1     -35.673   6.086   3.287  1.00 20.00     0.015 C 
HETATM    9  C4  UNL     1     -33.386   5.126   2.978  1.00 20.00     0.015 C 
HETATM   10  C5  UNL     1     -34.383   5.228   5.249  1.00 20.00     0.015 C 
ENDBRANCH   2   7
TORSDOF 3
ENDMDL
MODEL 5
REMARK VINA RESULT:      -4.5      2.174      4.622
REMARK  3 active torsions:
REMARK  status: ('A' for Active; 'I' for Inactive)
REMARK    1  A    between atoms: C6_6  and  C7_7 
REMARK    2  A    between atoms: C6_6  and  C8_8 
REMARK    3  A    between atoms: C7_7  and  C9_9 
ROOT
HETATM    1  C1  UNL     1     -31.342   8.338   3.514  1.00 20.00     0.011 C 
HETATM    2  C7  UNL     1     -32.329   7.908   2.416  1.00 20.00    -0.010 C 
ENDROOT
BRANCH   2   3
HETATM    3  C6  UNL     1     -33.736   7.649   3.028  1.00 20.00     0.024 C 
BRANCH   3   4
HETATM    4  C8  UNL     1     -33.816   6.590   4.143  1.00 20.00     0.078 C 
HETATM    5  C2  UNL     1     -35.067   5.731   3.986  1.00 20.00     0.026 C 
HETATM    6 CL10 UNL     1     -33.843   7.353   5.760  1.00 20.00    -0.125 Cl
ENDBRANCH   3   4
ENDBRANCH   2   3
BRANCH   2   7
HETATM    7  C9  UNL     1     -32.359   8.908   1.192  1.00 20.00    -0.048 C 
HETATM    8  C3  UNL     1     -32.606  10.365   1.628  1.00 20.00     0.015 C 
HETATM    9  C4  UNL     1     -31.018   8.856   0.424  1.00 20.00     0.015 C 
HETATM   10  C5  UNL     1     -33.465   8.510   0.189  1.00 20.00     0.015 C 
ENDBRANCH   2   7
TORSDOF 3
ENDMDL
MODEL 6
REMARK VINA RESULT:      -3.8     11.284     11.977
REMARK  3 active torsions:
REMARK  status: ('A' for Active; 'I' for Inactive)
REMARK    1  A    between atoms: C6_6  and  C7_7 
REMARK    2  A    between atoms: C6_6  and  C8_8 
REMARK    3  A    between atoms: C7_7  and  C9_9 
ROOT
HETATM    1  C1  UNL     1     -33.163  14.416  -4.387  1.00 20.00     0.011 C 
HETATM    2  C7  UNL     1     -34.436  15.082  -3.837  1.00 20.00    -0.010 C 
ENDROOT
BRANCH   2   3
HETATM    3  C6  UNL     1     -34.145  16.560  -3.447  1.00 20.00     0.024 C 
BRANCH   3   4
HETATM    4  C8  UNL     1     -33.896  16.841  -1.954  1.00 20.00     0.078 C 
HETATM    5  C2  UNL     1     -35.215  17.048  -1.214  1.00 20.00     0.026 C 
HETATM    6 CL10 UNL     1     -32.877  18.293  -1.729  1.00 20.00    -0.125 Cl
ENDBRANCH   3   4
ENDBRANCH   2   3
BRANCH   2   7
HETATM    7  C9  UNL     1     -35.676  14.929  -4.806  1.00 20.00    -0.048 C 
HETATM    8  C3  UNL     1     -35.921  13.467  -5.223  1.00 20.00     0.015 C 
HETATM    9  C4  UNL     1     -36.959  15.456  -4.122  1.00 20.00     0.015 C 
HETATM   10  C5  UNL     1     -35.474  15.770  -6.087  1.00 20.00     0.015 C 
ENDBRANCH   2   7
TORSDOF 3
ENDMDL
MODEL 7
REMARK VINA RESULT:      -3.8     11.251     11.963
REMARK  3 active torsions:
REMARK  status: ('A' for Active; 'I' for Inactive)
REMARK    1  A    between atoms: C6_6  and  C7_7 
REMARK    2  A    between atoms: C6_6  and  C8_8 
REMARK    3  A    between atoms: C7_7  and  C9_9 
ROOT
HETATM    1  C1  UNL     1     -33.183  14.387  -4.342  1.00 20.00     0.011 C 
HETATM    2  C7  UNL     1     -34.443  15.095  -3.814  1.00 20.00    -0.010 C 
ENDROOT
BRANCH   2   3
HETATM    3  C6  UNL     1     -34.113  16.569  -3.440  1.00 20.00     0.024 C 
BRANCH   3   4
HETATM    4  C8  UNL     1     -33.874  16.862  -1.947  1.00 20.00     0.078 C 
HETATM    5  C2  UNL     1     -35.197  17.059  -1.214  1.00 20.00     0.026 C 
HETATM    6 CL10 UNL     1     -32.873  18.329  -1.728  1.00 20.00    -0.125 Cl
ENDBRANCH   3   4
ENDBRANCH   2   3
BRANCH   2   7
HETATM    7  C9  UNL     1     -35.676  14.964  -4.793  1.00 20.00    -0.048 C 
HETATM    8  C3  UNL     1     -35.483  15.764  -6.095  1.00 20.00     0.015 C 
HETATM    9  C4  UNL     1     -35.906  13.481  -5.170  1.00 20.00     0.015 C 
HETATM   10  C5  UNL     1     -36.971  15.458  -4.109  1.00 20.00     0.015 C 
ENDBRANCH   2   7
TORSDOF 3
ENDMDL
MODEL 8
REMARK VINA RESULT:      -3.8      2.004      4.064
REMARK  3 active torsions:
REMARK  status: ('A' for Active; 'I' for Inactive)
REMARK    1  A    between atoms: C6_6  and  C7_7 
REMARK    2  A    between atoms: C6_6  and  C8_8 
REMARK    3  A    between atoms: C7_7  and  C9_9 
ROOT
HETATM    1  C1  UNL     1     -32.597   5.690   2.426  1.00 20.00     0.011 C 
HETATM    2  C7  UNL     1     -33.328   7.044   2.387  1.00 20.00    -0.010 C 
ENDROOT
BRANCH   2   3
HETATM    3  C6  UNL     1     -34.251   7.192   3.631  1.00 20.00     0.024 C 
BRANCH   3   4
HETATM    4  C8  UNL     1     -33.812   6.448   4.905  1.00 20.00     0.078 C 
HETATM    5  C2  UNL     1     -34.835   5.384   5.293  1.00 20.00     0.026 C 
HETATM    6 CL10 UNL     1     -33.611   7.578   6.277  1.00 20.00    -0.125 Cl
ENDBRANCH   3   4
ENDBRANCH   2   3
BRANCH   2   7
HETATM    7  C9  UNL     1     -32.344   8.266   2.196  1.00 20.00    -0.048 C 
HETATM    8  C3  UNL     1     -31.511   8.156   0.905  1.00 20.00     0.015 C 
HETATM    9  C4  UNL     1     -33.140   9.591   2.143  1.00 20.00     0.015 C 
HETATM   10  C5  UNL     1     -31.371   8.376   3.391  1.00 20.00     0.015 C 
ENDBRANCH   2   7
TORSDOF 3
ENDMDL
MODEL 9
REMARK VINA RESULT:      -3.8     11.360     12.437
REMARK  3 active torsions:
REMARK  status: ('A' for Active; 'I' for Inactive)
REMARK    1  A    between atoms: C6_6  and  C7_7 
REMARK    2  A    between atoms: C6_6  and  C8_8 
REMARK    3  A    between atoms: C7_7  and  C9_9 
ROOT
HETATM    1  C1  UNL     1     -33.305  16.107  -6.024  1.00 20.00     0.011 C 
HETATM    2  C7  UNL     1     -33.852  14.815  -5.393  1.00 20.00    -0.010 C 
ENDROOT
BRANCH   2   3
HETATM    3  C6  UNL     1     -34.101  15.024  -3.871  1.00 20.00     0.024 C 
BRANCH   3   4
HETATM    4  C8  UNL     1     -34.546  16.432  -3.434  1.00 20.00     0.078 C 
HETATM    5  C2  UNL     1     -33.779  16.883  -2.194  1.00 20.00     0.026 C 
HETATM    6 CL10 UNL     1     -36.297  16.474  -3.074  1.00 20.00    -0.125 Cl
ENDBRANCH   3   4
ENDBRANCH   2   3
BRANCH   2   7
HETATM    7  C9  UNL     1     -35.114  14.246  -6.156  1.00 20.00    -0.048 C 
HETATM    8  C3  UNL     1     -34.727  13.330  -7.333  1.00 20.00     0.015 C 
HETATM    9  C4  UNL     1     -36.004  13.433  -5.187  1.00 20.00     0.015 C 
HETATM   10  C5  UNL     1     -35.984  15.397  -6.705  1.00 20.00     0.015 C 
ENDBRANCH   2   7
TORSDOF 3
ENDMDL
