MODEL 1
REMARK VINA RESULT:      -6.0      0.000      0.000
REMARK  0 active torsions:
REMARK  status: ('A' for Active; 'I' for Inactive)
ROOT
HETATM    1  C1  UNL     1     -32.632   9.516   1.332  1.00 20.00     0.088 C 
HETATM    2  C2  UNL     1     -32.713   7.422   2.519  1.00 20.00    -0.070 C 
HETATM    3  C3  UNL     1     -32.843   8.116   1.380  1.00 20.00     0.096 C 
HETATM    4  C4  UNL     1     -32.336   8.082   3.820  1.00 20.00     0.035 C 
HETATM    5  C5  UNL     1     -32.977   5.945   2.603  1.00 20.00     0.039 C 
HETATM    6  C6  UNL     1     -32.865   7.313   5.039  1.00 20.00     0.009 C 
HETATM    7  C7  UNL     1     -34.119   5.619   3.595  1.00 20.00    -0.011 C 
HETATM    8  C8  UNL     1     -34.226   6.661   4.750  1.00 20.00    -0.014 C 
HETATM    9  C9  UNL     1     -33.966   4.165   4.056  1.00 20.00     0.010 C 
HETATM   10  C10 UNL     1     -34.855   6.124   6.035  1.00 20.00     0.010 C 
HETATM   11  N11 UNL     1     -32.460  10.663   1.286  1.00 20.00    -0.192 NA
ENDROOT
TORSDOF 0
ENDMDL
MODEL 2
REMARK VINA RESULT:      -5.7     10.789     11.536
REMARK  0 active torsions:
REMARK  status: ('A' for Active; 'I' for Inactive)
ROOT
HETATM    1  C1  UNL     1     -35.217  13.704  -4.797  1.00 20.00     0.088 C 
HETATM    2  C2  UNL     1     -34.598  15.797  -3.778  1.00 20.00    -0.070 C 
HETATM    3  C3  UNL     1     -34.248  14.632  -4.341  1.00 20.00     0.096 C 
HETATM    4  C4  UNL     1     -36.039  16.196  -3.594  1.00 20.00     0.035 C 
HETATM    5  C5  UNL     1     -33.589  16.774  -3.246  1.00 20.00     0.039 C 
HETATM    6  C6  UNL     1     -36.231  17.161  -2.415  1.00 20.00     0.009 C 
HETATM    7  C7  UNL     1     -33.773  17.025  -1.730  1.00 20.00    -0.011 C 
HETATM    8  C8  UNL     1     -35.253  16.856  -1.270  1.00 20.00    -0.014 C 
HETATM    9  C9  UNL     1     -33.143  18.378  -1.378  1.00 20.00     0.010 C 
HETATM   10  C10 UNL     1     -35.623  17.646  -0.015  1.00 20.00     0.010 C 
HETATM   11  N11 UNL     1     -36.005  12.940  -5.172  1.00 20.00    -0.192 NA
ENDROOT
TORSDOF 0
ENDMDL
MODEL 3
REMARK VINA RESULT:      -5.0     11.243     11.808
REMARK  0 active torsions:
REMARK  status: ('A' for Active; 'I' for Inactive)
ROOT
HETATM    1  C1  UNL     1     -36.881  14.436  -4.770  1.00 20.00     0.088 C 
HETATM    2  C2  UNL     1     -35.501  16.138  -3.769  1.00 20.00    -0.070 C 
HETATM    3  C3  UNL     1     -35.617  14.995  -4.460  1.00 20.00     0.096 C 
HETATM    4  C4  UNL     1     -36.704  16.901  -3.277  1.00 20.00     0.035 C 
HETATM    5  C5  UNL     1     -34.171  16.725  -3.390  1.00 20.00     0.039 C 
HETATM    6  C6  UNL     1     -36.393  17.737  -2.027  1.00 20.00     0.009 C 
HETATM    7  C7  UNL     1     -34.007  16.838  -1.856  1.00 20.00    -0.011 C 
HETATM    8  C8  UNL     1     -35.368  17.038  -1.120  1.00 20.00    -0.014 C 
HETATM    9  C9  UNL     1     -32.953  17.910  -1.554  1.00 20.00     0.010 C 
HETATM   10  C10 UNL     1     -35.263  17.748   0.229  1.00 20.00     0.010 C 
HETATM   11  N11 UNL     1     -37.914  13.973  -5.026  1.00 20.00    -0.192 NA
ENDROOT
TORSDOF 0
ENDMDL
MODEL 4
REMARK VINA RESULT:      -4.8     11.299     11.997
REMARK  0 active torsions:
REMARK  status: ('A' for Active; 'I' for Inactive)
ROOT
HETATM    1  C1  UNL     1     -31.975  18.727   2.175  1.00 20.00     0.088 C 
HETATM    2  C2  UNL     1     -33.605  18.603   0.406  1.00 20.00    -0.070 C 
HETATM    3  C3  UNL     1     -33.297  18.523   1.708  1.00 20.00     0.096 C 
HETATM    4  C4  UNL     1     -32.569  18.914  -0.644  1.00 20.00     0.035 C 
HETATM    5  C5  UNL     1     -34.989  18.346  -0.116  1.00 20.00     0.039 C 
HETATM    6  C6  UNL     1     -32.937  18.334  -2.016  1.00 20.00     0.009 C 
HETATM    7  C7  UNL     1     -35.019  17.161  -1.111  1.00 20.00    -0.011 C 
HETATM    8  C8  UNL     1     -33.675  16.993  -1.884  1.00 20.00    -0.014 C 
HETATM    9  C9  UNL     1     -36.258  17.302  -2.003  1.00 20.00     0.010 C 
HETATM   10  C10 UNL     1     -33.805  16.308  -3.244  1.00 20.00     0.010 C 
HETATM   11  N11 UNL     1     -30.894  18.892   2.564  1.00 20.00    -0.192 NA
ENDROOT
TORSDOF 0
ENDMDL
MODEL 5
REMARK VINA RESULT:      -4.6     11.180     11.900
REMARK  0 active torsions:
REMARK  status: ('A' for Active; 'I' for Inactive)
ROOT
HETATM    1  C1  UNL     1     -33.539  18.462   2.168  1.00 20.00     0.088 C 
HETATM    2  C2  UNL     1     -34.566  18.285  -0.003  1.00 20.00    -0.070 C 
HETATM    3  C3  UNL     1     -34.656  18.218   1.333  1.00 20.00     0.096 C 
HETATM    4  C4  UNL     1     -33.275  18.622  -0.702  1.00 20.00     0.035 C 
HETATM    5  C5  UNL     1     -35.726  17.985  -0.909  1.00 20.00     0.039 C 
HETATM    6  C6  UNL     1     -33.204  18.026  -2.116  1.00 20.00     0.009 C 
HETATM    7  C7  UNL     1     -35.428  16.796  -1.853  1.00 20.00    -0.011 C 
HETATM    8  C8  UNL     1     -33.911  16.664  -2.192  1.00 20.00    -0.014 C 
HETATM    9  C9  UNL     1     -36.350  16.897  -3.074  1.00 20.00     0.010 C 
HETATM   10  C10 UNL     1     -33.613  15.971  -3.520  1.00 20.00     0.010 C 
HETATM   11  N11 UNL     1     -32.627  18.661   2.858  1.00 20.00    -0.192 NA
ENDROOT
TORSDOF 0
ENDMDL
MODEL 6
REMARK VINA RESULT:      -4.5     11.145     12.017
REMARK  0 active torsions:
REMARK  status: ('A' for Active; 'I' for Inactive)
ROOT
HETATM    1  C1  UNL     1     -33.030  17.783  -1.471  1.00 20.00     0.088 C 
HETATM    2  C2  UNL     1     -34.572  16.786  -3.029  1.00 20.00    -0.070 C 
HETATM    3  C3  UNL     1     -34.145  16.963  -1.771  1.00 20.00     0.096 C 
HETATM    4  C4  UNL     1     -33.897  17.445  -4.204  1.00 20.00     0.035 C 
HETATM    5  C5  UNL     1     -35.723  15.884  -3.375  1.00 20.00     0.039 C 
HETATM    6  C6  UNL     1     -34.080  16.649  -5.504  1.00 20.00     0.009 C 
HETATM    7  C7  UNL     1     -35.293  14.737  -4.320  1.00 20.00    -0.011 C 
HETATM    8  C8  UNL     1     -34.100  15.135  -5.243  1.00 20.00    -0.014 C 
HETATM    9  C9  UNL     1     -36.533  14.225  -5.063  1.00 20.00     0.010 C 
HETATM   10  C10 UNL     1     -34.022  14.356  -6.554  1.00 20.00     0.010 C 
HETATM   11  N11 UNL     1     -32.117  18.454  -1.219  1.00 20.00    -0.192 NA
ENDROOT
TORSDOF 0
ENDMDL
MODEL 7
REMARK VINA RESULT:      -4.5      1.250      2.318
REMARK  0 active torsions:
REMARK  status: ('A' for Active; 'I' for Inactive)
ROOT
HETATM    1  C1  UNL     1     -31.520   8.619   1.419  1.00 20.00     0.088 C 
HETATM    2  C2  UNL     1     -33.076   7.838   3.084  1.00 20.00    -0.070 C 
HETATM    3  C3  UNL     1     -32.015   8.585   2.746  1.00 20.00     0.096 C 
HETATM    4  C4  UNL     1     -33.809   6.988   2.078  1.00 20.00     0.035 C 
HETATM    5  C5  UNL     1     -33.589   7.751   4.493  1.00 20.00     0.039 C 
HETATM    6  C6  UNL     1     -34.501   5.782   2.729  1.00 20.00     0.009 C 
HETATM    7  C7  UNL     1     -33.537   6.304   5.037  1.00 20.00    -0.011 C 
HETATM    8  C8  UNL     1     -33.689   5.234   3.913  1.00 20.00    -0.014 C 
HETATM    9  C9  UNL     1     -34.547   6.176   6.183  1.00 20.00     0.010 C 
HETATM   10  C10 UNL     1     -34.250   3.893   4.383  1.00 20.00     0.010 C 
HETATM   11  N11 UNL     1     -31.109   8.650   0.334  1.00 20.00    -0.192 NA
ENDROOT
TORSDOF 0
ENDMDL
MODEL 8
REMARK VINA RESULT:      -4.4     10.677     12.246
REMARK  0 active torsions:
REMARK  status: ('A' for Active; 'I' for Inactive)
ROOT
HETATM    1  C1  UNL     1     -34.287  16.906  -2.156  1.00 20.00     0.088 C 
HETATM    2  C2  UNL     1     -33.889  15.721  -4.215  1.00 20.00    -0.070 C 
HETATM    3  C3  UNL     1     -33.662  16.777  -3.421  1.00 20.00     0.096 C 
HETATM    4  C4  UNL     1     -34.821  14.606  -3.817  1.00 20.00     0.035 C 
HETATM    5  C5  UNL     1     -33.274  15.586  -5.579  1.00 20.00     0.039 C 
HETATM    6  C6  UNL     1     -35.433  13.895  -5.032  1.00 20.00     0.009 C 
HETATM    7  C7  UNL     1     -34.348  15.508  -6.690  1.00 20.00    -0.011 C 
HETATM    8  C8  UNL     1     -35.681  14.871  -6.193  1.00 20.00    -0.014 C 
HETATM    9  C9  UNL     1     -33.732  14.826  -7.918  1.00 20.00     0.010 C 
HETATM   10  C10 UNL     1     -36.519  14.213  -7.287  1.00 20.00     0.010 C 
HETATM   11  N11 UNL     1     -34.796  17.018  -1.119  1.00 20.00    -0.192 NA
ENDROOT
TORSDOF 0
ENDMDL
MODEL 9
REMARK VINA RESULT:      -4.4     11.183     11.751
REMARK  0 active torsions:
REMARK  status: ('A' for Active; 'I' for Inactive)
ROOT
HETATM    1  C1  UNL     1     -34.680  17.169  -1.532  1.00 20.00     0.088 C 
HETATM    2  C2  UNL     1     -33.271  18.399  -0.014  1.00 20.00    -0.070 C 
HETATM    3  C3  UNL     1     -33.407  17.581  -1.067  1.00 20.00     0.096 C 
HETATM    4  C4  UNL     1     -34.460  18.932   0.744  1.00 20.00     0.035 C 
HETATM    5  C5  UNL     1     -31.931  18.812   0.524  1.00 20.00     0.039 C 
HETATM    6  C6  UNL     1     -34.120  19.263   2.204  1.00 20.00     0.009 C 
HETATM    7  C7  UNL     1     -31.737  18.366   1.993  1.00 20.00    -0.011 C 
HETATM    8  C8  UNL     1     -33.082  18.287   2.778  1.00 20.00    -0.014 C 
HETATM    9  C9  UNL     1     -30.671  19.260   2.638  1.00 20.00     0.010 C 
HETATM   10  C10 UNL     1     -32.947  18.464   4.290  1.00 20.00     0.010 C 
HETATM   11  N11 UNL     1     -35.720  16.827  -1.917  1.00 20.00    -0.192 NA
ENDROOT
TORSDOF 0
ENDMDL
