MODEL 1
REMARK VINA RESULT:      -5.7      0.000      0.000
REMARK  1 active torsions:
REMARK  status: ('A' for Active; 'I' for Inactive)
REMARK    1  A    between atoms: C5_5  and  C7_7 
ROOT
HETATM    1  C1  UNL     1     -33.693   4.083   3.578  1.00 20.00     0.002 C 
HETATM    2  C2  UNL     1     -32.758   5.193   3.126  1.00 20.00     0.013 C 
HETATM    3  C3  UNL     1     -34.609   4.502   4.731  1.00 20.00     0.020 C 
HETATM    4  C4  UNL     1     -34.821   6.692   3.456  1.00 20.00     0.033 C 
HETATM    5  C5  UNL     1     -33.539   6.424   2.641  1.00 20.00     0.095 C 
HETATM    6  C6  UNL     1     -34.868   6.010   4.825  1.00 20.00     0.083 C 
HETATM    7 CL11 UNL     1     -33.707   6.782   5.953  1.00 20.00    -0.125 Cl
ENDROOT
BRANCH   5   8
HETATM    8  C7  UNL     1     -32.628   7.651   2.581  1.00 20.00     0.391 C 
HETATM    9  F8  UNL     1     -31.815   7.672   3.648  1.00 20.00    -0.171 F 
HETATM   10  F9  UNL     1     -31.882   7.617   1.467  1.00 20.00    -0.171 F 
HETATM   11  F10 UNL     1     -33.367   8.771   2.575  1.00 20.00    -0.171 F 
ENDBRANCH   5   8
TORSDOF 1
ENDMDL
MODEL 2
REMARK VINA RESULT:      -5.1      1.604      2.371
REMARK  1 active torsions:
REMARK  status: ('A' for Active; 'I' for Inactive)
REMARK    1  A    between atoms: C5_5  and  C7_7 
ROOT
HETATM    1  C1  UNL     1     -33.645   6.809   5.973  1.00 20.00     0.002 C 
HETATM    2  C2  UNL     1     -33.336   7.734   4.805  1.00 20.00     0.013 C 
HETATM    3  C3  UNL     1     -34.621   5.687   5.608  1.00 20.00     0.020 C 
HETATM    4  C4  UNL     1     -33.290   5.553   3.445  1.00 20.00     0.033 C 
HETATM    5  C5  UNL     1     -32.706   6.968   3.632  1.00 20.00     0.095 C 
HETATM    6  C6  UNL     1     -34.643   5.320   4.120  1.00 20.00     0.083 C 
HETATM    7 CL11 UNL     1     -35.937   6.222   3.266  1.00 20.00    -0.125 Cl
ENDROOT
BRANCH   5   8
HETATM    8  C7  UNL     1     -32.778   7.795   2.348  1.00 20.00     0.391 C 
HETATM    9  F8  UNL     1     -33.437   7.113   1.399  1.00 20.00    -0.171 F 
HETATM   10  F9  UNL     1     -33.421   8.949   2.579  1.00 20.00    -0.171 F 
HETATM   11  F10 UNL     1     -31.540   8.068   1.908  1.00 20.00    -0.171 F 
ENDBRANCH   5   8
TORSDOF 1
ENDMDL
MODEL 3
REMARK VINA RESULT:      -5.0      3.099      4.037
REMARK  1 active torsions:
REMARK  status: ('A' for Active; 'I' for Inactive)
REMARK    1  A    between atoms: C5_5  and  C7_7 
ROOT
HETATM    1  C1  UNL     1     -32.672   7.961   3.867  1.00 20.00     0.002 C 
HETATM    2  C2  UNL     1     -33.032   6.978   4.970  1.00 20.00     0.013 C 
HETATM    3  C3  UNL     1     -32.727   7.341   2.468  1.00 20.00     0.020 C 
HETATM    4  C4  UNL     1     -34.839   6.202   3.313  1.00 20.00     0.033 C 
HETATM    5  C5  UNL     1     -34.455   6.427   4.790  1.00 20.00     0.095 C 
HETATM    6  C6  UNL     1     -33.657   6.128   2.345  1.00 20.00     0.083 C 
HETATM    7 CL11 UNL     1     -32.742   4.604   2.583  1.00 20.00    -0.125 Cl
ENDROOT
BRANCH   5   8
HETATM    8  C7  UNL     1     -34.655   5.168   5.635  1.00 20.00     0.391 C 
HETATM    9  F8  UNL     1     -35.220   4.203   4.894  1.00 20.00    -0.171 F 
HETATM   10  F9  UNL     1     -33.474   4.729   6.094  1.00 20.00    -0.171 F 
HETATM   11  F10 UNL     1     -35.454   5.438   6.679  1.00 20.00    -0.171 F 
ENDBRANCH   5   8
TORSDOF 1
ENDMDL
MODEL 4
REMARK VINA RESULT:      -4.3     11.581     12.372
REMARK  1 active torsions:
REMARK  status: ('A' for Active; 'I' for Inactive)
REMARK    1  A    between atoms: C5_5  and  C7_7 
ROOT
HETATM    1  C1  UNL     1     -35.399  16.733  -2.226  1.00 20.00     0.002 C 
HETATM    2  C2  UNL     1     -34.141  16.235  -2.921  1.00 20.00     0.013 C 
HETATM    3  C3  UNL     1     -36.537  17.052  -3.200  1.00 20.00     0.020 C 
HETATM    4  C4  UNL     1     -35.799  14.928  -4.389  1.00 20.00     0.033 C 
HETATM    5  C5  UNL     1     -34.410  14.950  -3.718  1.00 20.00     0.095 C 
HETATM    6  C6  UNL     1     -36.466  16.297  -4.533  1.00 20.00     0.083 C 
HETATM    7 CL11 UNL     1     -35.623  17.282  -5.772  1.00 20.00    -0.125 Cl
ENDROOT
BRANCH   5   8
HETATM    8  C7  UNL     1     -33.283  14.691  -4.719  1.00 20.00     0.391 C 
HETATM    9  F8  UNL     1     -32.368  13.873  -4.179  1.00 20.00    -0.171 F 
HETATM   10  F9  UNL     1     -33.775  14.122  -5.829  1.00 20.00    -0.171 F 
HETATM   11  F10 UNL     1     -32.691  15.849  -5.051  1.00 20.00    -0.171 F 
ENDBRANCH   5   8
TORSDOF 1
ENDMDL
MODEL 5
REMARK VINA RESULT:      -4.3     11.585     12.400
REMARK  1 active torsions:
REMARK  status: ('A' for Active; 'I' for Inactive)
REMARK    1  A    between atoms: C5_5  and  C7_7 
ROOT
HETATM    1  C1  UNL     1     -35.487  16.689  -2.279  1.00 20.00     0.002 C 
HETATM    2  C2  UNL     1     -34.204  16.215  -2.947  1.00 20.00     0.013 C 
HETATM    3  C3  UNL     1     -36.608  16.989  -3.278  1.00 20.00     0.020 C 
HETATM    4  C4  UNL     1     -35.806  14.881  -4.454  1.00 20.00     0.033 C 
HETATM    5  C5  UNL     1     -34.433  14.926  -3.752  1.00 20.00     0.095 C 
HETATM    6  C6  UNL     1     -36.494  16.239  -4.610  1.00 20.00     0.083 C 
HETATM    7 CL11 UNL     1     -35.641  17.240  -5.829  1.00 20.00    -0.125 Cl
ENDROOT
BRANCH   5   8
HETATM    8  C7  UNL     1     -33.279  14.690  -4.728  1.00 20.00     0.391 C 
HETATM    9  F8  UNL     1     -32.677  15.853  -5.016  1.00 20.00    -0.171 F 
HETATM   10  F9  UNL     1     -32.380  13.856  -4.186  1.00 20.00    -0.171 F 
HETATM   11  F10 UNL     1     -33.744  14.148  -5.864  1.00 20.00    -0.171 F 
ENDBRANCH   5   8
TORSDOF 1
ENDMDL
MODEL 6
REMARK VINA RESULT:      -4.3     11.438     12.578
REMARK  1 active torsions:
REMARK  status: ('A' for Active; 'I' for Inactive)
REMARK    1  A    between atoms: C5_5  and  C7_7 
ROOT
HETATM    1  C1  UNL     1     -36.767  15.918  -6.086  1.00 20.00     0.002 C 
HETATM    2  C2  UNL     1     -35.388  16.245  -5.533  1.00 20.00     0.013 C 
HETATM    3  C3  UNL     1     -36.842  14.531  -6.730  1.00 20.00     0.020 C 
HETATM    4  C4  UNL     1     -35.422  13.795  -4.753  1.00 20.00     0.033 C 
HETATM    5  C5  UNL     1     -34.961  15.237  -4.455  1.00 20.00     0.095 C 
HETATM    6  C6  UNL     1     -35.805  13.529  -6.210  1.00 20.00     0.083 C 
HETATM    7 CL11 UNL     1     -34.347  13.529  -7.255  1.00 20.00    -0.125 Cl
ENDROOT
BRANCH   5   8
HETATM    8  C7  UNL     1     -33.454  15.320  -4.207  1.00 20.00     0.391 C 
HETATM    9  F8  UNL     1     -33.212  15.998  -3.075  1.00 20.00    -0.171 F 
HETATM   10  F9  UNL     1     -32.937  14.087  -4.095  1.00 20.00    -0.171 F 
HETATM   11  F10 UNL     1     -32.855  15.951  -5.229  1.00 20.00    -0.171 F 
ENDBRANCH   5   8
TORSDOF 1
ENDMDL
MODEL 7
REMARK VINA RESULT:      -4.3     11.720     12.337
REMARK  1 active torsions:
REMARK  status: ('A' for Active; 'I' for Inactive)
REMARK    1  A    between atoms: C5_5  and  C7_7 
ROOT
HETATM    1  C1  UNL     1     -36.259  13.662  -5.479  1.00 20.00     0.002 C 
HETATM    2  C2  UNL     1     -36.193  14.825  -4.501  1.00 20.00     0.013 C 
HETATM    3  C3  UNL     1     -35.150  13.700  -6.534  1.00 20.00     0.020 C 
HETATM    4  C4  UNL     1     -33.657  14.406  -4.599  1.00 20.00     0.033 C 
HETATM    5  C5  UNL     1     -34.860  14.842  -3.737  1.00 20.00     0.095 C 
HETATM    6  C6  UNL     1     -33.892  14.468  -6.110  1.00 20.00     0.083 C 
HETATM    7 CL11 UNL     1     -33.974  16.171  -6.666  1.00 20.00    -0.125 Cl
ENDROOT
BRANCH   5   8
HETATM    8  C7  UNL     1     -34.633  16.205  -3.080  1.00 20.00     0.391 C 
HETATM    9  F8  UNL     1     -33.319  16.438  -2.948  1.00 20.00    -0.171 F 
HETATM   10  F9  UNL     1     -35.173  17.174  -3.833  1.00 20.00    -0.171 F 
HETATM   11  F10 UNL     1     -35.204  16.229  -1.866  1.00 20.00    -0.171 F 
ENDBRANCH   5   8
TORSDOF 1
ENDMDL
MODEL 8
REMARK VINA RESULT:      -4.2     11.382     12.605
REMARK  1 active torsions:
REMARK  status: ('A' for Active; 'I' for Inactive)
REMARK    1  A    between atoms: C5_5  and  C7_7 
ROOT
HETATM    1  C1  UNL     1     -33.293  16.611  -5.383  1.00 20.00     0.002 C 
HETATM    2  C2  UNL     1     -34.242  15.767  -6.220  1.00 20.00     0.013 C 
HETATM    3  C3  UNL     1     -33.701  16.689  -3.909  1.00 20.00     0.020 C 
HETATM    4  C4  UNL     1     -34.237  14.217  -4.168  1.00 20.00     0.033 C 
HETATM    5  C5  UNL     1     -34.312  14.321  -5.705  1.00 20.00     0.095 C 
HETATM    6  C6  UNL     1     -34.552  15.513  -3.419  1.00 20.00     0.083 C 
HETATM    7 CL11 UNL     1     -36.299  15.903  -3.542  1.00 20.00    -0.125 Cl
ENDROOT
BRANCH   5   8
HETATM    8  C7  UNL     1     -35.541  13.607  -6.271  1.00 20.00     0.391 C 
HETATM    9  F8  UNL     1     -36.347  14.492  -6.877  1.00 20.00    -0.171 F 
HETATM   10  F9  UNL     1     -35.164  12.680  -7.163  1.00 20.00    -0.171 F 
HETATM   11  F10 UNL     1     -36.219  13.008  -5.281  1.00 20.00    -0.171 F 
ENDBRANCH   5   8
TORSDOF 1
ENDMDL
MODEL 9
REMARK VINA RESULT:      -4.2     11.773     12.528
REMARK  1 active torsions:
REMARK  status: ('A' for Active; 'I' for Inactive)
REMARK    1  A    between atoms: C5_5  and  C7_7 
ROOT
HETATM    1  C1  UNL     1     -35.371  16.235  -3.348  1.00 20.00     0.002 C 
HETATM    2  C2  UNL     1     -35.883  15.038  -4.135  1.00 20.00     0.013 C 
HETATM    3  C3  UNL     1     -33.846  16.373  -3.391  1.00 20.00     0.020 C 
HETATM    4  C4  UNL     1     -34.093  15.741  -5.842  1.00 20.00     0.033 C 
HETATM    5  C5  UNL     1     -35.492  15.131  -5.618  1.00 20.00     0.095 C 
HETATM    6  C6  UNL     1     -33.181  15.730  -4.613  1.00 20.00     0.083 C 
HETATM    7 CL11 UNL     1     -32.650  14.059  -4.238  1.00 20.00    -0.125 Cl
ENDROOT
BRANCH   5   8
HETATM    8  C7  UNL     1     -35.643  13.771  -6.301  1.00 20.00     0.391 C 
HETATM    9  F8  UNL     1     -35.995  12.842  -5.399  1.00 20.00    -0.171 F 
HETATM   10  F9  UNL     1     -36.587  13.835  -7.251  1.00 20.00    -0.171 F 
HETATM   11  F10 UNL     1     -34.480  13.410  -6.866  1.00 20.00    -0.171 F 
ENDBRANCH   5   8
TORSDOF 1
ENDMDL
