MODEL 1
REMARK VINA RESULT:      -5.2      0.000      0.000
REMARK  0 active torsions:
REMARK  status: ('A' for Active; 'I' for Inactive)
ROOT
HETATM    1  C1  UNL     1     -32.496   9.509   0.825  1.00 20.00     0.088 C 
HETATM    2  C2  UNL     1     -32.538   7.659   2.366  1.00 20.00    -0.070 C 
HETATM    3  C3  UNL     1     -32.734   8.147   1.133  1.00 20.00     0.096 C 
HETATM    4  C4  UNL     1     -32.052   8.528   3.498  1.00 20.00     0.035 C 
HETATM    5  C5  UNL     1     -32.825   6.228   2.724  1.00 20.00     0.039 C 
HETATM    6  C6  UNL     1     -32.379   7.931   4.874  1.00 20.00     0.009 C 
HETATM    7  C7  UNL     1     -33.866   6.117   3.857  1.00 20.00    -0.011 C 
HETATM    8  C8  UNL     1     -33.769   7.280   4.887  1.00 20.00    -0.014 C 
HETATM    9  C9  UNL     1     -35.287   6.034   3.285  1.00 20.00     0.010 C 
HETATM   10  C10 UNL     1     -34.121   6.796   6.297  1.00 20.00     0.010 C 
HETATM   11  N11 UNL     1     -32.302  10.624   0.566  1.00 20.00    -0.192 NA
ENDROOT
TORSDOF 0
ENDMDL
MODEL 2
REMARK VINA RESULT:      -5.0     10.271     11.137
REMARK  0 active torsions:
REMARK  status: ('A' for Active; 'I' for Inactive)
ROOT
HETATM    1  C1  UNL     1     -34.012  14.789  -3.950  1.00 20.00     0.088 C 
HETATM    2  C2  UNL     1     -34.220  16.940  -2.889  1.00 20.00    -0.070 C 
HETATM    3  C3  UNL     1     -33.565  16.112  -3.715  1.00 20.00     0.096 C 
HETATM    4  C4  UNL     1     -35.470  16.515  -2.161  1.00 20.00     0.035 C 
HETATM    5  C5  UNL     1     -33.739  18.333  -2.592  1.00 20.00     0.039 C 
HETATM    6  C6  UNL     1     -35.753  17.383  -0.928  1.00 20.00     0.009 C 
HETATM    7  C7  UNL     1     -33.479  18.542  -1.086  1.00 20.00    -0.011 C 
HETATM    8  C8  UNL     1     -34.459  17.737  -0.183  1.00 20.00    -0.014 C 
HETATM    9  C9  UNL     1     -32.027  18.196  -0.731  1.00 20.00     0.010 C 
HETATM   10  C10 UNL     1     -34.775  18.503   1.105  1.00 20.00     0.010 C 
HETATM   11  N11 UNL     1     -34.374  13.703  -4.148  1.00 20.00    -0.192 NA
ENDROOT
TORSDOF 0
ENDMDL
MODEL 3
REMARK VINA RESULT:      -4.6     10.613     11.470
REMARK  0 active torsions:
REMARK  status: ('A' for Active; 'I' for Inactive)
ROOT
HETATM    1  C1  UNL     1     -31.343  18.709   1.708  1.00 20.00     0.088 C 
HETATM    2  C2  UNL     1     -33.175  18.885   0.155  1.00 20.00    -0.070 C 
HETATM    3  C3  UNL     1     -32.660  19.108   1.373  1.00 20.00     0.096 C 
HETATM    4  C4  UNL     1     -32.386  18.198  -0.929  1.00 20.00     0.035 C 
HETATM    5  C5  UNL     1     -34.584  19.263  -0.208  1.00 20.00     0.039 C 
HETATM    6  C6  UNL     1     -33.287  17.601  -2.018  1.00 20.00     0.009 C 
HETATM    7  C7  UNL     1     -35.408  18.039  -0.659  1.00 20.00    -0.011 C 
HETATM    8  C8  UNL     1     -34.556  16.980  -1.418  1.00 20.00    -0.014 C 
HETATM    9  C9  UNL     1     -36.117  17.390   0.536  1.00 20.00     0.010 C 
HETATM   10  C10 UNL     1     -35.382  16.289  -2.507  1.00 20.00     0.010 C 
HETATM   11  N11 UNL     1     -30.264  18.384   1.989  1.00 20.00    -0.192 NA
ENDROOT
TORSDOF 0
ENDMDL
MODEL 4
REMARK VINA RESULT:      -4.5     10.108     11.934
REMARK  0 active torsions:
REMARK  status: ('A' for Active; 'I' for Inactive)
ROOT
HETATM    1  C1  UNL     1     -32.837  17.897  -1.243  1.00 20.00     0.088 C 
HETATM    2  C2  UNL     1     -34.254  17.126  -3.031  1.00 20.00    -0.070 C 
HETATM    3  C3  UNL     1     -33.896  17.097  -1.740  1.00 20.00     0.096 C 
HETATM    4  C4  UNL     1     -33.554  18.009  -4.033  1.00 20.00     0.035 C 
HETATM    5  C5  UNL     1     -35.346  16.256  -3.587  1.00 20.00     0.039 C 
HETATM    6  C6  UNL     1     -33.756  17.531  -5.476  1.00 20.00     0.009 C 
HETATM    7  C7  UNL     1     -34.831  15.339  -4.716  1.00 20.00    -0.011 C 
HETATM    8  C8  UNL     1     -33.710  15.999  -5.571  1.00 20.00    -0.014 C 
HETATM    9  C9  UNL     1     -34.345  13.999  -4.150  1.00 20.00     0.010 C 
HETATM   10  C10 UNL     1     -33.797  15.549  -7.032  1.00 20.00     0.010 C 
HETATM   11  N11 UNL     1     -31.970  18.549  -0.830  1.00 20.00    -0.192 NA
ENDROOT
TORSDOF 0
ENDMDL
MODEL 5
REMARK VINA RESULT:      -4.5     10.291     11.921
REMARK  0 active torsions:
REMARK  status: ('A' for Active; 'I' for Inactive)
ROOT
HETATM    1  C1  UNL     1     -34.537  16.789  -2.023  1.00 20.00     0.088 C 
HETATM    2  C2  UNL     1     -33.808  15.623  -3.999  1.00 20.00    -0.070 C 
HETATM    3  C3  UNL     1     -33.666  16.632  -3.128  1.00 20.00     0.096 C 
HETATM    4  C4  UNL     1     -34.903  14.597  -3.857  1.00 20.00     0.035 C 
HETATM    5  C5  UNL     1     -32.921  15.463  -5.202  1.00 20.00     0.039 C 
HETATM    6  C6  UNL     1     -35.200  13.872  -5.176  1.00 20.00     0.009 C 
HETATM    7  C7  UNL     1     -33.728  15.477  -6.517  1.00 20.00    -0.011 C 
HETATM    8  C8  UNL     1     -35.138  14.835  -6.371  1.00 20.00    -0.014 C 
HETATM    9  C9  UNL     1     -33.851  16.904  -7.065  1.00 20.00     0.010 C 
HETATM   10  C10 UNL     1     -35.552  14.117  -7.659  1.00 20.00     0.010 C 
HETATM   11  N11 UNL     1     -35.248  16.924  -1.114  1.00 20.00    -0.192 NA
ENDROOT
TORSDOF 0
ENDMDL
MODEL 6
REMARK VINA RESULT:      -4.2     10.237     11.782
REMARK  0 active torsions:
REMARK  status: ('A' for Active; 'I' for Inactive)
ROOT
HETATM    1  C1  UNL     1     -35.254  13.673  -4.737  1.00 20.00     0.088 C 
HETATM    2  C2  UNL     1     -34.827  15.932  -4.021  1.00 20.00    -0.070 C 
HETATM    3  C3  UNL     1     -34.528  14.625  -3.981  1.00 20.00     0.096 C 
HETATM    4  C4  UNL     1     -35.952  16.466  -4.871  1.00 20.00     0.035 C 
HETATM    5  C5  UNL     1     -34.097  16.954  -3.195  1.00 20.00     0.039 C 
HETATM    6  C6  UNL     1     -36.441  17.840  -4.396  1.00 20.00     0.009 C 
HETATM    7  C7  UNL     1     -35.051  17.718  -2.253  1.00 20.00    -0.011 C 
HETATM    8  C8  UNL     1     -36.467  17.928  -2.863  1.00 20.00    -0.014 C 
HETATM    9  C9  UNL     1     -35.158  17.012  -0.896  1.00 20.00     0.010 C 
HETATM   10  C10 UNL     1     -37.067  19.263  -2.413  1.00 20.00     0.010 C 
HETATM   11  N11 UNL     1     -35.845  12.887  -5.354  1.00 20.00    -0.192 NA
ENDROOT
TORSDOF 0
ENDMDL
MODEL 7
REMARK VINA RESULT:      -4.2     10.539     11.972
REMARK  0 active torsions:
REMARK  status: ('A' for Active; 'I' for Inactive)
ROOT
HETATM    1  C1  UNL     1     -35.901  14.062  -5.325  1.00 20.00     0.088 C 
HETATM    2  C2  UNL     1     -35.726  16.236  -4.304  1.00 20.00    -0.070 C 
HETATM    3  C3  UNL     1     -35.925  15.477  -5.391  1.00 20.00     0.096 C 
HETATM    4  C4  UNL     1     -35.464  15.631  -2.948  1.00 20.00     0.035 C 
HETATM    5  C5  UNL     1     -35.705  17.738  -4.359  1.00 20.00     0.039 C 
HETATM    6  C6  UNL     1     -34.777  16.616  -1.992  1.00 20.00     0.009 C 
HETATM    7  C7  UNL     1     -34.363  18.312  -3.859  1.00 20.00    -0.011 C 
HETATM    8  C8  UNL     1     -33.726  17.465  -2.721  1.00 20.00    -0.014 C 
HETATM    9  C9  UNL     1     -33.373  18.470  -5.020  1.00 20.00     0.010 C 
HETATM   10  C10 UNL     1     -32.974  18.355  -1.727  1.00 20.00     0.010 C 
HETATM   11  N11 UNL     1     -35.882  12.902  -5.278  1.00 20.00    -0.192 NA
ENDROOT
TORSDOF 0
ENDMDL
MODEL 8
REMARK VINA RESULT:      -4.2     10.826     11.671
REMARK  0 active torsions:
REMARK  status: ('A' for Active; 'I' for Inactive)
ROOT
HETATM    1  C1  UNL     1     -32.165  18.159  -0.781  1.00 20.00     0.088 C 
HETATM    2  C2  UNL     1     -34.420  17.387  -1.124  1.00 20.00    -0.070 C 
HETATM    3  C3  UNL     1     -33.177  17.583  -1.587  1.00 20.00     0.096 C 
HETATM    4  C4  UNL     1     -34.816  17.766   0.280  1.00 20.00     0.035 C 
HETATM    5  C5  UNL     1     -35.520  16.816  -1.976  1.00 20.00     0.039 C 
HETATM    6  C6  UNL     1     -36.333  17.937   0.433  1.00 20.00     0.009 C 
HETATM    7  C7  UNL     1     -36.717  17.782  -2.090  1.00 20.00    -0.011 C 
HETATM    8  C8  UNL     1     -36.948  18.618  -0.797  1.00 20.00    -0.014 C 
HETATM    9  C9  UNL     1     -36.554  18.711  -3.299  1.00 20.00     0.010 C 
HETATM   10  C10 UNL     1     -38.440  18.883  -0.574  1.00 20.00     0.010 C 
HETATM   11  N11 UNL     1     -31.331  18.630  -0.125  1.00 20.00    -0.192 NA
ENDROOT
TORSDOF 0
ENDMDL
MODEL 9
REMARK VINA RESULT:      -4.1     10.477     11.114
REMARK  0 active torsions:
REMARK  status: ('A' for Active; 'I' for Inactive)
ROOT
HETATM    1  C1  UNL     1     -34.123  16.426  -2.609  1.00 20.00     0.088 C 
HETATM    2  C2  UNL     1     -33.849  18.154  -0.955  1.00 20.00    -0.070 C 
HETATM    3  C3  UNL     1     -33.396  17.495  -2.031  1.00 20.00     0.096 C 
HETATM    4  C4  UNL     1     -35.158  17.799  -0.296  1.00 20.00     0.035 C 
HETATM    5  C5  UNL     1     -33.074  19.263  -0.300  1.00 20.00     0.039 C 
HETATM    6  C6  UNL     1     -35.237  18.297   1.153  1.00 20.00     0.009 C 
HETATM    7  C7  UNL     1     -32.765  18.951   1.180  1.00 20.00    -0.011 C 
HETATM    8  C8  UNL     1     -33.892  18.135   1.876  1.00 20.00    -0.014 C 
HETATM    9  C9  UNL     1     -31.423  18.223   1.314  1.00 20.00     0.010 C 
HETATM   10  C10 UNL     1     -34.026  18.527   3.350  1.00 20.00     0.010 C 
HETATM   11  N11 UNL     1     -34.714  15.549  -3.088  1.00 20.00    -0.192 NA
ENDROOT
TORSDOF 0
ENDMDL
