MODEL 1
REMARK VINA RESULT:      -5.7      0.000      0.000
REMARK  3 active torsions:
REMARK  status: ('A' for Active; 'I' for Inactive)
REMARK    1  A    between atoms: C5_5  and  C7_7 
REMARK    2  A    between atoms: C6_6  and  C7_7 
REMARK    3  A    between atoms: C6_6  and  C8_8 
ROOT
HETATM    1  C1  UNL     1     -34.796   5.026   5.601  1.00 20.00     0.012 C 
HETATM    2  C2  UNL     1     -34.274   6.025   5.187  1.00 20.00    -0.117 C 
HETATM    3  C5  UNL     1     -33.635   7.252   4.688  1.00 20.00     0.097 C 
ENDROOT
BRANCH   3   4
HETATM    4  C7  UNL     1     -33.367   7.237   3.171  1.00 20.00    -0.006 C 
HETATM    5  C3  UNL     1     -33.013   5.825   2.682  1.00 20.00     0.011 C 
BRANCH   4   6
HETATM    6  C6  UNL     1     -32.279   8.235   2.707  1.00 20.00     0.025 C 
BRANCH   6   7
HETATM    7  C8  UNL     1     -32.505   8.885   1.333  1.00 20.00     0.078 C 
HETATM    8  C4  UNL     1     -31.297   8.676   0.426  1.00 20.00     0.026 C 
HETATM    9 CL9  UNL     1     -32.808  10.640   1.492  1.00 20.00    -0.125 Cl
ENDBRANCH   6   7
ENDBRANCH   4   6
ENDBRANCH   3   4
TORSDOF 3
ENDMDL
MODEL 2
REMARK VINA RESULT:      -5.6      1.422      1.938
REMARK  3 active torsions:
REMARK  status: ('A' for Active; 'I' for Inactive)
REMARK    1  A    between atoms: C5_5  and  C7_7 
REMARK    2  A    between atoms: C6_6  and  C7_7 
REMARK    3  A    between atoms: C6_6  and  C8_8 
ROOT
HETATM    1  C1  UNL     1     -33.835   7.271   6.253  1.00 20.00     0.012 C 
HETATM    2  C2  UNL     1     -34.224   6.542   5.382  1.00 20.00    -0.117 C 
HETATM    3  C5  UNL     1     -34.705   5.644   4.322  1.00 20.00     0.097 C 
ENDROOT
BRANCH   3   4
HETATM    4  C7  UNL     1     -34.108   5.950   2.934  1.00 20.00    -0.006 C 
HETATM    5  C3  UNL     1     -32.926   5.021   2.620  1.00 20.00     0.011 C 
BRANCH   4   6
HETATM    6  C6  UNL     1     -33.678   7.423   2.736  1.00 20.00     0.025 C 
BRANCH   6   7
HETATM    7  C8  UNL     1     -32.191   7.652   2.423  1.00 20.00     0.078 C 
HETATM    8  C4  UNL     1     -31.468   8.253   3.623  1.00 20.00     0.026 C 
HETATM    9 CL9  UNL     1     -31.989   8.746   1.023  1.00 20.00    -0.125 Cl
ENDBRANCH   6   7
ENDBRANCH   4   6
ENDBRANCH   3   4
TORSDOF 3
ENDMDL
MODEL 3
REMARK VINA RESULT:      -5.5      2.632      5.010
REMARK  3 active torsions:
REMARK  status: ('A' for Active; 'I' for Inactive)
REMARK    1  A    between atoms: C5_5  and  C7_7 
REMARK    2  A    between atoms: C6_6  and  C7_7 
REMARK    3  A    between atoms: C6_6  and  C8_8 
ROOT
HETATM    1  C1  UNL     1     -32.529  10.683   0.923  1.00 20.00     0.012 C 
HETATM    2  C2  UNL     1     -32.549   9.513   1.192  1.00 20.00    -0.117 C 
HETATM    3  C5  UNL     1     -32.572   8.078   1.513  1.00 20.00     0.097 C 
ENDROOT
BRANCH   3   4
HETATM    4  C7  UNL     1     -32.742   7.782   3.015  1.00 20.00    -0.006 C 
HETATM    5  C3  UNL     1     -31.472   8.141   3.800  1.00 20.00     0.011 C 
BRANCH   4   6
HETATM    6  C6  UNL     1     -33.156   6.326   3.335  1.00 20.00     0.025 C 
BRANCH   6   7
HETATM    7  C8  UNL     1     -34.304   6.159   4.342  1.00 20.00     0.078 C 
HETATM    8  C4  UNL     1     -34.023   6.937   5.623  1.00 20.00     0.026 C 
HETATM    9 CL9  UNL     1     -34.554   4.437   4.757  1.00 20.00    -0.125 Cl
ENDBRANCH   6   7
ENDBRANCH   4   6
ENDBRANCH   3   4
TORSDOF 3
ENDMDL
MODEL 4
REMARK VINA RESULT:      -5.4      1.351      1.707
REMARK  3 active torsions:
REMARK  status: ('A' for Active; 'I' for Inactive)
REMARK    1  A    between atoms: C5_5  and  C7_7 
REMARK    2  A    between atoms: C6_6  and  C7_7 
REMARK    3  A    between atoms: C6_6  and  C8_8 
ROOT
HETATM    1  C1  UNL     1     -34.104   6.724   5.829  1.00 20.00     0.012 C 
HETATM    2  C2  UNL     1     -33.359   7.298   5.083  1.00 20.00    -0.117 C 
HETATM    3  C5  UNL     1     -32.442   8.005   4.176  1.00 20.00     0.097 C 
ENDROOT
BRANCH   3   4
HETATM    4  C7  UNL     1     -32.826   7.884   2.689  1.00 20.00    -0.006 C 
HETATM    5  C3  UNL     1     -33.260   6.452   2.342  1.00 20.00     0.011 C 
BRANCH   4   6
HETATM    6  C6  UNL     1     -31.723   8.345   1.707  1.00 20.00     0.025 C 
BRANCH   6   7
HETATM    7  C8  UNL     1     -32.083   9.535   0.804  1.00 20.00     0.078 C 
HETATM    8  C4  UNL     1     -32.819  10.614   1.592  1.00 20.00     0.026 C 
HETATM    9 CL9  UNL     1     -33.113   9.019  -0.564  1.00 20.00    -0.125 Cl
ENDBRANCH   6   7
ENDBRANCH   4   6
ENDBRANCH   3   4
TORSDOF 3
ENDMDL
MODEL 5
REMARK VINA RESULT:      -5.3      0.990      1.629
REMARK  3 active torsions:
REMARK  status: ('A' for Active; 'I' for Inactive)
REMARK    1  A    between atoms: C5_5  and  C7_7 
REMARK    2  A    between atoms: C6_6  and  C7_7 
REMARK    3  A    between atoms: C6_6  and  C8_8 
ROOT
HETATM    1  C1  UNL     1     -34.365   6.118   5.260  1.00 20.00     0.012 C 
HETATM    2  C2  UNL     1     -34.040   6.553   4.188  1.00 20.00    -0.117 C 
HETATM    3  C5  UNL     1     -33.651   7.083   2.873  1.00 20.00     0.097 C 
ENDROOT
BRANCH   3   4
HETATM    4  C7  UNL     1     -32.181   7.539   2.800  1.00 20.00    -0.006 C 
HETATM    5  C3  UNL     1     -31.776   8.314   4.062  1.00 20.00     0.011 C 
BRANCH   4   6
HETATM    6  C6  UNL     1     -31.836   8.374   1.544  1.00 20.00     0.025 C 
BRANCH   6   7
HETATM    7  C8  UNL     1     -32.923   9.349   1.066  1.00 20.00     0.078 C 
HETATM    8  C4  UNL     1     -33.033   9.339  -0.455  1.00 20.00     0.026 C 
HETATM    9 CL9  UNL     1     -32.575  11.018   1.605  1.00 20.00    -0.125 Cl
ENDBRANCH   6   7
ENDBRANCH   4   6
ENDBRANCH   3   4
TORSDOF 3
ENDMDL
MODEL 6
REMARK VINA RESULT:      -5.2      2.781      4.547
REMARK  3 active torsions:
REMARK  status: ('A' for Active; 'I' for Inactive)
REMARK    1  A    between atoms: C5_5  and  C7_7 
REMARK    2  A    between atoms: C6_6  and  C7_7 
REMARK    3  A    between atoms: C6_6  and  C8_8 
ROOT
HETATM    1  C1  UNL     1     -31.881   8.840   1.129  1.00 20.00     0.012 C 
HETATM    2  C2  UNL     1     -31.962   8.457   2.265  1.00 20.00    -0.117 C 
HETATM    3  C5  UNL     1     -32.050   7.989   3.656  1.00 20.00     0.097 C 
ENDROOT
BRANCH   3   4
HETATM    4  C7  UNL     1     -33.479   7.610   4.091  1.00 20.00    -0.006 C 
HETATM    5  C3  UNL     1     -33.545   7.333   5.600  1.00 20.00     0.011 C 
BRANCH   4   6
HETATM    6  C6  UNL     1     -34.084   6.415   3.316  1.00 20.00     0.025 C 
BRANCH   6   7
HETATM    7  C8  UNL     1     -33.366   5.068   3.490  1.00 20.00     0.078 C 
HETATM    8  C4  UNL     1     -33.045   4.443   2.137  1.00 20.00     0.026 C 
HETATM    9 CL9  UNL     1     -34.366   3.921   4.431  1.00 20.00    -0.125 Cl
ENDBRANCH   6   7
ENDBRANCH   4   6
ENDBRANCH   3   4
TORSDOF 3
ENDMDL
MODEL 7
REMARK VINA RESULT:      -5.0      2.548      4.695
REMARK  3 active torsions:
REMARK  status: ('A' for Active; 'I' for Inactive)
REMARK    1  A    between atoms: C5_5  and  C7_7 
REMARK    2  A    between atoms: C6_6  and  C7_7 
REMARK    3  A    between atoms: C6_6  and  C8_8 
ROOT
HETATM    1  C1  UNL     1     -32.548   9.296   0.773  1.00 20.00     0.012 C 
HETATM    2  C2  UNL     1     -32.216   8.693   1.757  1.00 20.00    -0.117 C 
HETATM    3  C5  UNL     1     -31.802   7.960   2.963  1.00 20.00     0.097 C 
ENDROOT
BRANCH   3   4
HETATM    4  C7  UNL     1     -32.715   6.767   3.306  1.00 20.00    -0.006 C 
HETATM    5  C3  UNL     1     -32.807   5.780   2.133  1.00 20.00     0.011 C 
BRANCH   4   6
HETATM    6  C6  UNL     1     -34.139   7.167   3.762  1.00 20.00     0.025 C 
BRANCH   6   7
HETATM    7  C8  UNL     1     -34.561   6.676   5.156  1.00 20.00     0.078 C 
HETATM    8  C4  UNL     1     -33.651   7.252   6.235  1.00 20.00     0.026 C 
HETATM    9 CL9  UNL     1     -34.508   4.890   5.253  1.00 20.00    -0.125 Cl
ENDBRANCH   6   7
ENDBRANCH   4   6
ENDBRANCH   3   4
TORSDOF 3
ENDMDL
MODEL 8
REMARK VINA RESULT:      -4.5      2.408      3.333
REMARK  3 active torsions:
REMARK  status: ('A' for Active; 'I' for Inactive)
REMARK    1  A    between atoms: C5_5  and  C7_7 
REMARK    2  A    between atoms: C6_6  and  C7_7 
REMARK    3  A    between atoms: C6_6  and  C8_8 
ROOT
HETATM    1  C1  UNL     1     -33.282   7.921   6.041  1.00 20.00     0.012 C 
HETATM    2  C2  UNL     1     -33.975   6.940   6.009  1.00 20.00    -0.117 C 
HETATM    3  C5  UNL     1     -34.824   5.741   5.979  1.00 20.00     0.097 C 
ENDROOT
BRANCH   3   4
HETATM    4  C7  UNL     1     -34.955   5.109   4.580  1.00 20.00    -0.006 C 
HETATM    5  C3  UNL     1     -34.141   3.810   4.478  1.00 20.00     0.011 C 
BRANCH   4   6
HETATM    6  C6  UNL     1     -34.572   6.055   3.417  1.00 20.00     0.025 C 
BRANCH   6   7
HETATM    7  C8  UNL     1     -33.097   6.026   2.985  1.00 20.00     0.078 C 
HETATM    8  C4  UNL     1     -32.693   7.346   2.338  1.00 20.00     0.026 C 
HETATM    9 CL9  UNL     1     -32.790   4.700   1.825  1.00 20.00    -0.125 Cl
ENDBRANCH   6   7
ENDBRANCH   4   6
ENDBRANCH   3   4
TORSDOF 3
ENDMDL
MODEL 9
REMARK VINA RESULT:      -4.5      2.699      3.701
REMARK  3 active torsions:
REMARK  status: ('A' for Active; 'I' for Inactive)
REMARK    1  A    between atoms: C5_5  and  C7_7 
REMARK    2  A    between atoms: C6_6  and  C7_7 
REMARK    3  A    between atoms: C6_6  and  C8_8 
ROOT
HETATM    1  C1  UNL     1     -33.930   7.261   6.059  1.00 20.00     0.012 C 
HETATM    2  C2  UNL     1     -33.132   7.626   5.239  1.00 20.00    -0.117 C 
HETATM    3  C5  UNL     1     -32.151   8.078   4.242  1.00 20.00     0.097 C 
ENDROOT
BRANCH   3   4
HETATM    4  C7  UNL     1     -32.342   7.440   2.852  1.00 20.00    -0.006 C 
HETATM    5  C3  UNL     1     -32.539   8.511   1.770  1.00 20.00     0.011 C 
BRANCH   4   6
HETATM    6  C6  UNL     1     -33.492   6.408   2.778  1.00 20.00     0.025 C 
BRANCH   6   7
HETATM    7  C8  UNL     1     -33.134   4.971   3.188  1.00 20.00     0.078 C 
HETATM    8  C4  UNL     1     -32.955   4.083   1.962  1.00 20.00     0.026 C 
HETATM    9 CL9  UNL     1     -34.402   4.262   4.231  1.00 20.00    -0.125 Cl
ENDBRANCH   6   7
ENDBRANCH   4   6
ENDBRANCH   3   4
TORSDOF 3
ENDMDL
