MODEL 1
REMARK VINA RESULT:      -5.3      0.000      0.000
REMARK  5 active torsions:
REMARK  status: ('A' for Active; 'I' for Inactive)
REMARK    1  A    between atoms: C6_6  and  C7_7 
REMARK    2  A    between atoms: C6_6  and  C9_9 
REMARK    3  A    between atoms: C7_7  and  C11_11 
REMARK    4  A    between atoms: C8_8  and  C10_10 
REMARK    5  A    between atoms: C8_8  and  C11_11 
ROOT
HETATM    1  C4  UNL     1     -32.309   6.262   2.291  1.00 20.00     0.015 C 
HETATM    2  C5  UNL     1     -31.584   8.239   3.603  1.00 20.00     0.015 C 
HETATM    3  C11 UNL     1     -32.809   7.571   2.946  1.00 20.00    -0.046 C 
ENDROOT
BRANCH   3   4
HETATM    4  C7  UNL     1     -33.829   7.236   4.074  1.00 20.00     0.009 C 
BRANCH   4   5
HETATM    5  C6  UNL     1     -34.896   6.189   3.717  1.00 20.00     0.004 C 
BRANCH   5   6
HETATM    6  C9  UNL     1     -34.958   5.019   4.721  1.00 20.00    -0.023 C 
HETATM    7  C1  UNL     1     -34.541   5.435   6.132  1.00 20.00     0.009 C 
HETATM    8  C2  UNL     1     -34.065   3.874   4.236  1.00 20.00     0.009 C 
ENDBRANCH   5   6
ENDBRANCH   4   5
ENDBRANCH   3   4
BRANCH   3   9
HETATM    9  C8  UNL     1     -33.408   8.460   1.812  1.00 20.00     0.028 C 
BRANCH   9  10
HETATM   10  C10 UNL     1     -32.451   9.352   0.998  1.00 20.00     0.079 C 
HETATM   11  C3  UNL     1     -32.832   9.335  -0.482  1.00 20.00     0.026 C 
HETATM   12 CL12 UNL     1     -32.487  11.050   1.555  1.00 20.00    -0.125 Cl
ENDBRANCH   9  10
ENDBRANCH   3   9
TORSDOF 5
ENDMDL
MODEL 2
REMARK VINA RESULT:      -5.2      1.214      1.341
REMARK  5 active torsions:
REMARK  status: ('A' for Active; 'I' for Inactive)
REMARK    1  A    between atoms: C6_6  and  C7_7 
REMARK    2  A    between atoms: C6_6  and  C9_9 
REMARK    3  A    between atoms: C7_7  and  C11_11 
REMARK    4  A    between atoms: C8_8  and  C10_10 
REMARK    5  A    between atoms: C8_8  and  C11_11 
ROOT
HETATM    1  C4  UNL     1     -32.108   6.073   2.600  1.00 20.00     0.015 C 
HETATM    2  C5  UNL     1     -31.503   8.102   3.893  1.00 20.00     0.015 C 
HETATM    3  C11 UNL     1     -32.451   7.568   2.800  1.00 20.00    -0.046 C 
ENDROOT
BRANCH   3   4
HETATM    4  C7  UNL     1     -33.909   7.706   3.326  1.00 20.00     0.009 C 
BRANCH   4   5
HETATM    5  C6  UNL     1     -34.707   6.396   3.429  1.00 20.00     0.004 C 
BRANCH   5   6
HETATM    6  C9  UNL     1     -34.876   5.900   4.880  1.00 20.00    -0.023 C 
HETATM    7  C1  UNL     1     -34.080   6.737   5.882  1.00 20.00     0.009 C 
HETATM    8  C2  UNL     1     -34.448   4.433   4.979  1.00 20.00     0.009 C 
ENDBRANCH   5   6
ENDBRANCH   4   5
ENDBRANCH   3   4
BRANCH   3   9
HETATM    9  C8  UNL     1     -32.214   8.286   1.435  1.00 20.00     0.028 C 
BRANCH   9  10
HETATM   10  C10 UNL     1     -33.129   9.467   1.059  1.00 20.00     0.079 C 
HETATM   11  C3  UNL     1     -32.508  10.790   1.505  1.00 20.00     0.026 C 
HETATM   12 CL12 UNL     1     -33.408   9.558  -0.704  1.00 20.00    -0.125 Cl
ENDBRANCH   9  10
ENDBRANCH   3   9
TORSDOF 5
ENDMDL
MODEL 3
REMARK VINA RESULT:      -5.2      1.211      1.630
REMARK  5 active torsions:
REMARK  status: ('A' for Active; 'I' for Inactive)
REMARK    1  A    between atoms: C6_6  and  C7_7 
REMARK    2  A    between atoms: C6_6  and  C9_9 
REMARK    3  A    between atoms: C7_7  and  C11_11 
REMARK    4  A    between atoms: C8_8  and  C10_10 
REMARK    5  A    between atoms: C8_8  and  C11_11 
ROOT
HETATM    1  C4  UNL     1     -31.432   8.030   3.871  1.00 20.00     0.015 C 
HETATM    2  C5  UNL     1     -33.822   8.582   3.500  1.00 20.00     0.015 C 
HETATM    3  C11 UNL     1     -32.634   7.781   2.930  1.00 20.00    -0.046 C 
ENDROOT
BRANCH   3   4
HETATM    4  C7  UNL     1     -33.019   6.273   2.959  1.00 20.00     0.009 C 
BRANCH   4   5
HETATM    5  C6  UNL     1     -34.510   5.971   3.180  1.00 20.00     0.004 C 
BRANCH   5   6
HETATM    6  C9  UNL     1     -34.780   5.147   4.456  1.00 20.00    -0.023 C 
HETATM    7  C1  UNL     1     -34.422   5.909   5.732  1.00 20.00     0.009 C 
HETATM    8  C2  UNL     1     -33.993   3.835   4.401  1.00 20.00     0.009 C 
ENDBRANCH   5   6
ENDBRANCH   4   5
ENDBRANCH   3   4
BRANCH   3   9
HETATM    9  C8  UNL     1     -32.228   8.290   1.512  1.00 20.00     0.028 C 
BRANCH   9  10
HETATM   10  C10 UNL     1     -33.012   9.468   0.903  1.00 20.00     0.079 C 
HETATM   11  C3  UNL     1     -32.312  10.792   1.207  1.00 20.00     0.026 C 
HETATM   12 CL12 UNL     1     -33.163   9.321  -0.872  1.00 20.00    -0.125 Cl
ENDBRANCH   9  10
ENDBRANCH   3   9
TORSDOF 5
ENDMDL
MODEL 4
REMARK VINA RESULT:      -5.0      2.135      5.277
REMARK  5 active torsions:
REMARK  status: ('A' for Active; 'I' for Inactive)
REMARK    1  A    between atoms: C6_6  and  C7_7 
REMARK    2  A    between atoms: C6_6  and  C9_9 
REMARK    3  A    between atoms: C7_7  and  C11_11 
REMARK    4  A    between atoms: C8_8  and  C10_10 
REMARK    5  A    between atoms: C8_8  and  C11_11 
ROOT
HETATM    1  C4  UNL     1     -34.066   8.270   3.251  1.00 20.00     0.015 C 
HETATM    2  C5  UNL     1     -31.646   8.068   3.758  1.00 20.00     0.015 C 
HETATM    3  C11 UNL     1     -32.797   7.437   2.949  1.00 20.00    -0.046 C 
ENDROOT
BRANCH   3   4
HETATM    4  C7  UNL     1     -32.439   7.557   1.439  1.00 20.00     0.009 C 
BRANCH   4   5
HETATM    5  C6  UNL     1     -31.458   8.682   1.075  1.00 20.00     0.004 C 
BRANCH   5   6
HETATM    6  C9  UNL     1     -32.145   9.899   0.422  1.00 20.00    -0.023 C 
HETATM    7  C1  UNL     1     -32.697  10.884   1.454  1.00 20.00     0.009 C 
HETATM    8  C2  UNL     1     -33.276   9.425  -0.495  1.00 20.00     0.009 C 
ENDBRANCH   5   6
ENDBRANCH   4   5
ENDBRANCH   3   4
BRANCH   3   9
HETATM    9  C8  UNL     1     -33.083   5.973   3.405  1.00 20.00     0.028 C 
BRANCH   9  10
HETATM   10  C10 UNL     1     -34.302   5.711   4.311  1.00 20.00     0.079 C 
HETATM   11  C3  UNL     1     -34.489   4.212   4.538  1.00 20.00     0.026 C 
HETATM   12 CL12 UNL     1     -34.122   6.490   5.910  1.00 20.00    -0.125 Cl
ENDBRANCH   9  10
ENDBRANCH   3   9
TORSDOF 5
ENDMDL
MODEL 5
REMARK VINA RESULT:      -4.9      2.609      5.344
REMARK  5 active torsions:
REMARK  status: ('A' for Active; 'I' for Inactive)
REMARK    1  A    between atoms: C6_6  and  C7_7 
REMARK    2  A    between atoms: C6_6  and  C9_9 
REMARK    3  A    between atoms: C7_7  and  C11_11 
REMARK    4  A    between atoms: C8_8  and  C10_10 
REMARK    5  A    between atoms: C8_8  and  C11_11 
ROOT
HETATM    1  C4  UNL     1     -32.537   5.484   2.759  1.00 20.00     0.015 C 
HETATM    2  C5  UNL     1     -34.309   6.486   1.342  1.00 20.00     0.015 C 
HETATM    3  C11 UNL     1     -33.535   6.662   2.664  1.00 20.00    -0.046 C 
ENDROOT
BRANCH   3   4
HETATM    4  C7  UNL     1     -32.754   8.006   2.581  1.00 20.00     0.009 C 
BRANCH   4   5
HETATM    5  C6  UNL     1     -31.905   8.207   1.317  1.00 20.00     0.004 C 
BRANCH   5   6
HETATM    6  C9  UNL     1     -32.183   9.546   0.604  1.00 20.00    -0.023 C 
HETATM    7  C1  UNL     1     -32.780  10.596   1.542  1.00 20.00     0.009 C 
HETATM    8  C2  UNL     1     -33.127   9.317  -0.580  1.00 20.00     0.009 C 
ENDBRANCH   5   6
ENDBRANCH   4   5
ENDBRANCH   3   4
BRANCH   3   9
HETATM    9  C8  UNL     1     -34.483   6.570   3.900  1.00 20.00     0.028 C 
BRANCH   9  10
HETATM   10  C10 UNL     1     -33.875   6.189   5.263  1.00 20.00     0.079 C 
HETATM   11  C3  UNL     1     -33.859   7.396   6.200  1.00 20.00     0.026 C 
HETATM   12 CL12 UNL     1     -34.800   4.885   6.063  1.00 20.00    -0.125 Cl
ENDBRANCH   9  10
ENDBRANCH   3   9
TORSDOF 5
ENDMDL
MODEL 6
REMARK VINA RESULT:      -4.6      2.048      5.306
REMARK  5 active torsions:
REMARK  status: ('A' for Active; 'I' for Inactive)
REMARK    1  A    between atoms: C6_6  and  C7_7 
REMARK    2  A    between atoms: C6_6  and  C9_9 
REMARK    3  A    between atoms: C7_7  and  C11_11 
REMARK    4  A    between atoms: C8_8  and  C10_10 
REMARK    5  A    between atoms: C8_8  and  C11_11 
ROOT
HETATM    1  C4  UNL     1     -31.389   8.184   3.812  1.00 20.00     0.015 C 
HETATM    2  C5  UNL     1     -32.345   6.300   2.512  1.00 20.00     0.015 C 
HETATM    3  C11 UNL     1     -32.715   7.575   3.297  1.00 20.00    -0.046 C 
ENDROOT
BRANCH   3   4
HETATM    4  C7  UNL     1     -33.395   8.563   2.304  1.00 20.00     0.009 C 
BRANCH   4   5
HETATM    5  C6  UNL     1     -32.538   9.760   1.864  1.00 20.00     0.004 C 
BRANCH   5   6
HETATM    6  C9  UNL     1     -32.116   9.693   0.382  1.00 20.00    -0.023 C 
HETATM    7  C1  UNL     1     -33.294   9.406  -0.550  1.00 20.00     0.009 C 
HETATM    8  C2  UNL     1     -31.040   8.619   0.198  1.00 20.00     0.009 C 
ENDBRANCH   5   6
ENDBRANCH   4   5
ENDBRANCH   3   4
BRANCH   3   9
HETATM    9  C8  UNL     1     -33.592   7.247   4.544  1.00 20.00     0.028 C 
BRANCH   9  10
HETATM   10  C10 UNL     1     -34.316   5.887   4.595  1.00 20.00     0.079 C 
HETATM   11  C3  UNL     1     -34.668   5.521   6.035  1.00 20.00     0.026 C 
HETATM   12 CL12 UNL     1     -35.831   5.904   3.646  1.00 20.00    -0.125 Cl
ENDBRANCH   9  10
ENDBRANCH   3   9
TORSDOF 5
ENDMDL
MODEL 7
REMARK VINA RESULT:      -4.3     10.658     11.770
REMARK  5 active torsions:
REMARK  status: ('A' for Active; 'I' for Inactive)
REMARK    1  A    between atoms: C6_6  and  C7_7 
REMARK    2  A    between atoms: C6_6  and  C9_9 
REMARK    3  A    between atoms: C7_7  and  C11_11 
REMARK    4  A    between atoms: C8_8  and  C10_10 
REMARK    5  A    between atoms: C8_8  and  C11_11 
ROOT
HETATM    1  C4  UNL     1     -33.694  16.556  -6.007  1.00 20.00     0.015 C 
HETATM    2  C5  UNL     1     -32.962  14.927  -4.285  1.00 20.00     0.015 C 
HETATM    3  C11 UNL     1     -33.995  16.032  -4.583  1.00 20.00    -0.046 C 
ENDROOT
BRANCH   3   4
HETATM    4  C7  UNL     1     -35.409  15.381  -4.552  1.00 20.00     0.009 C 
BRANCH   4   5
HETATM    5  C6  UNL     1     -35.448  13.862  -4.782  1.00 20.00     0.004 C 
BRANCH   5   6
HETATM    6  C9  UNL     1     -35.992  13.472  -6.172  1.00 20.00    -0.023 C 
HETATM    7  C1  UNL     1     -34.878  13.239  -7.193  1.00 20.00     0.009 C 
HETATM    8  C2  UNL     1     -36.938  14.562  -6.682  1.00 20.00     0.009 C 
ENDBRANCH   5   6
ENDBRANCH   4   5
ENDBRANCH   3   4
BRANCH   3   9
HETATM    9  C8  UNL     1     -33.846  17.236  -3.602  1.00 20.00     0.028 C 
BRANCH   9  10
HETATM   10  C10 UNL     1     -33.675  16.941  -2.099  1.00 20.00     0.079 C 
HETATM   11  C3  UNL     1     -32.832  18.026  -1.432  1.00 20.00     0.026 C 
HETATM   12 CL12 UNL     1     -35.248  16.870  -1.252  1.00 20.00    -0.125 Cl
ENDBRANCH   9  10
ENDBRANCH   3   9
TORSDOF 5
ENDMDL
MODEL 8
REMARK VINA RESULT:      -4.1     10.528     11.665
REMARK  5 active torsions:
REMARK  status: ('A' for Active; 'I' for Inactive)
REMARK    1  A    between atoms: C6_6  and  C7_7 
REMARK    2  A    between atoms: C6_6  and  C9_9 
REMARK    3  A    between atoms: C7_7  and  C11_11 
REMARK    4  A    between atoms: C8_8  and  C10_10 
REMARK    5  A    between atoms: C8_8  and  C11_11 
ROOT
HETATM    1  C4  UNL     1     -34.849  17.768  -4.472  1.00 20.00     0.015 C 
HETATM    2  C5  UNL     1     -33.252  15.978  -5.104  1.00 20.00     0.015 C 
HETATM    3  C11 UNL     1     -34.277  16.400  -4.031  1.00 20.00    -0.046 C 
ENDROOT
BRANCH   3   4
HETATM    4  C7  UNL     1     -35.413  15.337  -4.015  1.00 20.00     0.009 C 
BRANCH   4   5
HETATM    5  C6  UNL     1     -35.018  13.932  -4.496  1.00 20.00     0.004 C 
BRANCH   5   6
HETATM    6  C9  UNL     1     -35.959  13.375  -5.584  1.00 20.00    -0.023 C 
HETATM    7  C1  UNL     1     -35.282  13.276  -6.951  1.00 20.00     0.009 C 
HETATM    8  C2  UNL     1     -37.207  14.258  -5.691  1.00 20.00     0.009 C 
ENDBRANCH   5   6
ENDBRANCH   4   5
ENDBRANCH   3   4
BRANCH   3   9
HETATM    9  C8  UNL     1     -33.600  16.605  -2.641  1.00 20.00     0.028 C 
BRANCH   9  10
HETATM   10  C10 UNL     1     -34.135  17.721  -1.722  1.00 20.00     0.079 C 
HETATM   11  C3  UNL     1     -35.208  17.173  -0.783  1.00 20.00     0.026 C 
HETATM   12 CL12 UNL     1     -32.840  18.435  -0.718  1.00 20.00    -0.125 Cl
ENDBRANCH   9  10
ENDBRANCH   3   9
TORSDOF 5
ENDMDL
MODEL 9
REMARK VINA RESULT:      -4.1     10.451     11.642
REMARK  5 active torsions:
REMARK  status: ('A' for Active; 'I' for Inactive)
REMARK    1  A    between atoms: C6_6  and  C7_7 
REMARK    2  A    between atoms: C6_6  and  C9_9 
REMARK    3  A    between atoms: C7_7  and  C11_11 
REMARK    4  A    between atoms: C8_8  and  C10_10 
REMARK    5  A    between atoms: C8_8  and  C11_11 
ROOT
HETATM    1  C4  UNL     1     -34.811  14.271  -4.296  1.00 20.00     0.015 C 
HETATM    2  C5  UNL     1     -32.345  14.043  -4.134  1.00 20.00     0.015 C 
HETATM    3  C11 UNL     1     -33.479  15.047  -4.424  1.00 20.00    -0.046 C 
ENDROOT
BRANCH   3   4
HETATM    4  C7  UNL     1     -33.415  16.162  -3.340  1.00 20.00     0.009 C 
BRANCH   4   5
HETATM    5  C6  UNL     1     -34.715  16.406  -2.558  1.00 20.00     0.004 C 
BRANCH   5   6
HETATM    6  C9  UNL     1     -34.616  17.581  -1.564  1.00 20.00    -0.023 C 
HETATM    7  C1  UNL     1     -33.170  17.913  -1.191  1.00 20.00     0.009 C 
HETATM    8  C2  UNL     1     -35.413  17.258  -0.298  1.00 20.00     0.009 C 
ENDBRANCH   5   6
ENDBRANCH   4   5
ENDBRANCH   3   4
BRANCH   3   9
HETATM    9  C8  UNL     1     -33.399  15.596  -5.883  1.00 20.00     0.028 C 
BRANCH   9  10
HETATM   10  C10 UNL     1     -34.545  15.260  -6.856  1.00 20.00     0.079 C 
HETATM   11  C3  UNL     1     -34.861  16.460  -7.747  1.00 20.00     0.026 C 
HETATM   12 CL12 UNL     1     -34.135  13.881  -7.917  1.00 20.00    -0.125 Cl
ENDBRANCH   9  10
ENDBRANCH   3   9
TORSDOF 5
ENDMDL
