MODEL 1
REMARK VINA RESULT:      -5.2      0.000      0.000
REMARK  4 active torsions:
REMARK  status: ('A' for Active; 'I' for Inactive)
REMARK    1  A    between atoms: C2_2  and  C6_6 
REMARK    2  A    between atoms: C6_6  and  C8_8 
REMARK    3  A    between atoms: C7_7  and  C8_8 
REMARK    4  A    between atoms: C7_7  and  C9_9 
ROOT
HETATM    1  C1  UNL     1     -32.434   9.302   1.490  1.00 20.00    -0.111 C 
HETATM    2  C2  UNL     1     -32.344   8.257   2.073  1.00 20.00    -0.107 C 
HETATM    3  C3  UNL     1     -32.543  10.575   0.778  1.00 20.00     0.112 C 
ENDROOT
BRANCH   2   4
HETATM    4  C6  UNL     1     -32.229   6.979   2.792  1.00 20.00     0.098 C 
BRANCH   4   5
HETATM    5  C8  UNL     1     -33.439   6.046   2.593  1.00 20.00    -0.006 C 
HETATM    6  C4  UNL     1     -32.987   4.598   2.356  1.00 20.00     0.011 C 
BRANCH   5   7
HETATM    7  C7  UNL     1     -34.479   6.084   3.739  1.00 20.00     0.020 C 
BRANCH   7   8
HETATM    8  C9  UNL     1     -33.938   5.816   5.148  1.00 20.00     0.054 C 
HETATM    9  C5  UNL     1     -34.870   4.903   5.935  1.00 20.00     0.022 C 
HETATM   10 BR10 UNL     1     -33.769   7.498   6.141  1.00 20.00    -0.092 Br
ENDBRANCH   7   8
ENDBRANCH   5   7
ENDBRANCH   4   5
ENDBRANCH   2   4
TORSDOF 4
ENDMDL
MODEL 2
REMARK VINA RESULT:      -5.2      2.467      5.344
REMARK  4 active torsions:
REMARK  status: ('A' for Active; 'I' for Inactive)
REMARK    1  A    between atoms: C2_2  and  C6_6 
REMARK    2  A    between atoms: C6_6  and  C8_8 
REMARK    3  A    between atoms: C7_7  and  C8_8 
REMARK    4  A    between atoms: C7_7  and  C9_9 
ROOT
HETATM    1  C1  UNL     1     -34.212   5.650   4.567  1.00 20.00    -0.111 C 
HETATM    2  C2  UNL     1     -33.754   6.133   3.570  1.00 20.00    -0.107 C 
HETATM    3  C3  UNL     1     -34.772   5.062   5.784  1.00 20.00     0.112 C 
ENDROOT
BRANCH   2   4
HETATM    4  C6  UNL     1     -33.184   6.727   2.350  1.00 20.00     0.098 C 
BRANCH   4   5
HETATM    5  C8  UNL     1     -32.502   8.088   2.585  1.00 20.00    -0.006 C 
HETATM    6  C4  UNL     1     -31.694   8.083   3.891  1.00 20.00     0.011 C 
BRANCH   5   7
HETATM    7  C7  UNL     1     -31.602   8.569   1.420  1.00 20.00     0.020 C 
BRANCH   7   8
HETATM    8  C9  UNL     1     -32.070   9.830   0.685  1.00 20.00     0.054 C 
HETATM    9  C5  UNL     1     -32.812  10.775   1.622  1.00 20.00     0.022 C 
HETATM   10 BR10 UNL     1     -33.292   9.351  -0.772  1.00 20.00    -0.092 Br
ENDBRANCH   7   8
ENDBRANCH   5   7
ENDBRANCH   4   5
ENDBRANCH   2   4
TORSDOF 4
ENDMDL
MODEL 3
REMARK VINA RESULT:      -5.1      1.954      2.455
REMARK  4 active torsions:
REMARK  status: ('A' for Active; 'I' for Inactive)
REMARK    1  A    between atoms: C2_2  and  C6_6 
REMARK    2  A    between atoms: C6_6  and  C8_8 
REMARK    3  A    between atoms: C7_7  and  C8_8 
REMARK    4  A    between atoms: C7_7  and  C9_9 
ROOT
HETATM    1  C1  UNL     1     -32.527   9.059   0.958  1.00 20.00    -0.111 C 
HETATM    2  C2  UNL     1     -32.141   8.712   2.040  1.00 20.00    -0.107 C 
HETATM    3  C3  UNL     1     -32.999   9.479  -0.360  1.00 20.00     0.112 C 
ENDROOT
BRANCH   2   4
HETATM    4  C6  UNL     1     -31.662   8.283   3.363  1.00 20.00     0.098 C 
BRANCH   4   5
HETATM    5  C8  UNL     1     -32.672   7.408   4.131  1.00 20.00    -0.006 C 
HETATM    6  C4  UNL     1     -32.922   7.962   5.542  1.00 20.00     0.011 C 
BRANCH   5   7
HETATM    7  C7  UNL     1     -34.026   7.199   3.409  1.00 20.00     0.020 C 
BRANCH   7   8
HETATM    8  C9  UNL     1     -34.509   5.750   3.291  1.00 20.00     0.054 C 
HETATM    9  C5  UNL     1     -34.950   5.201   4.642  1.00 20.00     0.022 C 
HETATM   10 BR10 UNL     1     -33.064   4.605   2.623  1.00 20.00    -0.092 Br
ENDBRANCH   7   8
ENDBRANCH   5   7
ENDBRANCH   4   5
ENDBRANCH   2   4
TORSDOF 4
ENDMDL
MODEL 4
REMARK VINA RESULT:      -4.3     10.972     11.879
REMARK  4 active torsions:
REMARK  status: ('A' for Active; 'I' for Inactive)
REMARK    1  A    between atoms: C2_2  and  C6_6 
REMARK    2  A    between atoms: C6_6  and  C8_8 
REMARK    3  A    between atoms: C7_7  and  C8_8 
REMARK    4  A    between atoms: C7_7  and  C9_9 
ROOT
HETATM    1  C1  UNL     1     -32.038  18.519  -0.153  1.00 20.00    -0.111 C 
HETATM    2  C2  UNL     1     -32.613  18.193  -1.154  1.00 20.00    -0.107 C 
HETATM    3  C3  UNL     1     -31.336  18.917   1.067  1.00 20.00     0.112 C 
ENDROOT
BRANCH   2   4
HETATM    4  C6  UNL     1     -33.318  17.785  -2.379  1.00 20.00     0.098 C 
BRANCH   4   5
HETATM    5  C8  UNL     1     -34.302  16.618  -2.166  1.00 20.00    -0.006 C 
HETATM    6  C4  UNL     1     -35.422  17.010  -1.192  1.00 20.00     0.011 C 
BRANCH   5   7
HETATM    7  C7  UNL     1     -34.920  16.049  -3.466  1.00 20.00     0.020 C 
BRANCH   7   8
HETATM    8  C9  UNL     1     -34.470  14.640  -3.866  1.00 20.00     0.054 C 
HETATM    9  C5  UNL     1     -33.088  14.661  -4.508  1.00 20.00     0.022 C 
HETATM   10 BR10 UNL     1     -35.721  13.870  -5.164  1.00 20.00    -0.092 Br
ENDBRANCH   7   8
ENDBRANCH   5   7
ENDBRANCH   4   5
ENDBRANCH   2   4
TORSDOF 4
ENDMDL
MODEL 5
REMARK VINA RESULT:      -4.0     11.581     12.361
REMARK  4 active torsions:
REMARK  status: ('A' for Active; 'I' for Inactive)
REMARK    1  A    between atoms: C2_2  and  C6_6 
REMARK    2  A    between atoms: C6_6  and  C8_8 
REMARK    3  A    between atoms: C7_7  and  C8_8 
REMARK    4  A    between atoms: C7_7  and  C9_9 
ROOT
HETATM    1  C1  UNL     1     -35.054  17.113  -0.989  1.00 20.00    -0.111 C 
HETATM    2  C2  UNL     1     -34.541  16.730  -2.004  1.00 20.00    -0.107 C 
HETATM    3  C3  UNL     1     -35.682  17.579   0.247  1.00 20.00     0.112 C 
ENDROOT
BRANCH   2   4
HETATM    4  C6  UNL     1     -33.911  16.268  -3.250  1.00 20.00     0.098 C 
BRANCH   4   5
HETATM    5  C8  UNL     1     -34.589  15.026  -3.861  1.00 20.00    -0.006 C 
HETATM    6  C4  UNL     1     -36.076  15.288  -4.137  1.00 20.00     0.011 C 
BRANCH   5   7
HETATM    7  C7  UNL     1     -33.910  14.486  -5.144  1.00 20.00     0.020 C 
BRANCH   7   8
HETATM    8  C9  UNL     1     -34.592  14.847  -6.469  1.00 20.00     0.054 C 
HETATM    9  C5  UNL     1     -34.312  13.799  -7.539  1.00 20.00     0.022 C 
HETATM   10 BR10 UNL     1     -33.926  16.569  -7.128  1.00 20.00    -0.092 Br
ENDBRANCH   7   8
ENDBRANCH   5   7
ENDBRANCH   4   5
ENDBRANCH   2   4
TORSDOF 4
ENDMDL
MODEL 6
REMARK VINA RESULT:      -3.9     10.703     11.550
REMARK  4 active torsions:
REMARK  status: ('A' for Active; 'I' for Inactive)
REMARK    1  A    between atoms: C2_2  and  C6_6 
REMARK    2  A    between atoms: C6_6  and  C8_8 
REMARK    3  A    between atoms: C7_7  and  C8_8 
REMARK    4  A    between atoms: C7_7  and  C9_9 
ROOT
HETATM    1  C1  UNL     1     -34.717  16.772  -1.993  1.00 20.00    -0.111 C 
HETATM    2  C2  UNL     1     -34.201  16.507  -3.043  1.00 20.00    -0.107 C 
HETATM    3  C3  UNL     1     -35.349  17.094  -0.713  1.00 20.00     0.112 C 
ENDROOT
BRANCH   2   4
HETATM    4  C6  UNL     1     -33.568  16.191  -4.332  1.00 20.00     0.098 C 
BRANCH   4   5
HETATM    5  C8  UNL     1     -33.533  14.683  -4.650  1.00 20.00    -0.006 C 
HETATM    6  C4  UNL     1     -32.235  14.040  -4.142  1.00 20.00     0.011 C 
BRANCH   5   7
HETATM    7  C7  UNL     1     -34.749  13.884  -4.120  1.00 20.00     0.020 C 
BRANCH   7   8
HETATM    8  C9  UNL     1     -35.824  13.531  -5.153  1.00 20.00     0.054 C 
HETATM    9  C5  UNL     1     -35.287  13.645  -6.574  1.00 20.00     0.022 C 
HETATM   10 BR10 UNL     1     -37.350  14.752  -4.990  1.00 20.00    -0.092 Br
ENDBRANCH   7   8
ENDBRANCH   5   7
ENDBRANCH   4   5
ENDBRANCH   2   4
TORSDOF 4
ENDMDL
MODEL 7
REMARK VINA RESULT:      -3.9     11.360     12.028
REMARK  4 active torsions:
REMARK  status: ('A' for Active; 'I' for Inactive)
REMARK    1  A    between atoms: C2_2  and  C6_6 
REMARK    2  A    between atoms: C6_6  and  C8_8 
REMARK    3  A    between atoms: C7_7  and  C8_8 
REMARK    4  A    between atoms: C7_7  and  C9_9 
ROOT
HETATM    1  C1  UNL     1     -33.546  17.296  -1.885  1.00 20.00    -0.111 C 
HETATM    2  C2  UNL     1     -34.328  16.608  -2.481  1.00 20.00    -0.107 C 
HETATM    3  C3  UNL     1     -32.592  18.133  -1.158  1.00 20.00     0.112 C 
ENDROOT
BRANCH   2   4
HETATM    4  C6  UNL     1     -35.290  15.763  -3.205  1.00 20.00     0.098 C 
BRANCH   4   5
HETATM    5  C8  UNL     1     -34.688  15.057  -4.436  1.00 20.00    -0.006 C 
HETATM    6  C4  UNL     1     -33.187  14.800  -4.246  1.00 20.00     0.011 C 
BRANCH   5   7
HETATM    7  C7  UNL     1     -35.395  13.737  -4.832  1.00 20.00     0.020 C 
BRANCH   7   8
HETATM    8  C9  UNL     1     -35.877  13.642  -6.283  1.00 20.00     0.054 C 
HETATM    9  C5  UNL     1     -34.712  13.426  -7.241  1.00 20.00     0.022 C 
HETATM   10 BR10 UNL     1     -36.784  15.299  -6.809  1.00 20.00    -0.092 Br
ENDBRANCH   7   8
ENDBRANCH   5   7
ENDBRANCH   4   5
ENDBRANCH   2   4
TORSDOF 4
ENDMDL
MODEL 8
REMARK VINA RESULT:      -3.9     11.574     12.403
REMARK  4 active torsions:
REMARK  status: ('A' for Active; 'I' for Inactive)
REMARK    1  A    between atoms: C2_2  and  C6_6 
REMARK    2  A    between atoms: C6_6  and  C8_8 
REMARK    3  A    between atoms: C7_7  and  C8_8 
REMARK    4  A    between atoms: C7_7  and  C9_9 
ROOT
HETATM    1  C1  UNL     1     -33.326  17.846  -0.998  1.00 20.00    -0.111 C 
HETATM    2  C2  UNL     1     -34.309  17.311  -1.431  1.00 20.00    -0.107 C 
HETATM    3  C3  UNL     1     -32.126  18.495  -0.470  1.00 20.00     0.112 C 
ENDROOT
BRANCH   2   4
HETATM    4  C6  UNL     1     -35.518  16.658  -1.955  1.00 20.00     0.098 C 
BRANCH   4   5
HETATM    5  C8  UNL     1     -35.343  16.082  -3.373  1.00 20.00    -0.006 C 
HETATM    6  C4  UNL     1     -36.697  15.684  -3.979  1.00 20.00     0.011 C 
BRANCH   5   7
HETATM    7  C7  UNL     1     -34.587  17.007  -4.357  1.00 20.00     0.020 C 
BRANCH   7   8
HETATM    8  C9  UNL     1     -33.420  16.369  -5.119  1.00 20.00     0.054 C 
HETATM    9  C5  UNL     1     -33.722  16.261  -6.608  1.00 20.00     0.022 C 
HETATM   10 BR10 UNL     1     -33.077  14.560  -4.445  1.00 20.00    -0.092 Br
ENDBRANCH   7   8
ENDBRANCH   5   7
ENDBRANCH   4   5
ENDBRANCH   2   4
TORSDOF 4
ENDMDL
MODEL 9
REMARK VINA RESULT:      -3.8     10.986     11.851
REMARK  4 active torsions:
REMARK  status: ('A' for Active; 'I' for Inactive)
REMARK    1  A    between atoms: C2_2  and  C6_6 
REMARK    2  A    between atoms: C6_6  and  C8_8 
REMARK    3  A    between atoms: C7_7  and  C8_8 
REMARK    4  A    between atoms: C7_7  and  C9_9 
ROOT
HETATM    1  C1  UNL     1     -37.067  14.479  -4.908  1.00 20.00    -0.111 C 
HETATM    2  C2  UNL     1     -35.909  14.379  -4.608  1.00 20.00    -0.107 C 
HETATM    3  C3  UNL     1     -38.477  14.601  -5.276  1.00 20.00     0.112 C 
ENDROOT
BRANCH   2   4
HETATM    4  C6  UNL     1     -34.490  14.263  -4.237  1.00 20.00     0.098 C 
BRANCH   4   5
HETATM    5  C8  UNL     1     -33.850  15.601  -3.819  1.00 20.00    -0.006 C 
HETATM    6  C4  UNL     1     -33.315  16.363  -5.040  1.00 20.00     0.011 C 
BRANCH   5   7
HETATM    7  C7  UNL     1     -34.774  16.529  -2.993  1.00 20.00     0.020 C 
BRANCH   7   8
HETATM    8  C9  UNL     1     -34.294  16.871  -1.579  1.00 20.00     0.054 C 
HETATM    9  C5  UNL     1     -35.451  17.315  -0.692  1.00 20.00     0.022 C 
HETATM   10 BR10 UNL     1     -32.992  18.336  -1.640  1.00 20.00    -0.092 Br
ENDBRANCH   7   8
ENDBRANCH   5   7
ENDBRANCH   4   5
ENDBRANCH   2   4
TORSDOF 4
ENDMDL
