MODEL 1
REMARK VINA RESULT:      -5.3      0.000      0.000
REMARK  5 active torsions:
REMARK  status: ('A' for Active; 'I' for Inactive)
REMARK    1  A    between atoms: C6_6  and  C7_7 
REMARK    2  A    between atoms: C7_7  and  C10_10 
REMARK    3  A    between atoms: C8_8  and  C9_9 
REMARK    4  A    between atoms: C8_8  and  C10_10 
REMARK    5  A    between atoms: C9_9  and  O11_11 
ROOT
HETATM    1  C1  UNL     1     -34.751   4.631   5.684  1.00 20.00     0.012 C 
HETATM    2  C2  UNL     1     -34.307   5.745   5.622  1.00 20.00    -0.117 C 
HETATM    3  C6  UNL     1     -33.760   7.110   5.551  1.00 20.00     0.093 C 
ENDROOT
BRANCH   3   4
HETATM    4  C7  UNL     1     -34.001   7.722   4.165  1.00 20.00     0.021 C 
BRANCH   4   5
HETATM    5  C10 UNL     1     -32.843   7.555   3.138  1.00 20.00    -0.045 C 
HETATM    6  C4  UNL     1     -32.689   6.070   2.737  1.00 20.00     0.015 C 
HETATM    7  C5  UNL     1     -31.509   8.023   3.748  1.00 20.00     0.015 C 
BRANCH   5   8
HETATM    8  C8  UNL     1     -33.175   8.344   1.828  1.00 20.00     0.040 C 
BRANCH   8   9
HETATM    9  C9  UNL     1     -32.113   9.321   1.299  1.00 20.00     0.114 C 
HETATM   10  C3  UNL     1     -32.657  10.748   1.281  1.00 20.00     0.039 C 
BRANCH   9  11
HETATM   11  O11 UNL     1     -31.754   8.972  -0.032  1.00 20.00    -0.396 OA
HETATM   12  H29 UNL     1     -32.474   8.423  -0.381  1.00 20.00     0.210 HD
ENDBRANCH   9  11
ENDBRANCH   8   9
ENDBRANCH   5   8
ENDBRANCH   4   5
ENDBRANCH   3   4
TORSDOF 5
ENDMDL
MODEL 2
REMARK VINA RESULT:      -4.9      1.251      1.954
REMARK  5 active torsions:
REMARK  status: ('A' for Active; 'I' for Inactive)
REMARK    1  A    between atoms: C6_6  and  C7_7 
REMARK    2  A    between atoms: C7_7  and  C10_10 
REMARK    3  A    between atoms: C8_8  and  C9_9 
REMARK    4  A    between atoms: C8_8  and  C10_10 
REMARK    5  A    between atoms: C9_9  and  O11_11 
ROOT
HETATM    1  C1  UNL     1     -34.565   5.053   5.550  1.00 20.00     0.012 C 
HETATM    2  C2  UNL     1     -34.396   5.363   4.402  1.00 20.00    -0.117 C 
HETATM    3  C6  UNL     1     -34.194   5.742   2.994  1.00 20.00     0.093 C 
ENDROOT
BRANCH   3   4
HETATM    4  C7  UNL     1     -32.768   6.260   2.768  1.00 20.00     0.021 C 
BRANCH   4   5
HETATM    5  C10 UNL     1     -32.579   7.800   2.883  1.00 20.00    -0.045 C 
HETATM    6  C4  UNL     1     -31.448   8.130   3.884  1.00 20.00     0.015 C 
HETATM    7  C5  UNL     1     -33.871   8.467   3.390  1.00 20.00     0.015 C 
BRANCH   5   8
HETATM    8  C8  UNL     1     -32.142   8.388   1.500  1.00 20.00     0.040 C 
BRANCH   8   9
HETATM    9  C9  UNL     1     -32.979   9.540   0.922  1.00 20.00     0.114 C 
HETATM   10  C3  UNL     1     -33.166   9.367  -0.584  1.00 20.00     0.039 C 
BRANCH   9  11
HETATM   11  O11 UNL     1     -32.315  10.779   1.142  1.00 20.00    -0.396 OA
HETATM   12  H29 UNL     1     -31.412  10.566   1.427  1.00 20.00     0.210 HD
ENDBRANCH   9  11
ENDBRANCH   8   9
ENDBRANCH   5   8
ENDBRANCH   4   5
ENDBRANCH   3   4
TORSDOF 5
ENDMDL
MODEL 3
REMARK VINA RESULT:      -4.9      2.316      5.116
REMARK  5 active torsions:
REMARK  status: ('A' for Active; 'I' for Inactive)
REMARK    1  A    between atoms: C6_6  and  C7_7 
REMARK    2  A    between atoms: C7_7  and  C10_10 
REMARK    3  A    between atoms: C8_8  and  C9_9 
REMARK    4  A    between atoms: C8_8  and  C10_10 
REMARK    5  A    between atoms: C9_9  and  O11_11 
ROOT
HETATM    1  C1  UNL     1     -32.593  10.535   1.099  1.00 20.00     0.012 C 
HETATM    2  C2  UNL     1     -32.278   9.402   1.343  1.00 20.00    -0.117 C 
HETATM    3  C6  UNL     1     -31.889   8.013   1.638  1.00 20.00     0.093 C 
ENDROOT
BRANCH   3   4
HETATM    4  C7  UNL     1     -32.551   7.524   2.932  1.00 20.00     0.021 C 
BRANCH   4   5
HETATM    5  C10 UNL     1     -33.584   6.372   2.774  1.00 20.00    -0.045 C 
HETATM    6  C4  UNL     1     -32.867   5.002   2.778  1.00 20.00     0.015 C 
HETATM    7  C5  UNL     1     -34.343   6.506   1.441  1.00 20.00     0.015 C 
BRANCH   5   8
HETATM    8  C8  UNL     1     -34.569   6.368   3.989  1.00 20.00     0.040 C 
BRANCH   8   9
HETATM    9  C9  UNL     1     -33.978   6.102   5.383  1.00 20.00     0.114 C 
HETATM   10  C3  UNL     1     -34.693   4.934   6.057  1.00 20.00     0.039 C 
BRANCH   9  11
HETATM   11  O11 UNL     1     -34.141   7.251   6.205  1.00 20.00    -0.396 OA
HETATM   12  H29 UNL     1     -33.292   7.720   6.201  1.00 20.00     0.210 HD
ENDBRANCH   9  11
ENDBRANCH   8   9
ENDBRANCH   5   8
ENDBRANCH   4   5
ENDBRANCH   3   4
TORSDOF 5
ENDMDL
MODEL 4
REMARK VINA RESULT:      -4.8     10.468     11.188
REMARK  5 active torsions:
REMARK  status: ('A' for Active; 'I' for Inactive)
REMARK    1  A    between atoms: C6_6  and  C7_7 
REMARK    2  A    between atoms: C7_7  and  C10_10 
REMARK    3  A    between atoms: C8_8  and  C9_9 
REMARK    4  A    between atoms: C8_8  and  C10_10 
REMARK    5  A    between atoms: C9_9  and  O11_11 
ROOT
HETATM    1  C1  UNL     1     -34.279  18.047  -0.021  1.00 20.00     0.012 C 
HETATM    2  C2  UNL     1     -34.569  17.397  -0.988  1.00 20.00    -0.117 C 
HETATM    3  C6  UNL     1     -34.931  16.599  -2.172  1.00 20.00     0.093 C 
ENDROOT
BRANCH   3   4
HETATM    4  C7  UNL     1     -33.715  16.398  -3.085  1.00 20.00     0.021 C 
BRANCH   4   5
HETATM    5  C10 UNL     1     -33.943  15.491  -4.329  1.00 20.00    -0.045 C 
HETATM    6  C4  UNL     1     -32.891  14.358  -4.368  1.00 20.00     0.015 C 
HETATM    7  C5  UNL     1     -33.808  16.309  -5.626  1.00 20.00     0.015 C 
BRANCH   5   8
HETATM    8  C8  UNL     1     -35.344  14.801  -4.237  1.00 20.00     0.040 C 
BRANCH   8   9
HETATM    9  C9  UNL     1     -35.798  13.951  -5.433  1.00 20.00     0.114 C 
HETATM   10  C3  UNL     1     -37.165  14.411  -5.933  1.00 20.00     0.039 C 
BRANCH   9  11
HETATM   11  O11 UNL     1     -35.908  12.587  -5.044  1.00 20.00    -0.396 OA
HETATM   12  H29 UNL     1     -36.710  12.240  -5.466  1.00 20.00     0.210 HD
ENDBRANCH   9  11
ENDBRANCH   8   9
ENDBRANCH   5   8
ENDBRANCH   4   5
ENDBRANCH   3   4
TORSDOF 5
ENDMDL
MODEL 5
REMARK VINA RESULT:      -4.5      2.265      5.028
REMARK  5 active torsions:
REMARK  status: ('A' for Active; 'I' for Inactive)
REMARK    1  A    between atoms: C6_6  and  C7_7 
REMARK    2  A    between atoms: C7_7  and  C10_10 
REMARK    3  A    between atoms: C8_8  and  C9_9 
REMARK    4  A    between atoms: C8_8  and  C10_10 
REMARK    5  A    between atoms: C9_9  and  O11_11 
ROOT
HETATM    1  C1  UNL     1     -33.154   9.484  -0.805  1.00 20.00     0.012 C 
HETATM    2  C2  UNL     1     -32.836   9.488   0.353  1.00 20.00    -0.117 C 
HETATM    3  C6  UNL     1     -32.443   9.496   1.771  1.00 20.00     0.093 C 
ENDROOT
BRANCH   3   4
HETATM    4  C7  UNL     1     -33.429   8.676   2.615  1.00 20.00     0.021 C 
BRANCH   4   5
HETATM    5  C10 UNL     1     -32.800   7.567   3.506  1.00 20.00    -0.045 C 
HETATM    6  C4  UNL     1     -33.099   7.842   4.998  1.00 20.00     0.015 C 
HETATM    7  C5  UNL     1     -31.271   7.531   3.327  1.00 20.00     0.015 C 
BRANCH   5   8
HETATM    8  C8  UNL     1     -33.443   6.182   3.166  1.00 20.00     0.040 C 
BRANCH   8   9
HETATM    9  C9  UNL     1     -34.384   5.559   4.209  1.00 20.00     0.114 C 
HETATM   10  C3  UNL     1     -34.160   4.051   4.305  1.00 20.00     0.039 C 
BRANCH   9  11
HETATM   11  O11 UNL     1     -35.738   5.779   3.833  1.00 20.00    -0.396 OA
HETATM   12  H29 UNL     1     -35.977   5.064   3.222  1.00 20.00     0.210 HD
ENDBRANCH   9  11
ENDBRANCH   8   9
ENDBRANCH   5   8
ENDBRANCH   4   5
ENDBRANCH   3   4
TORSDOF 5
ENDMDL
MODEL 6
REMARK VINA RESULT:      -4.5      2.486      5.142
REMARK  5 active torsions:
REMARK  status: ('A' for Active; 'I' for Inactive)
REMARK    1  A    between atoms: C6_6  and  C7_7 
REMARK    2  A    between atoms: C7_7  and  C10_10 
REMARK    3  A    between atoms: C8_8  and  C9_9 
REMARK    4  A    between atoms: C8_8  and  C10_10 
REMARK    5  A    between atoms: C9_9  and  O11_11 
ROOT
HETATM    1  C1  UNL     1     -33.167   9.522  -0.442  1.00 20.00     0.012 C 
HETATM    2  C2  UNL     1     -32.677   9.269   0.625  1.00 20.00    -0.117 C 
HETATM    3  C6  UNL     1     -32.075   8.964   1.933  1.00 20.00     0.093 C 
ENDROOT
BRANCH   3   4
HETATM    4  C7  UNL     1     -32.210   7.471   2.260  1.00 20.00     0.021 C 
BRANCH   4   5
HETATM    5  C10 UNL     1     -33.140   7.119   3.457  1.00 20.00    -0.045 C 
HETATM    6  C4  UNL     1     -34.600   7.516   3.138  1.00 20.00     0.015 C 
HETATM    7  C5  UNL     1     -32.706   7.883   4.721  1.00 20.00     0.015 C 
BRANCH   5   8
HETATM    8  C8  UNL     1     -33.136   5.574   3.699  1.00 20.00     0.040 C 
BRANCH   8   9
HETATM    9  C9  UNL     1     -34.422   4.938   4.250  1.00 20.00     0.114 C 
HETATM   10  C3  UNL     1     -34.577   5.239   5.739  1.00 20.00     0.039 C 
BRANCH   9  11
HETATM   11  O11 UNL     1     -34.370   3.525   4.091  1.00 20.00    -0.396 OA
HETATM   12  H29 UNL     1     -34.123   3.357   3.168  1.00 20.00     0.210 HD
ENDBRANCH   9  11
ENDBRANCH   8   9
ENDBRANCH   5   8
ENDBRANCH   4   5
ENDBRANCH   3   4
TORSDOF 5
ENDMDL
MODEL 7
REMARK VINA RESULT:      -4.5      1.483      2.410
REMARK  5 active torsions:
REMARK  status: ('A' for Active; 'I' for Inactive)
REMARK    1  A    between atoms: C6_6  and  C7_7 
REMARK    2  A    between atoms: C7_7  and  C10_10 
REMARK    3  A    between atoms: C8_8  and  C9_9 
REMARK    4  A    between atoms: C8_8  and  C10_10 
REMARK    5  A    between atoms: C9_9  and  O11_11 
ROOT
HETATM    1  C1  UNL     1     -33.650   7.593   6.381  1.00 20.00     0.012 C 
HETATM    2  C2  UNL     1     -34.097   6.614   5.848  1.00 20.00    -0.117 C 
HETATM    3  C6  UNL     1     -34.643   5.412   5.197  1.00 20.00     0.093 C 
ENDROOT
BRANCH   3   4
HETATM    4  C7  UNL     1     -35.160   5.741   3.791  1.00 20.00     0.021 C 
BRANCH   4   5
HETATM    5  C10 UNL     1     -34.072   6.024   2.716  1.00 20.00    -0.045 C 
HETATM    6  C4  UNL     1     -34.677   5.922   1.297  1.00 20.00     0.015 C 
HETATM    7  C5  UNL     1     -32.929   4.998   2.820  1.00 20.00     0.015 C 
BRANCH   5   8
HETATM    8  C8  UNL     1     -33.536   7.486   2.873  1.00 20.00     0.040 C 
BRANCH   8   9
HETATM    9  C9  UNL     1     -32.080   7.758   2.461  1.00 20.00     0.114 C 
HETATM   10  C3  UNL     1     -31.287   8.328   3.634  1.00 20.00     0.039 C 
BRANCH   9  11
HETATM   11  O11 UNL     1     -32.045   8.708   1.403  1.00 20.00    -0.396 OA
HETATM   12  H29 UNL     1     -32.336   8.245   0.602  1.00 20.00     0.210 HD
ENDBRANCH   9  11
ENDBRANCH   8   9
ENDBRANCH   5   8
ENDBRANCH   4   5
ENDBRANCH   3   4
TORSDOF 5
ENDMDL
MODEL 8
REMARK VINA RESULT:      -4.5     10.706     11.619
REMARK  5 active torsions:
REMARK  status: ('A' for Active; 'I' for Inactive)
REMARK    1  A    between atoms: C6_6  and  C7_7 
REMARK    2  A    between atoms: C7_7  and  C10_10 
REMARK    3  A    between atoms: C8_8  and  C9_9 
REMARK    4  A    between atoms: C8_8  and  C10_10 
REMARK    5  A    between atoms: C9_9  and  O11_11 
ROOT
HETATM    1  C1  UNL     1     -35.252  17.377  -0.517  1.00 20.00     0.012 C 
HETATM    2  C2  UNL     1     -34.591  17.033  -1.459  1.00 20.00    -0.117 C 
HETATM    3  C6  UNL     1     -33.778  16.615  -2.612  1.00 20.00     0.093 C 
ENDROOT
BRANCH   3   4
HETATM    4  C7  UNL     1     -34.557  15.641  -3.504  1.00 20.00     0.021 C 
BRANCH   4   5
HETATM    5  C10 UNL     1     -34.783  16.099  -4.974  1.00 20.00    -0.045 C 
HETATM    6  C4  UNL     1     -33.435  16.177  -5.727  1.00 20.00     0.015 C 
HETATM    7  C5  UNL     1     -35.429  17.497  -5.011  1.00 20.00     0.015 C 
BRANCH   5   8
HETATM    8  C8  UNL     1     -35.662  15.049  -5.731  1.00 20.00     0.040 C 
BRANCH   8   9
HETATM    9  C9  UNL     1     -35.132  13.610  -5.820  1.00 20.00     0.114 C 
HETATM   10  C3  UNL     1     -35.122  13.128  -7.268  1.00 20.00     0.039 C 
BRANCH   9  11
HETATM   11  O11 UNL     1     -35.971  12.737  -5.072  1.00 20.00    -0.396 OA
HETATM   12  H29 UNL     1     -36.136  11.961  -5.631  1.00 20.00     0.210 HD
ENDBRANCH   9  11
ENDBRANCH   8   9
ENDBRANCH   5   8
ENDBRANCH   4   5
ENDBRANCH   3   4
TORSDOF 5
ENDMDL
MODEL 9
REMARK VINA RESULT:      -4.1     10.902     11.791
REMARK  5 active torsions:
REMARK  status: ('A' for Active; 'I' for Inactive)
REMARK    1  A    between atoms: C6_6  and  C7_7 
REMARK    2  A    between atoms: C7_7  and  C10_10 
REMARK    3  A    between atoms: C8_8  and  C9_9 
REMARK    4  A    between atoms: C8_8  and  C10_10 
REMARK    5  A    between atoms: C9_9  and  O11_11 
ROOT
HETATM    1  C1  UNL     1     -35.608  17.168  -0.788  1.00 20.00     0.012 C 
HETATM    2  C2  UNL     1     -34.639  17.136  -1.497  1.00 20.00    -0.117 C 
HETATM    3  C6  UNL     1     -33.449  17.101  -2.363  1.00 20.00     0.093 C 
ENDROOT
BRANCH   3   4
HETATM    4  C7  UNL     1     -33.599  16.031  -3.452  1.00 20.00     0.021 C 
BRANCH   4   5
HETATM    5  C10 UNL     1     -33.986  16.551  -4.867  1.00 20.00    -0.045 C 
HETATM    6  C4  UNL     1     -33.244  15.745  -5.958  1.00 20.00     0.015 C 
HETATM    7  C5  UNL     1     -33.595  18.032  -5.023  1.00 20.00     0.015 C 
BRANCH   5   8
HETATM    8  C8  UNL     1     -35.516  16.339  -5.113  1.00 20.00     0.040 C 
BRANCH   8   9
HETATM    9  C9  UNL     1     -36.227  15.259  -4.283  1.00 20.00     0.114 C 
HETATM   10  C3  UNL     1     -36.750  14.144  -5.185  1.00 20.00     0.039 C 
BRANCH   9  11
HETATM   11  O11 UNL     1     -37.337  15.827  -3.597  1.00 20.00    -0.396 OA
HETATM   12  H29 UNL     1     -38.063  15.879  -4.238  1.00 20.00     0.210 HD
ENDBRANCH   9  11
ENDBRANCH   8   9
ENDBRANCH   5   8
ENDBRANCH   4   5
ENDBRANCH   3   4
TORSDOF 5
ENDMDL
