MODEL 1
REMARK VINA RESULT:      -6.1      0.000      0.000
REMARK  2 active torsions:
REMARK  status: ('A' for Active; 'I' for Inactive)
REMARK    1  A    between atoms: C1_1  and  C5_5 
REMARK    2  A    between atoms: C1_1  and  C11_11 
ROOT
HETATM    1  C2  UNL     1     -32.789   5.992   2.382  1.00 20.00     0.012 C 
HETATM    2  C3  UNL     1     -34.277   5.980   2.725  1.00 20.00     0.005 C 
HETATM    3  C4  UNL     1     -32.778   7.880   4.118  1.00 20.00     0.016 C 
HETATM    4  C5  UNL     1     -32.097   7.263   2.889  1.00 20.00     0.056 C 
HETATM    5  C6  UNL     1     -34.533   6.044   4.244  1.00 20.00    -0.015 C 
HETATM    6  C7  UNL     1     -33.418   6.806   5.006  1.00 20.00    -0.014 C 
HETATM    7  C8  UNL     1     -34.714   4.634   4.818  1.00 20.00     0.010 C 
HETATM    8  C9  UNL     1     -33.953   7.435   6.295  1.00 20.00     0.010 C 
ENDROOT
BRANCH   4   9
HETATM    9  C1  UNL     1     -32.043   8.291   1.799  1.00 20.00     0.130 C 
HETATM   10  O12 UNL     1     -31.190   8.233   0.913  1.00 20.00    -0.298 OA
BRANCH   9  11
HETATM   11  C11 UNL     1     -33.091   9.387   1.860  1.00 20.00     0.074 C 
HETATM   12  C10 UNL     1     -32.699  10.616   1.062  1.00 20.00     0.013 C 
ENDBRANCH   9  11
ENDBRANCH   4   9
TORSDOF 2
ENDMDL
MODEL 2
REMARK VINA RESULT:      -5.5      1.219      2.256
REMARK  2 active torsions:
REMARK  status: ('A' for Active; 'I' for Inactive)
REMARK    1  A    between atoms: C1_1  and  C5_5 
REMARK    2  A    between atoms: C1_1  and  C11_11 
ROOT
HETATM    1  C2  UNL     1     -33.813   8.082   4.214  1.00 20.00     0.012 C 
HETATM    2  C3  UNL     1     -33.324   7.241   5.390  1.00 20.00     0.005 C 
HETATM    3  C4  UNL     1     -33.045   6.023   2.893  1.00 20.00     0.016 C 
HETATM    4  C5  UNL     1     -33.313   7.533   2.873  1.00 20.00     0.056 C 
HETATM    5  C6  UNL     1     -33.803   5.778   5.308  1.00 20.00    -0.015 C 
HETATM    6  C7  UNL     1     -34.000   5.295   3.848  1.00 20.00    -0.014 C 
HETATM    7  C8  UNL     1     -35.091   5.588   6.118  1.00 20.00     0.010 C 
HETATM    8  C9  UNL     1     -33.812   3.780   3.732  1.00 20.00     0.010 C 
ENDROOT
BRANCH   4   9
HETATM    9  C1  UNL     1     -32.057   8.241   2.461  1.00 20.00     0.130 C 
HETATM   10  O12 UNL     1     -31.080   8.287   3.208  1.00 20.00    -0.298 OA
BRANCH   9  11
HETATM   11  C11 UNL     1     -32.072   8.885   1.087  1.00 20.00     0.074 C 
HETATM   12  C10 UNL     1     -32.740  10.247   1.086  1.00 20.00     0.013 C 
ENDBRANCH   9  11
ENDBRANCH   4   9
TORSDOF 2
ENDMDL
MODEL 3
REMARK VINA RESULT:      -4.6     10.854     11.767
REMARK  2 active torsions:
REMARK  status: ('A' for Active; 'I' for Inactive)
REMARK    1  A    between atoms: C1_1  and  C5_5 
REMARK    2  A    between atoms: C1_1  and  C11_11 
ROOT
HETATM    1  C2  UNL     1     -36.020  15.377  -4.136  1.00 20.00     0.012 C 
HETATM    2  C3  UNL     1     -36.108  16.901  -4.162  1.00 20.00     0.005 C 
HETATM    3  C4  UNL     1     -33.605  15.893  -3.445  1.00 20.00     0.016 C 
HETATM    4  C5  UNL     1     -34.566  14.890  -4.096  1.00 20.00     0.056 C 
HETATM    5  C6  UNL     1     -35.461  17.550  -2.922  1.00 20.00    -0.015 C 
HETATM    6  C7  UNL     1     -34.298  16.704  -2.343  1.00 20.00    -0.014 C 
HETATM    7  C8  UNL     1     -36.519  17.823  -1.846  1.00 20.00     0.010 C 
HETATM    8  C9  UNL     1     -33.280  17.583  -1.612  1.00 20.00     0.010 C 
ENDROOT
BRANCH   4   9
HETATM    9  C1  UNL     1     -34.083  14.589  -5.484  1.00 20.00     0.130 C 
HETATM   10  O12 UNL     1     -34.391  13.540  -6.049  1.00 20.00    -0.298 OA
BRANCH   9  11
HETATM   11  C11 UNL     1     -33.208  15.646  -6.132  1.00 20.00     0.074 C 
HETATM   12  C10 UNL     1     -33.934  16.426  -7.212  1.00 20.00     0.013 C 
ENDBRANCH   9  11
ENDBRANCH   4   9
TORSDOF 2
ENDMDL
MODEL 4
REMARK VINA RESULT:      -4.6     11.164     11.864
REMARK  2 active torsions:
REMARK  status: ('A' for Active; 'I' for Inactive)
REMARK    1  A    between atoms: C1_1  and  C5_5 
REMARK    2  A    between atoms: C1_1  and  C11_11 
ROOT
HETATM    1  C2  UNL     1     -32.927  15.376  -5.034  1.00 20.00     0.012 C 
HETATM    2  C3  UNL     1     -33.707  15.628  -6.322  1.00 20.00     0.005 C 
HETATM    3  C4  UNL     1     -35.289  15.371  -4.036  1.00 20.00     0.016 C 
HETATM    4  C5  UNL     1     -33.793  15.603  -3.789  1.00 20.00     0.056 C 
HETATM    5  C6  UNL     1     -34.930  14.699  -6.462  1.00 20.00    -0.015 C 
HETATM    6  C7  UNL     1     -35.524  14.283  -5.091  1.00 20.00    -0.014 C 
HETATM    7  C8  UNL     1     -34.573  13.463  -7.295  1.00 20.00     0.010 C 
HETATM    8  C9  UNL     1     -37.018  13.967  -5.204  1.00 20.00     0.010 C 
ENDROOT
BRANCH   4   9
HETATM    9  C1  UNL     1     -33.599  16.997  -3.272  1.00 20.00     0.130 C 
HETATM   10  O12 UNL     1     -33.331  17.925  -4.034  1.00 20.00    -0.298 OA
BRANCH   9  11
HETATM   11  C11 UNL     1     -33.753  17.183  -1.774  1.00 20.00     0.074 C 
HETATM   12  C10 UNL     1     -32.766  18.184  -1.204  1.00 20.00     0.013 C 
ENDBRANCH   9  11
ENDBRANCH   4   9
TORSDOF 2
ENDMDL
MODEL 5
REMARK VINA RESULT:      -4.5     11.040     11.793
REMARK  2 active torsions:
REMARK  status: ('A' for Active; 'I' for Inactive)
REMARK    1  A    between atoms: C1_1  and  C5_5 
REMARK    2  A    between atoms: C1_1  and  C11_11 
ROOT
HETATM    1  C2  UNL     1     -34.608  18.766  -0.684  1.00 20.00     0.012 C 
HETATM    2  C3  UNL     1     -35.258  17.388  -0.588  1.00 20.00     0.005 C 
HETATM    3  C4  UNL     1     -32.839  17.440  -1.983  1.00 20.00     0.016 C 
HETATM    4  C5  UNL     1     -33.144  18.677  -1.129  1.00 20.00     0.056 C 
HETATM    5  C6  UNL     1     -35.252  16.638  -1.935  1.00 20.00    -0.015 C 
HETATM    6  C7  UNL     1     -34.049  17.030  -2.832  1.00 20.00    -0.014 C 
HETATM    7  C8  UNL     1     -36.575  16.859  -2.678  1.00 20.00     0.010 C 
HETATM    8  C9  UNL     1     -33.668  15.891  -3.782  1.00 20.00     0.010 C 
ENDROOT
BRANCH   4   9
HETATM    9  C1  UNL     1     -32.240  18.674   0.067  1.00 20.00     0.130 C 
HETATM   10  O12 UNL     1     -31.043  18.411  -0.043  1.00 20.00    -0.298 OA
BRANCH   9  11
HETATM   11  C11 UNL     1     -32.889  19.009   1.397  1.00 20.00     0.074 C 
HETATM   12  C10 UNL     1     -32.021  18.633   2.583  1.00 20.00     0.013 C 
ENDBRANCH   9  11
ENDBRANCH   4   9
TORSDOF 2
ENDMDL
MODEL 6
REMARK VINA RESULT:      -4.5     10.921     11.631
REMARK  2 active torsions:
REMARK  status: ('A' for Active; 'I' for Inactive)
REMARK    1  A    between atoms: C1_1  and  C5_5 
REMARK    2  A    between atoms: C1_1  and  C11_11 
ROOT
HETATM    1  C2  UNL     1     -35.077  16.582  -1.912  1.00 20.00     0.012 C 
HETATM    2  C3  UNL     1     -35.759  17.826  -1.347  1.00 20.00     0.005 C 
HETATM    3  C4  UNL     1     -32.986  18.035  -1.605  1.00 20.00     0.016 C 
HETATM    4  C5  UNL     1     -33.641  16.874  -2.364  1.00 20.00     0.056 C 
HETATM    5  C6  UNL     1     -35.019  18.399  -0.121  1.00 20.00    -0.015 C 
HETATM    6  C7  UNL     1     -33.494  18.121  -0.160  1.00 20.00    -0.014 C 
HETATM    7  C8  UNL     1     -35.634  17.861   1.176  1.00 20.00     0.010 C 
HETATM    8  C9  UNL     1     -32.714  19.187   0.613  1.00 20.00     0.010 C 
ENDROOT
BRANCH   4   9
HETATM    9  C1  UNL     1     -33.614  17.180  -3.832  1.00 20.00     0.130 C 
HETATM   10  O12 UNL     1     -33.370  18.315  -4.239  1.00 20.00    -0.298 OA
BRANCH   9  11
HETATM   11  C11 UNL     1     -33.902  16.017  -4.763  1.00 20.00     0.074 C 
HETATM   12  C10 UNL     1     -33.068  14.791  -4.443  1.00 20.00     0.013 C 
ENDBRANCH   9  11
ENDBRANCH   4   9
TORSDOF 2
ENDMDL
MODEL 7
REMARK VINA RESULT:      -4.5     10.566     12.185
REMARK  2 active torsions:
REMARK  status: ('A' for Active; 'I' for Inactive)
REMARK    1  A    between atoms: C1_1  and  C5_5 
REMARK    2  A    between atoms: C1_1  and  C11_11 
ROOT
HETATM    1  C2  UNL     1     -34.200  14.374  -4.144  1.00 20.00     0.012 C 
HETATM    2  C3  UNL     1     -35.181  15.370  -3.531  1.00 20.00     0.005 C 
HETATM    3  C4  UNL     1     -33.773  16.335  -5.742  1.00 20.00     0.016 C 
HETATM    4  C5  UNL     1     -33.736  14.815  -5.538  1.00 20.00     0.056 C 
HETATM    5  C6  UNL     1     -34.569  16.776  -3.367  1.00 20.00    -0.015 C 
HETATM    6  C7  UNL     1     -33.488  17.085  -4.435  1.00 20.00    -0.014 C 
HETATM    7  C8  UNL     1     -34.000  16.952  -1.955  1.00 20.00     0.010 C 
HETATM    8  C9  UNL     1     -33.381  18.589  -4.700  1.00 20.00     0.010 C 
ENDROOT
BRANCH   4   9
HETATM    9  C1  UNL     1     -34.580  14.164  -6.593  1.00 20.00     0.130 C 
HETATM   10  O12 UNL     1     -34.457  12.968  -6.855  1.00 20.00    -0.298 OA
BRANCH   9  11
HETATM   11  C11 UNL     1     -35.576  15.063  -7.301  1.00 20.00     0.074 C 
HETATM   12  C10 UNL     1     -37.013  14.757  -6.921  1.00 20.00     0.013 C 
ENDBRANCH   9  11
ENDBRANCH   4   9
TORSDOF 2
ENDMDL
MODEL 8
REMARK VINA RESULT:      -4.2     11.015     11.635
REMARK  2 active torsions:
REMARK  status: ('A' for Active; 'I' for Inactive)
REMARK    1  A    between atoms: C1_1  and  C5_5 
REMARK    2  A    between atoms: C1_1  and  C11_11 
ROOT
HETATM    1  C2  UNL     1     -35.568  15.915  -2.824  1.00 20.00     0.012 C 
HETATM    2  C3  UNL     1     -36.085  17.262  -2.325  1.00 20.00     0.005 C 
HETATM    3  C4  UNL     1     -33.328  17.163  -2.761  1.00 20.00     0.016 C 
HETATM    4  C5  UNL     1     -34.144  16.022  -3.382  1.00 20.00     0.056 C 
HETATM    5  C6  UNL     1     -35.212  17.847  -1.196  1.00 20.00    -0.015 C 
HETATM    6  C7  UNL     1     -33.728  17.411  -1.301  1.00 20.00    -0.014 C 
HETATM    7  C8  UNL     1     -35.790  17.476   0.175  1.00 20.00     0.010 C 
HETATM    8  C9  UNL     1     -32.797  18.446  -0.665  1.00 20.00     0.010 C 
ENDROOT
BRANCH   4   9
HETATM    9  C1  UNL     1     -34.185  16.211  -4.869  1.00 20.00     0.130 C 
HETATM   10  O12 UNL     1     -33.480  17.054  -5.422  1.00 20.00    -0.298 OA
BRANCH   9  11
HETATM   11  C11 UNL     1     -35.137  15.308  -5.632  1.00 20.00     0.074 C 
HETATM   12  C10 UNL     1     -34.425  14.168  -6.336  1.00 20.00     0.013 C 
ENDBRANCH   9  11
ENDBRANCH   4   9
TORSDOF 2
ENDMDL
MODEL 9
REMARK VINA RESULT:      -4.2     10.817     11.622
REMARK  2 active torsions:
REMARK  status: ('A' for Active; 'I' for Inactive)
REMARK    1  A    between atoms: C1_1  and  C5_5 
REMARK    2  A    between atoms: C1_1  and  C11_11 
ROOT
HETATM    1  C2  UNL     1     -34.284  16.329  -4.763  1.00 20.00     0.012 C 
HETATM    2  C3  UNL     1     -33.240  16.197  -3.657  1.00 20.00     0.005 C 
HETATM    3  C4  UNL     1     -35.877  15.821  -2.818  1.00 20.00     0.016 C 
HETATM    4  C5  UNL     1     -35.645  15.767  -4.334  1.00 20.00     0.056 C 
HETATM    5  C6  UNL     1     -33.642  16.949  -2.372  1.00 20.00    -0.015 C 
HETATM    6  C7  UNL     1     -35.179  17.031  -2.184  1.00 20.00    -0.014 C 
HETATM    7  C8  UNL     1     -33.020  18.350  -2.355  1.00 20.00     0.010 C 
HETATM    8  C9  UNL     1     -35.554  17.143  -0.704  1.00 20.00     0.010 C 
ENDROOT
BRANCH   4   9
HETATM    9  C1  UNL     1     -35.785  14.347  -4.794  1.00 20.00     0.130 C 
HETATM   10  O12 UNL     1     -35.015  13.473  -4.398  1.00 20.00    -0.298 OA
BRANCH   9  11
HETATM   11  C11 UNL     1     -36.919  14.066  -5.763  1.00 20.00     0.074 C 
HETATM   12  C10 UNL     1     -38.256  14.582  -5.263  1.00 20.00     0.013 C 
ENDBRANCH   9  11
ENDBRANCH   4   9
TORSDOF 2
ENDMDL
