MODEL 1
REMARK VINA RESULT:      -6.0      0.000      0.000
REMARK  5 active torsions:
REMARK  status: ('A' for Active; 'I' for Inactive)
REMARK    1  A    between atoms: C6_6  and  C7_7 
REMARK    2  A    between atoms: C6_6  and  C9_9 
REMARK    3  A    between atoms: C7_7  and  C11_11 
REMARK    4  A    between atoms: C8_8  and  C9_9 
REMARK    5  A    between atoms: C8_8  and  C10_10 
ROOT
HETATM    1  C6  UNL     1     -33.164   6.989   2.511  1.00 20.00     0.005 C 
ENDROOT
BRANCH   1   2
HETATM    2  C7  UNL     1     -33.224   5.706   3.357  1.00 20.00     0.008 C 
BRANCH   2   3
HETATM    3  C11 UNL     1     -34.339   5.664   4.439  1.00 20.00    -0.051 C 
HETATM    4  C3  UNL     1     -34.072   6.687   5.556  1.00 20.00     0.014 C 
HETATM    5  C4  UNL     1     -34.467   4.261   5.054  1.00 20.00     0.014 C 
HETATM    6  C5  UNL     1     -35.676   6.027   3.761  1.00 20.00     0.014 C 
ENDBRANCH   2   3
ENDBRANCH   1   2
BRANCH   1   7
HETATM    7  C9  UNL     1     -31.763   7.636   2.468  1.00 20.00    -0.017 C 
HETATM    8  C1  UNL     1     -31.446   8.402   3.759  1.00 20.00     0.010 C 
BRANCH   7   9
HETATM    9  C8  UNL     1     -31.614   8.607   1.270  1.00 20.00     0.024 C 
BRANCH   9  10
HETATM   10  C10 UNL     1     -32.832   9.484   0.944  1.00 20.00     0.078 C 
HETATM   11  C2  UNL     1     -33.083   9.529  -0.560  1.00 20.00     0.026 C 
HETATM   12 CL12 UNL     1     -32.605  11.155   1.541  1.00 20.00    -0.125 Cl
ENDBRANCH   9  10
ENDBRANCH   7   9
ENDBRANCH   1   7
TORSDOF 5
ENDMDL
MODEL 2
REMARK VINA RESULT:      -6.0      2.534      5.409
REMARK  5 active torsions:
REMARK  status: ('A' for Active; 'I' for Inactive)
REMARK    1  A    between atoms: C6_6  and  C7_7 
REMARK    2  A    between atoms: C6_6  and  C9_9 
REMARK    3  A    between atoms: C7_7  and  C11_11 
REMARK    4  A    between atoms: C8_8  and  C9_9 
REMARK    5  A    between atoms: C8_8  and  C10_10 
ROOT
HETATM    1  C6  UNL     1     -32.217   7.336   2.592  1.00 20.00     0.005 C 
ENDROOT
BRANCH   1   2
HETATM    2  C7  UNL     1     -33.176   8.352   1.951  1.00 20.00     0.008 C 
BRANCH   2   3
HETATM    3  C11 UNL     1     -32.550   9.280   0.873  1.00 20.00    -0.051 C 
HETATM    4  C3  UNL     1     -32.499  10.740   1.354  1.00 20.00     0.014 C 
HETATM    5  C4  UNL     1     -33.334   9.208  -0.448  1.00 20.00     0.014 C 
HETATM    6  C5  UNL     1     -31.106   8.806   0.613  1.00 20.00     0.014 C 
ENDBRANCH   2   3
ENDBRANCH   1   2
BRANCH   1   7
HETATM    7  C9  UNL     1     -32.934   6.123   3.224  1.00 20.00    -0.017 C 
HETATM    8  C1  UNL     1     -32.990   4.927   2.264  1.00 20.00     0.010 C 
BRANCH   7   9
HETATM    9  C8  UNL     1     -34.378   6.471   3.663  1.00 20.00     0.024 C 
BRANCH   9  10
HETATM   10  C10 UNL     1     -34.678   6.377   5.167  1.00 20.00     0.078 C 
HETATM   11  C2  UNL     1     -33.733   7.267   5.967  1.00 20.00     0.026 C 
HETATM   12 CL12 UNL     1     -34.520   4.695   5.754  1.00 20.00    -0.125 Cl
ENDBRANCH   9  10
ENDBRANCH   7   9
ENDBRANCH   1   7
TORSDOF 5
ENDMDL
MODEL 3
REMARK VINA RESULT:      -6.0      0.042      1.245
REMARK  5 active torsions:
REMARK  status: ('A' for Active; 'I' for Inactive)
REMARK    1  A    between atoms: C6_6  and  C7_7 
REMARK    2  A    between atoms: C6_6  and  C9_9 
REMARK    3  A    between atoms: C7_7  and  C11_11 
REMARK    4  A    between atoms: C8_8  and  C9_9 
REMARK    5  A    between atoms: C8_8  and  C10_10 
ROOT
HETATM    1  C6  UNL     1     -33.117   6.933   2.475  1.00 20.00     0.005 C 
ENDROOT
BRANCH   1   2
HETATM    2  C7  UNL     1     -33.177   5.705   3.398  1.00 20.00     0.008 C 
BRANCH   2   3
HETATM    3  C11 UNL     1     -34.346   5.689   4.422  1.00 20.00    -0.051 C 
HETATM    4  C3  UNL     1     -35.683   6.043   3.749  1.00 20.00     0.014 C 
HETATM    5  C4  UNL     1     -34.086   6.665   5.580  1.00 20.00     0.014 C 
HETATM    6  C5  UNL     1     -34.458   4.263   4.997  1.00 20.00     0.014 C 
ENDBRANCH   2   3
ENDBRANCH   1   2
BRANCH   1   7
HETATM    7  C9  UNL     1     -31.739   7.631   2.463  1.00 20.00    -0.017 C 
HETATM    8  C1  UNL     1     -31.470   8.389   3.769  1.00 20.00     0.010 C 
BRANCH   7   9
HETATM    9  C8  UNL     1     -31.605   8.622   1.280  1.00 20.00     0.024 C 
BRANCH   9  10
HETATM   10  C10 UNL     1     -32.842   9.477   0.961  1.00 20.00     0.078 C 
HETATM   11  C2  UNL     1     -33.104   9.514  -0.541  1.00 20.00     0.026 C 
HETATM   12 CL12 UNL     1     -32.639  11.153   1.552  1.00 20.00    -0.125 Cl
ENDBRANCH   9  10
ENDBRANCH   7   9
ENDBRANCH   1   7
TORSDOF 5
ENDMDL
MODEL 4
REMARK VINA RESULT:      -6.0      0.032      1.253
REMARK  5 active torsions:
REMARK  status: ('A' for Active; 'I' for Inactive)
REMARK    1  A    between atoms: C6_6  and  C7_7 
REMARK    2  A    between atoms: C6_6  and  C9_9 
REMARK    3  A    between atoms: C7_7  and  C11_11 
REMARK    4  A    between atoms: C8_8  and  C9_9 
REMARK    5  A    between atoms: C8_8  and  C10_10 
ROOT
HETATM    1  C6  UNL     1     -33.127   6.984   2.514  1.00 20.00     0.005 C 
ENDROOT
BRANCH   1   2
HETATM    2  C7  UNL     1     -33.174   5.729   3.401  1.00 20.00     0.008 C 
BRANCH   2   3
HETATM    3  C11 UNL     1     -34.353   5.662   4.411  1.00 20.00    -0.051 C 
HETATM    4  C3  UNL     1     -34.474   4.262   5.037  1.00 20.00     0.014 C 
HETATM    5  C4  UNL     1     -35.684   6.035   3.740  1.00 20.00     0.014 C 
HETATM    6  C5  UNL     1     -34.073   6.673   5.541  1.00 20.00     0.014 C 
ENDBRANCH   2   3
ENDBRANCH   1   2
BRANCH   1   7
HETATM    7  C9  UNL     1     -31.735   7.651   2.458  1.00 20.00    -0.017 C 
HETATM    8  C1  UNL     1     -31.424   8.432   3.741  1.00 20.00     0.010 C 
BRANCH   7   9
HETATM    9  C8  UNL     1     -31.606   8.612   1.251  1.00 20.00     0.024 C 
BRANCH   9  10
HETATM   10  C10 UNL     1     -32.829   9.489   0.939  1.00 20.00     0.078 C 
HETATM   11  C2  UNL     1     -33.093   9.539  -0.562  1.00 20.00     0.026 C 
HETATM   12 CL12 UNL     1     -32.598  11.158   1.539  1.00 20.00    -0.125 Cl
ENDBRANCH   9  10
ENDBRANCH   7   9
ENDBRANCH   1   7
TORSDOF 5
ENDMDL
MODEL 5
REMARK VINA RESULT:      -5.0      2.632      5.291
REMARK  5 active torsions:
REMARK  status: ('A' for Active; 'I' for Inactive)
REMARK    1  A    between atoms: C6_6  and  C7_7 
REMARK    2  A    between atoms: C6_6  and  C9_9 
REMARK    3  A    between atoms: C7_7  and  C11_11 
REMARK    4  A    between atoms: C8_8  and  C9_9 
REMARK    5  A    between atoms: C8_8  and  C10_10 
ROOT
HETATM    1  C6  UNL     1     -32.784   8.073   3.127  1.00 20.00     0.005 C 
ENDROOT
BRANCH   1   2
HETATM    2  C7  UNL     1     -33.244   8.193   1.665  1.00 20.00     0.008 C 
BRANCH   2   3
HETATM    3  C11 UNL     1     -32.489   9.245   0.805  1.00 20.00    -0.051 C 
HETATM    4  C3  UNL     1     -31.016   8.849   0.604  1.00 20.00     0.014 C 
HETATM    5  C4  UNL     1     -32.556  10.641   1.445  1.00 20.00     0.014 C 
HETATM    6  C5  UNL     1     -33.166   9.307  -0.579  1.00 20.00     0.014 C 
ENDBRANCH   2   3
ENDBRANCH   1   2
BRANCH   1   7
HETATM    7  C9  UNL     1     -33.893   7.589   4.087  1.00 20.00    -0.017 C 
HETATM    8  C1  UNL     1     -33.389   7.478   5.532  1.00 20.00     0.010 C 
BRANCH   7   9
HETATM    9  C8  UNL     1     -34.468   6.217   3.657  1.00 20.00     0.024 C 
BRANCH   9  10
HETATM   10  C10 UNL     1     -33.504   5.022   3.718  1.00 20.00     0.078 C 
HETATM   11  C2  UNL     1     -33.136   4.548   2.316  1.00 20.00     0.026 C 
HETATM   12 CL12 UNL     1     -34.227   3.654   4.617  1.00 20.00    -0.125 Cl
ENDBRANCH   9  10
ENDBRANCH   7   9
ENDBRANCH   1   7
TORSDOF 5
ENDMDL
MODEL 6
REMARK VINA RESULT:      -5.0      2.623      5.300
REMARK  5 active torsions:
REMARK  status: ('A' for Active; 'I' for Inactive)
REMARK    1  A    between atoms: C6_6  and  C7_7 
REMARK    2  A    between atoms: C6_6  and  C9_9 
REMARK    3  A    between atoms: C7_7  and  C11_11 
REMARK    4  A    between atoms: C8_8  and  C9_9 
REMARK    5  A    between atoms: C8_8  and  C10_10 
ROOT
HETATM    1  C6  UNL     1     -32.782   8.148   3.172  1.00 20.00     0.005 C 
ENDROOT
BRANCH   1   2
HETATM    2  C7  UNL     1     -33.156   8.112   1.681  1.00 20.00     0.008 C 
BRANCH   2   3
HETATM    3  C11 UNL     1     -32.485   9.195   0.792  1.00 20.00    -0.051 C 
HETATM    4  C3  UNL     1     -33.209   9.337  -0.558  1.00 20.00     0.014 C 
HETATM    5  C4  UNL     1     -31.003   8.873   0.542  1.00 20.00     0.014 C 
HETATM    6  C5  UNL     1     -32.576  10.545   1.533  1.00 20.00     0.014 C 
ENDBRANCH   2   3
ENDBRANCH   1   2
BRANCH   1   7
HETATM    7  C9  UNL     1     -33.897   7.622   4.103  1.00 20.00    -0.017 C 
HETATM    8  C1  UNL     1     -33.409   7.466   5.549  1.00 20.00     0.010 C 
BRANCH   7   9
HETATM    9  C8  UNL     1     -34.454   6.260   3.620  1.00 20.00     0.024 C 
BRANCH   9  10
HETATM   10  C10 UNL     1     -33.514   5.051   3.749  1.00 20.00     0.078 C 
HETATM   11  C2  UNL     1     -33.102   4.534   2.374  1.00 20.00     0.026 C 
HETATM   12 CL12 UNL     1     -34.293   3.720   4.655  1.00 20.00    -0.125 Cl
ENDBRANCH   9  10
ENDBRANCH   7   9
ENDBRANCH   1   7
TORSDOF 5
ENDMDL
MODEL 7
REMARK VINA RESULT:      -4.2     10.406     11.419
REMARK  5 active torsions:
REMARK  status: ('A' for Active; 'I' for Inactive)
REMARK    1  A    between atoms: C6_6  and  C7_7 
REMARK    2  A    between atoms: C6_6  and  C9_9 
REMARK    3  A    between atoms: C7_7  and  C11_11 
REMARK    4  A    between atoms: C8_8  and  C9_9 
REMARK    5  A    between atoms: C8_8  and  C10_10 
ROOT
HETATM    1  C6  UNL     1     -33.729  16.734  -2.573  1.00 20.00     0.005 C 
ENDROOT
BRANCH   1   2
HETATM    2  C7  UNL     1     -34.835  15.865  -3.194  1.00 20.00     0.008 C 
BRANCH   2   3
HETATM    3  C11 UNL     1     -34.452  15.121  -4.504  1.00 20.00    -0.051 C 
HETATM    4  C3  UNL     1     -34.530  16.057  -5.722  1.00 20.00     0.014 C 
HETATM    5  C4  UNL     1     -35.359  13.904  -4.740  1.00 20.00     0.014 C 
HETATM    6  C5  UNL     1     -32.997  14.629  -4.366  1.00 20.00     0.014 C 
ENDBRANCH   2   3
ENDBRANCH   1   2
BRANCH   1   7
HETATM    7  C9  UNL     1     -34.087  17.285  -1.175  1.00 20.00    -0.017 C 
HETATM    8  C1  UNL     1     -35.586  17.160  -0.878  1.00 20.00     0.010 C 
BRANCH   7   9
HETATM    9  C8  UNL     1     -33.675  18.770  -1.020  1.00 20.00     0.024 C 
BRANCH   9  10
HETATM   10  C10 UNL     1     -32.866  19.128   0.237  1.00 20.00     0.078 C 
HETATM   11  C2  UNL     1     -31.486  18.479   0.198  1.00 20.00     0.026 C 
HETATM   12 CL12 UNL     1     -33.710  18.597   1.722  1.00 20.00    -0.125 Cl
ENDBRANCH   9  10
ENDBRANCH   7   9
ENDBRANCH   1   7
TORSDOF 5
ENDMDL
MODEL 8
REMARK VINA RESULT:      -4.2     10.422     11.496
REMARK  5 active torsions:
REMARK  status: ('A' for Active; 'I' for Inactive)
REMARK    1  A    between atoms: C6_6  and  C7_7 
REMARK    2  A    between atoms: C6_6  and  C9_9 
REMARK    3  A    between atoms: C7_7  and  C11_11 
REMARK    4  A    between atoms: C8_8  and  C9_9 
REMARK    5  A    between atoms: C8_8  and  C10_10 
ROOT
HETATM    1  C6  UNL     1     -34.483  16.307  -2.924  1.00 20.00     0.005 C 
ENDROOT
BRANCH   1   2
HETATM    2  C7  UNL     1     -33.578  17.078  -1.950  1.00 20.00     0.008 C 
BRANCH   2   3
HETATM    3  C11 UNL     1     -34.306  18.045  -0.975  1.00 20.00    -0.051 C 
HETATM    4  C3  UNL     1     -35.443  17.330  -0.226  1.00 20.00     0.014 C 
HETATM    5  C4  UNL     1     -34.876  19.263  -1.720  1.00 20.00     0.014 C 
HETATM    6  C5  UNL     1     -33.280  18.540   0.063  1.00 20.00     0.014 C 
ENDBRANCH   2   3
ENDBRANCH   1   2
BRANCH   1   7
HETATM    7  C9  UNL     1     -33.707  15.400  -3.904  1.00 20.00    -0.017 C 
HETATM    8  C1  UNL     1     -33.249  16.166  -5.152  1.00 20.00     0.010 C 
BRANCH   7   9
HETATM    9  C8  UNL     1     -34.551  14.182  -4.354  1.00 20.00     0.024 C 
BRANCH   9  10
HETATM   10  C10 UNL     1     -35.420  14.377  -5.606  1.00 20.00     0.078 C 
HETATM   11  C2  UNL     1     -36.884  14.075  -5.304  1.00 20.00     0.026 C 
HETATM   12 CL12 UNL     1     -34.877  13.319  -6.941  1.00 20.00    -0.125 Cl
ENDBRANCH   9  10
ENDBRANCH   7   9
ENDBRANCH   1   7
TORSDOF 5
ENDMDL
MODEL 9
REMARK VINA RESULT:      -4.2     10.481     11.542
REMARK  5 active torsions:
REMARK  status: ('A' for Active; 'I' for Inactive)
REMARK    1  A    between atoms: C6_6  and  C7_7 
REMARK    2  A    between atoms: C6_6  and  C9_9 
REMARK    3  A    between atoms: C7_7  and  C11_11 
REMARK    4  A    between atoms: C8_8  and  C9_9 
REMARK    5  A    between atoms: C8_8  and  C10_10 
ROOT
HETATM    1  C6  UNL     1     -35.053  16.520  -3.081  1.00 20.00     0.005 C 
ENDROOT
BRANCH   1   2
HETATM    2  C7  UNL     1     -34.861  16.688  -1.565  1.00 20.00     0.008 C 
BRANCH   2   3
HETATM    3  C11 UNL     1     -34.256  18.045  -1.110  1.00 20.00    -0.051 C 
HETATM    4  C3  UNL     1     -34.884  19.222  -1.876  1.00 20.00     0.014 C 
HETATM    5  C4  UNL     1     -32.731  18.069  -1.304  1.00 20.00     0.014 C 
HETATM    6  C5  UNL     1     -34.563  18.226   0.390  1.00 20.00     0.014 C 
ENDBRANCH   2   3
ENDBRANCH   1   2
BRANCH   1   7
HETATM    7  C9  UNL     1     -33.934  15.699  -3.760  1.00 20.00    -0.017 C 
HETATM    8  C1  UNL     1     -33.278  16.469  -4.913  1.00 20.00     0.010 C 
BRANCH   7   9
HETATM    9  C8  UNL     1     -34.460  14.348  -4.304  1.00 20.00     0.024 C 
BRANCH   9  10
HETATM   10  C10 UNL     1     -35.287  14.407  -5.599  1.00 20.00     0.078 C 
HETATM   11  C2  UNL     1     -36.681  13.829  -5.380  1.00 20.00     0.026 C 
HETATM   12 CL12 UNL     1     -34.487  13.501  -6.918  1.00 20.00    -0.125 Cl
ENDBRANCH   9  10
ENDBRANCH   7   9
ENDBRANCH   1   7
TORSDOF 5
ENDMDL
