MODEL 1
REMARK VINA RESULT:      -5.9      0.000      0.000
REMARK  2 active torsions:
REMARK  status: ('A' for Active; 'I' for Inactive)
REMARK    1  A    between atoms: C1_1  and  C10_10 
REMARK    2  A    between atoms: C5_5  and  C10_10 
ROOT
HETATM    1  C2  UNL     1     -32.572   7.942   4.583  1.00 20.00     0.005 C 
HETATM    2  C3  UNL     1     -33.580   7.271   5.513  1.00 20.00     0.005 C 
HETATM    3  C4  UNL     1     -33.155   6.293   2.760  1.00 20.00     0.009 C 
HETATM    4  C5  UNL     1     -32.951   7.775   3.107  1.00 20.00    -0.008 C 
HETATM    5  C6  UNL     1     -33.782   5.791   5.160  1.00 20.00    -0.015 C 
HETATM    6  C7  UNL     1     -34.177   5.595   3.677  1.00 20.00    -0.015 C 
HETATM    7  C8  UNL     1     -34.770   5.138   6.130  1.00 20.00     0.010 C 
HETATM    8  C9  UNL     1     -35.605   6.048   3.347  1.00 20.00     0.010 C 
ENDROOT
BRANCH   4   9
HETATM    9  C10 UNL     1     -31.883   8.395   2.206  1.00 20.00     0.074 C 
BRANCH   9  10
HETATM   10  C1  UNL     1     -32.477   9.262   1.129  1.00 20.00     0.231 C 
HETATM   11  O11 UNL     1     -32.600  10.481   1.193  1.00 20.00    -0.307 OA
ENDBRANCH   9  10
ENDBRANCH   4   9
TORSDOF 2
ENDMDL
MODEL 2
REMARK VINA RESULT:      -5.7      0.922      1.946
REMARK  2 active torsions:
REMARK  status: ('A' for Active; 'I' for Inactive)
REMARK    1  A    between atoms: C1_1  and  C10_10 
REMARK    2  A    between atoms: C5_5  and  C10_10 
ROOT
HETATM    1  C2  UNL     1     -32.631   6.095   2.310  1.00 20.00     0.005 C 
HETATM    2  C3  UNL     1     -33.235   5.160   3.355  1.00 20.00     0.005 C 
HETATM    3  C4  UNL     1     -33.649   8.079   3.497  1.00 20.00     0.009 C 
HETATM    4  C5  UNL     1     -32.371   7.497   2.874  1.00 20.00    -0.008 C 
HETATM    5  C6  UNL     1     -34.510   5.748   3.976  1.00 20.00    -0.015 C 
HETATM    6  C7  UNL     1     -34.272   7.160   4.563  1.00 20.00    -0.015 C 
HETATM    7  C8  UNL     1     -35.111   4.774   4.991  1.00 20.00     0.010 C 
HETATM    8  C9  UNL     1     -33.435   7.168   5.848  1.00 20.00     0.010 C 
ENDROOT
BRANCH   4   9
HETATM    9  C10 UNL     1     -31.836   8.423   1.783  1.00 20.00     0.074 C 
BRANCH   9  10
HETATM   10  C1  UNL     1     -32.838   9.470   1.379  1.00 20.00     0.231 C 
HETATM   11  O11 UNL     1     -32.561  10.603   0.999  1.00 20.00    -0.307 OA
ENDBRANCH   9  10
ENDBRANCH   4   9
TORSDOF 2
ENDMDL
MODEL 3
REMARK VINA RESULT:      -4.6     11.164     11.853
REMARK  2 active torsions:
REMARK  status: ('A' for Active; 'I' for Inactive)
REMARK    1  A    between atoms: C1_1  and  C10_10 
REMARK    2  A    between atoms: C5_5  and  C10_10 
ROOT
HETATM    1  C2  UNL     1     -33.723  15.707  -3.773  1.00 20.00     0.005 C 
HETATM    2  C3  UNL     1     -33.585  16.694  -2.616  1.00 20.00     0.005 C 
HETATM    3  C4  UNL     1     -36.234  15.977  -3.702  1.00 20.00     0.009 C 
HETATM    4  C5  UNL     1     -34.988  15.965  -4.600  1.00 20.00    -0.008 C 
HETATM    5  C6  UNL     1     -34.834  16.704  -1.723  1.00 20.00    -0.015 C 
HETATM    6  C7  UNL     1     -36.125  16.973  -2.533  1.00 20.00    -0.015 C 
HETATM    7  C8  UNL     1     -34.651  17.674  -0.554  1.00 20.00     0.010 C 
HETATM    8  C9  UNL     1     -36.257  18.417  -3.032  1.00 20.00     0.010 C 
ENDROOT
BRANCH   4   9
HETATM    9  C10 UNL     1     -35.131  14.916  -5.702  1.00 20.00     0.074 C 
BRANCH   9  10
HETATM   10  C1  UNL     1     -36.131  13.848  -5.349  1.00 20.00     0.231 C 
HETATM   11  O11 UNL     1     -35.867  12.662  -5.187  1.00 20.00    -0.307 OA
ENDBRANCH   9  10
ENDBRANCH   4   9
TORSDOF 2
ENDMDL
MODEL 4
REMARK VINA RESULT:      -4.5     11.308     12.115
REMARK  2 active torsions:
REMARK  status: ('A' for Active; 'I' for Inactive)
REMARK    1  A    between atoms: C1_1  and  C10_10 
REMARK    2  A    between atoms: C5_5  and  C10_10 
ROOT
HETATM    1  C2  UNL     1     -34.696  17.813   0.229  1.00 20.00     0.005 C 
HETATM    2  C3  UNL     1     -35.437  17.303  -1.004  1.00 20.00     0.005 C 
HETATM    3  C4  UNL     1     -32.604  18.118  -1.154  1.00 20.00     0.009 C 
HETATM    4  C5  UNL     1     -33.556  18.769  -0.139  1.00 20.00    -0.008 C 
HETATM    5  C6  UNL     1     -34.481  16.656  -2.016  1.00 20.00    -0.015 C 
HETATM    6  C7  UNL     1     -33.326  17.605  -2.414  1.00 20.00    -0.015 C 
HETATM    7  C8  UNL     1     -35.257  16.124  -3.223  1.00 20.00     0.010 C 
HETATM    8  C9  UNL     1     -33.759  18.774  -3.308  1.00 20.00     0.010 C 
ENDROOT
BRANCH   4   9
HETATM    9  C10 UNL     1     -32.792  19.200   1.112  1.00 20.00     0.074 C 
BRANCH   9  10
HETATM   10  C1  UNL     1     -31.402  18.625   1.161  1.00 20.00     0.231 C 
HETATM   11  O11 UNL     1     -30.383  19.263   1.403  1.00 20.00    -0.307 OA
ENDBRANCH   9  10
ENDBRANCH   4   9
TORSDOF 2
ENDMDL
MODEL 5
REMARK VINA RESULT:      -4.5     10.782     12.307
REMARK  2 active torsions:
REMARK  status: ('A' for Active; 'I' for Inactive)
REMARK    1  A    between atoms: C1_1  and  C10_10 
REMARK    2  A    between atoms: C5_5  and  C10_10 
ROOT
HETATM    1  C2  UNL     1     -33.407  17.979  -3.531  1.00 20.00     0.005 C 
HETATM    2  C3  UNL     1     -33.554  17.336  -4.908  1.00 20.00     0.005 C 
HETATM    3  C4  UNL     1     -35.014  16.285  -2.567  1.00 20.00     0.009 C 
HETATM    4  C5  UNL     1     -33.653  16.977  -2.398  1.00 20.00    -0.008 C 
HETATM    5  C6  UNL     1     -34.914  16.644  -5.071  1.00 20.00    -0.015 C 
HETATM    6  C7  UNL     1     -35.182  15.617  -3.945  1.00 20.00    -0.015 C 
HETATM    7  C8  UNL     1     -35.045  16.040  -6.470  1.00 20.00     0.010 C 
HETATM    8  C9  UNL     1     -34.329  14.346  -4.043  1.00 20.00     0.010 C 
ENDROOT
BRANCH   4   9
HETATM    9  C10 UNL     1     -33.570  17.672  -1.040  1.00 20.00     0.074 C 
BRANCH   9  10
HETATM   10  C1  UNL     1     -32.377  18.583  -0.935  1.00 20.00     0.231 C 
HETATM   11  O11 UNL     1     -31.282  18.263  -0.484  1.00 20.00    -0.307 OA
ENDBRANCH   9  10
ENDBRANCH   4   9
TORSDOF 2
ENDMDL
MODEL 6
REMARK VINA RESULT:      -4.5     10.907     11.934
REMARK  2 active torsions:
REMARK  status: ('A' for Active; 'I' for Inactive)
REMARK    1  A    between atoms: C1_1  and  C10_10 
REMARK    2  A    between atoms: C5_5  and  C10_10 
ROOT
HETATM    1  C2  UNL     1     -35.092  16.522  -2.226  1.00 20.00     0.005 C 
HETATM    2  C3  UNL     1     -35.158  17.146  -0.834  1.00 20.00     0.005 C 
HETATM    3  C4  UNL     1     -33.253  18.133  -2.861  1.00 20.00     0.009 C 
HETATM    4  C5  UNL     1     -33.701  16.664  -2.855  1.00 20.00    -0.008 C 
HETATM    5  C6  UNL     1     -34.706  18.613  -0.846  1.00 20.00    -0.015 C 
HETATM    6  C7  UNL     1     -33.299  18.783  -1.466  1.00 20.00    -0.015 C 
HETATM    7  C8  UNL     1     -34.817  19.220   0.555  1.00 20.00     0.010 C 
HETATM    8  C9  UNL     1     -32.161  18.259  -0.582  1.00 20.00     0.010 C 
ENDROOT
BRANCH   4   9
HETATM    9  C10 UNL     1     -33.693  16.095  -4.273  1.00 20.00     0.074 C 
BRANCH   9  10
HETATM   10  C1  UNL     1     -33.357  14.628  -4.299  1.00 20.00     0.231 C 
HETATM   11  O11 UNL     1     -34.161  13.718  -4.128  1.00 20.00    -0.307 OA
ENDBRANCH   9  10
ENDBRANCH   4   9
TORSDOF 2
ENDMDL
MODEL 7
REMARK VINA RESULT:      -4.4     11.081     12.070
REMARK  2 active torsions:
REMARK  status: ('A' for Active; 'I' for Inactive)
REMARK    1  A    between atoms: C1_1  and  C10_10 
REMARK    2  A    between atoms: C5_5  and  C10_10 
ROOT
HETATM    1  C2  UNL     1     -33.682  16.875  -4.804  1.00 20.00     0.005 C 
HETATM    2  C3  UNL     1     -33.367  17.881  -3.700  1.00 20.00     0.005 C 
HETATM    3  C4  UNL     1     -35.090  15.540  -3.187  1.00 20.00     0.009 C 
HETATM    4  C5  UNL     1     -35.030  16.180  -4.582  1.00 20.00    -0.008 C 
HETATM    5  C6  UNL     1     -33.432  17.237  -2.308  1.00 20.00    -0.015 C 
HETATM    6  C7  UNL     1     -34.788  16.537  -2.054  1.00 20.00    -0.015 C 
HETATM    7  C8  UNL     1     -33.078  18.260  -1.226  1.00 20.00     0.010 C 
HETATM    8  C9  UNL     1     -35.961  17.505  -1.851  1.00 20.00     0.010 C 
ENDROOT
BRANCH   4   9
HETATM    9  C10 UNL     1     -35.276  15.130  -5.665  1.00 20.00     0.074 C 
BRANCH   9  10
HETATM   10  C1  UNL     1     -36.006  13.924  -5.137  1.00 20.00     0.231 C 
HETATM   11  O11 UNL     1     -35.690  12.759  -5.352  1.00 20.00    -0.307 OA
ENDBRANCH   9  10
ENDBRANCH   4   9
TORSDOF 2
ENDMDL
MODEL 8
REMARK VINA RESULT:      -4.4     11.117     11.800
REMARK  2 active torsions:
REMARK  status: ('A' for Active; 'I' for Inactive)
REMARK    1  A    between atoms: C1_1  and  C10_10 
REMARK    2  A    between atoms: C5_5  and  C10_10 
ROOT
HETATM    1  C2  UNL     1     -35.826  15.992  -3.029  1.00 20.00     0.005 C 
HETATM    2  C3  UNL     1     -36.270  15.310  -4.321  1.00 20.00     0.005 C 
HETATM    3  C4  UNL     1     -33.423  15.406  -3.544  1.00 20.00     0.009 C 
HETATM    4  C5  UNL     1     -34.391  16.522  -3.122  1.00 20.00    -0.008 C 
HETATM    5  C6  UNL     1     -35.298  14.198  -4.740  1.00 20.00    -0.015 C 
HETATM    6  C7  UNL     1     -33.842  14.710  -4.853  1.00 20.00    -0.015 C 
HETATM    7  C8  UNL     1     -35.788  13.510  -6.017  1.00 20.00     0.010 C 
HETATM    8  C9  UNL     1     -33.593  15.621  -6.060  1.00 20.00     0.010 C 
ENDROOT
BRANCH   4   9
HETATM    9  C10 UNL     1     -33.957  17.132  -1.789  1.00 20.00     0.074 C 
BRANCH   9  10
HETATM   10  C1  UNL     1     -33.034  18.306  -1.971  1.00 20.00     0.231 C 
HETATM   11  O11 UNL     1     -32.037  18.531  -1.293  1.00 20.00    -0.307 OA
ENDBRANCH   9  10
ENDBRANCH   4   9
TORSDOF 2
ENDMDL
MODEL 9
REMARK VINA RESULT:      -4.2     11.100     12.037
REMARK  2 active torsions:
REMARK  status: ('A' for Active; 'I' for Inactive)
REMARK    1  A    between atoms: C1_1  and  C10_10 
REMARK    2  A    between atoms: C5_5  and  C10_10 
ROOT
HETATM    1  C2  UNL     1     -33.472  16.176  -3.841  1.00 20.00     0.005 C 
HETATM    2  C3  UNL     1     -33.198  15.347  -5.094  1.00 20.00     0.005 C 
HETATM    3  C4  UNL     1     -35.956  15.848  -4.166  1.00 20.00     0.009 C 
HETATM    4  C5  UNL     1     -34.791  15.782  -3.167  1.00 20.00    -0.008 C 
HETATM    5  C6  UNL     1     -34.366  15.414  -6.088  1.00 20.00    -0.015 C 
HETATM    6  C7  UNL     1     -35.709  15.009  -5.434  1.00 20.00    -0.015 C 
HETATM    7  C8  UNL     1     -34.048  14.603  -7.346  1.00 20.00     0.010 C 
HETATM    8  C9  UNL     1     -35.828  13.511  -5.129  1.00 20.00     0.010 C 
ENDROOT
BRANCH   4   9
HETATM    9  C10 UNL     1     -35.067  16.681  -1.962  1.00 20.00     0.074 C 
BRANCH   9  10
HETATM   10  C1  UNL     1     -33.833  17.402  -1.493  1.00 20.00     0.231 C 
HETATM   11  O11 UNL     1     -33.682  17.889  -0.377  1.00 20.00    -0.307 OA
ENDBRANCH   9  10
ENDBRANCH   4   9
TORSDOF 2
ENDMDL
