MODEL 1
REMARK VINA RESULT:      -5.8      0.000      0.000
REMARK  4 active torsions:
REMARK  status: ('A' for Active; 'I' for Inactive)
REMARK    1  A    between atoms: C5_5  and  C6_6 
REMARK    2  A    between atoms: C6_6  and  C8_8 
REMARK    3  A    between atoms: C7_7  and  C8_8 
REMARK    4  A    between atoms: C7_7  and  C9_9 
ROOT
HETATM    1  C1  UNL     1     -32.537  10.293   0.722  1.00 20.00     0.012 C 
HETATM    2  C2  UNL     1     -32.382   9.433   1.545  1.00 20.00    -0.117 C 
HETATM    3  C5  UNL     1     -32.192   8.383   2.554  1.00 20.00     0.093 C 
ENDROOT
BRANCH   3   4
HETATM    4  C6  UNL     1     -32.585   6.996   2.039  1.00 20.00     0.016 C 
BRANCH   4   5
HETATM    5  C8  UNL     1     -33.079   5.992   3.111  1.00 20.00    -0.016 C 
HETATM    6  C3  UNL     1     -33.056   4.581   2.510  1.00 20.00     0.010 C 
BRANCH   5   7
HETATM    7  C7  UNL     1     -34.483   6.369   3.638  1.00 20.00     0.024 C 
BRANCH   7   8
HETATM    8  C9  UNL     1     -34.667   6.328   5.165  1.00 20.00     0.078 C 
HETATM    9  C4  UNL     1     -33.658   7.239   5.859  1.00 20.00     0.026 C 
HETATM   10 CL10 UNL     1     -34.467   4.665   5.791  1.00 20.00    -0.125 Cl
ENDBRANCH   7   8
ENDBRANCH   5   7
ENDBRANCH   4   5
ENDBRANCH   3   4
TORSDOF 4
ENDMDL
MODEL 2
REMARK VINA RESULT:      -5.7      2.782      5.192
REMARK  4 active torsions:
REMARK  status: ('A' for Active; 'I' for Inactive)
REMARK    1  A    between atoms: C5_5  and  C6_6 
REMARK    2  A    between atoms: C6_6  and  C8_8 
REMARK    3  A    between atoms: C7_7  and  C8_8 
REMARK    4  A    between atoms: C7_7  and  C9_9 
ROOT
HETATM    1  C1  UNL     1     -34.703   5.037   5.395  1.00 20.00     0.012 C 
HETATM    2  C2  UNL     1     -34.278   5.312   4.306  1.00 20.00    -0.117 C 
HETATM    3  C5  UNL     1     -33.760   5.645   2.973  1.00 20.00     0.093 C 
ENDROOT
BRANCH   3   4
HETATM    4  C6  UNL     1     -33.499   7.145   2.803  1.00 20.00     0.016 C 
BRANCH   4   5
HETATM    5  C8  UNL     1     -32.013   7.562   2.670  1.00 20.00    -0.016 C 
HETATM    6  C3  UNL     1     -31.596   8.305   3.945  1.00 20.00     0.010 C 
BRANCH   5   7
HETATM    7  C7  UNL     1     -31.774   8.415   1.403  1.00 20.00     0.024 C 
BRANCH   7   8
HETATM    8  C9  UNL     1     -32.903   9.385   1.016  1.00 20.00     0.078 C 
HETATM    9  C4  UNL     1     -33.108   9.407  -0.496  1.00 20.00     0.026 C 
HETATM   10 CL10 UNL     1     -32.540  11.046   1.571  1.00 20.00    -0.125 Cl
ENDBRANCH   7   8
ENDBRANCH   5   7
ENDBRANCH   4   5
ENDBRANCH   3   4
TORSDOF 4
ENDMDL
MODEL 3
REMARK VINA RESULT:      -5.7      2.699      5.035
REMARK  4 active torsions:
REMARK  status: ('A' for Active; 'I' for Inactive)
REMARK    1  A    between atoms: C5_5  and  C6_6 
REMARK    2  A    between atoms: C6_6  and  C8_8 
REMARK    3  A    between atoms: C7_7  and  C8_8 
REMARK    4  A    between atoms: C7_7  and  C9_9 
ROOT
HETATM    1  C1  UNL     1     -34.673   5.013   5.634  1.00 20.00     0.012 C 
HETATM    2  C2  UNL     1     -34.219   6.123   5.573  1.00 20.00    -0.117 C 
HETATM    3  C5  UNL     1     -33.666   7.482   5.501  1.00 20.00     0.093 C 
ENDROOT
BRANCH   3   4
HETATM    4  C6  UNL     1     -32.568   7.613   4.442  1.00 20.00     0.016 C 
BRANCH   4   5
HETATM    5  C8  UNL     1     -33.030   7.480   2.970  1.00 20.00    -0.016 C 
HETATM    6  C3  UNL     1     -32.933   6.006   2.556  1.00 20.00     0.010 C 
BRANCH   5   7
HETATM    7  C7  UNL     1     -32.209   8.396   2.032  1.00 20.00     0.024 C 
BRANCH   7   8
HETATM    8  C9  UNL     1     -33.008   9.449   1.245  1.00 20.00     0.078 C 
HETATM    9  C4  UNL     1     -32.838   9.248  -0.258  1.00 20.00     0.026 C 
HETATM   10 CL10 UNL     1     -32.479  11.104   1.667  1.00 20.00    -0.125 Cl
ENDBRANCH   7   8
ENDBRANCH   5   7
ENDBRANCH   4   5
ENDBRANCH   3   4
TORSDOF 4
ENDMDL
MODEL 4
REMARK VINA RESULT:      -5.6      0.931      2.357
REMARK  4 active torsions:
REMARK  status: ('A' for Active; 'I' for Inactive)
REMARK    1  A    between atoms: C5_5  and  C6_6 
REMARK    2  A    between atoms: C6_6  and  C8_8 
REMARK    3  A    between atoms: C7_7  and  C8_8 
REMARK    4  A    between atoms: C7_7  and  C9_9 
ROOT
HETATM    1  C1  UNL     1     -32.847  10.297   1.037  1.00 20.00     0.012 C 
HETATM    2  C2  UNL     1     -32.384   9.307   1.531  1.00 20.00    -0.117 C 
HETATM    3  C5  UNL     1     -31.816   8.094   2.134  1.00 20.00     0.093 C 
ENDROOT
BRANCH   3   4
HETATM    4  C6  UNL     1     -32.076   8.009   3.640  1.00 20.00     0.016 C 
BRANCH   4   5
HETATM    5  C8  UNL     1     -33.527   7.661   4.057  1.00 20.00    -0.016 C 
HETATM    6  C3  UNL     1     -33.559   7.420   5.571  1.00 20.00     0.010 C 
BRANCH   5   7
HETATM    7  C7  UNL     1     -34.066   6.443   3.270  1.00 20.00     0.024 C 
BRANCH   7   8
HETATM    8  C9  UNL     1     -33.391   5.093   3.565  1.00 20.00     0.078 C 
HETATM    9  C4  UNL     1     -33.019   4.377   2.270  1.00 20.00     0.026 C 
HETATM   10 CL10 UNL     1     -34.468   4.032   4.520  1.00 20.00    -0.125 Cl
ENDBRANCH   7   8
ENDBRANCH   5   7
ENDBRANCH   4   5
ENDBRANCH   3   4
TORSDOF 4
ENDMDL
MODEL 5
REMARK VINA RESULT:      -5.3      1.073      2.006
REMARK  4 active torsions:
REMARK  status: ('A' for Active; 'I' for Inactive)
REMARK    1  A    between atoms: C5_5  and  C6_6 
REMARK    2  A    between atoms: C6_6  and  C8_8 
REMARK    3  A    between atoms: C7_7  and  C8_8 
REMARK    4  A    between atoms: C7_7  and  C9_9 
ROOT
HETATM    1  C1  UNL     1     -32.713  10.623   1.075  1.00 20.00     0.012 C 
HETATM    2  C2  UNL     1     -32.283   9.554   1.411  1.00 20.00    -0.117 C 
HETATM    3  C5  UNL     1     -31.757   8.245   1.819  1.00 20.00     0.093 C 
ENDROOT
BRANCH   3   4
HETATM    4  C6  UNL     1     -31.799   8.043   3.337  1.00 20.00     0.016 C 
BRANCH   4   5
HETATM    5  C8  UNL     1     -33.084   7.382   3.895  1.00 20.00    -0.016 C 
HETATM    6  C3  UNL     1     -33.151   7.637   5.406  1.00 20.00     0.010 C 
BRANCH   5   7
HETATM    7  C7  UNL     1     -33.136   5.873   3.564  1.00 20.00     0.024 C 
BRANCH   7   8
HETATM    8  C9  UNL     1     -34.455   5.152   3.892  1.00 20.00     0.078 C 
HETATM    9  C4  UNL     1     -35.652   6.061   3.624  1.00 20.00     0.026 C 
HETATM   10 CL10 UNL     1     -34.497   4.636   5.604  1.00 20.00    -0.125 Cl
ENDBRANCH   7   8
ENDBRANCH   5   7
ENDBRANCH   4   5
ENDBRANCH   3   4
TORSDOF 4
ENDMDL
MODEL 6
REMARK VINA RESULT:      -4.9      2.504      4.524
REMARK  4 active torsions:
REMARK  status: ('A' for Active; 'I' for Inactive)
REMARK    1  A    between atoms: C5_5  and  C6_6 
REMARK    2  A    between atoms: C6_6  and  C8_8 
REMARK    3  A    between atoms: C7_7  and  C8_8 
REMARK    4  A    between atoms: C7_7  and  C9_9 
ROOT
HETATM    1  C1  UNL     1     -32.889   4.261   2.315  1.00 20.00     0.012 C 
HETATM    2  C2  UNL     1     -33.597   4.299   3.283  1.00 20.00    -0.117 C 
HETATM    3  C5  UNL     1     -34.463   4.342   4.469  1.00 20.00     0.093 C 
ENDROOT
BRANCH   3   4
HETATM    4  C6  UNL     1     -34.829   5.771   4.877  1.00 20.00     0.016 C 
BRANCH   4   5
HETATM    5  C8  UNL     1     -33.678   6.807   4.817  1.00 20.00    -0.016 C 
HETATM    6  C3  UNL     1     -33.660   7.597   6.131  1.00 20.00     0.010 C 
BRANCH   5   7
HETATM    7  C7  UNL     1     -33.814   7.736   3.589  1.00 20.00     0.024 C 
BRANCH   7   8
HETATM    8  C9  UNL     1     -32.575   7.848   2.684  1.00 20.00     0.078 C 
HETATM    9  C4  UNL     1     -31.332   8.185   3.503  1.00 20.00     0.026 C 
HETATM   10 CL10 UNL     1     -32.802   9.110   1.437  1.00 20.00    -0.125 Cl
ENDBRANCH   7   8
ENDBRANCH   5   7
ENDBRANCH   4   5
ENDBRANCH   3   4
TORSDOF 4
ENDMDL
MODEL 7
REMARK VINA RESULT:      -4.1     11.048     11.872
REMARK  4 active torsions:
REMARK  status: ('A' for Active; 'I' for Inactive)
REMARK    1  A    between atoms: C5_5  and  C6_6 
REMARK    2  A    between atoms: C6_6  and  C8_8 
REMARK    3  A    between atoms: C7_7  and  C8_8 
REMARK    4  A    between atoms: C7_7  and  C9_9 
ROOT
HETATM    1  C1  UNL     1     -32.761  18.079  -1.282  1.00 20.00     0.012 C 
HETATM    2  C2  UNL     1     -33.761  17.450  -1.495  1.00 20.00    -0.117 C 
HETATM    3  C5  UNL     1     -34.985  16.681  -1.753  1.00 20.00     0.093 C 
ENDROOT
BRANCH   3   4
HETATM    4  C6  UNL     1     -35.160  16.334  -3.234  1.00 20.00     0.016 C 
BRANCH   4   5
HETATM    5  C8  UNL     1     -34.167  15.291  -3.805  1.00 20.00    -0.016 C 
HETATM    6  C3  UNL     1     -33.276  15.980  -4.846  1.00 20.00     0.010 C 
BRANCH   5   7
HETATM    7  C7  UNL     1     -34.906  14.070  -4.399  1.00 20.00     0.024 C 
BRANCH   7   8
HETATM    8  C9  UNL     1     -35.650  14.307  -5.725  1.00 20.00     0.078 C 
HETATM    9  C4  UNL     1     -37.156  14.148  -5.539  1.00 20.00     0.026 C 
HETATM   10 CL10 UNL     1     -35.101  13.161  -6.983  1.00 20.00    -0.125 Cl
ENDBRANCH   7   8
ENDBRANCH   5   7
ENDBRANCH   4   5
ENDBRANCH   3   4
TORSDOF 4
ENDMDL
MODEL 8
REMARK VINA RESULT:      -4.0     11.115     11.869
REMARK  4 active torsions:
REMARK  status: ('A' for Active; 'I' for Inactive)
REMARK    1  A    between atoms: C5_5  and  C6_6 
REMARK    2  A    between atoms: C6_6  and  C8_8 
REMARK    3  A    between atoms: C7_7  and  C8_8 
REMARK    4  A    between atoms: C7_7  and  C9_9 
ROOT
HETATM    1  C1  UNL     1     -34.739  17.696  -0.358  1.00 20.00     0.012 C 
HETATM    2  C2  UNL     1     -34.808  17.062  -1.374  1.00 20.00    -0.117 C 
HETATM    3  C5  UNL     1     -34.895  16.285  -2.618  1.00 20.00     0.093 C 
ENDROOT
BRANCH   3   4
HETATM    4  C6  UNL     1     -33.557  16.211  -3.359  1.00 20.00     0.016 C 
BRANCH   4   5
HETATM    5  C8  UNL     1     -33.447  15.115  -4.448  1.00 20.00    -0.016 C 
HETATM    6  C3  UNL     1     -33.210  15.792  -5.804  1.00 20.00     0.010 C 
BRANCH   5   7
HETATM    7  C7  UNL     1     -34.700  14.209  -4.470  1.00 20.00     0.024 C 
BRANCH   7   8
HETATM    8  C9  UNL     1     -35.611  14.342  -5.703  1.00 20.00     0.078 C 
HETATM    9  C4  UNL     1     -37.081  14.246  -5.306  1.00 20.00     0.026 C 
HETATM   10 CL10 UNL     1     -35.254  13.067  -6.905  1.00 20.00    -0.125 Cl
ENDBRANCH   7   8
ENDBRANCH   5   7
ENDBRANCH   4   5
ENDBRANCH   3   4
TORSDOF 4
ENDMDL
MODEL 9
REMARK VINA RESULT:      -3.9      2.536      4.579
REMARK  4 active torsions:
REMARK  status: ('A' for Active; 'I' for Inactive)
REMARK    1  A    between atoms: C5_5  and  C6_6 
REMARK    2  A    between atoms: C6_6  and  C8_8 
REMARK    3  A    between atoms: C7_7  and  C8_8 
REMARK    4  A    between atoms: C7_7  and  C9_9 
ROOT
HETATM    1  C1  UNL     1     -34.711   5.851   6.207  1.00 20.00     0.012 C 
HETATM    2  C2  UNL     1     -34.457   5.050   5.351  1.00 20.00    -0.117 C 
HETATM    3  C5  UNL     1     -34.147   4.068   4.303  1.00 20.00     0.093 C 
ENDROOT
BRANCH   3   4
HETATM    4  C6  UNL     1     -33.378   4.683   3.131  1.00 20.00     0.016 C 
BRANCH   4   5
HETATM    5  C8  UNL     1     -33.542   6.212   2.943  1.00 20.00    -0.016 C 
HETATM    6  C3  UNL     1     -34.927   6.487   2.344  1.00 20.00     0.010 C 
BRANCH   5   7
HETATM    7  C7  UNL     1     -32.410   6.801   2.069  1.00 20.00     0.024 C 
BRANCH   7   8
HETATM    8  C9  UNL     1     -31.750   8.087   2.594  1.00 20.00     0.078 C 
HETATM    9  C4  UNL     1     -32.057   8.291   4.075  1.00 20.00     0.026 C 
HETATM   10 CL10 UNL     1     -32.321   9.519   1.686  1.00 20.00    -0.125 Cl
ENDBRANCH   7   8
ENDBRANCH   5   7
ENDBRANCH   4   5
ENDBRANCH   3   4
TORSDOF 4
ENDMDL
