MODEL 1
REMARK VINA RESULT:      -6.1      0.000      0.000
REMARK  1 active torsions:
REMARK  status: ('A' for Active; 'I' for Inactive)
REMARK    1  A    between atoms: C6_6  and  C8_8 
ROOT
HETATM    1  C1  UNL     1     -32.878   7.672   4.677  1.00 20.00     0.016 C 
HETATM    2  C2  UNL     1     -33.878   6.183   2.888  1.00 20.00     0.016 C 
HETATM    3  C3  UNL     1     -31.798   8.131   3.697  1.00 20.00     0.041 C 
HETATM    4  C4  UNL     1     -32.800   6.637   1.903  1.00 20.00     0.041 C 
HETATM    5  C5  UNL     1     -32.711   9.215   1.503  1.00 20.00     0.207 A 
HETATM    6  C6  UNL     1     -33.380   6.256   4.343  1.00 20.00     0.093 C 
HETATM    7  C7  UNL     1     -32.292   7.994   2.287  1.00 20.00     0.082 A 
HETATM    8  O9  UNL     1     -31.432   8.593   1.308  1.00 20.00    -0.375 OA
ENDROOT
BRANCH   6   9
HETATM    9  C8  UNL     1     -34.484   5.834   5.310  1.00 20.00     0.391 C 
HETATM   10  F10 UNL     1     -35.649   5.719   4.654  1.00 20.00    -0.171 F 
HETATM   11  F11 UNL     1     -34.180   4.652   5.867  1.00 20.00    -0.171 F 
HETATM   12  F12 UNL     1     -34.620   6.751   6.280  1.00 20.00    -0.171 F 
ENDBRANCH   6   9
TORSDOF 1
ENDMDL
MODEL 2
REMARK VINA RESULT:      -5.9      3.435      4.483
REMARK  1 active torsions:
REMARK  status: ('A' for Active; 'I' for Inactive)
REMARK    1  A    between atoms: C6_6  and  C8_8 
ROOT
HETATM    1  C1  UNL     1     -32.870   7.621   4.722  1.00 20.00     0.016 C 
HETATM    2  C2  UNL     1     -33.268   6.445   2.513  1.00 20.00     0.016 C 
HETATM    3  C3  UNL     1     -34.092   6.921   5.318  1.00 20.00     0.041 C 
HETATM    4  C4  UNL     1     -34.491   5.743   3.103  1.00 20.00     0.041 C 
HETATM    5  C5  UNL     1     -34.001   4.313   5.231  1.00 20.00     0.207 A 
HETATM    6  C6  UNL     1     -33.008   7.798   3.200  1.00 20.00     0.093 C 
HETATM    7  C7  UNL     1     -34.353   5.635   4.592  1.00 20.00     0.082 A 
HETATM    8  O9  UNL     1     -35.348   4.809   5.211  1.00 20.00    -0.375 OA
ENDROOT
BRANCH   6   9
HETATM    9  C8  UNL     1     -31.761   8.463   2.621  1.00 20.00     0.391 C 
HETATM   10  F10 UNL     1     -31.484   7.947   1.414  1.00 20.00    -0.171 F 
HETATM   11  F11 UNL     1     -31.962   9.784   2.493  1.00 20.00    -0.171 F 
HETATM   12  F12 UNL     1     -30.712   8.259   3.432  1.00 20.00    -0.171 F 
ENDBRANCH   6   9
TORSDOF 1
ENDMDL
MODEL 3
REMARK VINA RESULT:      -5.9      3.435      4.480
REMARK  1 active torsions:
REMARK  status: ('A' for Active; 'I' for Inactive)
REMARK    1  A    between atoms: C6_6  and  C8_8 
ROOT
HETATM    1  C1  UNL     1     -32.865   7.611   4.725  1.00 20.00     0.016 C 
HETATM    2  C2  UNL     1     -33.268   6.447   2.510  1.00 20.00     0.016 C 
HETATM    3  C3  UNL     1     -34.089   6.913   5.318  1.00 20.00     0.041 C 
HETATM    4  C4  UNL     1     -34.494   5.746   3.098  1.00 20.00     0.041 C 
HETATM    5  C5  UNL     1     -34.007   4.304   5.219  1.00 20.00     0.207 A 
HETATM    6  C6  UNL     1     -33.003   7.796   3.203  1.00 20.00     0.093 C 
HETATM    7  C7  UNL     1     -34.355   5.631   4.586  1.00 20.00     0.082 A 
HETATM    8  O9  UNL     1     -35.353   4.805   5.201  1.00 20.00    -0.375 OA
ENDROOT
BRANCH   6   9
HETATM    9  C8  UNL     1     -31.754   8.459   2.627  1.00 20.00     0.391 C 
HETATM   10  F10 UNL     1     -30.703   8.232   3.429  1.00 20.00    -0.171 F 
HETATM   11  F11 UNL     1     -31.489   7.960   1.410  1.00 20.00    -0.171 F 
HETATM   12  F12 UNL     1     -31.944   9.783   2.522  1.00 20.00    -0.171 F 
ENDBRANCH   6   9
TORSDOF 1
ENDMDL
MODEL 4
REMARK VINA RESULT:      -5.3      3.590      4.725
REMARK  1 active torsions:
REMARK  status: ('A' for Active; 'I' for Inactive)
REMARK    1  A    between atoms: C6_6  and  C8_8 
ROOT
HETATM    1  C1  UNL     1     -32.914   6.349   1.947  1.00 20.00     0.016 C 
HETATM    2  C2  UNL     1     -33.250   8.148   3.700  1.00 20.00     0.016 C 
HETATM    3  C3  UNL     1     -33.179   5.271   2.998  1.00 20.00     0.041 C 
HETATM    4  C4  UNL     1     -33.514   7.074   4.756  1.00 20.00     0.041 C 
HETATM    5  C5  UNL     1     -35.491   5.464   4.196  1.00 20.00     0.207 A 
HETATM    6  C6  UNL     1     -32.331   7.624   2.581  1.00 20.00     0.093 C 
HETATM    7  C7  UNL     1     -34.028   5.827   4.102  1.00 20.00     0.082 A 
HETATM    8  O9  UNL     1     -34.502   4.838   5.027  1.00 20.00    -0.375 OA
ENDROOT
BRANCH   6   9
HETATM    9  C8  UNL     1     -32.111   8.700   1.519  1.00 20.00     0.391 C 
HETATM   10  F10 UNL     1     -30.999   8.432   0.818  1.00 20.00    -0.171 F 
HETATM   11  F11 UNL     1     -33.157   8.737   0.679  1.00 20.00    -0.171 F 
HETATM   12  F12 UNL     1     -31.979   9.901   2.103  1.00 20.00    -0.171 F 
ENDBRANCH   6   9
TORSDOF 1
ENDMDL
MODEL 5
REMARK VINA RESULT:      -5.3      1.256      1.988
REMARK  1 active torsions:
REMARK  status: ('A' for Active; 'I' for Inactive)
REMARK    1  A    between atoms: C6_6  and  C8_8 
ROOT
HETATM    1  C1  UNL     1     -33.202   5.393   2.930  1.00 20.00     0.016 C 
HETATM    2  C2  UNL     1     -33.908   6.913   4.832  1.00 20.00     0.016 C 
HETATM    3  C3  UNL     1     -32.957   6.614   2.042  1.00 20.00     0.041 C 
HETATM    4  C4  UNL     1     -33.666   8.137   3.948  1.00 20.00     0.041 C 
HETATM    5  C5  UNL     1     -31.241   8.332   3.002  1.00 20.00     0.207 A 
HETATM    6  C6  UNL     1     -34.278   5.675   3.994  1.00 20.00     0.093 C 
HETATM    7  C7  UNL     1     -32.655   7.814   2.889  1.00 20.00     0.082 A 
HETATM    8  O9  UNL     1     -32.208   8.955   2.144  1.00 20.00    -0.375 OA
ENDROOT
BRANCH   6   9
HETATM    9  C8  UNL     1     -34.478   4.458   4.893  1.00 20.00     0.391 C 
HETATM   10  F10 UNL     1     -35.770   4.097   4.897  1.00 20.00    -0.171 F 
HETATM   11  F11 UNL     1     -33.740   3.430   4.445  1.00 20.00    -0.171 F 
HETATM   12  F12 UNL     1     -34.103   4.747   6.149  1.00 20.00    -0.171 F 
ENDBRANCH   6   9
TORSDOF 1
ENDMDL
MODEL 6
REMARK VINA RESULT:      -4.7     11.287     11.930
REMARK  1 active torsions:
REMARK  status: ('A' for Active; 'I' for Inactive)
REMARK    1  A    between atoms: C6_6  and  C8_8 
ROOT
HETATM    1  C1  UNL     1     -33.353  15.625  -3.875  1.00 20.00     0.016 C 
HETATM    2  C2  UNL     1     -35.880  15.491  -4.000  1.00 20.00     0.016 C 
HETATM    3  C3  UNL     1     -33.240  14.406  -4.791  1.00 20.00     0.041 C 
HETATM    4  C4  UNL     1     -35.774  14.271  -4.916  1.00 20.00     0.041 C 
HETATM    5  C5  UNL     1     -34.415  14.673  -7.108  1.00 20.00     0.207 A 
HETATM    6  C6  UNL     1     -34.662  15.604  -3.066  1.00 20.00     0.093 C 
HETATM    7  C7  UNL     1     -34.466  14.290  -5.648  1.00 20.00     0.082 A 
HETATM    8  O9  UNL     1     -34.363  13.303  -6.683  1.00 20.00    -0.375 OA
ENDROOT
BRANCH   6   9
HETATM    9  C8  UNL     1     -34.771  16.849  -2.189  1.00 20.00     0.391 C 
HETATM   10  F10 UNL     1     -35.606  16.616  -1.165  1.00 20.00    -0.171 F 
HETATM   11  F11 UNL     1     -33.564  17.175  -1.700  1.00 20.00    -0.171 F 
HETATM   12  F12 UNL     1     -35.242  17.879  -2.909  1.00 20.00    -0.171 F 
ENDBRANCH   6   9
TORSDOF 1
ENDMDL
MODEL 7
REMARK VINA RESULT:      -4.7     11.349     12.283
REMARK  1 active torsions:
REMARK  status: ('A' for Active; 'I' for Inactive)
REMARK    1  A    between atoms: C6_6  and  C8_8 
ROOT
HETATM    1  C1  UNL     1     -33.378  16.727  -4.709  1.00 20.00     0.016 C 
HETATM    2  C2  UNL     1     -34.962  15.084  -3.607  1.00 20.00     0.016 C 
HETATM    3  C3  UNL     1     -33.138  15.736  -5.849  1.00 20.00     0.041 C 
HETATM    4  C4  UNL     1     -34.724  14.088  -4.744  1.00 20.00     0.041 C 
HETATM    5  C5  UNL     1     -35.295  14.999  -7.122  1.00 20.00     0.207 A 
HETATM    6  C6  UNL     1     -33.745  16.005  -3.401  1.00 20.00     0.093 C 
HETATM    7  C7  UNL     1     -34.315  14.817  -5.988  1.00 20.00     0.082 A 
HETATM    8  O9  UNL     1     -34.274  13.991  -7.159  1.00 20.00    -0.375 OA
ENDROOT
BRANCH   6   9
HETATM    9  C8  UNL     1     -34.019  17.014  -2.288  1.00 20.00     0.391 C 
HETATM   10  F10 UNL     1     -34.463  18.166  -2.813  1.00 20.00    -0.171 F 
HETATM   11  F11 UNL     1     -34.948  16.532  -1.448  1.00 20.00    -0.171 F 
HETATM   12  F12 UNL     1     -32.893  17.256  -1.599  1.00 20.00    -0.171 F 
ENDBRANCH   6   9
TORSDOF 1
ENDMDL
MODEL 8
REMARK VINA RESULT:      -4.7     11.350     12.424
REMARK  1 active torsions:
REMARK  status: ('A' for Active; 'I' for Inactive)
REMARK    1  A    between atoms: C6_6  and  C8_8 
ROOT
HETATM    1  C1  UNL     1     -33.467  15.290  -3.958  1.00 20.00     0.016 C 
HETATM    2  C2  UNL     1     -35.746  16.389  -4.085  1.00 20.00     0.016 C 
HETATM    3  C3  UNL     1     -34.115  13.917  -4.135  1.00 20.00     0.041 C 
HETATM    4  C4  UNL     1     -36.401  15.018  -4.261  1.00 20.00     0.041 C 
HETATM    5  C5  UNL     1     -35.533  13.656  -6.312  1.00 20.00     0.207 A 
HETATM    6  C6  UNL     1     -34.431  16.288  -3.292  1.00 20.00     0.093 C 
HETATM    7  C7  UNL     1     -35.421  14.054  -4.859  1.00 20.00     0.082 A 
HETATM    8  O9  UNL     1     -36.001  12.804  -5.256  1.00 20.00    -0.375 OA
ENDROOT
BRANCH   6   9
HETATM    9  C8  UNL     1     -33.776  17.661  -3.161  1.00 20.00     0.391 C 
HETATM   10  F10 UNL     1     -33.129  17.971  -4.294  1.00 20.00    -0.171 F 
HETATM   11  F11 UNL     1     -34.711  18.595  -2.926  1.00 20.00    -0.171 F 
HETATM   12  F12 UNL     1     -32.900  17.658  -2.145  1.00 20.00    -0.171 F 
ENDBRANCH   6   9
TORSDOF 1
ENDMDL
MODEL 9
REMARK VINA RESULT:      -4.5     11.497     12.428
REMARK  1 active torsions:
REMARK  status: ('A' for Active; 'I' for Inactive)
REMARK    1  A    between atoms: C6_6  and  C8_8 
ROOT
HETATM    1  C1  UNL     1     -35.569  15.667  -4.493  1.00 20.00     0.016 C 
HETATM    2  C2  UNL     1     -33.744  16.339  -2.868  1.00 20.00     0.016 C 
HETATM    3  C3  UNL     1     -36.628  16.200  -3.528  1.00 20.00     0.041 C 
HETATM    4  C4  UNL     1     -34.799  16.872  -1.899  1.00 20.00     0.041 C 
HETATM    5  C5  UNL     1     -36.354  18.718  -2.893  1.00 20.00     0.207 A 
HETATM    6  C6  UNL     1     -34.305  15.205  -3.746  1.00 20.00     0.093 C 
HETATM    7  C7  UNL     1     -36.037  17.262  -2.649  1.00 20.00     0.082 A 
HETATM    8  O9  UNL     1     -37.002  17.966  -1.857  1.00 20.00    -0.375 OA
ENDROOT
BRANCH   6   9
HETATM    9  C8  UNL     1     -33.247  14.715  -4.731  1.00 20.00     0.391 C 
HETATM   10  F10 UNL     1     -32.600  15.760  -5.267  1.00 20.00    -0.171 F 
HETATM   11  F11 UNL     1     -32.359  13.932  -4.099  1.00 20.00    -0.171 F 
HETATM   12  F12 UNL     1     -33.826  14.010  -5.715  1.00 20.00    -0.171 F 
ENDBRANCH   6   9
TORSDOF 1
ENDMDL
