MODEL 1
REMARK VINA RESULT:      -5.6      0.000      0.000
REMARK  3 active torsions:
REMARK  status: ('A' for Active; 'I' for Inactive)
REMARK    1  A    between atoms: C6_6  and  C7_7 
REMARK    2  A    between atoms: C6_6  and  C8_8 
REMARK    3  A    between atoms: C7_7  and  C9_9 
ROOT
HETATM    1  C1  UNL     1     -32.944   4.638   2.496  1.00 20.00     0.011 C 
HETATM    2  C7  UNL     1     -33.126   5.932   3.308  1.00 20.00    -0.010 C 
ENDROOT
BRANCH   2   3
HETATM    3  C6  UNL     1     -33.284   7.149   2.352  1.00 20.00     0.024 C 
BRANCH   3   4
HETATM    4  C8  UNL     1     -32.056   8.066   2.199  1.00 20.00     0.078 C 
HETATM    5  C2  UNL     1     -32.440   9.380   1.524  1.00 20.00     0.026 C 
HETATM    6 CL10 UNL     1     -31.318   8.431   3.786  1.00 20.00    -0.125 Cl
ENDBRANCH   3   4
ENDBRANCH   2   3
BRANCH   2   7
HETATM    7  C9  UNL     1     -34.286   5.828   4.377  1.00 20.00    -0.048 C 
HETATM    8  C3  UNL     1     -34.085   6.792   5.561  1.00 20.00     0.015 C 
HETATM    9  C4  UNL     1     -35.649   6.148   3.722  1.00 20.00     0.015 C 
HETATM   10  C5  UNL     1     -34.385   4.391   4.936  1.00 20.00     0.015 C 
ENDBRANCH   2   7
TORSDOF 3
ENDMDL
MODEL 2
REMARK VINA RESULT:      -4.7      1.570      2.014
REMARK  3 active torsions:
REMARK  status: ('A' for Active; 'I' for Inactive)
REMARK    1  A    between atoms: C6_6  and  C7_7 
REMARK    2  A    between atoms: C6_6  and  C8_8 
REMARK    3  A    between atoms: C7_7  and  C9_9 
ROOT
HETATM    1  C1  UNL     1     -32.533   7.996   4.731  1.00 20.00     0.011 C 
HETATM    2  C7  UNL     1     -33.558   7.539   3.679  1.00 20.00    -0.010 C 
ENDROOT
BRANCH   2   3
HETATM    3  C6  UNL     1     -32.923   7.571   2.259  1.00 20.00     0.024 C 
BRANCH   3   4
HETATM    4  C8  UNL     1     -32.179   8.861   1.869  1.00 20.00     0.078 C 
HETATM    5  C2  UNL     1     -31.256   8.617   0.678  1.00 20.00     0.026 C 
HETATM    6 CL10 UNL     1     -33.326  10.167   1.447  1.00 20.00    -0.125 Cl
ENDBRANCH   3   4
ENDBRANCH   2   3
BRANCH   2   7
HETATM    7  C9  UNL     1     -34.219   6.147   4.031  1.00 20.00    -0.048 C 
HETATM    8  C3  UNL     1     -34.240   5.869   5.547  1.00 20.00     0.015 C 
HETATM    9  C4  UNL     1     -35.675   6.096   3.513  1.00 20.00     0.015 C 
HETATM   10  C5  UNL     1     -33.459   4.992   3.341  1.00 20.00     0.015 C 
ENDBRANCH   2   7
TORSDOF 3
ENDMDL
MODEL 3
REMARK VINA RESULT:      -4.7      1.373      2.391
REMARK  3 active torsions:
REMARK  status: ('A' for Active; 'I' for Inactive)
REMARK    1  A    between atoms: C6_6  and  C7_7 
REMARK    2  A    between atoms: C6_6  and  C8_8 
REMARK    3  A    between atoms: C7_7  and  C9_9 
ROOT
HETATM    1  C1  UNL     1     -33.135   7.704   5.508  1.00 20.00     0.011 C 
HETATM    2  C7  UNL     1     -33.522   7.440   4.043  1.00 20.00    -0.010 C 
ENDROOT
BRANCH   2   3
HETATM    3  C6  UNL     1     -32.303   7.698   3.110  1.00 20.00     0.024 C 
BRANCH   3   4
HETATM    4  C8  UNL     1     -32.592   8.442   1.794  1.00 20.00     0.078 C 
HETATM    5  C2  UNL     1     -32.917   9.910   2.059  1.00 20.00     0.026 C 
HETATM    6 CL10 UNL     1     -31.194   8.357   0.681  1.00 20.00    -0.125 Cl
ENDBRANCH   3   4
ENDBRANCH   2   3
BRANCH   2   7
HETATM    7  C9  UNL     1     -34.176   6.018   3.828  1.00 20.00    -0.048 C 
HETATM    8  C3  UNL     1     -33.329   5.109   2.917  1.00 20.00     0.015 C 
HETATM    9  C4  UNL     1     -34.359   5.300   5.186  1.00 20.00     0.015 C 
HETATM   10  C5  UNL     1     -35.582   6.152   3.202  1.00 20.00     0.015 C 
ENDBRANCH   2   7
TORSDOF 3
ENDMDL
MODEL 4
REMARK VINA RESULT:      -4.6      1.358      2.067
REMARK  3 active torsions:
REMARK  status: ('A' for Active; 'I' for Inactive)
REMARK    1  A    between atoms: C6_6  and  C7_7 
REMARK    2  A    between atoms: C6_6  and  C8_8 
REMARK    3  A    between atoms: C7_7  and  C9_9 
ROOT
HETATM    1  C1  UNL     1     -33.118   7.656   5.542  1.00 20.00     0.011 C 
HETATM    2  C7  UNL     1     -33.529   7.406   4.081  1.00 20.00    -0.010 C 
ENDROOT
BRANCH   2   3
HETATM    3  C6  UNL     1     -32.319   7.645   3.133  1.00 20.00     0.024 C 
BRANCH   3   4
HETATM    4  C8  UNL     1     -32.610   8.408   1.828  1.00 20.00     0.078 C 
HETATM    5  C2  UNL     1     -32.965   9.864   2.117  1.00 20.00     0.026 C 
HETATM    6 CL10 UNL     1     -31.201   8.370   0.728  1.00 20.00    -0.125 Cl
ENDBRANCH   3   4
ENDBRANCH   2   3
BRANCH   2   7
HETATM    7  C9  UNL     1     -34.214   5.998   3.869  1.00 20.00    -0.048 C 
HETATM    8  C3  UNL     1     -34.434   5.243   5.194  1.00 20.00     0.015 C 
HETATM    9  C4  UNL     1     -35.588   6.166   3.179  1.00 20.00     0.015 C 
HETATM   10  C5  UNL     1     -33.356   5.107   2.944  1.00 20.00     0.015 C 
ENDBRANCH   2   7
TORSDOF 3
ENDMDL
MODEL 5
REMARK VINA RESULT:      -4.3      1.806      4.624
REMARK  3 active torsions:
REMARK  status: ('A' for Active; 'I' for Inactive)
REMARK    1  A    between atoms: C6_6  and  C7_7 
REMARK    2  A    between atoms: C6_6  and  C8_8 
REMARK    3  A    between atoms: C7_7  and  C9_9 
ROOT
HETATM    1  C1  UNL     1     -31.442   8.419   3.503  1.00 20.00     0.011 C 
HETATM    2  C7  UNL     1     -32.276   7.924   2.310  1.00 20.00    -0.010 C 
ENDROOT
BRANCH   2   3
HETATM    3  C6  UNL     1     -33.692   7.490   2.786  1.00 20.00     0.024 C 
BRANCH   3   4
HETATM    4  C8  UNL     1     -33.776   6.173   3.580  1.00 20.00     0.078 C 
HETATM    5  C2  UNL     1     -35.226   5.828   3.907  1.00 20.00     0.026 C 
HETATM    6 CL10 UNL     1     -33.057   4.817   2.663  1.00 20.00    -0.125 Cl
ENDBRANCH   3   4
ENDBRANCH   2   3
BRANCH   2   7
HETATM    7  C9  UNL     1     -32.314   8.959   1.116  1.00 20.00    -0.048 C 
HETATM    8  C3  UNL     1     -32.520  10.408   1.597  1.00 20.00     0.015 C 
HETATM    9  C4  UNL     1     -30.993   8.903   0.314  1.00 20.00     0.015 C 
HETATM   10  C5  UNL     1     -33.451   8.613   0.129  1.00 20.00     0.015 C 
ENDBRANCH   2   7
TORSDOF 3
ENDMDL
MODEL 6
REMARK VINA RESULT:      -4.3      1.801      4.542
REMARK  3 active torsions:
REMARK  status: ('A' for Active; 'I' for Inactive)
REMARK    1  A    between atoms: C6_6  and  C7_7 
REMARK    2  A    between atoms: C6_6  and  C8_8 
REMARK    3  A    between atoms: C7_7  and  C9_9 
ROOT
HETATM    1  C1  UNL     1     -31.482   8.236   3.508  1.00 20.00     0.011 C 
HETATM    2  C7  UNL     1     -32.454   7.878   2.371  1.00 20.00    -0.010 C 
ENDROOT
BRANCH   2   3
HETATM    3  C6  UNL     1     -33.896   7.705   2.930  1.00 20.00     0.024 C 
BRANCH   3   4
HETATM    4  C8  UNL     1     -34.280   6.295   3.416  1.00 20.00     0.078 C 
HETATM    5  C2  UNL     1     -33.338   5.245   2.834  1.00 20.00     0.026 C 
HETATM    6 CL10 UNL     1     -34.225   6.189   5.201  1.00 20.00    -0.125 Cl
ENDBRANCH   3   4
ENDBRANCH   2   3
BRANCH   2   7
HETATM    7  C9  UNL     1     -32.377   8.887   1.157  1.00 20.00    -0.048 C 
HETATM    8  C3  UNL     1     -33.444   8.601   0.083  1.00 20.00     0.015 C 
HETATM    9  C4  UNL     1     -32.571  10.339   1.652  1.00 20.00     0.015 C 
HETATM   10  C5  UNL     1     -30.988   8.827   0.484  1.00 20.00     0.015 C 
ENDBRANCH   2   7
TORSDOF 3
ENDMDL
MODEL 7
REMARK VINA RESULT:      -4.2      1.798      4.512
REMARK  3 active torsions:
REMARK  status: ('A' for Active; 'I' for Inactive)
REMARK    1  A    between atoms: C6_6  and  C7_7 
REMARK    2  A    between atoms: C6_6  and  C8_8 
REMARK    3  A    between atoms: C7_7  and  C9_9 
ROOT
HETATM    1  C1  UNL     1     -31.485   8.265   3.521  1.00 20.00     0.011 C 
HETATM    2  C7  UNL     1     -32.439   7.884   2.376  1.00 20.00    -0.010 C 
ENDROOT
BRANCH   2   3
HETATM    3  C6  UNL     1     -33.888   7.713   2.917  1.00 20.00     0.024 C 
BRANCH   3   4
HETATM    4  C8  UNL     1     -34.273   6.310   3.420  1.00 20.00     0.078 C 
HETATM    5  C2  UNL     1     -33.327   5.253   2.857  1.00 20.00     0.026 C 
HETATM    6 CL10 UNL     1     -34.228   6.227   5.205  1.00 20.00    -0.125 Cl
ENDBRANCH   3   4
ENDBRANCH   2   3
BRANCH   2   7
HETATM    7  C9  UNL     1     -32.349   8.873   1.147  1.00 20.00    -0.048 C 
HETATM    8  C3  UNL     1     -30.976   8.825   0.450  1.00 20.00     0.015 C 
HETATM    9  C4  UNL     1     -33.432   8.530   0.099  1.00 20.00     0.015 C 
HETATM   10  C5  UNL     1     -32.609  10.328   1.598  1.00 20.00     0.015 C 
ENDBRANCH   2   7
TORSDOF 3
ENDMDL
MODEL 8
REMARK VINA RESULT:      -4.1      1.928      2.798
REMARK  3 active torsions:
REMARK  status: ('A' for Active; 'I' for Inactive)
REMARK    1  A    between atoms: C6_6  and  C7_7 
REMARK    2  A    between atoms: C6_6  and  C8_8 
REMARK    3  A    between atoms: C7_7  and  C9_9 
ROOT
HETATM    1  C1  UNL     1     -31.587   8.061   3.913  1.00 20.00     0.011 C 
HETATM    2  C7  UNL     1     -32.870   7.912   3.078  1.00 20.00    -0.010 C 
ENDROOT
BRANCH   2   3
HETATM    3  C6  UNL     1     -32.553   8.095   1.566  1.00 20.00     0.024 C 
BRANCH   3   4
HETATM    4  C8  UNL     1     -33.165   9.331   0.881  1.00 20.00     0.078 C 
HETATM    5  C2  UNL     1     -32.445  10.605   1.314  1.00 20.00     0.026 C 
HETATM    6 CL10 UNL     1     -33.072   9.196  -0.900  1.00 20.00    -0.125 Cl
ENDBRANCH   3   4
ENDBRANCH   2   3
BRANCH   2   7
HETATM    7  C9  UNL     1     -33.652   6.574   3.389  1.00 20.00    -0.048 C 
HETATM    8  C3  UNL     1     -35.012   6.503   2.669  1.00 20.00     0.015 C 
HETATM    9  C4  UNL     1     -32.814   5.349   2.955  1.00 20.00     0.015 C 
HETATM   10  C5  UNL     1     -33.902   6.428   4.907  1.00 20.00     0.015 C 
ENDBRANCH   2   7
TORSDOF 3
ENDMDL
MODEL 9
REMARK VINA RESULT:      -4.0      1.975      4.091
REMARK  3 active torsions:
REMARK  status: ('A' for Active; 'I' for Inactive)
REMARK    1  A    between atoms: C6_6  and  C7_7 
REMARK    2  A    between atoms: C6_6  and  C8_8 
REMARK    3  A    between atoms: C7_7  and  C9_9 
ROOT
HETATM    1  C1  UNL     1     -32.649   5.766   2.408  1.00 20.00     0.011 C 
HETATM    2  C7  UNL     1     -33.332   7.144   2.391  1.00 20.00    -0.010 C 
ENDROOT
BRANCH   2   3
HETATM    3  C6  UNL     1     -34.199   7.331   3.670  1.00 20.00     0.024 C 
BRANCH   3   4
HETATM    4  C8  UNL     1     -33.775   6.524   4.910  1.00 20.00     0.078 C 
HETATM    5  C2  UNL     1     -33.702   7.421   6.143  1.00 20.00     0.026 C 
HETATM    6 CL10 UNL     1     -34.921   5.191   5.238  1.00 20.00    -0.125 Cl
ENDBRANCH   3   4
ENDBRANCH   2   3
BRANCH   2   7
HETATM    7  C9  UNL     1     -32.315   8.330   2.152  1.00 20.00    -0.048 C 
HETATM    8  C3  UNL     1     -31.496   8.154   0.860  1.00 20.00     0.015 C 
HETATM    9  C4  UNL     1     -33.071   9.676   2.062  1.00 20.00     0.015 C 
HETATM   10  C5  UNL     1     -31.329   8.450   3.335  1.00 20.00     0.015 C 
ENDBRANCH   2   7
TORSDOF 3
ENDMDL
