MODEL 1
REMARK VINA RESULT:      -5.6      0.000      0.000
REMARK  2 active torsions:
REMARK  status: ('A' for Active; 'I' for Inactive)
REMARK    1  A    between atoms: C5_5  and  C7_7 
REMARK    2  A    between atoms: C6_6  and  S11_11 
ROOT
HETATM    1  C1  UNL     1     -32.333   8.529   4.855  1.00 20.00     0.002 C 
HETATM    2  C2  UNL     1     -33.268   7.366   5.171  1.00 20.00     0.013 C 
HETATM    3  C3  UNL     1     -31.330   8.166   3.760  1.00 20.00     0.015 C 
HETATM    4  C4  UNL     1     -32.975   6.484   2.819  1.00 20.00     0.028 C 
HETATM    5  C5  UNL     1     -33.987   6.853   3.917  1.00 20.00     0.094 C 
HETATM    6  C6  UNL     1     -31.986   7.610   2.491  1.00 20.00     0.045 C 
ENDROOT
BRANCH   5   7
HETATM    7  C7  UNL     1     -34.868   5.651   4.258  1.00 20.00     0.391 C 
HETATM    8  F8  UNL     1     -36.086   5.808   3.718  1.00 20.00    -0.171 F 
HETATM    9  F9  UNL     1     -34.318   4.527   3.775  1.00 20.00    -0.171 F 
HETATM   10  F10 UNL     1     -34.994   5.538   5.588  1.00 20.00    -0.171 F 
ENDBRANCH   5   7
BRANCH   6  11
HETATM   11  S11 UNL     1     -32.809   8.943   1.540  1.00 20.00    -0.177 SA
HETATM   12  H22 UNL     1     -33.303   9.576   2.610  1.00 20.00     0.102 HD
ENDBRANCH   6  11
TORSDOF 2
ENDMDL
MODEL 2
REMARK VINA RESULT:      -5.2      3.126      3.962
REMARK  2 active torsions:
REMARK  status: ('A' for Active; 'I' for Inactive)
REMARK    1  A    between atoms: C5_5  and  C7_7 
REMARK    2  A    between atoms: C6_6  and  S11_11 
ROOT
HETATM    1  C1  UNL     1     -33.688   6.750   5.948  1.00 20.00     0.002 C 
HETATM    2  C2  UNL     1     -33.073   7.743   4.967  1.00 20.00     0.013 C 
HETATM    3  C3  UNL     1     -34.959   6.114   5.387  1.00 20.00     0.015 C 
HETATM    4  C4  UNL     1     -34.092   6.470   3.033  1.00 20.00     0.028 C 
HETATM    5  C5  UNL     1     -32.809   7.105   3.597  1.00 20.00     0.094 C 
HETATM    6  C6  UNL     1     -34.769   5.490   3.999  1.00 20.00     0.045 C 
ENDROOT
BRANCH   5   7
HETATM    7  C7  UNL     1     -32.251   8.142   2.621  1.00 20.00     0.391 C 
HETATM    8  F8  UNL     1     -31.633   7.525   1.603  1.00 20.00    -0.171 F 
HETATM    9  F9  UNL     1     -33.248   8.896   2.134  1.00 20.00    -0.171 F 
HETATM   10  F10 UNL     1     -31.371   8.934   3.249  1.00 20.00    -0.171 F 
ENDBRANCH   5   7
BRANCH   6  11
HETATM   11  S11 UNL     1     -33.824   3.924   4.108  1.00 20.00    -0.177 SA
HETATM   12  H22 UNL     1     -32.788   4.448   4.774  1.00 20.00     0.102 HD
ENDBRANCH   6  11
TORSDOF 2
ENDMDL
MODEL 3
REMARK VINA RESULT:      -5.2      3.126      3.951
REMARK  2 active torsions:
REMARK  status: ('A' for Active; 'I' for Inactive)
REMARK    1  A    between atoms: C5_5  and  C7_7 
REMARK    2  A    between atoms: C6_6  and  S11_11 
ROOT
HETATM    1  C1  UNL     1     -33.688   6.749   5.947  1.00 20.00     0.002 C 
HETATM    2  C2  UNL     1     -33.073   7.743   4.966  1.00 20.00     0.013 C 
HETATM    3  C3  UNL     1     -34.959   6.113   5.386  1.00 20.00     0.015 C 
HETATM    4  C4  UNL     1     -34.091   6.469   3.032  1.00 20.00     0.028 C 
HETATM    5  C5  UNL     1     -32.809   7.104   3.596  1.00 20.00     0.094 C 
HETATM    6  C6  UNL     1     -34.769   5.489   3.998  1.00 20.00     0.045 C 
ENDROOT
BRANCH   5   7
HETATM    7  C7  UNL     1     -32.251   8.140   2.620  1.00 20.00     0.391 C 
HETATM    8  F8  UNL     1     -31.372   8.934   3.249  1.00 20.00    -0.171 F 
HETATM    9  F9  UNL     1     -31.632   7.524   1.602  1.00 20.00    -0.171 F 
HETATM   10  F10 UNL     1     -33.247   8.894   2.133  1.00 20.00    -0.171 F 
ENDBRANCH   5   7
BRANCH   6  11
HETATM   11  S11 UNL     1     -33.824   3.923   4.107  1.00 20.00    -0.177 SA
HETATM   12  H22 UNL     1     -33.011   4.334   5.088  1.00 20.00     0.102 HD
ENDBRANCH   6  11
TORSDOF 2
ENDMDL
MODEL 4
REMARK VINA RESULT:      -5.2      3.127      3.954
REMARK  2 active torsions:
REMARK  status: ('A' for Active; 'I' for Inactive)
REMARK    1  A    between atoms: C5_5  and  C7_7 
REMARK    2  A    between atoms: C6_6  and  S11_11 
ROOT
HETATM    1  C1  UNL     1     -33.688   6.749   5.947  1.00 20.00     0.002 C 
HETATM    2  C2  UNL     1     -33.073   7.743   4.966  1.00 20.00     0.013 C 
HETATM    3  C3  UNL     1     -34.959   6.114   5.386  1.00 20.00     0.015 C 
HETATM    4  C4  UNL     1     -34.091   6.470   3.032  1.00 20.00     0.028 C 
HETATM    5  C5  UNL     1     -32.809   7.105   3.596  1.00 20.00     0.094 C 
HETATM    6  C6  UNL     1     -34.768   5.490   3.998  1.00 20.00     0.045 C 
ENDROOT
BRANCH   5   7
HETATM    7  C7  UNL     1     -32.250   8.142   2.621  1.00 20.00     0.391 C 
HETATM    8  F8  UNL     1     -33.247   8.894   2.133  1.00 20.00    -0.171 F 
HETATM    9  F9  UNL     1     -31.371   8.936   3.249  1.00 20.00    -0.171 F 
HETATM   10  F10 UNL     1     -31.632   7.526   1.603  1.00 20.00    -0.171 F 
ENDBRANCH   5   7
BRANCH   6  11
HETATM   11  S11 UNL     1     -33.824   3.924   4.107  1.00 20.00    -0.177 SA
HETATM   12  H22 UNL     1     -32.688   4.491   4.530  1.00 20.00     0.102 HD
ENDBRANCH   6  11
TORSDOF 2
ENDMDL
MODEL 5
REMARK VINA RESULT:      -4.1     11.426     12.380
REMARK  2 active torsions:
REMARK  status: ('A' for Active; 'I' for Inactive)
REMARK    1  A    between atoms: C5_5  and  C7_7 
REMARK    2  A    between atoms: C6_6  and  S11_11 
ROOT
HETATM    1  C1  UNL     1     -33.550  18.170  -4.821  1.00 20.00     0.002 C 
HETATM    2  C2  UNL     1     -33.553  16.695  -5.213  1.00 20.00     0.013 C 
HETATM    3  C3  UNL     1     -34.621  18.479  -3.776  1.00 20.00     0.015 C 
HETATM    4  C4  UNL     1     -34.489  16.090  -2.942  1.00 20.00     0.028 C 
HETATM    5  C5  UNL     1     -33.407  15.779  -3.991  1.00 20.00     0.094 C 
HETATM    6  C6  UNL     1     -34.551  17.570  -2.543  1.00 20.00     0.045 C 
ENDROOT
BRANCH   5   7
HETATM    7  C7  UNL     1     -33.475  14.310  -4.411  1.00 20.00     0.391 C 
HETATM    8  F8  UNL     1     -32.327  13.692  -4.099  1.00 20.00    -0.171 F 
HETATM    9  F9  UNL     1     -34.486  13.698  -3.777  1.00 20.00    -0.171 F 
HETATM   10  F10 UNL     1     -33.672  14.221  -5.734  1.00 20.00    -0.171 F 
ENDBRANCH   5   7
BRANCH   6  11
HETATM   11  S11 UNL     1     -33.131  18.017  -1.476  1.00 20.00    -0.177 SA
HETATM   12  H22 UNL     1     -32.977  16.796  -0.951  1.00 20.00     0.102 HD
ENDBRANCH   6  11
TORSDOF 2
ENDMDL
MODEL 6
REMARK VINA RESULT:      -4.1      3.698      4.441
REMARK  2 active torsions:
REMARK  status: ('A' for Active; 'I' for Inactive)
REMARK    1  A    between atoms: C5_5  and  C7_7 
REMARK    2  A    between atoms: C6_6  and  S11_11 
ROOT
HETATM    1  C1  UNL     1     -31.547   7.998   4.036  1.00 20.00     0.002 C 
HETATM    2  C2  UNL     1     -31.683   8.989   2.883  1.00 20.00     0.013 C 
HETATM    3  C3  UNL     1     -32.907   7.474   4.494  1.00 20.00     0.015 C 
HETATM    4  C4  UNL     1     -33.837   7.870   2.171  1.00 20.00     0.028 C 
HETATM    5  C5  UNL     1     -32.466   8.392   1.707  1.00 20.00     0.094 C 
HETATM    6  C6  UNL     1     -33.755   6.897   3.354  1.00 20.00     0.045 C 
ENDROOT
BRANCH   5   7
HETATM    7  C7  UNL     1     -32.637   9.429   0.596  1.00 20.00     0.391 C 
HETATM    8  F8  UNL     1     -33.346  10.473   1.049  1.00 20.00    -0.171 F 
HETATM    9  F9  UNL     1     -31.437   9.862   0.184  1.00 20.00    -0.171 F 
HETATM   10  F10 UNL     1     -33.284   8.883  -0.444  1.00 20.00    -0.171 F 
ENDBRANCH   5   7
BRANCH   6  11
HETATM   11  S11 UNL     1     -33.112   5.268   2.817  1.00 20.00    -0.177 SA
HETATM   12  H22 UNL     1     -33.558   4.597   3.886  1.00 20.00     0.102 HD
ENDBRANCH   6  11
TORSDOF 2
ENDMDL
MODEL 7
REMARK VINA RESULT:      -4.0     11.786     12.785
REMARK  2 active torsions:
REMARK  status: ('A' for Active; 'I' for Inactive)
REMARK    1  A    between atoms: C5_5  and  C7_7 
REMARK    2  A    between atoms: C6_6  and  S11_11 
ROOT
HETATM    1  C1  UNL     1     -35.926  15.647  -7.210  1.00 20.00     0.002 C 
HETATM    2  C2  UNL     1     -34.571  15.565  -6.515  1.00 20.00     0.013 C 
HETATM    3  C3  UNL     1     -36.742  14.371  -7.009  1.00 20.00     0.015 C 
HETATM    4  C4  UNL     1     -35.531  13.947  -4.824  1.00 20.00     0.028 C 
HETATM    5  C5  UNL     1     -34.713  15.235  -5.023  1.00 20.00     0.094 C 
HETATM    6  C6  UNL     1     -36.889  13.966  -5.537  1.00 20.00     0.045 C 
ENDROOT
BRANCH   5   7
HETATM    7  C7  UNL     1     -33.336  15.100  -4.371  1.00 20.00     0.391 C 
HETATM    8  F8  UNL     1     -33.273  15.869  -3.274  1.00 20.00    -0.171 F 
HETATM    9  F9  UNL     1     -33.116  13.824  -4.022  1.00 20.00    -0.171 F 
HETATM   10  F10 UNL     1     -32.383  15.488  -5.229  1.00 20.00    -0.171 F 
ENDBRANCH   5   7
BRANCH   6  11
HETATM   11  S11 UNL     1     -38.067  15.066  -4.667  1.00 20.00    -0.177 SA
HETATM   12  H22 UNL     1     -38.312  14.218  -3.661  1.00 20.00     0.102 HD
ENDBRANCH   6  11
TORSDOF 2
ENDMDL
MODEL 8
REMARK VINA RESULT:      -4.0     11.574     12.290
REMARK  2 active torsions:
REMARK  status: ('A' for Active; 'I' for Inactive)
REMARK    1  A    between atoms: C5_5  and  C7_7 
REMARK    2  A    between atoms: C6_6  and  S11_11 
ROOT
HETATM    1  C1  UNL     1     -34.104  14.408  -4.990  1.00 20.00     0.002 C 
HETATM    2  C2  UNL     1     -33.771  15.187  -3.721  1.00 20.00     0.013 C 
HETATM    3  C3  UNL     1     -35.541  13.889  -4.975  1.00 20.00     0.015 C 
HETATM    4  C4  UNL     1     -36.210  15.805  -3.457  1.00 20.00     0.028 C 
HETATM    5  C5  UNL     1     -34.764  16.331  -3.477  1.00 20.00     0.094 C 
HETATM    6  C6  UNL     1     -36.581  14.982  -4.697  1.00 20.00     0.045 C 
ENDROOT
BRANCH   5   7
HETATM    7  C7  UNL     1     -34.440  17.052  -2.168  1.00 20.00     0.391 C 
HETATM    8  F8  UNL     1     -34.711  18.359  -2.286  1.00 20.00    -0.171 F 
HETATM    9  F9  UNL     1     -35.175  16.542  -1.169  1.00 20.00    -0.171 F 
HETATM   10  F10 UNL     1     -33.140  16.902  -1.873  1.00 20.00    -0.171 F 
ENDBRANCH   5   7
BRANCH   6  11
HETATM   11  S11 UNL     1     -36.801  16.065  -6.158  1.00 20.00    -0.177 SA
HETATM   12  H22 UNL     1     -36.818  17.210  -5.464  1.00 20.00     0.102 HD
ENDBRANCH   6  11
TORSDOF 2
ENDMDL
MODEL 9
REMARK VINA RESULT:      -3.9     11.913     12.813
REMARK  2 active torsions:
REMARK  status: ('A' for Active; 'I' for Inactive)
REMARK    1  A    between atoms: C5_5  and  C7_7 
REMARK    2  A    between atoms: C6_6  and  S11_11 
ROOT
HETATM    1  C1  UNL     1     -35.169  15.480  -3.573  1.00 20.00     0.002 C 
HETATM    2  C2  UNL     1     -35.366  14.393  -4.626  1.00 20.00     0.013 C 
HETATM    3  C3  UNL     1     -33.740  16.022  -3.580  1.00 20.00     0.015 C 
HETATM    4  C4  UNL     1     -33.528  15.417  -6.031  1.00 20.00     0.028 C 
HETATM    5  C5  UNL     1     -34.968  14.877  -6.027  1.00 20.00     0.094 C 
HETATM    6  C6  UNL     1     -33.270  16.487  -4.963  1.00 20.00     0.045 C 
ENDROOT
BRANCH   5   7
HETATM    7  C7  UNL     1     -35.119  13.747  -7.046  1.00 20.00     0.391 C 
HETATM    8  F8  UNL     1     -33.971  13.580  -7.717  1.00 20.00    -0.171 F 
HETATM    9  F9  UNL     1     -35.429  12.602  -6.419  1.00 20.00    -0.171 F 
HETATM   10  F10 UNL     1     -36.094  14.044  -7.918  1.00 20.00    -0.171 F 
ENDBRANCH   5   7
BRANCH   6  11
HETATM   11  S11 UNL     1     -34.060  18.074  -5.425  1.00 20.00    -0.177 SA
HETATM   12  H22 UNL     1     -34.359  18.437  -4.172  1.00 20.00     0.102 HD
ENDBRANCH   6  11
TORSDOF 2
ENDMDL
