MODEL 1
REMARK VINA RESULT:      -6.3      0.000      0.000
REMARK  1 active torsions:
REMARK  status: ('A' for Active; 'I' for Inactive)
REMARK    1  A    between atoms: C7_7  and  C8_8 
ROOT
HETATM    1  C1  UNL     1     -32.059   8.341   1.638  1.00 20.00     0.064 C 
HETATM    2  C2  UNL     1     -32.590   8.196   5.429  1.00 20.00     0.002 C 
HETATM    3  C3  UNL     1     -31.845   8.324   4.099  1.00 20.00     0.019 C 
HETATM    4  C4  UNL     1     -33.771   7.222   5.380  1.00 20.00     0.013 C 
HETATM    5  C5  UNL     1     -33.418   6.719   2.924  1.00 20.00     0.032 C 
HETATM    6  C6  UNL     1     -32.777   8.119   2.904  1.00 20.00     0.093 C 
HETATM    7  C7  UNL     1     -33.556   6.123   4.338  1.00 20.00     0.095 C 
HETATM    8  N9  UNL     1     -31.493   8.516   0.639  1.00 20.00    -0.197 NA
ENDROOT
BRANCH   7   9
HETATM    9  C8  UNL     1     -34.681   5.090   4.383  1.00 20.00     0.391 C 
HETATM   10  F10 UNL     1     -35.751   5.554   3.722  1.00 20.00    -0.171 F 
HETATM   11  F11 UNL     1     -34.273   3.948   3.812  1.00 20.00    -0.171 F 
HETATM   12  F12 UNL     1     -35.025   4.846   5.656  1.00 20.00    -0.171 F 
ENDBRANCH   7   9
TORSDOF 1
ENDMDL
MODEL 2
REMARK VINA RESULT:      -5.6      3.790      4.812
REMARK  1 active torsions:
REMARK  status: ('A' for Active; 'I' for Inactive)
REMARK    1  A    between atoms: C7_7  and  C8_8 
ROOT
HETATM    1  C1  UNL     1     -34.430   6.070   3.674  1.00 20.00     0.064 C 
HETATM    2  C2  UNL     1     -31.413   8.396   4.083  1.00 20.00     0.002 C 
HETATM    3  C3  UNL     1     -32.732   7.699   4.425  1.00 20.00     0.019 C 
HETATM    4  C4  UNL     1     -31.243   8.688   2.590  1.00 20.00     0.013 C 
HETATM    5  C5  UNL     1     -33.454   7.608   1.996  1.00 20.00     0.032 C 
HETATM    6  C6  UNL     1     -33.212   6.801   3.285  1.00 20.00     0.093 C 
HETATM    7  C7  UNL     1     -32.590   8.880   1.892  1.00 20.00     0.095 C 
HETATM    8  N9  UNL     1     -35.389   5.493   3.979  1.00 20.00    -0.197 NA
ENDROOT
BRANCH   7   9
HETATM    9  C8  UNL     1     -32.405   9.291   0.432  1.00 20.00     0.391 C 
HETATM   10  F10 UNL     1     -32.335  10.627   0.341  1.00 20.00    -0.171 F 
HETATM   11  F11 UNL     1     -31.274   8.759  -0.051  1.00 20.00    -0.171 F 
HETATM   12  F12 UNL     1     -33.442   8.856  -0.299  1.00 20.00    -0.171 F 
ENDBRANCH   7   9
TORSDOF 1
ENDMDL
MODEL 3
REMARK VINA RESULT:      -5.5      3.771      4.841
REMARK  1 active torsions:
REMARK  status: ('A' for Active; 'I' for Inactive)
REMARK    1  A    between atoms: C7_7  and  C8_8 
ROOT
HETATM    1  C1  UNL     1     -34.412   6.042   3.703  1.00 20.00     0.064 C 
HETATM    2  C2  UNL     1     -31.442   8.429   4.106  1.00 20.00     0.002 C 
HETATM    3  C3  UNL     1     -32.750   7.712   4.447  1.00 20.00     0.019 C 
HETATM    4  C4  UNL     1     -31.266   8.706   2.610  1.00 20.00     0.013 C 
HETATM    5  C5  UNL     1     -33.453   7.578   2.014  1.00 20.00     0.032 C 
HETATM    6  C6  UNL     1     -33.205   6.791   3.314  1.00 20.00     0.093 C 
HETATM    7  C7  UNL     1     -32.612   8.865   1.901  1.00 20.00     0.095 C 
HETATM    8  N9  UNL     1     -35.362   5.451   4.009  1.00 20.00    -0.197 NA
ENDROOT
BRANCH   7   9
HETATM    9  C8  UNL     1     -32.423   9.261   0.438  1.00 20.00     0.391 C 
HETATM   10  F10 UNL     1     -31.268   8.762  -0.024  1.00 20.00    -0.171 F 
HETATM   11  F11 UNL     1     -33.435   8.781  -0.299  1.00 20.00    -0.171 F 
HETATM   12  F12 UNL     1     -32.397  10.598   0.328  1.00 20.00    -0.171 F 
ENDBRANCH   7   9
TORSDOF 1
ENDMDL
MODEL 4
REMARK VINA RESULT:      -5.5      3.770      4.839
REMARK  1 active torsions:
REMARK  status: ('A' for Active; 'I' for Inactive)
REMARK    1  A    between atoms: C7_7  and  C8_8 
ROOT
HETATM    1  C1  UNL     1     -34.411   6.043   3.703  1.00 20.00     0.064 C 
HETATM    2  C2  UNL     1     -31.442   8.429   4.105  1.00 20.00     0.002 C 
HETATM    3  C3  UNL     1     -32.750   7.712   4.447  1.00 20.00     0.019 C 
HETATM    4  C4  UNL     1     -31.266   8.706   2.610  1.00 20.00     0.013 C 
HETATM    5  C5  UNL     1     -33.452   7.578   2.014  1.00 20.00     0.032 C 
HETATM    6  C6  UNL     1     -33.204   6.792   3.314  1.00 20.00     0.093 C 
HETATM    7  C7  UNL     1     -32.612   8.865   1.900  1.00 20.00     0.095 C 
HETATM    8  N9  UNL     1     -35.362   5.452   4.009  1.00 20.00    -0.197 NA
ENDROOT
BRANCH   7   9
HETATM    9  C8  UNL     1     -32.423   9.262   0.437  1.00 20.00     0.391 C 
HETATM   10  F10 UNL     1     -33.434   8.779  -0.299  1.00 20.00    -0.171 F 
HETATM   11  F11 UNL     1     -32.399  10.597   0.327  1.00 20.00    -0.171 F 
HETATM   12  F12 UNL     1     -31.268   8.762  -0.025  1.00 20.00    -0.171 F 
ENDBRANCH   7   9
TORSDOF 1
ENDMDL
MODEL 5
REMARK VINA RESULT:      -5.0     11.634     12.723
REMARK  1 active torsions:
REMARK  status: ('A' for Active; 'I' for Inactive)
REMARK    1  A    between atoms: C7_7  and  C8_8 
ROOT
HETATM    1  C1  UNL     1     -35.549  13.906  -5.077  1.00 20.00     0.064 C 
HETATM    2  C2  UNL     1     -33.528  17.082  -5.788  1.00 20.00     0.002 C 
HETATM    3  C3  UNL     1     -33.936  15.609  -5.853  1.00 20.00     0.019 C 
HETATM    4  C4  UNL     1     -33.773  17.727  -4.421  1.00 20.00     0.013 C 
HETATM    5  C5  UNL     1     -34.767  15.608  -3.457  1.00 20.00     0.032 C 
HETATM    6  C6  UNL     1     -35.113  15.305  -4.927  1.00 20.00     0.093 C 
HETATM    7  C7  UNL     1     -33.695  16.703  -3.288  1.00 20.00     0.095 C 
HETATM    8  N9  UNL     1     -35.892  12.804  -5.196  1.00 20.00    -0.197 NA
ENDROOT
BRANCH   7   9
HETATM    9  C8  UNL     1     -33.819  17.376  -1.923  1.00 20.00     0.391 C 
HETATM   10  F10 UNL     1     -32.608  17.487  -1.359  1.00 20.00    -0.171 F 
HETATM   11  F11 UNL     1     -34.352  18.598  -2.064  1.00 20.00    -0.171 F 
HETATM   12  F12 UNL     1     -34.608  16.643  -1.123  1.00 20.00    -0.171 F 
ENDBRANCH   7   9
TORSDOF 1
ENDMDL
MODEL 6
REMARK VINA RESULT:      -5.0     11.618     12.694
REMARK  1 active torsions:
REMARK  status: ('A' for Active; 'I' for Inactive)
REMARK    1  A    between atoms: C7_7  and  C8_8 
ROOT
HETATM    1  C1  UNL     1     -35.554  13.893  -5.051  1.00 20.00     0.064 C 
HETATM    2  C2  UNL     1     -33.591  17.102  -5.781  1.00 20.00     0.002 C 
HETATM    3  C3  UNL     1     -33.980  15.623  -5.846  1.00 20.00     0.019 C 
HETATM    4  C4  UNL     1     -33.821  17.736  -4.406  1.00 20.00     0.013 C 
HETATM    5  C5  UNL     1     -34.767  15.598  -3.436  1.00 20.00     0.032 C 
HETATM    6  C6  UNL     1     -35.136  15.298  -4.901  1.00 20.00     0.093 C 
HETATM    7  C7  UNL     1     -33.708  16.707  -3.280  1.00 20.00     0.095 C 
HETATM    8  N9  UNL     1     -35.883  12.787  -5.169  1.00 20.00    -0.197 NA
ENDROOT
BRANCH   7   9
HETATM    9  C8  UNL     1     -33.817  17.371  -1.909  1.00 20.00     0.391 C 
HETATM   10  F10 UNL     1     -34.322  18.606  -2.041  1.00 20.00    -0.171 F 
HETATM   11  F11 UNL     1     -34.621  16.651  -1.116  1.00 20.00    -0.171 F 
HETATM   12  F12 UNL     1     -32.603  17.453  -1.345  1.00 20.00    -0.171 F 
ENDBRANCH   7   9
TORSDOF 1
ENDMDL
MODEL 7
REMARK VINA RESULT:      -5.0     11.620     12.320
REMARK  1 active torsions:
REMARK  status: ('A' for Active; 'I' for Inactive)
REMARK    1  A    between atoms: C7_7  and  C8_8 
ROOT
HETATM    1  C1  UNL     1     -37.210  14.509  -4.870  1.00 20.00     0.064 C 
HETATM    2  C2  UNL     1     -33.405  14.747  -4.493  1.00 20.00     0.002 C 
HETATM    3  C3  UNL     1     -34.785  14.102  -4.643  1.00 20.00     0.019 C 
HETATM    4  C4  UNL     1     -33.416  16.030  -3.656  1.00 20.00     0.013 C 
HETATM    5  C5  UNL     1     -35.921  15.934  -3.308  1.00 20.00     0.032 C 
HETATM    6  C6  UNL     1     -35.903  15.144  -4.629  1.00 20.00     0.093 C 
HETATM    7  C7  UNL     1     -34.544  16.024  -2.623  1.00 20.00     0.095 C 
HETATM    8  N9  UNL     1     -38.241  14.010  -5.060  1.00 20.00    -0.197 NA
ENDROOT
BRANCH   7   9
HETATM    9  C8  UNL     1     -34.469  17.250  -1.715  1.00 20.00     0.391 C 
HETATM   10  F10 UNL     1     -35.182  17.034  -0.600  1.00 20.00    -0.171 F 
HETATM   11  F11 UNL     1     -33.194  17.493  -1.380  1.00 20.00    -0.171 F 
HETATM   12  F12 UNL     1     -34.967  18.320  -2.351  1.00 20.00    -0.171 F 
ENDBRANCH   7   9
TORSDOF 1
ENDMDL
MODEL 8
REMARK VINA RESULT:      -5.0     11.547     12.186
REMARK  1 active torsions:
REMARK  status: ('A' for Active; 'I' for Inactive)
REMARK    1  A    between atoms: C7_7  and  C8_8 
ROOT
HETATM    1  C1  UNL     1     -32.172  18.335  -0.542  1.00 20.00     0.064 C 
HETATM    2  C2  UNL     1     -35.935  17.649  -0.760  1.00 20.00     0.002 C 
HETATM    3  C3  UNL     1     -34.542  17.772  -0.136  1.00 20.00     0.019 C 
HETATM    4  C4  UNL     1     -35.916  17.161  -2.211  1.00 20.00     0.013 C 
HETATM    5  C5  UNL     1     -33.388  17.052  -2.276  1.00 20.00     0.032 C 
HETATM    6  C6  UNL     1     -33.483  18.129  -1.179  1.00 20.00     0.093 C 
HETATM    7  C7  UNL     1     -34.701  16.276  -2.497  1.00 20.00     0.095 C 
HETATM    8  N9  UNL     1     -31.138  18.498  -0.040  1.00 20.00    -0.197 NA
ENDROOT
BRANCH   7   9
HETATM    9  C8  UNL     1     -34.757  15.697  -3.909  1.00 20.00     0.391 C 
HETATM   10  F10 UNL     1     -35.823  16.185  -4.559  1.00 20.00    -0.171 F 
HETATM   11  F11 UNL     1     -33.645  16.025  -4.581  1.00 20.00    -0.171 F 
HETATM   12  F12 UNL     1     -34.855  14.361  -3.849  1.00 20.00    -0.171 F 
ENDBRANCH   7   9
TORSDOF 1
ENDMDL
MODEL 9
REMARK VINA RESULT:      -5.0      1.596      2.632
REMARK  1 active torsions:
REMARK  status: ('A' for Active; 'I' for Inactive)
REMARK    1  A    between atoms: C7_7  and  C8_8 
ROOT
HETATM    1  C1  UNL     1     -32.393   8.437   2.133  1.00 20.00     0.064 C 
HETATM    2  C2  UNL     1     -33.483   4.768   2.301  1.00 20.00     0.002 C 
HETATM    3  C3  UNL     1     -33.344   6.190   1.751  1.00 20.00     0.019 C 
HETATM    4  C4  UNL     1     -33.576   4.707   3.828  1.00 20.00     0.013 C 
HETATM    5  C5  UNL     1     -33.335   7.216   4.070  1.00 20.00     0.032 C 
HETATM    6  C6  UNL     1     -32.598   7.103   2.723  1.00 20.00     0.093 C 
HETATM    7  C7  UNL     1     -34.192   5.981   4.410  1.00 20.00     0.095 C 
HETATM    8  N9  UNL     1     -32.232   9.488   1.668  1.00 20.00    -0.197 NA
ENDROOT
BRANCH   7   9
HETATM    9  C8  UNL     1     -34.393   5.860   5.919  1.00 20.00     0.391 C 
HETATM   10  F10 UNL     1     -33.456   5.055   6.440  1.00 20.00    -0.171 F 
HETATM   11  F11 UNL     1     -34.300   7.069   6.490  1.00 20.00    -0.171 F 
HETATM   12  F12 UNL     1     -35.604   5.345   6.178  1.00 20.00    -0.171 F 
ENDBRANCH   7   9
TORSDOF 1
ENDMDL
