MODEL 1
REMARK VINA RESULT:      -6.1      0.000      0.000
REMARK  4 active torsions:
REMARK  status: ('A' for Active; 'I' for Inactive)
REMARK    1  A    between atoms: C2_2  and  C7_7 
REMARK    2  A    between atoms: C3_3  and  C8_8 
REMARK    3  A    between atoms: C7_7  and  C9_9 
REMARK    4  A    between atoms: C8_8  and  C9_9 
ROOT
HETATM    1  C1  UNL     1     -32.538   9.018   1.476  1.00 20.00    -0.111 C 
HETATM    2  C2  UNL     1     -32.541   8.300   2.438  1.00 20.00    -0.107 C 
HETATM    3  C4  UNL     1     -32.536   9.894   0.305  1.00 20.00     0.112 C 
ENDROOT
BRANCH   2   4
HETATM    4  C7  UNL     1     -32.542   7.418   3.614  1.00 20.00     0.098 C 
BRANCH   4   5
HETATM    5  C9  UNL     1     -33.922   7.285   4.290  1.00 20.00    -0.001 C 
HETATM    6  C6  UNL     1     -33.789   7.113   5.808  1.00 20.00     0.011 C 
BRANCH   5   7
HETATM    7  C8  UNL     1     -34.753   6.149   3.668  1.00 20.00     0.083 C 
BRANCH   7   8
HETATM    8  C3  UNL     1     -34.061   4.793   3.695  1.00 20.00     0.123 C 
HETATM    9  C5  UNL     1     -33.027   4.555   2.625  1.00 20.00     0.091 C 
HETATM   10  O10 UNL     1     -34.335   3.917   4.514  1.00 20.00    -0.298 OA
ENDBRANCH   7   8
ENDBRANCH   5   7
ENDBRANCH   4   5
ENDBRANCH   2   4
TORSDOF 4
ENDMDL
MODEL 2
REMARK VINA RESULT:      -5.7      1.584      2.351
REMARK  4 active torsions:
REMARK  status: ('A' for Active; 'I' for Inactive)
REMARK    1  A    between atoms: C2_2  and  C7_7 
REMARK    2  A    between atoms: C3_3  and  C8_8 
REMARK    3  A    between atoms: C7_7  and  C9_9 
REMARK    4  A    between atoms: C8_8  and  C9_9 
ROOT
HETATM    1  C1  UNL     1     -32.644   9.117   0.757  1.00 20.00    -0.111 C 
HETATM    2  C2  UNL     1     -32.288   8.586   1.773  1.00 20.00    -0.107 C 
HETATM    3  C4  UNL     1     -33.076   9.762  -0.482  1.00 20.00     0.112 C 
ENDROOT
BRANCH   2   4
HETATM    4  C7  UNL     1     -31.854   7.940   3.020  1.00 20.00     0.098 C 
BRANCH   4   5
HETATM    5  C9  UNL     1     -32.707   6.718   3.417  1.00 20.00    -0.001 C 
HETATM    6  C6  UNL     1     -32.952   5.792   2.219  1.00 20.00     0.011 C 
BRANCH   5   7
HETATM    7  C8  UNL     1     -34.031   7.139   4.080  1.00 20.00     0.083 C 
BRANCH   7   8
HETATM    8  C3  UNL     1     -34.234   6.558   5.472  1.00 20.00     0.123 C 
HETATM    9  C5  UNL     1     -34.639   5.108   5.532  1.00 20.00     0.091 C 
HETATM   10  O10 UNL     1     -34.111   7.223   6.500  1.00 20.00    -0.298 OA
ENDBRANCH   7   8
ENDBRANCH   5   7
ENDBRANCH   4   5
ENDBRANCH   2   4
TORSDOF 4
ENDMDL
MODEL 3
REMARK VINA RESULT:      -5.7      2.723      5.019
REMARK  4 active torsions:
REMARK  status: ('A' for Active; 'I' for Inactive)
REMARK    1  A    between atoms: C2_2  and  C7_7 
REMARK    2  A    between atoms: C3_3  and  C8_8 
REMARK    3  A    between atoms: C7_7  and  C9_9 
REMARK    4  A    between atoms: C8_8  and  C9_9 
ROOT
HETATM    1  C1  UNL     1     -34.243   5.913   4.468  1.00 20.00    -0.111 C 
HETATM    2  C2  UNL     1     -33.894   6.650   3.587  1.00 20.00    -0.107 C 
HETATM    3  C4  UNL     1     -34.669   5.013   5.539  1.00 20.00     0.112 C 
ENDROOT
BRANCH   2   4
HETATM    4  C7  UNL     1     -33.466   7.556   2.512  1.00 20.00     0.098 C 
BRANCH   4   5
HETATM    5  C9  UNL     1     -31.941   7.778   2.456  1.00 20.00    -0.001 C 
HETATM    6  C6  UNL     1     -31.425   8.450   3.735  1.00 20.00     0.011 C 
BRANCH   5   7
HETATM    7  C8  UNL     1     -31.525   8.566   1.201  1.00 20.00     0.083 C 
BRANCH   7   8
HETATM    8  C3  UNL     1     -32.525   9.636   0.787  1.00 20.00     0.123 C 
HETATM    9  C5  UNL     1     -33.234   9.410  -0.524  1.00 20.00     0.091 C 
HETATM   10  O10 UNL     1     -32.735  10.650   1.452  1.00 20.00    -0.298 OA
ENDBRANCH   7   8
ENDBRANCH   5   7
ENDBRANCH   4   5
ENDBRANCH   2   4
TORSDOF 4
ENDMDL
MODEL 4
REMARK VINA RESULT:      -5.0      2.775      5.156
REMARK  4 active torsions:
REMARK  status: ('A' for Active; 'I' for Inactive)
REMARK    1  A    between atoms: C2_2  and  C7_7 
REMARK    2  A    between atoms: C3_3  and  C8_8 
REMARK    3  A    between atoms: C7_7  and  C9_9 
REMARK    4  A    between atoms: C8_8  and  C9_9 
ROOT
HETATM    1  C1  UNL     1     -34.160   6.061   5.473  1.00 20.00    -0.111 C 
HETATM    2  C2  UNL     1     -33.578   6.906   4.849  1.00 20.00    -0.107 C 
HETATM    3  C4  UNL     1     -34.868   5.035   6.235  1.00 20.00     0.112 C 
ENDROOT
BRANCH   2   4
HETATM    4  C7  UNL     1     -32.866   7.937   4.080  1.00 20.00     0.098 C 
BRANCH   4   5
HETATM    5  C9  UNL     1     -32.995   7.775   2.552  1.00 20.00    -0.001 C 
HETATM    6  C6  UNL     1     -32.941   6.299   2.139  1.00 20.00     0.011 C 
BRANCH   5   7
HETATM    7  C8  UNL     1     -31.942   8.608   1.800  1.00 20.00     0.083 C 
BRANCH   7   8
HETATM    8  C3  UNL     1     -32.530   9.746   0.978  1.00 20.00     0.123 C 
HETATM    9  C5  UNL     1     -33.035   9.381  -0.394  1.00 20.00     0.091 C 
HETATM   10  O10 UNL     1     -32.573  10.909   1.378  1.00 20.00    -0.298 OA
ENDBRANCH   7   8
ENDBRANCH   5   7
ENDBRANCH   4   5
ENDBRANCH   2   4
TORSDOF 4
ENDMDL
MODEL 5
REMARK VINA RESULT:      -4.6     10.742     11.497
REMARK  4 active torsions:
REMARK  status: ('A' for Active; 'I' for Inactive)
REMARK    1  A    between atoms: C2_2  and  C7_7 
REMARK    2  A    between atoms: C3_3  and  C8_8 
REMARK    3  A    between atoms: C7_7  and  C9_9 
REMARK    4  A    between atoms: C8_8  and  C9_9 
ROOT
HETATM    1  C1  UNL     1     -34.837  17.004  -1.460  1.00 20.00    -0.111 C 
HETATM    2  C2  UNL     1     -34.308  16.708  -2.496  1.00 20.00    -0.107 C 
HETATM    3  C4  UNL     1     -35.479  17.366  -0.197  1.00 20.00     0.112 C 
ENDROOT
BRANCH   2   4
HETATM    4  C7  UNL     1     -33.664  16.343  -3.766  1.00 20.00     0.098 C 
BRANCH   4   5
HETATM    5  C9  UNL     1     -33.823  14.855  -4.139  1.00 20.00    -0.001 C 
HETATM    6  C6  UNL     1     -32.462  14.164  -4.287  1.00 20.00     0.011 C 
BRANCH   5   7
HETATM    7  C8  UNL     1     -34.686  14.673  -5.401  1.00 20.00     0.083 C 
BRANCH   7   8
HETATM    8  C3  UNL     1     -35.919  13.808  -5.185  1.00 20.00     0.123 C 
HETATM    9  C5  UNL     1     -37.190  14.541  -4.841  1.00 20.00     0.091 C 
HETATM   10  O10 UNL     1     -35.897  12.580  -5.253  1.00 20.00    -0.298 OA
ENDBRANCH   7   8
ENDBRANCH   5   7
ENDBRANCH   4   5
ENDBRANCH   2   4
TORSDOF 4
ENDMDL
MODEL 6
REMARK VINA RESULT:      -4.6     10.758     11.524
REMARK  4 active torsions:
REMARK  status: ('A' for Active; 'I' for Inactive)
REMARK    1  A    between atoms: C2_2  and  C7_7 
REMARK    2  A    between atoms: C3_3  and  C8_8 
REMARK    3  A    between atoms: C7_7  and  C9_9 
REMARK    4  A    between atoms: C8_8  and  C9_9 
ROOT
HETATM    1  C1  UNL     1     -35.057  17.220  -0.723  1.00 20.00    -0.111 C 
HETATM    2  C2  UNL     1     -34.510  16.882  -1.737  1.00 20.00    -0.107 C 
HETATM    3  C4  UNL     1     -35.725  17.634   0.511  1.00 20.00     0.112 C 
ENDROOT
BRANCH   2   4
HETATM    4  C7  UNL     1     -33.839  16.464  -2.976  1.00 20.00     0.098 C 
BRANCH   4   5
HETATM    5  C9  UNL     1     -34.773  15.761  -3.982  1.00 20.00    -0.001 C 
HETATM    6  C6  UNL     1     -36.248  15.951  -3.606  1.00 20.00     0.011 C 
BRANCH   5   7
HETATM    7  C8  UNL     1     -34.422  14.270  -4.139  1.00 20.00     0.083 C 
BRANCH   7   8
HETATM    8  C3  UNL     1     -35.070  13.609  -5.347  1.00 20.00     0.123 C 
HETATM    9  C5  UNL     1     -34.598  14.086  -6.696  1.00 20.00     0.091 C 
HETATM   10  O10 UNL     1     -35.951  12.755  -5.251  1.00 20.00    -0.298 OA
ENDBRANCH   7   8
ENDBRANCH   5   7
ENDBRANCH   4   5
ENDBRANCH   2   4
TORSDOF 4
ENDMDL
MODEL 7
REMARK VINA RESULT:      -4.5     11.257     12.058
REMARK  4 active torsions:
REMARK  status: ('A' for Active; 'I' for Inactive)
REMARK    1  A    between atoms: C2_2  and  C7_7 
REMARK    2  A    between atoms: C3_3  and  C8_8 
REMARK    3  A    between atoms: C7_7  and  C9_9 
REMARK    4  A    between atoms: C8_8  and  C9_9 
ROOT
HETATM    1  C1  UNL     1     -34.643  16.558  -2.151  1.00 20.00    -0.111 C 
HETATM    2  C2  UNL     1     -34.081  16.018  -3.065  1.00 20.00    -0.107 C 
HETATM    3  C4  UNL     1     -35.326  17.219  -1.040  1.00 20.00     0.112 C 
ENDROOT
BRANCH   2   4
HETATM    4  C7  UNL     1     -33.395  15.353  -4.182  1.00 20.00     0.098 C 
BRANCH   4   5
HETATM    5  C9  UNL     1     -34.012  15.660  -5.561  1.00 20.00    -0.001 C 
HETATM    6  C6  UNL     1     -33.967  17.160  -5.875  1.00 20.00     0.011 C 
BRANCH   5   7
HETATM    7  C8  UNL     1     -35.442  15.104  -5.681  1.00 20.00     0.083 C 
BRANCH   7   8
HETATM    8  C3  UNL     1     -35.500  13.613  -5.986  1.00 20.00     0.123 C 
HETATM    9  C5  UNL     1     -34.983  13.193  -7.337  1.00 20.00     0.091 C 
HETATM   10  O10 UNL     1     -35.966  12.787  -5.202  1.00 20.00    -0.298 OA
ENDBRANCH   7   8
ENDBRANCH   5   7
ENDBRANCH   4   5
ENDBRANCH   2   4
TORSDOF 4
ENDMDL
MODEL 8
REMARK VINA RESULT:      -4.4     11.156     12.099
REMARK  4 active torsions:
REMARK  status: ('A' for Active; 'I' for Inactive)
REMARK    1  A    between atoms: C2_2  and  C7_7 
REMARK    2  A    between atoms: C3_3  and  C8_8 
REMARK    3  A    between atoms: C7_7  and  C9_9 
REMARK    4  A    between atoms: C8_8  and  C9_9 
ROOT
HETATM    1  C1  UNL     1     -34.230  15.426  -3.587  1.00 20.00    -0.111 C 
HETATM    2  C2  UNL     1     -33.912  16.433  -3.014  1.00 20.00    -0.107 C 
HETATM    3  C4  UNL     1     -34.619  14.202  -4.284  1.00 20.00     0.112 C 
ENDROOT
BRANCH   2   4
HETATM    4  C7  UNL     1     -33.519  17.664  -2.313  1.00 20.00     0.098 C 
BRANCH   4   5
HETATM    5  C9  UNL     1     -33.822  17.642  -0.801  1.00 20.00    -0.001 C 
HETATM    6  C6  UNL     1     -35.319  17.448  -0.532  1.00 20.00     0.011 C 
BRANCH   5   7
HETATM    7  C8  UNL     1     -33.283  18.899  -0.095  1.00 20.00     0.083 C 
BRANCH   7   8
HETATM    8  C3  UNL     1     -31.992  18.666   0.678  1.00 20.00     0.123 C 
HETATM    9  C5  UNL     1     -32.111  18.662   2.180  1.00 20.00     0.091 C 
HETATM   10  O10 UNL     1     -30.901  18.517   0.130  1.00 20.00    -0.298 OA
ENDBRANCH   7   8
ENDBRANCH   5   7
ENDBRANCH   4   5
ENDBRANCH   2   4
TORSDOF 4
ENDMDL
MODEL 9
REMARK VINA RESULT:      -4.3     11.305     11.963
REMARK  4 active torsions:
REMARK  status: ('A' for Active; 'I' for Inactive)
REMARK    1  A    between atoms: C2_2  and  C7_7 
REMARK    2  A    between atoms: C3_3  and  C8_8 
REMARK    3  A    between atoms: C7_7  and  C9_9 
REMARK    4  A    between atoms: C8_8  and  C9_9 
ROOT
HETATM    1  C1  UNL     1     -34.080  16.577  -2.522  1.00 20.00    -0.111 C 
HETATM    2  C2  UNL     1     -33.628  15.887  -3.395  1.00 20.00    -0.107 C 
HETATM    3  C4  UNL     1     -34.629  17.416  -1.457  1.00 20.00     0.112 C 
ENDROOT
BRANCH   2   4
HETATM    4  C7  UNL     1     -33.076  15.046  -4.466  1.00 20.00     0.098 C 
BRANCH   4   5
HETATM    5  C9  UNL     1     -34.055  14.805  -5.633  1.00 20.00    -0.001 C 
HETATM    6  C6  UNL     1     -33.624  15.565  -6.893  1.00 20.00     0.011 C 
BRANCH   5   7
HETATM    7  C8  UNL     1     -35.504  15.144  -5.240  1.00 20.00     0.083 C 
BRANCH   7   8
HETATM    8  C3  UNL     1     -36.443  13.947  -5.257  1.00 20.00     0.123 C 
HETATM    9  C5  UNL     1     -37.917  14.260  -5.264  1.00 20.00     0.091 C 
HETATM   10  O10 UNL     1     -36.045  12.783  -5.234  1.00 20.00    -0.298 OA
ENDBRANCH   7   8
ENDBRANCH   5   7
ENDBRANCH   4   5
ENDBRANCH   2   4
TORSDOF 4
ENDMDL
