MODEL 1
REMARK VINA RESULT:      -5.8      0.000      0.000
REMARK  1 active torsions:
REMARK  status: ('A' for Active; 'I' for Inactive)
REMARK    1  A    between atoms: C7_7  and  C8_8 
ROOT
HETATM    1  C1  UNL     1     -34.347   4.368   4.604  1.00 20.00     0.064 C 
HETATM    2  C2  UNL     1     -34.263   6.676   5.510  1.00 20.00     0.020 C 
HETATM    3  C3  UNL     1     -35.281   6.215   3.238  1.00 20.00     0.020 C 
HETATM    4  C4  UNL     1     -32.988   7.183   4.833  1.00 20.00     0.015 C 
HETATM    5  C5  UNL     1     -34.004   6.724   2.566  1.00 20.00     0.015 C 
HETATM    6  C6  UNL     1     -35.039   5.671   4.651  1.00 20.00     0.093 C 
HETATM    7  C7  UNL     1     -33.273   7.753   3.438  1.00 20.00     0.093 C 
HETATM    8  N9  UNL     1     -33.802   3.344   4.567  1.00 20.00    -0.197 NA
ENDROOT
BRANCH   7   9
HETATM    9  C8  UNL     1     -31.980   8.207   2.765  1.00 20.00     0.391 C 
HETATM   10  F10 UNL     1     -32.148   9.421   2.219  1.00 20.00    -0.171 F 
HETATM   11  F11 UNL     1     -30.990   8.271   3.668  1.00 20.00    -0.171 F 
HETATM   12  F12 UNL     1     -31.635   7.341   1.801  1.00 20.00    -0.171 F 
ENDBRANCH   7   9
TORSDOF 1
ENDMDL
MODEL 2
REMARK VINA RESULT:      -5.4      3.410      4.461
REMARK  1 active torsions:
REMARK  status: ('A' for Active; 'I' for Inactive)
REMARK    1  A    between atoms: C7_7  and  C8_8 
ROOT
HETATM    1  C1  UNL     1     -32.706   9.183   1.904  1.00 20.00     0.064 C 
HETATM    2  C2  UNL     1     -31.893   8.115   3.989  1.00 20.00     0.020 C 
HETATM    3  C3  UNL     1     -32.209   6.753   1.878  1.00 20.00     0.020 C 
HETATM    4  C4  UNL     1     -33.211   7.564   4.539  1.00 20.00     0.015 C 
HETATM    5  C5  UNL     1     -33.526   6.205   2.433  1.00 20.00     0.015 C 
HETATM    6  C6  UNL     1     -31.839   8.124   2.457  1.00 20.00     0.093 C 
HETATM    7  C7  UNL     1     -33.529   6.177   3.966  1.00 20.00     0.093 C 
HETATM    8  N9  UNL     1     -33.387  10.015   1.469  1.00 20.00    -0.197 NA
ENDROOT
BRANCH   7   9
HETATM    9  C8  UNL     1     -34.870   5.671   4.493  1.00 20.00     0.391 C 
HETATM   10  F10 UNL     1     -34.881   4.329   4.505  1.00 20.00    -0.171 F 
HETATM   11  F11 UNL     1     -35.073   6.118   5.741  1.00 20.00    -0.171 F 
HETATM   12  F12 UNL     1     -35.865   6.106   3.707  1.00 20.00    -0.171 F 
ENDBRANCH   7   9
TORSDOF 1
ENDMDL
MODEL 3
REMARK VINA RESULT:      -5.4      3.422      4.461
REMARK  1 active torsions:
REMARK  status: ('A' for Active; 'I' for Inactive)
REMARK    1  A    between atoms: C7_7  and  C8_8 
ROOT
HETATM    1  C1  UNL     1     -32.731   9.147   1.913  1.00 20.00     0.064 C 
HETATM    2  C2  UNL     1     -31.959   8.112   4.030  1.00 20.00     0.020 C 
HETATM    3  C3  UNL     1     -32.202   6.724   1.928  1.00 20.00     0.020 C 
HETATM    4  C4  UNL     1     -33.283   7.550   4.552  1.00 20.00     0.015 C 
HETATM    5  C5  UNL     1     -33.526   6.164   2.454  1.00 20.00     0.015 C 
HETATM    6  C6  UNL     1     -31.866   8.105   2.500  1.00 20.00     0.093 C 
HETATM    7  C7  UNL     1     -33.569   6.153   3.988  1.00 20.00     0.093 C 
HETATM    8  N9  UNL     1     -33.411   9.965   1.451  1.00 20.00    -0.197 NA
ENDROOT
BRANCH   7   9
HETATM    9  C8  UNL     1     -34.917   5.635   4.485  1.00 20.00     0.391 C 
HETATM   10  F10 UNL     1     -35.900   6.070   3.682  1.00 20.00    -0.171 F 
HETATM   11  F11 UNL     1     -34.921   4.294   4.489  1.00 20.00    -0.171 F 
HETATM   12  F12 UNL     1     -35.146   6.075   5.730  1.00 20.00    -0.171 F 
ENDBRANCH   7   9
TORSDOF 1
ENDMDL
MODEL 4
REMARK VINA RESULT:      -4.8     11.627     12.358
REMARK  1 active torsions:
REMARK  status: ('A' for Active; 'I' for Inactive)
REMARK    1  A    between atoms: C7_7  and  C8_8 
ROOT
HETATM    1  C1  UNL     1     -35.360  13.857  -5.604  1.00 20.00     0.064 C 
HETATM    2  C2  UNL     1     -35.522  16.327  -5.757  1.00 20.00     0.020 C 
HETATM    3  C3  UNL     1     -33.304  15.205  -5.275  1.00 20.00     0.020 C 
HETATM    4  C4  UNL     1     -35.664  16.678  -4.275  1.00 20.00     0.015 C 
HETATM    5  C5  UNL     1     -33.451  15.559  -3.793  1.00 20.00     0.015 C 
HETATM    6  C6  UNL     1     -34.651  15.089  -6.000  1.00 20.00     0.093 C 
HETATM    7  C7  UNL     1     -34.298  16.822  -3.592  1.00 20.00     0.093 C 
HETATM    8  N9  UNL     1     -35.918  12.888  -5.293  1.00 20.00    -0.197 NA
ENDROOT
BRANCH   7   9
HETATM    9  C8  UNL     1     -34.468  17.125  -2.105  1.00 20.00     0.391 C 
HETATM   10  F10 UNL     1     -34.931  18.373  -1.941  1.00 20.00    -0.171 F 
HETATM   11  F11 UNL     1     -35.337  16.263  -1.556  1.00 20.00    -0.171 F 
HETATM   12  F12 UNL     1     -33.288  17.013  -1.476  1.00 20.00    -0.171 F 
ENDBRANCH   7   9
TORSDOF 1
ENDMDL
MODEL 5
REMARK VINA RESULT:      -4.6     11.831     12.749
REMARK  1 active torsions:
REMARK  status: ('A' for Active; 'I' for Inactive)
REMARK    1  A    between atoms: C7_7  and  C8_8 
ROOT
HETATM    1  C1  UNL     1     -37.048  15.643  -7.048  1.00 20.00     0.064 C 
HETATM    2  C2  UNL     1     -35.642  13.600  -7.034  1.00 20.00     0.020 C 
HETATM    3  C3  UNL     1     -36.847  14.353  -4.939  1.00 20.00     0.020 C 
HETATM    4  C4  UNL     1     -34.335  14.178  -6.488  1.00 20.00     0.015 C 
HETATM    5  C5  UNL     1     -35.537  14.930  -4.397  1.00 20.00     0.015 C 
HETATM    6  C6  UNL     1     -36.887  14.295  -6.470  1.00 20.00     0.093 C 
HETATM    7  C7  UNL     1     -34.316  14.187  -4.954  1.00 20.00     0.093 C 
HETATM    8  N9  UNL     1     -37.174  16.703  -7.501  1.00 20.00    -0.197 NA
ENDROOT
BRANCH   7   9
HETATM    9  C8  UNL     1     -33.023  14.812  -4.435  1.00 20.00     0.391 C 
HETATM   10  F10 UNL     1     -32.162  13.850  -4.070  1.00 20.00    -0.171 F 
HETATM   11  F11 UNL     1     -32.456  15.561  -5.393  1.00 20.00    -0.171 F 
HETATM   12  F12 UNL     1     -33.283  15.588  -3.372  1.00 20.00    -0.171 F 
ENDBRANCH   7   9
TORSDOF 1
ENDMDL
MODEL 6
REMARK VINA RESULT:      -4.5     11.792     12.721
REMARK  1 active torsions:
REMARK  status: ('A' for Active; 'I' for Inactive)
REMARK    1  A    between atoms: C7_7  and  C8_8 
ROOT
HETATM    1  C1  UNL     1     -35.481  15.564  -6.678  1.00 20.00     0.064 C 
HETATM    2  C2  UNL     1     -33.156  15.743  -5.833  1.00 20.00     0.020 C 
HETATM    3  C3  UNL     1     -34.801  14.146  -4.759  1.00 20.00     0.020 C 
HETATM    4  C4  UNL     1     -33.365  16.729  -4.681  1.00 20.00     0.015 C 
HETATM    5  C5  UNL     1     -35.006  15.135  -3.609  1.00 20.00     0.015 C 
HETATM    6  C6  UNL     1     -34.362  14.824  -6.062  1.00 20.00     0.093 C 
HETATM    7  C7  UNL     1     -33.767  16.012  -3.386  1.00 20.00     0.093 C 
HETATM    8  N9  UNL     1     -36.361  16.145  -7.160  1.00 20.00    -0.197 NA
ENDROOT
BRANCH   7   9
HETATM    9  C8  UNL     1     -34.016  17.020  -2.266  1.00 20.00     0.391 C 
HETATM   10  F10 UNL     1     -34.515  18.157  -2.775  1.00 20.00    -0.171 F 
HETATM   11  F11 UNL     1     -34.892  16.519  -1.382  1.00 20.00    -0.171 F 
HETATM   12  F12 UNL     1     -32.867  17.295  -1.632  1.00 20.00    -0.171 F 
ENDBRANCH   7   9
TORSDOF 1
ENDMDL
MODEL 7
REMARK VINA RESULT:      -4.5     11.425     12.447
REMARK  1 active torsions:
REMARK  status: ('A' for Active; 'I' for Inactive)
REMARK    1  A    between atoms: C7_7  and  C8_8 
ROOT
HETATM    1  C1  UNL     1     -37.071  14.375  -5.416  1.00 20.00     0.064 C 
HETATM    2  C2  UNL     1     -35.799  16.447  -5.906  1.00 20.00     0.020 C 
HETATM    3  C3  UNL     1     -34.605  14.346  -5.150  1.00 20.00     0.020 C 
HETATM    4  C4  UNL     1     -35.672  17.024  -4.494  1.00 20.00     0.015 C 
HETATM    5  C5  UNL     1     -34.480  14.928  -3.740  1.00 20.00     0.015 C 
HETATM    6  C6  UNL     1     -35.797  14.914  -5.930  1.00 20.00     0.093 C 
HETATM    7  C7  UNL     1     -34.450  16.461  -3.758  1.00 20.00     0.093 C 
HETATM    8  N9  UNL     1     -38.072  13.951  -5.010  1.00 20.00    -0.197 NA
ENDROOT
BRANCH   7   9
HETATM    9  C8  UNL     1     -34.373  17.015  -2.337  1.00 20.00     0.391 C 
HETATM   10  F10 UNL     1     -33.132  16.860  -1.850  1.00 20.00    -0.171 F 
HETATM   11  F11 UNL     1     -34.681  18.321  -2.335  1.00 20.00    -0.171 F 
HETATM   12  F12 UNL     1     -35.235  16.363  -1.544  1.00 20.00    -0.171 F 
ENDBRANCH   7   9
TORSDOF 1
ENDMDL
MODEL 8
REMARK VINA RESULT:      -4.5     11.503     12.626
REMARK  1 active torsions:
REMARK  status: ('A' for Active; 'I' for Inactive)
REMARK    1  A    between atoms: C7_7  and  C8_8 
ROOT
HETATM    1  C1  UNL     1     -33.049  18.466  -1.944  1.00 20.00     0.064 C 
HETATM    2  C2  UNL     1     -33.687  18.300  -4.335  1.00 20.00     0.020 C 
HETATM    3  C3  UNL     1     -35.244  17.465  -2.522  1.00 20.00     0.020 C 
HETATM    4  C4  UNL     1     -33.259  16.860  -4.628  1.00 20.00     0.015 C 
HETATM    5  C5  UNL     1     -34.812  16.027  -2.818  1.00 20.00     0.015 C 
HETATM    6  C6  UNL     1     -34.176  18.500  -2.896  1.00 20.00     0.093 C 
HETATM    7  C7  UNL     1     -34.364  15.857  -4.275  1.00 20.00     0.093 C 
HETATM    8  N9  UNL     1     -32.163  18.438  -1.196  1.00 20.00    -0.197 NA
ENDROOT
BRANCH   7   9
HETATM    9  C8  UNL     1     -33.895  14.426  -4.531  1.00 20.00     0.391 C 
HETATM   10  F10 UNL     1     -34.015  14.129  -5.834  1.00 20.00    -0.171 F 
HETATM   11  F11 UNL     1     -32.609  14.293  -4.172  1.00 20.00    -0.171 F 
HETATM   12  F12 UNL     1     -34.637  13.566  -3.818  1.00 20.00    -0.171 F 
ENDBRANCH   7   9
TORSDOF 1
ENDMDL
MODEL 9
REMARK VINA RESULT:      -4.4     11.705     12.562
REMARK  1 active torsions:
REMARK  status: ('A' for Active; 'I' for Inactive)
REMARK    1  A    between atoms: C7_7  and  C8_8 
ROOT
HETATM    1  C1  UNL     1     -36.426  18.122  -3.857  1.00 20.00     0.064 C 
HETATM    2  C2  UNL     1     -36.853  15.679  -3.872  1.00 20.00     0.020 C 
HETATM    3  C3  UNL     1     -35.230  16.696  -2.217  1.00 20.00     0.020 C 
HETATM    4  C4  UNL     1     -35.677  15.207  -4.731  1.00 20.00     0.015 C 
HETATM    5  C5  UNL     1     -34.058  16.222  -3.080  1.00 20.00     0.015 C 
HETATM    6  C6  UNL     1     -36.518  16.909  -3.021  1.00 20.00     0.093 C 
HETATM    7  C7  UNL     1     -34.418  14.970  -3.889  1.00 20.00     0.093 C 
HETATM    8  N9  UNL     1     -36.353  19.075  -4.514  1.00 20.00    -0.197 NA
ENDROOT
BRANCH   7   9
HETATM    9  C8  UNL     1     -33.248  14.547  -4.775  1.00 20.00     0.391 C 
HETATM   10  F10 UNL     1     -33.706  13.938  -5.879  1.00 20.00    -0.171 F 
HETATM   11  F11 UNL     1     -32.533  15.622  -5.137  1.00 20.00    -0.171 F 
HETATM   12  F12 UNL     1     -32.452  13.698  -4.109  1.00 20.00    -0.171 F 
ENDBRANCH   7   9
TORSDOF 1
ENDMDL
