MODEL 1
REMARK VINA RESULT:      -5.5      0.000      0.000
REMARK  4 active torsions:
REMARK  status: ('A' for Active; 'I' for Inactive)
REMARK    1  A    between atoms: C4_4  and  C5_5 
REMARK    2  A    between atoms: C5_5  and  C7_7 
REMARK    3  A    between atoms: C6_6  and  C7_7 
REMARK    4  A    between atoms: C6_6  and  C8_8 
ROOT
HETATM    1  C2  UNL     1     -31.376   8.278   3.808  1.00 20.00     0.010 C 
HETATM    2  C7  UNL     1     -32.546   7.958   2.870  1.00 20.00    -0.017 C 
ENDROOT
BRANCH   2   3
HETATM    3  C5  UNL     1     -32.099   8.211   1.413  1.00 20.00     0.004 C 
BRANCH   3   4
HETATM    4  C4  UNL     1     -32.459   9.604   0.889  1.00 20.00    -0.004 C 
HETATM    5  C1  UNL     1     -33.185   9.523  -0.447  1.00 20.00     0.005 C 
ENDBRANCH   3   4
ENDBRANCH   2   3
BRANCH   2   6
HETATM    6  C6  UNL     1     -33.059   6.512   3.066  1.00 20.00     0.024 C 
BRANCH   6   7
HETATM    7  C8  UNL     1     -34.232   6.334   4.044  1.00 20.00     0.078 C 
HETATM    8  C3  UNL     1     -33.930   7.004   5.381  1.00 20.00     0.026 C 
HETATM    9 CL9  UNL     1     -34.575   4.603   4.330  1.00 20.00    -0.125 Cl
ENDBRANCH   6   7
ENDBRANCH   2   6
TORSDOF 4
ENDMDL
MODEL 2
REMARK VINA RESULT:      -5.5      2.563      4.570
REMARK  4 active torsions:
REMARK  status: ('A' for Active; 'I' for Inactive)
REMARK    1  A    between atoms: C4_4  and  C5_5 
REMARK    2  A    between atoms: C5_5  and  C7_7 
REMARK    3  A    between atoms: C6_6  and  C7_7 
REMARK    4  A    between atoms: C6_6  and  C8_8 
ROOT
HETATM    1  C2  UNL     1     -33.024   5.002   2.876  1.00 20.00     0.010 C 
HETATM    2  C7  UNL     1     -34.171   6.018   2.824  1.00 20.00    -0.017 C 
ENDROOT
BRANCH   2   3
HETATM    3  C5  UNL     1     -35.141   5.733   3.993  1.00 20.00     0.004 C 
BRANCH   3   4
HETATM    4  C4  UNL     1     -34.440   5.490   5.332  1.00 20.00    -0.004 C 
HETATM    5  C1  UNL     1     -34.052   6.801   6.001  1.00 20.00     0.005 C 
ENDBRANCH   3   4
ENDBRANCH   2   3
BRANCH   2   6
HETATM    6  C6  UNL     1     -33.651   7.474   2.857  1.00 20.00     0.024 C 
BRANCH   6   7
HETATM    7  C8  UNL     1     -32.163   7.671   2.523  1.00 20.00     0.078 C 
HETATM    8  C3  UNL     1     -31.409   8.241   3.721  1.00 20.00     0.026 C 
HETATM    9 CL9  UNL     1     -31.956   8.775   1.132  1.00 20.00    -0.125 Cl
ENDBRANCH   6   7
ENDBRANCH   2   6
TORSDOF 4
ENDMDL
MODEL 3
REMARK VINA RESULT:      -5.5      1.148      2.001
REMARK  4 active torsions:
REMARK  status: ('A' for Active; 'I' for Inactive)
REMARK    1  A    between atoms: C4_4  and  C5_5 
REMARK    2  A    between atoms: C5_5  and  C7_7 
REMARK    3  A    between atoms: C6_6  and  C7_7 
REMARK    4  A    between atoms: C6_6  and  C8_8 
ROOT
HETATM    1  C2  UNL     1     -32.948   4.821   2.499  1.00 20.00     0.010 C 
HETATM    2  C7  UNL     1     -33.163   6.232   3.057  1.00 20.00    -0.017 C 
ENDROOT
BRANCH   2   3
HETATM    3  C5  UNL     1     -32.904   7.257   1.930  1.00 20.00     0.004 C 
BRANCH   3   4
HETATM    4  C4  UNL     1     -32.090   8.475   2.377  1.00 20.00    -0.004 C 
HETATM    5  C1  UNL     1     -32.265   9.642   1.416  1.00 20.00     0.005 C 
ENDBRANCH   3   4
ENDBRANCH   2   3
BRANCH   2   6
HETATM    6  C6  UNL     1     -34.576   6.400   3.665  1.00 20.00     0.024 C 
BRANCH   6   7
HETATM    7  C8  UNL     1     -34.665   6.345   5.199  1.00 20.00     0.078 C 
HETATM    8  C3  UNL     1     -33.612   7.245   5.837  1.00 20.00     0.026 C 
HETATM    9 CL9  UNL     1     -34.436   4.675   5.798  1.00 20.00    -0.125 Cl
ENDBRANCH   6   7
ENDBRANCH   2   6
TORSDOF 4
ENDMDL
MODEL 4
REMARK VINA RESULT:      -5.3      2.502      4.551
REMARK  4 active torsions:
REMARK  status: ('A' for Active; 'I' for Inactive)
REMARK    1  A    between atoms: C4_4  and  C5_5 
REMARK    2  A    between atoms: C5_5  and  C7_7 
REMARK    3  A    between atoms: C6_6  and  C7_7 
REMARK    4  A    between atoms: C6_6  and  C8_8 
ROOT
HETATM    1  C2  UNL     1     -31.783   8.372   4.014  1.00 20.00     0.010 C 
HETATM    2  C7  UNL     1     -31.909   7.566   2.715  1.00 20.00    -0.017 C 
ENDROOT
BRANCH   2   3
HETATM    3  C5  UNL     1     -33.286   6.865   2.698  1.00 20.00     0.004 C 
BRANCH   3   4
HETATM    4  C4  UNL     1     -33.998   6.866   4.053  1.00 20.00    -0.004 C 
HETATM    5  C1  UNL     1     -34.786   5.582   4.266  1.00 20.00     0.005 C 
ENDBRANCH   3   4
ENDBRANCH   2   3
BRANCH   2   6
HETATM    6  C6  UNL     1     -31.707   8.456   1.466  1.00 20.00     0.024 C 
BRANCH   6   7
HETATM    7  C8  UNL     1     -32.889   9.358   1.076  1.00 20.00     0.078 C 
HETATM    8  C3  UNL     1     -33.094   9.360  -0.435  1.00 20.00     0.026 C 
HETATM    9 CL9  UNL     1     -32.625  11.039   1.625  1.00 20.00    -0.125 Cl
ENDBRANCH   6   7
ENDBRANCH   2   6
TORSDOF 4
ENDMDL
MODEL 5
REMARK VINA RESULT:      -5.2      1.031      1.415
REMARK  4 active torsions:
REMARK  status: ('A' for Active; 'I' for Inactive)
REMARK    1  A    between atoms: C4_4  and  C5_5 
REMARK    2  A    between atoms: C5_5  and  C7_7 
REMARK    3  A    between atoms: C6_6  and  C7_7 
REMARK    4  A    between atoms: C6_6  and  C8_8 
ROOT
HETATM    1  C2  UNL     1     -31.525   8.049   3.694  1.00 20.00     0.010 C 
HETATM    2  C7  UNL     1     -32.556   8.359   2.603  1.00 20.00    -0.017 C 
ENDROOT
BRANCH   2   3
HETATM    3  C5  UNL     1     -31.810   8.804   1.325  1.00 20.00     0.004 C 
BRANCH   3   4
HETATM    4  C4  UNL     1     -32.488   9.959   0.583  1.00 20.00    -0.004 C 
HETATM    5  C1  UNL     1     -33.249   9.463  -0.638  1.00 20.00     0.005 C 
ENDBRANCH   3   4
ENDBRANCH   2   3
BRANCH   2   6
HETATM    6  C6  UNL     1     -33.484   7.152   2.331  1.00 20.00     0.024 C 
BRANCH   6   7
HETATM    7  C8  UNL     1     -33.462   6.028   3.380  1.00 20.00     0.078 C 
HETATM    8  C3  UNL     1     -33.022   4.709   2.753  1.00 20.00     0.026 C 
HETATM    9 CL9  UNL     1     -35.074   5.806   4.120  1.00 20.00    -0.125 Cl
ENDBRANCH   6   7
ENDBRANCH   2   6
TORSDOF 4
ENDMDL
MODEL 6
REMARK VINA RESULT:      -5.1      2.509      4.462
REMARK  4 active torsions:
REMARK  status: ('A' for Active; 'I' for Inactive)
REMARK    1  A    between atoms: C4_4  and  C5_5 
REMARK    2  A    between atoms: C5_5  and  C7_7 
REMARK    3  A    between atoms: C6_6  and  C7_7 
REMARK    4  A    between atoms: C6_6  and  C8_8 
ROOT
HETATM    1  C2  UNL     1     -33.775   7.434   6.004  1.00 20.00     0.010 C 
HETATM    2  C7  UNL     1     -33.695   6.716   4.652  1.00 20.00    -0.017 C 
ENDROOT
BRANCH   2   3
HETATM    3  C5  UNL     1     -34.824   5.664   4.579  1.00 20.00     0.004 C 
BRANCH   3   4
HETATM    4  C4  UNL     1     -34.332   4.248   4.268  1.00 20.00    -0.004 C 
HETATM    5  C1  UNL     1     -33.370   4.243   3.089  1.00 20.00     0.005 C 
ENDBRANCH   3   4
ENDBRANCH   2   3
BRANCH   2   6
HETATM    6  C6  UNL     1     -33.764   7.710   3.469  1.00 20.00     0.024 C 
BRANCH   6   7
HETATM    7  C8  UNL     1     -32.491   7.841   2.617  1.00 20.00     0.078 C 
HETATM    8  C3  UNL     1     -31.297   8.231   3.482  1.00 20.00     0.026 C 
HETATM    9 CL9  UNL     1     -32.699   9.069   1.333  1.00 20.00    -0.125 Cl
ENDBRANCH   6   7
ENDBRANCH   2   6
TORSDOF 4
ENDMDL
MODEL 7
REMARK VINA RESULT:      -5.0      1.046      1.525
REMARK  4 active torsions:
REMARK  status: ('A' for Active; 'I' for Inactive)
REMARK    1  A    between atoms: C4_4  and  C5_5 
REMARK    2  A    between atoms: C5_5  and  C7_7 
REMARK    3  A    between atoms: C6_6  and  C7_7 
REMARK    4  A    between atoms: C6_6  and  C8_8 
ROOT
HETATM    1  C2  UNL     1     -32.984   7.668   4.973  1.00 20.00     0.010 C 
HETATM    2  C7  UNL     1     -33.010   7.492   3.451  1.00 20.00    -0.017 C 
ENDROOT
BRANCH   2   3
HETATM    3  C5  UNL     1     -31.835   8.288   2.838  1.00 20.00     0.004 C 
BRANCH   3   4
HETATM    4  C4  UNL     1     -32.039   8.658   1.367  1.00 20.00    -0.004 C 
HETATM    5  C1  UNL     1     -32.609  10.062   1.222  1.00 20.00     0.005 C 
ENDBRANCH   3   4
ENDBRANCH   2   3
BRANCH   2   6
HETATM    6  C6  UNL     1     -32.961   6.001   3.044  1.00 20.00     0.024 C 
BRANCH   6   7
HETATM    7  C8  UNL     1     -34.249   5.193   3.270  1.00 20.00     0.078 C 
HETATM    8  C3  UNL     1     -35.417   6.116   3.603  1.00 20.00     0.026 C 
HETATM    9 CL9  UNL     1     -34.047   4.015   4.600  1.00 20.00    -0.125 Cl
ENDBRANCH   6   7
ENDBRANCH   2   6
TORSDOF 4
ENDMDL
MODEL 8
REMARK VINA RESULT:      -4.0     10.403     11.157
REMARK  4 active torsions:
REMARK  status: ('A' for Active; 'I' for Inactive)
REMARK    1  A    between atoms: C4_4  and  C5_5 
REMARK    2  A    between atoms: C5_5  and  C7_7 
REMARK    3  A    between atoms: C6_6  and  C7_7 
REMARK    4  A    between atoms: C6_6  and  C8_8 
ROOT
HETATM    1  C2  UNL     1     -33.339  16.214  -5.451  1.00 20.00     0.010 C 
HETATM    2  C7  UNL     1     -33.488  15.397  -4.163  1.00 20.00    -0.017 C 
ENDROOT
BRANCH   2   3
HETATM    3  C5  UNL     1     -33.713  16.368  -2.982  1.00 20.00     0.004 C 
BRANCH   3   4
HETATM    4  C4  UNL     1     -35.157  16.399  -2.473  1.00 20.00    -0.004 C 
HETATM    5  C1  UNL     1     -35.245  17.035  -1.093  1.00 20.00     0.005 C 
ENDBRANCH   3   4
ENDBRANCH   2   3
BRANCH   2   6
HETATM    6  C6  UNL     1     -34.628  14.358  -4.271  1.00 20.00     0.024 C 
BRANCH   6   7
HETATM    7  C8  UNL     1     -35.522  14.458  -5.517  1.00 20.00     0.078 C 
HETATM    8  C3  UNL     1     -36.984  14.206  -5.159  1.00 20.00     0.026 C 
HETATM    9 CL9  UNL     1     -35.023  13.279  -6.766  1.00 20.00    -0.125 Cl
ENDBRANCH   6   7
ENDBRANCH   2   6
TORSDOF 4
ENDMDL
MODEL 9
REMARK VINA RESULT:      -3.9     10.561     11.360
REMARK  4 active torsions:
REMARK  status: ('A' for Active; 'I' for Inactive)
REMARK    1  A    between atoms: C4_4  and  C5_5 
REMARK    2  A    between atoms: C5_5  and  C7_7 
REMARK    3  A    between atoms: C6_6  and  C7_7 
REMARK    4  A    between atoms: C6_6  and  C8_8 
ROOT
HETATM    1  C2  UNL     1     -33.010  17.903  -1.553  1.00 20.00     0.010 C 
HETATM    2  C7  UNL     1     -33.812  16.769  -2.202  1.00 20.00    -0.017 C 
ENDROOT
BRANCH   2   3
HETATM    3  C5  UNL     1     -35.268  16.833  -1.691  1.00 20.00     0.004 C 
BRANCH   3   4
HETATM    4  C4  UNL     1     -35.401  17.381  -0.267  1.00 20.00    -0.004 C 
HETATM    5  C1  UNL     1     -36.666  18.212  -0.109  1.00 20.00     0.005 C 
ENDBRANCH   3   4
ENDBRANCH   2   3
BRANCH   2   6
HETATM    6  C6  UNL     1     -33.746  16.831  -3.746  1.00 20.00     0.024 C 
BRANCH   6   7
HETATM    7  C8  UNL     1     -33.309  15.541  -4.460  1.00 20.00     0.078 C 
HETATM    8  C3  UNL     1     -33.252  15.748  -5.970  1.00 20.00     0.026 C 
HETATM    9 CL9  UNL     1     -34.433  14.196  -4.104  1.00 20.00    -0.125 Cl
ENDBRANCH   6   7
ENDBRANCH   2   6
TORSDOF 4
ENDMDL
