MODEL 1
REMARK VINA RESULT:      -5.5      0.000      0.000
REMARK  3 active torsions:
REMARK  status: ('A' for Active; 'I' for Inactive)
REMARK    1  A    between atoms: C1_1  and  C12_12 
REMARK    2  A    between atoms: C5_5  and  C11_11 
REMARK    3  A    between atoms: C11_11  and  C12_12 
ROOT
HETATM    1  C2  UNL     1     -32.856   6.104   2.493  1.00 20.00     0.005 C 
HETATM    2  C3  UNL     1     -33.552   5.206   3.513  1.00 20.00     0.005 C 
HETATM    3  C4  UNL     1     -33.545   8.144   3.823  1.00 20.00     0.009 C 
HETATM    4  C5  UNL     1     -32.388   7.424   3.116  1.00 20.00    -0.013 C 
HETATM    5  C6  UNL     1     -34.709   5.906   4.246  1.00 20.00    -0.015 C 
HETATM    6  C7  UNL     1     -34.272   7.261   4.852  1.00 20.00    -0.015 C 
HETATM    7  C8  UNL     1     -35.920   6.078   3.320  1.00 20.00     0.010 C 
HETATM    8  C9  UNL     1     -33.413   7.056   6.107  1.00 20.00     0.010 C 
ENDROOT
BRANCH   4   9
HETATM    9  C11 UNL     1     -31.764   8.328   2.051  1.00 20.00     0.015 C 
BRANCH   9  10
HETATM   10  C12 UNL     1     -32.804   9.205   1.349  1.00 20.00     0.043 C 
HETATM   11  C10 UNL     1     -32.477  10.684   1.548  1.00 20.00     0.017 C 
BRANCH  10  12
HETATM   12  C1  UNL     1     -32.889   8.948  -0.145  1.00 20.00     0.235 C 
HETATM   13  O13 UNL     1     -33.661   9.513  -0.912  1.00 20.00    -0.306 OA
ENDBRANCH  10  12
ENDBRANCH   9  10
ENDBRANCH   4   9
TORSDOF 3
ENDMDL
MODEL 2
REMARK VINA RESULT:      -5.0      1.229      2.416
REMARK  3 active torsions:
REMARK  status: ('A' for Active; 'I' for Inactive)
REMARK    1  A    between atoms: C1_1  and  C12_12 
REMARK    2  A    between atoms: C5_5  and  C11_11 
REMARK    3  A    between atoms: C11_11  and  C12_12 
ROOT
HETATM    1  C2  UNL     1     -32.895   7.468   5.088  1.00 20.00     0.005 C 
HETATM    2  C3  UNL     1     -34.213   7.023   5.717  1.00 20.00     0.005 C 
HETATM    3  C4  UNL     1     -33.436   6.125   3.012  1.00 20.00     0.009 C 
HETATM    4  C5  UNL     1     -32.966   7.482   3.557  1.00 20.00    -0.013 C 
HETATM    5  C6  UNL     1     -34.715   5.672   5.181  1.00 20.00    -0.015 C 
HETATM    6  C7  UNL     1     -34.759   5.646   3.634  1.00 20.00    -0.015 C 
HETATM    7  C8  UNL     1     -33.868   4.516   5.731  1.00 20.00     0.010 C 
HETATM    8  C9  UNL     1     -35.945   6.459   3.100  1.00 20.00     0.010 C 
ENDROOT
BRANCH   4   9
HETATM    9  C11 UNL     1     -31.609   7.858   2.960  1.00 20.00     0.015 C 
BRANCH   9  10
HETATM   10  C12 UNL     1     -31.715   8.991   1.937  1.00 20.00     0.043 C 
HETATM   11  C10 UNL     1     -31.382   8.478   0.536  1.00 20.00     0.017 C 
BRANCH  10  12
HETATM   12  C1  UNL     1     -33.097   9.617   1.883  1.00 20.00     0.235 C 
HETATM   13  O13 UNL     1     -33.410  10.570   1.175  1.00 20.00    -0.306 OA
ENDBRANCH  10  12
ENDBRANCH   9  10
ENDBRANCH   4   9
TORSDOF 3
ENDMDL
MODEL 3
REMARK VINA RESULT:      -4.9     10.086     11.583
REMARK  3 active torsions:
REMARK  status: ('A' for Active; 'I' for Inactive)
REMARK    1  A    between atoms: C1_1  and  C12_12 
REMARK    2  A    between atoms: C5_5  and  C11_11 
REMARK    3  A    between atoms: C11_11  and  C12_12 
ROOT
HETATM    1  C2  UNL     1     -34.747  14.094  -4.183  1.00 20.00     0.005 C 
HETATM    2  C3  UNL     1     -35.799  13.524  -5.133  1.00 20.00     0.005 C 
HETATM    3  C4  UNL     1     -34.675  16.225  -5.546  1.00 20.00     0.009 C 
HETATM    4  C5  UNL     1     -34.785  15.625  -4.137  1.00 20.00    -0.013 C 
HETATM    5  C6  UNL     1     -35.719  14.116  -6.550  1.00 20.00    -0.015 C 
HETATM    6  C7  UNL     1     -35.718  15.663  -6.529  1.00 20.00    -0.015 C 
HETATM    7  C8  UNL     1     -34.499  13.571  -7.304  1.00 20.00     0.010 C 
HETATM    8  C9  UNL     1     -37.116  16.215  -6.224  1.00 20.00     0.010 C 
ENDROOT
BRANCH   4   9
HETATM    9  C11 UNL     1     -33.672  16.163  -3.237  1.00 20.00     0.015 C 
BRANCH   9  10
HETATM   10  C12 UNL     1     -34.154  17.295  -2.326  1.00 20.00     0.043 C 
HETATM   11  C10 UNL     1     -35.324  16.825  -1.463  1.00 20.00     0.017 C 
BRANCH  10  12
HETATM   12  C1  UNL     1     -33.071  17.812  -1.395  1.00 20.00     0.235 C 
HETATM   13  O13 UNL     1     -32.247  18.673  -1.687  1.00 20.00    -0.306 OA
ENDBRANCH  10  12
ENDBRANCH   9  10
ENDBRANCH   4   9
TORSDOF 3
ENDMDL
MODEL 4
REMARK VINA RESULT:      -4.7     10.546     11.586
REMARK  3 active torsions:
REMARK  status: ('A' for Active; 'I' for Inactive)
REMARK    1  A    between atoms: C1_1  and  C12_12 
REMARK    2  A    between atoms: C5_5  and  C11_11 
REMARK    3  A    between atoms: C11_11  and  C12_12 
ROOT
HETATM    1  C2  UNL     1     -33.274  15.616  -3.619  1.00 20.00     0.005 C 
HETATM    2  C3  UNL     1     -33.445  14.619  -4.763  1.00 20.00     0.005 C 
HETATM    3  C4  UNL     1     -35.561  16.577  -4.120  1.00 20.00     0.009 C 
HETATM    4  C5  UNL     1     -34.622  16.047  -3.028  1.00 20.00    -0.013 C 
HETATM    5  C6  UNL     1     -34.391  15.120  -5.866  1.00 20.00    -0.015 C 
HETATM    6  C7  UNL     1     -35.746  15.597  -5.292  1.00 20.00    -0.015 C 
HETATM    7  C8  UNL     1     -33.725  16.222  -6.702  1.00 20.00     0.010 C 
HETATM    8  C9  UNL     1     -36.624  14.408  -4.881  1.00 20.00     0.010 C 
ENDROOT
BRANCH   4   9
HETATM    9  C11 UNL     1     -34.417  17.100  -1.938  1.00 20.00     0.015 C 
BRANCH   9  10
HETATM   10  C12 UNL     1     -33.105  17.869  -2.109  1.00 20.00     0.043 C 
HETATM   11  C10 UNL     1     -33.331  19.136  -2.933  1.00 20.00     0.017 C 
BRANCH  10  12
HETATM   12  C1  UNL     1     -32.480  18.283  -0.788  1.00 20.00     0.235 C 
HETATM   13  O13 UNL     1     -31.278  18.272  -0.546  1.00 20.00    -0.306 OA
ENDBRANCH  10  12
ENDBRANCH   9  10
ENDBRANCH   4   9
TORSDOF 3
ENDMDL
MODEL 5
REMARK VINA RESULT:      -4.7     10.314     11.390
REMARK  3 active torsions:
REMARK  status: ('A' for Active; 'I' for Inactive)
REMARK    1  A    between atoms: C1_1  and  C12_12 
REMARK    2  A    between atoms: C5_5  and  C11_11 
REMARK    3  A    between atoms: C11_11  and  C12_12 
ROOT
HETATM    1  C2  UNL     1     -36.366  16.162  -3.711  1.00 20.00     0.005 C 
HETATM    2  C3  UNL     1     -36.429  15.897  -5.214  1.00 20.00     0.005 C 
HETATM    3  C4  UNL     1     -33.990  15.291  -3.660  1.00 20.00     0.009 C 
HETATM    4  C5  UNL     1     -34.933  16.426  -3.234  1.00 20.00    -0.013 C 
HETATM    5  C6  UNL     1     -35.485  14.772  -5.670  1.00 20.00    -0.015 C 
HETATM    6  C7  UNL     1     -34.038  14.994  -5.169  1.00 20.00    -0.015 C 
HETATM    7  C8  UNL     1     -36.018  13.400  -5.235  1.00 20.00     0.010 C 
HETATM    8  C9  UNL     1     -33.338  16.099  -5.970  1.00 20.00     0.010 C 
ENDROOT
BRANCH   4   9
HETATM    9  C11 UNL     1     -34.898  16.611  -1.717  1.00 20.00     0.015 C 
BRANCH   9  10
HETATM   10  C12 UNL     1     -34.321  17.969  -1.308  1.00 20.00     0.043 C 
HETATM   11  C10 UNL     1     -34.377  18.139   0.209  1.00 20.00     0.017 C 
BRANCH  10  12
HETATM   12  C1  UNL     1     -32.879  18.159  -1.743  1.00 20.00     0.235 C 
HETATM   13  O13 UNL     1     -31.938  18.363  -0.983  1.00 20.00    -0.306 OA
ENDBRANCH  10  12
ENDBRANCH   9  10
ENDBRANCH   4   9
TORSDOF 3
ENDMDL
MODEL 6
REMARK VINA RESULT:      -4.6     10.253     11.525
REMARK  3 active torsions:
REMARK  status: ('A' for Active; 'I' for Inactive)
REMARK    1  A    between atoms: C1_1  and  C12_12 
REMARK    2  A    between atoms: C5_5  and  C11_11 
REMARK    3  A    between atoms: C11_11  and  C12_12 
ROOT
HETATM    1  C2  UNL     1     -35.598  16.417  -5.080  1.00 20.00     0.005 C 
HETATM    2  C3  UNL     1     -36.454  15.950  -6.257  1.00 20.00     0.005 C 
HETATM    3  C4  UNL     1     -35.084  14.007  -4.501  1.00 20.00     0.009 C 
HETATM    4  C5  UNL     1     -34.498  15.407  -4.735  1.00 20.00    -0.013 C 
HETATM    5  C6  UNL     1     -37.044  14.545  -6.055  1.00 20.00    -0.015 C 
HETATM    6  C7  UNL     1     -35.959  13.512  -5.667  1.00 20.00    -0.015 C 
HETATM    7  C8  UNL     1     -38.179  14.570  -5.022  1.00 20.00     0.010 C 
HETATM    8  C9  UNL     1     -35.098  13.132  -6.878  1.00 20.00     0.010 C 
ENDROOT
BRANCH   4   9
HETATM    9  C11 UNL     1     -33.712  15.871  -3.508  1.00 20.00     0.015 C 
BRANCH   9  10
HETATM   10  C12 UNL     1     -34.277  17.158  -2.904  1.00 20.00     0.043 C 
HETATM   11  C10 UNL     1     -34.770  16.909  -1.479  1.00 20.00     0.017 C 
BRANCH  10  12
HETATM   12  C1  UNL     1     -33.264  18.288  -2.852  1.00 20.00     0.235 C 
HETATM   13  O13 UNL     1     -32.514  18.516  -1.908  1.00 20.00    -0.306 OA
ENDBRANCH  10  12
ENDBRANCH   9  10
ENDBRANCH   4   9
TORSDOF 3
ENDMDL
MODEL 7
REMARK VINA RESULT:      -4.6     10.365     11.362
REMARK  3 active torsions:
REMARK  status: ('A' for Active; 'I' for Inactive)
REMARK    1  A    between atoms: C1_1  and  C12_12 
REMARK    2  A    between atoms: C5_5  and  C11_11 
REMARK    3  A    between atoms: C11_11  and  C12_12 
ROOT
HETATM    1  C2  UNL     1     -35.103  16.261  -2.444  1.00 20.00     0.005 C 
HETATM    2  C3  UNL     1     -35.304  17.014  -1.131  1.00 20.00     0.005 C 
HETATM    3  C4  UNL     1     -33.360  17.957  -3.146  1.00 20.00     0.009 C 
HETATM    4  C5  UNL     1     -33.694  16.464  -3.012  1.00 20.00    -0.013 C 
HETATM    5  C6  UNL     1     -34.966  18.511  -1.233  1.00 20.00    -0.015 C 
HETATM    6  C7  UNL     1     -33.562  18.745  -1.840  1.00 20.00    -0.015 C 
HETATM    7  C8  UNL     1     -36.044  19.263  -2.025  1.00 20.00     0.010 C 
HETATM    8  C9  UNL     1     -32.458  18.420  -0.825  1.00 20.00     0.010 C 
ENDROOT
BRANCH   4   9
HETATM    9  C11 UNL     1     -33.552  15.759  -4.361  1.00 20.00     0.015 C 
BRANCH   9  10
HETATM   10  C12 UNL     1     -34.904  15.335  -4.943  1.00 20.00     0.043 C 
HETATM   11  C10 UNL     1     -35.327  16.286  -6.061  1.00 20.00     0.017 C 
BRANCH  10  12
HETATM   12  C1  UNL     1     -34.892  13.928  -5.512  1.00 20.00     0.235 C 
HETATM   13  O13 UNL     1     -35.553  12.989  -5.080  1.00 20.00    -0.306 OA
ENDBRANCH  10  12
ENDBRANCH   9  10
ENDBRANCH   4   9
TORSDOF 3
ENDMDL
MODEL 8
REMARK VINA RESULT:      -4.3      0.964      2.150
REMARK  3 active torsions:
REMARK  status: ('A' for Active; 'I' for Inactive)
REMARK    1  A    between atoms: C1_1  and  C12_12 
REMARK    2  A    between atoms: C5_5  and  C11_11 
REMARK    3  A    between atoms: C11_11  and  C12_12 
ROOT
HETATM    1  C2  UNL     1     -34.460   7.503   3.270  1.00 20.00     0.005 C 
HETATM    2  C3  UNL     1     -35.276   6.227   3.468  1.00 20.00     0.005 C 
HETATM    3  C4  UNL     1     -32.333   6.133   3.226  1.00 20.00     0.009 C 
HETATM    4  C5  UNL     1     -33.145   7.234   2.530  1.00 20.00    -0.013 C 
HETATM    5  C6  UNL     1     -34.483   5.102   4.153  1.00 20.00    -0.015 C 
HETATM    6  C7  UNL     1     -33.132   4.836   3.448  1.00 20.00    -0.015 C 
HETATM    7  C8  UNL     1     -34.279   5.404   5.644  1.00 20.00     0.010 C 
HETATM    8  C9  UNL     1     -33.335   4.082   2.127  1.00 20.00     0.010 C 
ENDROOT
BRANCH   4   9
HETATM    9  C11 UNL     1     -32.321   8.517   2.416  1.00 20.00     0.015 C 
BRANCH   9  10
HETATM   10  C12 UNL     1     -32.930   9.516   1.429  1.00 20.00     0.043 C 
HETATM   11  C10 UNL     1     -32.403  10.925   1.700  1.00 20.00     0.017 C 
BRANCH  10  12
HETATM   12  C1  UNL     1     -32.628   9.180  -0.021  1.00 20.00     0.235 C 
HETATM   13  O13 UNL     1     -33.459   9.152  -0.923  1.00 20.00    -0.306 OA
ENDBRANCH  10  12
ENDBRANCH   9  10
ENDBRANCH   4   9
TORSDOF 3
ENDMDL
MODEL 9
REMARK VINA RESULT:      -4.3     10.356     11.859
REMARK  3 active torsions:
REMARK  status: ('A' for Active; 'I' for Inactive)
REMARK    1  A    between atoms: C1_1  and  C12_12 
REMARK    2  A    between atoms: C5_5  and  C11_11 
REMARK    3  A    between atoms: C11_11  and  C12_12 
ROOT
HETATM    1  C2  UNL     1     -34.564  15.126  -4.064  1.00 20.00     0.005 C 
HETATM    2  C3  UNL     1     -33.657  15.944  -3.146  1.00 20.00     0.005 C 
HETATM    3  C4  UNL     1     -35.841  17.226  -4.669  1.00 20.00     0.009 C 
HETATM    4  C5  UNL     1     -35.136  15.972  -5.206  1.00 20.00    -0.013 C 
HETATM    5  C6  UNL     1     -34.333  17.213  -2.602  1.00 20.00    -0.015 C 
HETATM    6  C7  UNL     1     -34.954  18.067  -3.733  1.00 20.00    -0.015 C 
HETATM    7  C8  UNL     1     -35.379  16.862  -1.535  1.00 20.00     0.010 C 
HETATM    8  C9  UNL     1     -33.871  18.812  -4.524  1.00 20.00     0.010 C 
ENDROOT
BRANCH   4   9
HETATM    9  C11 UNL     1     -36.097  15.142  -6.059  1.00 20.00     0.015 C 
BRANCH   9  10
HETATM   10  C12 UNL     1     -35.460  14.677  -7.371  1.00 20.00     0.043 C 
HETATM   11  C10 UNL     1     -34.323  15.615  -7.775  1.00 20.00     0.017 C 
BRANCH  10  12
HETATM   12  C1  UNL     1     -34.894  13.271  -7.294  1.00 20.00     0.235 C 
HETATM   13  O13 UNL     1     -35.199  12.436  -6.448  1.00 20.00    -0.306 OA
ENDBRANCH  10  12
ENDBRANCH   9  10
ENDBRANCH   4   9
TORSDOF 3
ENDMDL
