MODEL 1
REMARK VINA RESULT:      -5.1      0.000      0.000
REMARK  2 active torsions:
REMARK  status: ('A' for Active; 'I' for Inactive)
REMARK    1  A    between atoms: C8_8  and  C11_11 
REMARK    2  A    between atoms: C8_8  and  O12_12 
ROOT
HETATM    1  C1  UNL     1     -33.240   9.156  -0.271  1.00 20.00     0.012 C 
HETATM    2  C2  UNL     1     -32.620   9.160   0.757  1.00 20.00    -0.115 C 
HETATM    3  C11 UNL     1     -31.856   9.176   2.006  1.00 20.00     0.131 C 
ENDROOT
BRANCH   3   4
HETATM    4  C8  UNL     1     -32.330   8.067   2.950  1.00 20.00     0.069 C 
HETATM    5  C4  UNL     1     -33.721   8.406   3.516  1.00 20.00     0.043 C 
HETATM    6  C6  UNL     1     -34.374   7.277   4.334  1.00 20.00    -0.015 C 
HETATM    7  C3  UNL     1     -34.326   5.944   3.576  1.00 20.00     0.008 C 
HETATM    8  C9  UNL     1     -33.791   7.150   5.743  1.00 20.00     0.010 C 
HETATM    9  C7  UNL     1     -32.920   5.583   3.076  1.00 20.00    -0.015 C 
HETATM   10  C5  UNL     1     -32.344   6.719   2.214  1.00 20.00     0.043 C 
HETATM   11  C10 UNL     1     -32.954   4.277   2.281  1.00 20.00     0.010 C 
BRANCH   4  12
HETATM   12  O12 UNL     1     -31.381   7.984   4.014  1.00 20.00    -0.389 OA
HETATM   13  H30 UNL     1     -30.519   8.200   3.628  1.00 20.00     0.210 HD
ENDBRANCH   4  12
ENDBRANCH   3   4
TORSDOF 2
ENDMDL
MODEL 2
REMARK VINA RESULT:      -4.6      9.960     11.618
REMARK  2 active torsions:
REMARK  status: ('A' for Active; 'I' for Inactive)
REMARK    1  A    between atoms: C8_8  and  C11_11 
REMARK    2  A    between atoms: C8_8  and  O12_12 
ROOT
HETATM    1  C1  UNL     1     -36.974  16.198  -7.779  1.00 20.00     0.012 C 
HETATM    2  C2  UNL     1     -36.788  15.214  -7.115  1.00 20.00    -0.115 C 
HETATM    3  C11 UNL     1     -36.570  14.008  -6.315  1.00 20.00     0.131 C 
ENDROOT
BRANCH   3   4
HETATM    4  C8  UNL     1     -35.511  14.253  -5.236  1.00 20.00     0.069 C 
HETATM    5  C4  UNL     1     -34.187  14.703  -5.879  1.00 20.00     0.043 C 
HETATM    6  C6  UNL     1     -33.107  15.151  -4.878  1.00 20.00    -0.015 C 
HETATM    7  C3  UNL     1     -33.672  16.157  -3.866  1.00 20.00     0.008 C 
HETATM    8  C9  UNL     1     -32.414  13.976  -4.185  1.00 20.00     0.010 C 
HETATM    9  C7  UNL     1     -34.955  15.668  -3.181  1.00 20.00    -0.015 C 
HETATM   10  C5  UNL     1     -36.019  15.293  -4.226  1.00 20.00     0.043 C 
HETATM   11  C10 UNL     1     -35.495  16.739  -2.232  1.00 20.00     0.010 C 
BRANCH   4  12
HETATM   12  O12 UNL     1     -35.320  13.019  -4.544  1.00 20.00    -0.389 OA
HETATM   13  H30 UNL     1     -35.327  13.232  -3.599  1.00 20.00     0.210 HD
ENDBRANCH   4  12
ENDBRANCH   3   4
TORSDOF 2
ENDMDL
MODEL 3
REMARK VINA RESULT:      -4.6     10.717     11.580
REMARK  2 active torsions:
REMARK  status: ('A' for Active; 'I' for Inactive)
REMARK    1  A    between atoms: C8_8  and  C11_11 
REMARK    2  A    between atoms: C8_8  and  O12_12 
ROOT
HETATM    1  C1  UNL     1     -32.785  18.102  -1.276  1.00 20.00     0.012 C 
HETATM    2  C2  UNL     1     -33.767  17.470  -1.558  1.00 20.00    -0.115 C 
HETATM    3  C11 UNL     1     -34.969  16.702  -1.889  1.00 20.00     0.131 C 
ENDROOT
BRANCH   3   4
HETATM    4  C8  UNL     1     -34.960  16.283  -3.361  1.00 20.00     0.069 C 
HETATM    5  C4  UNL     1     -33.774  15.342  -3.643  1.00 20.00     0.043 C 
HETATM    6  C6  UNL     1     -33.772  14.715  -5.048  1.00 20.00    -0.015 C 
HETATM    7  C3  UNL     1     -35.138  14.101  -5.384  1.00 20.00     0.008 C 
HETATM    8  C9  UNL     1     -33.305  15.688  -6.133  1.00 20.00     0.010 C 
HETATM    9  C7  UNL     1     -36.306  15.071  -5.165  1.00 20.00    -0.015 C 
HETATM   10  C5  UNL     1     -36.295  15.618  -3.728  1.00 20.00     0.043 C 
HETATM   11  C10 UNL     1     -37.638  14.379  -5.461  1.00 20.00     0.010 C 
BRANCH   4  12
HETATM   12  O12 UNL     1     -34.829  17.474  -4.138  1.00 20.00    -0.389 OA
HETATM   13  H30 UNL     1     -35.200  17.273  -5.010  1.00 20.00     0.210 HD
ENDBRANCH   4  12
ENDBRANCH   3   4
TORSDOF 2
ENDMDL
MODEL 4
REMARK VINA RESULT:      -4.5     10.033     11.469
REMARK  2 active torsions:
REMARK  status: ('A' for Active; 'I' for Inactive)
REMARK    1  A    between atoms: C8_8  and  C11_11 
REMARK    2  A    between atoms: C8_8  and  O12_12 
ROOT
HETATM    1  C1  UNL     1     -38.985  14.910  -5.210  1.00 20.00     0.012 C 
HETATM    2  C2  UNL     1     -37.908  14.608  -5.646  1.00 20.00    -0.115 C 
HETATM    3  C11 UNL     1     -36.601  14.236  -6.192  1.00 20.00     0.131 C 
ENDROOT
BRANCH   3   4
HETATM    4  C8  UNL     1     -35.500  14.424  -5.145  1.00 20.00     0.069 C 
HETATM    5  C4  UNL     1     -34.190  14.871  -5.819  1.00 20.00     0.043 C 
HETATM    6  C6  UNL     1     -33.067  15.264  -4.844  1.00 20.00    -0.015 C 
HETATM    7  C3  UNL     1     -33.576  16.244  -3.778  1.00 20.00     0.008 C 
HETATM    8  C9  UNL     1     -32.373  14.052  -4.217  1.00 20.00     0.010 C 
HETATM    9  C7  UNL     1     -34.843  15.755  -3.064  1.00 20.00    -0.015 C 
HETATM   10  C5  UNL     1     -35.951  15.437  -4.082  1.00 20.00     0.043 C 
HETATM   11  C10 UNL     1     -35.327  16.801  -2.059  1.00 20.00     0.010 C 
BRANCH   4  12
HETATM   12  O12 UNL     1     -35.308  13.162  -4.503  1.00 20.00    -0.389 OA
HETATM   13  H30 UNL     1     -36.123  12.657  -4.645  1.00 20.00     0.210 HD
ENDBRANCH   4  12
ENDBRANCH   3   4
TORSDOF 2
ENDMDL
MODEL 5
REMARK VINA RESULT:      -4.5     10.717     11.968
REMARK  2 active torsions:
REMARK  status: ('A' for Active; 'I' for Inactive)
REMARK    1  A    between atoms: C8_8  and  C11_11 
REMARK    2  A    between atoms: C8_8  and  O12_12 
ROOT
HETATM    1  C1  UNL     1     -35.523  17.118  -0.799  1.00 20.00     0.012 C 
HETATM    2  C2  UNL     1     -34.665  16.967  -1.625  1.00 20.00    -0.115 C 
HETATM    3  C11 UNL     1     -33.608  16.785  -2.622  1.00 20.00     0.131 C 
ENDROOT
BRANCH   3   4
HETATM    4  C8  UNL     1     -34.204  16.476  -3.999  1.00 20.00     0.069 C 
HETATM    5  C4  UNL     1     -33.104  16.496  -5.075  1.00 20.00     0.043 C 
HETATM    6  C6  UNL     1     -33.558  16.021  -6.466  1.00 20.00    -0.015 C 
HETATM    7  C3  UNL     1     -34.309  14.685  -6.379  1.00 20.00     0.008 C 
HETATM    8  C9  UNL     1     -34.366  17.079  -7.221  1.00 20.00     0.010 C 
HETATM    9  C7  UNL     1     -35.448  14.700  -5.352  1.00 20.00    -0.015 C 
HETATM   10  C5  UNL     1     -34.926  15.120  -3.968  1.00 20.00     0.043 C 
HETATM   11  C10 UNL     1     -36.115  13.325  -5.274  1.00 20.00     0.010 C 
BRANCH   4  12
HETATM   12  O12 UNL     1     -35.173  17.489  -4.276  1.00 20.00    -0.389 OA
HETATM   13  H30 UNL     1     -35.008  17.782  -5.184  1.00 20.00     0.210 HD
ENDBRANCH   4  12
ENDBRANCH   3   4
TORSDOF 2
ENDMDL
MODEL 6
REMARK VINA RESULT:      -4.4     10.605     12.104
REMARK  2 active torsions:
REMARK  status: ('A' for Active; 'I' for Inactive)
REMARK    1  A    between atoms: C8_8  and  C11_11 
REMARK    2  A    between atoms: C8_8  and  O12_12 
ROOT
HETATM    1  C1  UNL     1     -35.177  16.638  -1.918  1.00 20.00     0.012 C 
HETATM    2  C2  UNL     1     -34.413  16.263  -2.765  1.00 20.00    -0.115 C 
HETATM    3  C11 UNL     1     -33.471  15.808  -3.789  1.00 20.00     0.131 C 
ENDROOT
BRANCH   3   4
HETATM    4  C8  UNL     1     -34.213  15.331  -5.040  1.00 20.00     0.069 C 
HETATM    5  C4  UNL     1     -34.996  14.040  -4.738  1.00 20.00     0.043 C 
HETATM    6  C6  UNL     1     -35.924  13.571  -5.873  1.00 20.00    -0.015 C 
HETATM    7  C3  UNL     1     -36.805  14.720  -6.380  1.00 20.00     0.008 C 
HETATM    8  C9  UNL     1     -35.168  12.888  -7.015  1.00 20.00     0.010 C 
HETATM    9  C7  UNL     1     -36.006  15.979  -6.744  1.00 20.00    -0.015 C 
HETATM   10  C5  UNL     1     -35.146  16.438  -5.554  1.00 20.00     0.043 C 
HETATM   11  C10 UNL     1     -36.947  17.101  -7.185  1.00 20.00     0.010 C 
BRANCH   4  12
HETATM   12  O12 UNL     1     -33.229  15.077  -6.044  1.00 20.00    -0.389 OA
HETATM   13  H30 UNL     1     -33.596  15.411  -6.876  1.00 20.00     0.210 HD
ENDBRANCH   4  12
ENDBRANCH   3   4
TORSDOF 2
ENDMDL
MODEL 7
REMARK VINA RESULT:      -4.4     10.446     11.778
REMARK  2 active torsions:
REMARK  status: ('A' for Active; 'I' for Inactive)
REMARK    1  A    between atoms: C8_8  and  C11_11 
REMARK    2  A    between atoms: C8_8  and  O12_12 
ROOT
HETATM    1  C1  UNL     1     -35.182  16.933  -1.223  1.00 20.00     0.012 C 
HETATM    2  C2  UNL     1     -34.553  16.648  -2.205  1.00 20.00    -0.115 C 
HETATM    3  C11 UNL     1     -33.775  16.304  -3.397  1.00 20.00     0.131 C 
ENDROOT
BRANCH   3   4
HETATM    4  C8  UNL     1     -34.675  15.712  -4.484  1.00 20.00     0.069 C 
HETATM    5  C4  UNL     1     -34.850  14.198  -4.268  1.00 20.00     0.043 C 
HETATM    6  C6  UNL     1     -35.880  13.531  -5.197  1.00 20.00    -0.015 C 
HETATM    7  C3  UNL     1     -37.204  14.308  -5.205  1.00 20.00     0.008 C 
HETATM    8  C9  UNL     1     -35.346  13.305  -6.613  1.00 20.00     0.010 C 
HETATM    9  C7  UNL     1     -37.023  15.805  -5.490  1.00 20.00    -0.015 C 
HETATM   10  C5  UNL     1     -36.032  16.431  -4.495  1.00 20.00     0.043 C 
HETATM   11  C10 UNL     1     -38.370  16.527  -5.426  1.00 20.00     0.010 C 
BRANCH   4  12
HETATM   12  O12 UNL     1     -34.035  15.952  -5.739  1.00 20.00    -0.389 OA
HETATM   13  H30 UNL     1     -33.107  16.141  -5.539  1.00 20.00     0.210 HD
ENDBRANCH   4  12
ENDBRANCH   3   4
TORSDOF 2
ENDMDL
MODEL 8
REMARK VINA RESULT:      -4.4     10.584     12.087
REMARK  2 active torsions:
REMARK  status: ('A' for Active; 'I' for Inactive)
REMARK    1  A    between atoms: C8_8  and  C11_11 
REMARK    2  A    between atoms: C8_8  and  O12_12 
ROOT
HETATM    1  C1  UNL     1     -34.826  13.259  -7.167  1.00 20.00     0.012 C 
HETATM    2  C2  UNL     1     -35.562  13.585  -6.276  1.00 20.00    -0.115 C 
HETATM    3  C11 UNL     1     -36.468  13.970  -5.192  1.00 20.00     0.131 C 
ENDROOT
BRANCH   3   4
HETATM    4  C8  UNL     1     -35.986  15.253  -4.509  1.00 20.00     0.069 C 
HETATM    5  C4  UNL     1     -34.650  15.005  -3.786  1.00 20.00     0.043 C 
HETATM    6  C6  UNL     1     -33.983  16.270  -3.218  1.00 20.00    -0.015 C 
HETATM    7  C3  UNL     1     -33.914  17.383  -4.273  1.00 20.00     0.008 C 
HETATM    8  C9  UNL     1     -34.636  16.756  -1.922  1.00 20.00     0.010 C 
HETATM    9  C7  UNL     1     -35.267  17.668  -4.938  1.00 20.00    -0.015 C 
HETATM   10  C5  UNL     1     -35.857  16.383  -5.542  1.00 20.00     0.043 C 
HETATM   11  C10 UNL     1     -35.116  18.743  -6.017  1.00 20.00     0.010 C 
BRANCH   4  12
HETATM   12  O12 UNL     1     -36.988  15.629  -3.563  1.00 20.00    -0.389 OA
HETATM   13  H30 UNL     1     -37.478  16.363  -3.962  1.00 20.00     0.210 HD
ENDBRANCH   4  12
ENDBRANCH   3   4
TORSDOF 2
ENDMDL
MODEL 9
REMARK VINA RESULT:      -4.3     10.955     11.582
REMARK  2 active torsions:
REMARK  status: ('A' for Active; 'I' for Inactive)
REMARK    1  A    between atoms: C8_8  and  C11_11 
REMARK    2  A    between atoms: C8_8  and  O12_12 
ROOT
HETATM    1  C1  UNL     1     -36.226  15.396  -4.117  1.00 20.00     0.012 C 
HETATM    2  C2  UNL     1     -35.206  15.822  -3.646  1.00 20.00    -0.115 C 
HETATM    3  C11 UNL     1     -33.956  16.331  -3.080  1.00 20.00     0.131 C 
ENDROOT
BRANCH   3   4
HETATM    4  C8  UNL     1     -34.232  17.411  -2.031  1.00 20.00     0.069 C 
HETATM    5  C4  UNL     1     -35.347  16.954  -1.073  1.00 20.00     0.043 C 
HETATM    6  C6  UNL     1     -35.581  17.884   0.130  1.00 20.00    -0.015 C 
HETATM    7  C3  UNL     1     -34.262  18.219   0.838  1.00 20.00     0.008 C 
HETATM    8  C9  UNL     1     -36.365  19.146  -0.237  1.00 20.00     0.010 C 
HETATM    9  C7  UNL     1     -33.180  18.740  -0.117  1.00 20.00    -0.015 C 
HETATM   10  C5  UNL     1     -32.943  17.743  -1.264  1.00 20.00     0.043 C 
HETATM   11  C10 UNL     1     -31.877  18.998   0.641  1.00 20.00     0.010 C 
BRANCH   4  12
HETATM   12  O12 UNL     1     -34.646  18.585  -2.732  1.00 20.00    -0.389 OA
HETATM   13  H30 UNL     1     -34.050  19.295  -2.452  1.00 20.00     0.210 HD
ENDBRANCH   4  12
ENDBRANCH   3   4
TORSDOF 2
ENDMDL
