MODEL 1
REMARK VINA RESULT:      -5.7      0.000      0.000
REMARK  4 active torsions:
REMARK  status: ('A' for Active; 'I' for Inactive)
REMARK    1  A    between atoms: C3_3  and  C4_4 
REMARK    2  A    between atoms: C4_4  and  C5_5 
REMARK    3  A    between atoms: C5_5  and  C6_6 
REMARK    4  A    between atoms: C5_5  and  O7_7 
ROOT
HETATM    1  C5  UNL     1     -33.674   7.195   3.986  1.00 20.00     0.226 C 
ENDROOT
BRANCH   1   2
HETATM    2  C4  UNL     1     -32.744   7.046   2.779  1.00 20.00     0.045 C 
BRANCH   2   3
HETATM    3  C3  UNL     1     -32.014   8.320   2.468  1.00 20.00    -0.012 A 
HETATM    4  C1  UNL     1     -31.498   8.577   1.079  1.00 20.00     0.005 A 
HETATM    5  C2  UNL     1     -32.659   9.371   1.608  1.00 20.00     0.005 A 
ENDBRANCH   2   3
ENDBRANCH   1   2
BRANCH   1   6
HETATM    6  C6  UNL     1     -34.431   5.913   4.269  1.00 20.00     0.413 C 
HETATM    7  F8  UNL     1     -34.554   5.689   5.595  1.00 20.00    -0.168 F 
HETATM    8  F9  UNL     1     -33.802   4.848   3.726  1.00 20.00    -0.168 F 
HETATM    9  F10 UNL     1     -35.674   5.961   3.741  1.00 20.00    -0.168 F 
ENDBRANCH   1   6
BRANCH   1  10
HETATM   10  O7  UNL     1     -32.889   7.519   5.131  1.00 20.00    -0.387 OA
HETATM   11  H19 UNL     1     -32.501   8.391   4.962  1.00 20.00     0.210 HD
ENDBRANCH   1  10
TORSDOF 4
ENDMDL
MODEL 2
REMARK VINA RESULT:      -5.5      1.375      1.951
REMARK  4 active torsions:
REMARK  status: ('A' for Active; 'I' for Inactive)
REMARK    1  A    between atoms: C3_3  and  C4_4 
REMARK    2  A    between atoms: C4_4  and  C5_5 
REMARK    3  A    between atoms: C5_5  and  C6_6 
REMARK    4  A    between atoms: C5_5  and  O7_7 
ROOT
HETATM    1  C5  UNL     1     -33.486   5.780   3.865  1.00 20.00     0.226 C 
ENDROOT
BRANCH   1   2
HETATM    2  C4  UNL     1     -33.596   7.220   3.357  1.00 20.00     0.045 C 
BRANCH   2   3
HETATM    3  C3  UNL     1     -32.469   7.579   2.433  1.00 20.00    -0.012 A 
HETATM    4  C1  UNL     1     -32.430   8.933   1.777  1.00 20.00     0.005 A 
HETATM    5  C2  UNL     1     -31.438   8.590   2.854  1.00 20.00     0.005 A 
ENDBRANCH   2   3
ENDBRANCH   1   2
BRANCH   1   6
HETATM    6  C6  UNL     1     -34.772   5.322   4.524  1.00 20.00     0.413 C 
HETATM    7  F8  UNL     1     -35.859   5.808   3.886  1.00 20.00    -0.168 F 
HETATM    8  F9  UNL     1     -34.831   5.730   5.811  1.00 20.00    -0.168 F 
HETATM    9  F10 UNL     1     -34.860   3.974   4.522  1.00 20.00    -0.168 F 
ENDBRANCH   1   6
BRANCH   1  10
HETATM   10  O7  UNL     1     -33.215   4.924   2.759  1.00 20.00    -0.387 OA
HETATM   11  H19 UNL     1     -33.944   4.286   2.718  1.00 20.00     0.210 HD
ENDBRANCH   1  10
TORSDOF 4
ENDMDL
MODEL 3
REMARK VINA RESULT:      -5.5      1.380      1.581
REMARK  4 active torsions:
REMARK  status: ('A' for Active; 'I' for Inactive)
REMARK    1  A    between atoms: C3_3  and  C4_4 
REMARK    2  A    between atoms: C4_4  and  C5_5 
REMARK    3  A    between atoms: C5_5  and  C6_6 
REMARK    4  A    between atoms: C5_5  and  O7_7 
ROOT
HETATM    1  C5  UNL     1     -33.480   5.763   3.863  1.00 20.00     0.226 C 
ENDROOT
BRANCH   1   2
HETATM    2  C4  UNL     1     -33.600   7.201   3.354  1.00 20.00     0.045 C 
BRANCH   2   3
HETATM    3  C3  UNL     1     -32.471   7.570   2.436  1.00 20.00    -0.012 A 
HETATM    4  C1  UNL     1     -32.433   8.928   1.790  1.00 20.00     0.005 A 
HETATM    5  C2  UNL     1     -31.445   8.581   2.869  1.00 20.00     0.005 A 
ENDBRANCH   2   3
ENDBRANCH   1   2
BRANCH   1   6
HETATM    6  C6  UNL     1     -34.761   5.299   4.530  1.00 20.00     0.413 C 
HETATM    7  F8  UNL     1     -34.814   5.682   5.824  1.00 20.00    -0.168 F 
HETATM    8  F9  UNL     1     -34.868   3.953   4.492  1.00 20.00    -0.168 F 
HETATM    9  F10 UNL     1     -35.842   5.811   3.903  1.00 20.00    -0.168 F 
ENDBRANCH   1   6
BRANCH   1  10
HETATM   10  O7  UNL     1     -33.211   4.906   2.756  1.00 20.00    -0.387 OA
HETATM   11  H19 UNL     1     -33.996   4.934   2.188  1.00 20.00     0.210 HD
ENDBRANCH   1  10
TORSDOF 4
ENDMDL
MODEL 4
REMARK VINA RESULT:      -5.5      1.055      1.826
REMARK  4 active torsions:
REMARK  status: ('A' for Active; 'I' for Inactive)
REMARK    1  A    between atoms: C3_3  and  C4_4 
REMARK    2  A    between atoms: C4_4  and  C5_5 
REMARK    3  A    between atoms: C5_5  and  C6_6 
REMARK    4  A    between atoms: C5_5  and  O7_7 
ROOT
HETATM    1  C5  UNL     1     -33.451   7.353   3.630  1.00 20.00     0.226 C 
ENDROOT
BRANCH   1   2
HETATM    2  C4  UNL     1     -32.253   7.987   2.917  1.00 20.00     0.045 C 
BRANCH   2   3
HETATM    3  C3  UNL     1     -32.622   8.527   1.566  1.00 20.00    -0.012 A 
HETATM    4  C1  UNL     1     -32.485   9.996   1.275  1.00 20.00     0.005 A 
HETATM    5  C2  UNL     1     -31.552   9.011   0.627  1.00 20.00     0.005 A 
ENDBRANCH   2   3
ENDBRANCH   1   2
BRANCH   1   6
HETATM    6  C6  UNL     1     -33.693   5.933   3.157  1.00 20.00     0.413 C 
HETATM    7  F8  UNL     1     -34.595   5.891   2.152  1.00 20.00    -0.168 F 
HETATM    8  F9  UNL     1     -34.158   5.159   4.163  1.00 20.00    -0.168 F 
HETATM    9  F10 UNL     1     -32.548   5.373   2.709  1.00 20.00    -0.168 F 
ENDBRANCH   1   6
BRANCH   1  10
HETATM   10  O7  UNL     1     -33.187   7.325   5.031  1.00 20.00    -0.387 OA
HETATM   11  H19 UNL     1     -32.532   6.625   5.174  1.00 20.00     0.210 HD
ENDBRANCH   1  10
TORSDOF 4
ENDMDL
MODEL 5
REMARK VINA RESULT:      -5.4      3.094      4.450
REMARK  4 active torsions:
REMARK  status: ('A' for Active; 'I' for Inactive)
REMARK    1  A    between atoms: C3_3  and  C4_4 
REMARK    2  A    between atoms: C4_4  and  C5_5 
REMARK    3  A    between atoms: C5_5  and  C6_6 
REMARK    4  A    between atoms: C5_5  and  O7_7 
ROOT
HETATM    1  C5  UNL     1     -32.138   7.796   2.624  1.00 20.00     0.226 C 
ENDROOT
BRANCH   1   2
HETATM    2  C4  UNL     1     -33.563   7.593   3.143  1.00 20.00     0.045 C 
BRANCH   2   3
HETATM    3  C3  UNL     1     -33.723   6.278   3.850  1.00 20.00    -0.012 A 
HETATM    4  C1  UNL     1     -34.304   6.231   5.237  1.00 20.00     0.005 A 
HETATM    5  C2  UNL     1     -35.094   5.701   4.073  1.00 20.00     0.005 A 
ENDBRANCH   2   3
ENDBRANCH   1   2
BRANCH   1   6
HETATM    6  C6  UNL     1     -32.105   8.754   1.448  1.00 20.00     0.413 C 
HETATM    7  F8  UNL     1     -32.078  10.041   1.856  1.00 20.00    -0.168 F 
HETATM    8  F9  UNL     1     -33.189   8.592   0.659  1.00 20.00    -0.168 F 
HETATM    9  F10 UNL     1     -31.011   8.540   0.684  1.00 20.00    -0.168 F 
ENDBRANCH   1   6
BRANCH   1  10
HETATM   10  O7  UNL     1     -31.342   8.341   3.673  1.00 20.00    -0.387 OA
HETATM   11  H19 UNL     1     -31.810   8.153   4.501  1.00 20.00     0.210 HD
ENDBRANCH   1  10
TORSDOF 4
ENDMDL
MODEL 6
REMARK VINA RESULT:      -5.4      3.102      4.430
REMARK  4 active torsions:
REMARK  status: ('A' for Active; 'I' for Inactive)
REMARK    1  A    between atoms: C3_3  and  C4_4 
REMARK    2  A    between atoms: C4_4  and  C5_5 
REMARK    3  A    between atoms: C5_5  and  C6_6 
REMARK    4  A    between atoms: C5_5  and  O7_7 
ROOT
HETATM    1  C5  UNL     1     -32.137   7.797   2.610  1.00 20.00     0.226 C 
ENDROOT
BRANCH   1   2
HETATM    2  C4  UNL     1     -33.565   7.589   3.120  1.00 20.00     0.045 C 
BRANCH   2   3
HETATM    3  C3  UNL     1     -33.727   6.272   3.822  1.00 20.00    -0.012 A 
HETATM    4  C1  UNL     1     -34.294   6.220   5.214  1.00 20.00     0.005 A 
HETATM    5  C2  UNL     1     -35.099   5.703   4.054  1.00 20.00     0.005 A 
ENDBRANCH   2   3
ENDBRANCH   1   2
BRANCH   1   6
HETATM    6  C6  UNL     1     -32.098   8.755   1.435  1.00 20.00     0.413 C 
HETATM    7  F8  UNL     1     -33.178   8.608   0.638  1.00 20.00    -0.168 F 
HETATM    8  F9  UNL     1     -30.996   8.554   0.681  1.00 20.00    -0.168 F 
HETATM    9  F10 UNL     1     -32.071  10.037   1.861  1.00 20.00    -0.168 F 
ENDBRANCH   1   6
BRANCH   1  10
HETATM   10  O7  UNL     1     -31.349   8.343   3.665  1.00 20.00    -0.387 OA
HETATM   11  H19 UNL     1     -30.481   8.548   3.284  1.00 20.00     0.210 HD
ENDBRANCH   1  10
TORSDOF 4
ENDMDL
MODEL 7
REMARK VINA RESULT:      -5.2      3.791      4.805
REMARK  4 active torsions:
REMARK  status: ('A' for Active; 'I' for Inactive)
REMARK    1  A    between atoms: C3_3  and  C4_4 
REMARK    2  A    between atoms: C4_4  and  C5_5 
REMARK    3  A    between atoms: C5_5  and  C6_6 
REMARK    4  A    between atoms: C5_5  and  O7_7 
ROOT
HETATM    1  C5  UNL     1     -32.276   8.700   1.194  1.00 20.00     0.226 C 
ENDROOT
BRANCH   1   2
HETATM    2  C4  UNL     1     -32.040   8.709   2.706  1.00 20.00     0.045 C 
BRANCH   2   3
HETATM    3  C3  UNL     1     -32.356   7.382   3.334  1.00 20.00    -0.012 A 
HETATM    4  C1  UNL     1     -33.642   7.189   4.089  1.00 20.00     0.005 A 
HETATM    5  C2  UNL     1     -33.442   6.514   2.761  1.00 20.00     0.005 A 
ENDBRANCH   2   3
ENDBRANCH   1   2
BRANCH   1   6
HETATM    6  C6  UNL     1     -32.897   9.999   0.719  1.00 20.00     0.413 C 
HETATM    7  F8  UNL     1     -33.879  10.414   1.548  1.00 20.00    -0.168 F 
HETATM    8  F9  UNL     1     -33.429   9.861  -0.515  1.00 20.00    -0.168 F 
HETATM    9  F10 UNL     1     -31.970  10.980   0.654  1.00 20.00    -0.168 F 
ENDBRANCH   1   6
BRANCH   1  10
HETATM   10  O7  UNL     1     -31.023   8.531   0.535  1.00 20.00    -0.387 OA
HETATM   11  H19 UNL     1     -31.038   7.647   0.137  1.00 20.00     0.210 HD
ENDBRANCH   1  10
TORSDOF 4
ENDMDL
MODEL 8
REMARK VINA RESULT:      -5.2      1.383      1.617
REMARK  4 active torsions:
REMARK  status: ('A' for Active; 'I' for Inactive)
REMARK    1  A    between atoms: C3_3  and  C4_4 
REMARK    2  A    between atoms: C4_4  and  C5_5 
REMARK    3  A    between atoms: C5_5  and  C6_6 
REMARK    4  A    between atoms: C5_5  and  O7_7 
ROOT
HETATM    1  C5  UNL     1     -33.302   6.181   3.555  1.00 20.00     0.226 C 
ENDROOT
BRANCH   1   2
HETATM    2  C4  UNL     1     -32.580   7.522   3.401  1.00 20.00     0.045 C 
BRANCH   2   3
HETATM    3  C3  UNL     1     -32.760   8.105   2.029  1.00 20.00    -0.012 A 
HETATM    4  C1  UNL     1     -32.483   9.563   1.784  1.00 20.00     0.005 A 
HETATM    5  C2  UNL     1     -31.562   8.518   1.220  1.00 20.00     0.005 A 
ENDBRANCH   2   3
ENDBRANCH   1   2
BRANCH   1   6
HETATM    6  C6  UNL     1     -34.319   6.222   4.680  1.00 20.00     0.413 C 
HETATM    7  F8  UNL     1     -34.268   7.391   5.354  1.00 20.00    -0.168 F 
HETATM    8  F9  UNL     1     -34.103   5.224   5.564  1.00 20.00    -0.168 F 
HETATM    9  F10 UNL     1     -35.573   6.075   4.200  1.00 20.00    -0.168 F 
ENDBRANCH   1   6
BRANCH   1  10
HETATM   10  O7  UNL     1     -33.985   5.887   2.339  1.00 20.00    -0.387 OA
HETATM   11  H19 UNL     1     -34.912   6.136   2.475  1.00 20.00     0.210 HD
ENDBRANCH   1  10
TORSDOF 4
ENDMDL
MODEL 9
REMARK VINA RESULT:      -5.0      2.724      4.375
REMARK  4 active torsions:
REMARK  status: ('A' for Active; 'I' for Inactive)
REMARK    1  A    between atoms: C3_3  and  C4_4 
REMARK    2  A    between atoms: C4_4  and  C5_5 
REMARK    3  A    between atoms: C5_5  and  C6_6 
REMARK    4  A    between atoms: C5_5  and  O7_7 
ROOT
HETATM    1  C5  UNL     1     -33.263   6.926   2.824  1.00 20.00     0.226 C 
ENDROOT
BRANCH   1   2
HETATM    2  C4  UNL     1     -33.660   6.902   4.302  1.00 20.00     0.045 C 
BRANCH   2   3
HETATM    3  C3  UNL     1     -34.744   5.902   4.578  1.00 20.00    -0.012 A 
HETATM    4  C1  UNL     1     -34.435   4.430   4.574  1.00 20.00     0.005 A 
HETATM    5  C2  UNL     1     -34.749   5.128   5.868  1.00 20.00     0.005 A 
ENDBRANCH   2   3
ENDBRANCH   1   2
BRANCH   1   6
HETATM    6  C6  UNL     1     -32.349   8.095   2.511  1.00 20.00     0.413 C 
HETATM    7  F8  UNL     1     -31.529   7.822   1.473  1.00 20.00    -0.168 F 
HETATM    8  F9  UNL     1     -31.579   8.408   3.576  1.00 20.00    -0.168 F 
HETATM    9  F10 UNL     1     -33.067   9.195   2.192  1.00 20.00    -0.168 F 
ENDBRANCH   1   6
BRANCH   1  10
HETATM   10  O7  UNL     1     -32.572   5.718   2.516  1.00 20.00    -0.387 OA
HETATM   11  H19 UNL     1     -33.181   5.179   1.987  1.00 20.00     0.210 HD
ENDBRANCH   1  10
TORSDOF 4
ENDMDL
