MODEL 1
REMARK VINA RESULT:      -5.6      0.000      0.000
REMARK  2 active torsions:
REMARK  status: ('A' for Active; 'I' for Inactive)
REMARK    1  A    between atoms: C5_5  and  C6_6 
REMARK    2  A    between atoms: C6_6  and  C7_7 
ROOT
HETATM    1  C1  UNL     1     -33.910   7.172   5.925  1.00 20.00     0.027 C 
HETATM    2  C2  UNL     1     -32.956   7.496   4.779  1.00 20.00     0.009 C 
HETATM    3  C3  UNL     1     -34.495   5.776   5.760  1.00 20.00     0.167 C 
HETATM    4  C4  UNL     1     -34.229   5.825   3.405  1.00 20.00     0.172 C 
HETATM    5  C5  UNL     1     -33.628   7.233   3.428  1.00 20.00     0.010 C 
HETATM    6  O8  UNL     1     -35.138   5.647   4.493  1.00 20.00    -0.391 OA
ENDROOT
BRANCH   5   7
HETATM    7  C6  UNL     1     -32.647   7.431   2.277  1.00 20.00     0.017 C 
BRANCH   7   8
HETATM    8  C7  UNL     1     -31.956   8.777   2.377  1.00 20.00     0.085 C 
HETATM    9 BR9  UNL     1     -32.582   9.942   0.948  1.00 20.00    -0.096 Br
ENDBRANCH   7   8
ENDBRANCH   5   7
TORSDOF 2
ENDMDL
MODEL 2
REMARK VINA RESULT:      -5.2      1.019      1.739
REMARK  2 active torsions:
REMARK  status: ('A' for Active; 'I' for Inactive)
REMARK    1  A    between atoms: C5_5  and  C6_6 
REMARK    2  A    between atoms: C6_6  and  C7_7 
ROOT
HETATM    1  C1  UNL     1     -34.286   4.514   4.505  1.00 20.00     0.027 C 
HETATM    2  C2  UNL     1     -33.998   5.246   3.197  1.00 20.00     0.009 C 
HETATM    3  C3  UNL     1     -34.780   5.486   5.568  1.00 20.00     0.167 C 
HETATM    4  C4  UNL     1     -33.655   7.318   4.572  1.00 20.00     0.172 C 
HETATM    5  C5  UNL     1     -33.086   6.452   3.445  1.00 20.00     0.010 C 
HETATM    6  O8  UNL     1     -33.843   6.544   5.758  1.00 20.00    -0.391 OA
ENDROOT
BRANCH   5   7
HETATM    7  C6  UNL     1     -32.892   7.266   2.170  1.00 20.00     0.017 C 
BRANCH   7   8
HETATM    8  C7  UNL     1     -32.078   8.516   2.442  1.00 20.00     0.085 C 
HETATM    9 BR9  UNL     1     -32.475   9.862   1.092  1.00 20.00    -0.096 Br
ENDBRANCH   7   8
ENDBRANCH   5   7
TORSDOF 2
ENDMDL
MODEL 3
REMARK VINA RESULT:      -4.1     11.093     11.935
REMARK  2 active torsions:
REMARK  status: ('A' for Active; 'I' for Inactive)
REMARK    1  A    between atoms: C5_5  and  C6_6 
REMARK    2  A    between atoms: C6_6  and  C7_7 
ROOT
HETATM    1  C1  UNL     1     -34.353  13.783  -7.314  1.00 20.00     0.027 C 
HETATM    2  C2  UNL     1     -33.872  14.919  -6.416  1.00 20.00     0.009 C 
HETATM    3  C3  UNL     1     -35.701  13.258  -6.842  1.00 20.00     0.167 C 
HETATM    4  C4  UNL     1     -35.304  13.932  -4.605  1.00 20.00     0.172 C 
HETATM    5  C5  UNL     1     -33.922  14.499  -4.943  1.00 20.00     0.010 C 
HETATM    6  O8  UNL     1     -35.632  12.849  -5.477  1.00 20.00    -0.391 OA
ENDROOT
BRANCH   5   7
HETATM    7  C6  UNL     1     -33.566  15.664  -4.026  1.00 20.00     0.017 C 
BRANCH   7   8
HETATM    8  C7  UNL     1     -34.722  16.007  -3.107  1.00 20.00     0.085 C 
HETATM    9 BR9  UNL     1     -34.098  17.167  -1.673  1.00 20.00    -0.096 Br
ENDBRANCH   7   8
ENDBRANCH   5   7
TORSDOF 2
ENDMDL
MODEL 4
REMARK VINA RESULT:      -3.8      2.887      4.150
REMARK  2 active torsions:
REMARK  status: ('A' for Active; 'I' for Inactive)
REMARK    1  A    between atoms: C5_5  and  C6_6 
REMARK    2  A    between atoms: C6_6  and  C7_7 
ROOT
HETATM    1  C1  UNL     1     -32.252   7.913   2.408  1.00 20.00     0.027 C 
HETATM    2  C2  UNL     1     -33.347   6.864   2.580  1.00 20.00     0.009 C 
HETATM    3  C3  UNL     1     -31.432   8.049   3.683  1.00 20.00     0.167 C 
HETATM    4  C4  UNL     1     -33.227   7.318   5.046  1.00 20.00     0.172 C 
HETATM    5  C5  UNL     1     -34.163   7.140   3.847  1.00 20.00     0.010 C 
HETATM    6  O8  UNL     1     -32.274   8.352   4.794  1.00 20.00    -0.391 OA
ENDROOT
BRANCH   5   7
HETATM    7  C6  UNL     1     -35.178   6.031   4.100  1.00 20.00     0.017 C 
BRANCH   7   8
HETATM    8  C7  UNL     1     -34.668   5.054   5.142  1.00 20.00     0.085 C 
HETATM    9 BR9  UNL     1     -33.720   3.597   4.266  1.00 20.00    -0.096 Br
ENDBRANCH   7   8
ENDBRANCH   5   7
TORSDOF 2
ENDMDL
MODEL 5
REMARK VINA RESULT:      -3.8     11.082     12.189
REMARK  2 active torsions:
REMARK  status: ('A' for Active; 'I' for Inactive)
REMARK    1  A    between atoms: C5_5  and  C6_6 
REMARK    2  A    between atoms: C6_6  and  C7_7 
ROOT
HETATM    1  C1  UNL     1     -33.554  15.619  -6.694  1.00 20.00     0.027 C 
HETATM    2  C2  UNL     1     -33.698  16.502  -5.458  1.00 20.00     0.009 C 
HETATM    3  C3  UNL     1     -34.420  14.374  -6.569  1.00 20.00     0.167 C 
HETATM    4  C4  UNL     1     -34.351  14.430  -4.201  1.00 20.00     0.172 C 
HETATM    5  C5  UNL     1     -33.473  15.683  -4.182  1.00 20.00     0.010 C 
HETATM    6  O8  UNL     1     -34.104  13.657  -5.377  1.00 20.00    -0.391 OA
ENDROOT
BRANCH   5   7
HETATM    7  C6  UNL     1     -33.737  16.522  -2.936  1.00 20.00     0.017 C 
BRANCH   7   8
HETATM    8  C7  UNL     1     -35.199  16.463  -2.540  1.00 20.00     0.085 C 
HETATM    9 BR9  UNL     1     -35.440  17.297  -0.798  1.00 20.00    -0.096 Br
ENDBRANCH   7   8
ENDBRANCH   5   7
TORSDOF 2
ENDMDL
MODEL 6
REMARK VINA RESULT:      -3.7     10.986     11.585
REMARK  2 active torsions:
REMARK  status: ('A' for Active; 'I' for Inactive)
REMARK    1  A    between atoms: C5_5  and  C6_6 
REMARK    2  A    between atoms: C6_6  and  C7_7 
ROOT
HETATM    1  C1  UNL     1     -36.743  14.706  -5.140  1.00 20.00     0.027 C 
HETATM    2  C2  UNL     1     -36.255  15.549  -3.965  1.00 20.00     0.009 C 
HETATM    3  C3  UNL     1     -35.972  13.396  -5.219  1.00 20.00     0.167 C 
HETATM    4  C4  UNL     1     -34.072  14.322  -4.147  1.00 20.00     0.172 C 
HETATM    5  C5  UNL     1     -34.730  15.697  -4.005  1.00 20.00     0.010 C 
HETATM    6  O8  UNL     1     -34.569  13.641  -5.301  1.00 20.00    -0.391 OA
ENDROOT
BRANCH   5   7
HETATM    7  C6  UNL     1     -34.216  16.429  -2.771  1.00 20.00     0.017 C 
BRANCH   7   8
HETATM    8  C7  UNL     1     -35.349  16.742  -1.812  1.00 20.00     0.085 C 
HETATM    9 BR9  UNL     1     -34.690  17.861  -0.362  1.00 20.00    -0.096 Br
ENDBRANCH   7   8
ENDBRANCH   5   7
TORSDOF 2
ENDMDL
MODEL 7
REMARK VINA RESULT:      -3.7      2.716      4.063
REMARK  2 active torsions:
REMARK  status: ('A' for Active; 'I' for Inactive)
REMARK    1  A    between atoms: C5_5  and  C6_6 
REMARK    2  A    between atoms: C6_6  and  C7_7 
ROOT
HETATM    1  C1  UNL     1     -31.338   8.360   3.411  1.00 20.00     0.027 C 
HETATM    2  C2  UNL     1     -32.271   8.169   4.604  1.00 20.00     0.009 C 
HETATM    3  C3  UNL     1     -32.135   8.486   2.120  1.00 20.00     0.167 C 
HETATM    4  C4  UNL     1     -33.948   7.232   2.989  1.00 20.00     0.172 C 
HETATM    5  C5  UNL     1     -33.256   7.025   4.339  1.00 20.00     0.010 C 
HETATM    6  O8  UNL     1     -32.985   7.354   1.941  1.00 20.00    -0.391 OA
ENDROOT
BRANCH   5   7
HETATM    7  C6  UNL     1     -34.275   6.904   5.467  1.00 20.00     0.017 C 
BRANCH   7   8
HETATM    8  C7  UNL     1     -34.398   5.467   5.937  1.00 20.00     0.085 C 
HETATM    9 BR9  UNL     1     -34.303   4.267   4.407  1.00 20.00    -0.096 Br
ENDBRANCH   7   8
ENDBRANCH   5   7
TORSDOF 2
ENDMDL
MODEL 8
REMARK VINA RESULT:      -3.6     11.196     11.587
REMARK  2 active torsions:
REMARK  status: ('A' for Active; 'I' for Inactive)
REMARK    1  A    between atoms: C5_5  and  C6_6 
REMARK    2  A    between atoms: C6_6  and  C7_7 
ROOT
HETATM    1  C1  UNL     1     -35.584  17.488   0.376  1.00 20.00     0.027 C 
HETATM    2  C2  UNL     1     -35.428  17.215  -1.117  1.00 20.00     0.009 C 
HETATM    3  C3  UNL     1     -34.719  18.667   0.801  1.00 20.00     0.167 C 
HETATM    4  C4  UNL     1     -33.174  18.308  -0.959  1.00 20.00     0.172 C 
HETATM    5  C5  UNL     1     -33.947  17.098  -1.492  1.00 20.00     0.010 C 
HETATM    6  O8  UNL     1     -33.355  18.442   0.451  1.00 20.00    -0.391 OA
ENDROOT
BRANCH   5   7
HETATM    7  C6  UNL     1     -33.770  16.951  -2.999  1.00 20.00     0.017 C 
BRANCH   7   8
HETATM    8  C7  UNL     1     -34.557  15.768  -3.526  1.00 20.00     0.085 C 
HETATM    9 BR9  UNL     1     -33.361  14.551  -4.463  1.00 20.00    -0.096 Br
ENDBRANCH   7   8
ENDBRANCH   5   7
TORSDOF 2
ENDMDL
MODEL 9
REMARK VINA RESULT:      -3.5     11.631     12.210
REMARK  2 active torsions:
REMARK  status: ('A' for Active; 'I' for Inactive)
REMARK    1  A    between atoms: C5_5  and  C6_6 
REMARK    2  A    between atoms: C6_6  and  C7_7 
ROOT
HETATM    1  C1  UNL     1     -34.062  17.940  -0.561  1.00 20.00     0.027 C 
HETATM    2  C2  UNL     1     -34.797  16.946  -1.455  1.00 20.00     0.009 C 
HETATM    3  C3  UNL     1     -33.505  19.093  -1.384  1.00 20.00     0.167 C 
HETATM    4  C4  UNL     1     -33.367  17.771  -3.346  1.00 20.00     0.172 C 
HETATM    5  C5  UNL     1     -33.915  16.529  -2.637  1.00 20.00     0.010 C 
HETATM    6  O8  UNL     1     -32.661  18.607  -2.427  1.00 20.00    -0.391 OA
ENDROOT
BRANCH   5   7
HETATM    7  C6  UNL     1     -34.680  15.635  -3.606  1.00 20.00     0.017 C 
BRANCH   7   8
HETATM    8  C7  UNL     1     -36.148  16.012  -3.651  1.00 20.00     0.085 C 
HETATM    9 BR9  UNL     1     -37.118  14.737  -4.759  1.00 20.00    -0.096 Br
ENDBRANCH   7   8
ENDBRANCH   5   7
TORSDOF 2
ENDMDL
