MODEL 1
REMARK VINA RESULT:      -5.5      0.000      0.000
REMARK  2 active torsions:
REMARK  status: ('A' for Active; 'I' for Inactive)
REMARK    1  A    between atoms: C5_5  and  C6_6 
REMARK    2  A    between atoms: C6_6  and  C7_7 
ROOT
HETATM    1  C1  UNL     1     -34.401   6.506   5.850  1.00 20.00     0.027 C 
HETATM    2  C2  UNL     1     -33.248   7.298   5.242  1.00 20.00     0.009 C 
HETATM    3  C3  UNL     1     -34.553   5.159   5.157  1.00 20.00     0.167 C 
HETATM    4  C4  UNL     1     -33.593   5.962   3.145  1.00 20.00     0.172 C 
HETATM    5  C5  UNL     1     -33.386   7.367   3.716  1.00 20.00     0.010 C 
HETATM    6  O8  UNL     1     -34.723   5.331   3.751  1.00 20.00    -0.391 OA
ENDROOT
BRANCH   5   7
HETATM    7  C6  UNL     1     -32.176   8.046   3.083  1.00 20.00     0.021 C 
BRANCH   7   8
HETATM    8  C7  UNL     1     -32.379   8.392   1.614  1.00 20.00     0.115 C 
HETATM    9 CL9  UNL     1     -32.534  10.145   1.355  1.00 20.00    -0.130 Cl
ENDBRANCH   7   8
ENDBRANCH   5   7
TORSDOF 2
ENDMDL
MODEL 2
REMARK VINA RESULT:      -5.1      1.263      1.893
REMARK  2 active torsions:
REMARK  status: ('A' for Active; 'I' for Inactive)
REMARK    1  A    between atoms: C5_5  and  C6_6 
REMARK    2  A    between atoms: C6_6  and  C7_7 
ROOT
HETATM    1  C1  UNL     1     -34.182   4.406   4.287  1.00 20.00     0.027 C 
HETATM    2  C2  UNL     1     -34.012   5.404   3.147  1.00 20.00     0.009 C 
HETATM    3  C3  UNL     1     -34.764   5.088   5.518  1.00 20.00     0.167 C 
HETATM    4  C4  UNL     1     -33.888   7.200   4.896  1.00 20.00     0.172 C 
HETATM    5  C5  UNL     1     -33.245   6.644   3.623  1.00 20.00     0.010 C 
HETATM    6  O8  UNL     1     -33.955   6.197   5.910  1.00 20.00    -0.391 OA
ENDROOT
BRANCH   5   7
HETATM    7  C6  UNL     1     -33.178   7.704   2.530  1.00 20.00     0.021 C 
BRANCH   7   8
HETATM    8  C7  UNL     1     -31.800   8.339   2.390  1.00 20.00     0.115 C 
HETATM    9 CL9  UNL     1     -31.492   8.909   0.733  1.00 20.00    -0.130 Cl
ENDBRANCH   7   8
ENDBRANCH   5   7
TORSDOF 2
ENDMDL
MODEL 3
REMARK VINA RESULT:      -5.1      1.070      1.773
REMARK  2 active torsions:
REMARK  status: ('A' for Active; 'I' for Inactive)
REMARK    1  A    between atoms: C5_5  and  C6_6 
REMARK    2  A    between atoms: C6_6  and  C7_7 
ROOT
HETATM    1  C1  UNL     1     -34.040   5.312   3.276  1.00 20.00     0.027 C 
HETATM    2  C2  UNL     1     -33.295   6.474   2.626  1.00 20.00     0.009 C 
HETATM    3  C3  UNL     1     -34.829   5.789   4.487  1.00 20.00     0.167 C 
HETATM    4  C4  UNL     1     -33.365   7.613   4.862  1.00 20.00     0.172 C 
HETATM    5  C5  UNL     1     -32.477   7.243   3.671  1.00 20.00     0.010 C 
HETATM    6  O8  UNL     1     -33.974   6.448   5.420  1.00 20.00    -0.391 OA
ENDROOT
BRANCH   5   7
HETATM    7  C6  UNL     1     -31.829   8.481   3.061  1.00 20.00     0.021 C 
BRANCH   7   8
HETATM    8  C7  UNL     1     -32.124   8.646   1.576  1.00 20.00     0.115 C 
HETATM    9 CL9  UNL     1     -32.675  10.292   1.184  1.00 20.00    -0.130 Cl
ENDBRANCH   7   8
ENDBRANCH   5   7
TORSDOF 2
ENDMDL
MODEL 4
REMARK VINA RESULT:      -4.5      2.902      4.292
REMARK  2 active torsions:
REMARK  status: ('A' for Active; 'I' for Inactive)
REMARK    1  A    between atoms: C5_5  and  C6_6 
REMARK    2  A    between atoms: C6_6  and  C7_7 
ROOT
HETATM    1  C1  UNL     1     -32.299   7.826   2.426  1.00 20.00     0.027 C 
HETATM    2  C2  UNL     1     -33.355   6.743   2.626  1.00 20.00     0.009 C 
HETATM    3  C3  UNL     1     -31.496   8.037   3.702  1.00 20.00     0.167 C 
HETATM    4  C4  UNL     1     -33.274   7.285   5.076  1.00 20.00     0.172 C 
HETATM    5  C5  UNL     1     -34.193   7.031   3.877  1.00 20.00     0.010 C 
HETATM    6  O8  UNL     1     -32.359   8.345   4.796  1.00 20.00    -0.391 OA
ENDROOT
BRANCH   5   7
HETATM    7  C6  UNL     1     -35.168   5.894   4.161  1.00 20.00     0.021 C 
BRANCH   7   8
HETATM    8  C7  UNL     1     -34.624   4.863   5.142  1.00 20.00     0.115 C 
HETATM    9 CL9  UNL     1     -33.800   3.522   4.313  1.00 20.00    -0.130 Cl
ENDBRANCH   7   8
ENDBRANCH   5   7
TORSDOF 2
ENDMDL
MODEL 5
REMARK VINA RESULT:      -4.2      2.710      4.100
REMARK  2 active torsions:
REMARK  status: ('A' for Active; 'I' for Inactive)
REMARK    1  A    between atoms: C5_5  and  C6_6 
REMARK    2  A    between atoms: C6_6  and  C7_7 
ROOT
HETATM    1  C1  UNL     1     -31.497   8.334   3.598  1.00 20.00     0.027 C 
HETATM    2  C2  UNL     1     -32.507   7.996   4.690  1.00 20.00     0.009 C 
HETATM    3  C3  UNL     1     -32.181   8.420   2.240  1.00 20.00     0.167 C 
HETATM    4  C4  UNL     1     -33.915   6.945   2.897  1.00 20.00     0.172 C 
HETATM    5  C5  UNL     1     -33.331   6.763   4.301  1.00 20.00     0.010 C 
HETATM    6  O8  UNL     1     -32.881   7.211   1.949  1.00 20.00    -0.391 OA
ENDROOT
BRANCH   5   7
HETATM    7  C6  UNL     1     -34.429   6.489   5.323  1.00 20.00     0.021 C 
BRANCH   7   8
HETATM    8  C7  UNL     1     -34.504   5.028   5.749  1.00 20.00     0.115 C 
HETATM    9 CL9  UNL     1     -34.257   3.919   4.380  1.00 20.00    -0.130 Cl
ENDBRANCH   7   8
ENDBRANCH   5   7
TORSDOF 2
ENDMDL
MODEL 6
REMARK VINA RESULT:      -4.1     11.038     11.910
REMARK  2 active torsions:
REMARK  status: ('A' for Active; 'I' for Inactive)
REMARK    1  A    between atoms: C5_5  and  C6_6 
REMARK    2  A    between atoms: C6_6  and  C7_7 
ROOT
HETATM    1  C1  UNL     1     -34.325  13.860  -7.279  1.00 20.00     0.027 C 
HETATM    2  C2  UNL     1     -33.880  14.987  -6.353  1.00 20.00     0.009 C 
HETATM    3  C3  UNL     1     -35.646  13.267  -6.809  1.00 20.00     0.167 C 
HETATM    4  C4  UNL     1     -35.253  13.894  -4.559  1.00 20.00     0.172 C 
HETATM    5  C5  UNL     1     -33.898  14.524  -4.891  1.00 20.00     0.010 C 
HETATM    6  O8  UNL     1     -35.548  12.823  -5.457  1.00 20.00    -0.391 OA
ENDROOT
BRANCH   5   7
HETATM    7  C6  UNL     1     -33.577  15.674  -3.944  1.00 20.00     0.021 C 
BRANCH   7   8
HETATM    8  C7  UNL     1     -34.741  16.051  -3.038  1.00 20.00     0.115 C 
HETATM    9 CL9  UNL     1     -34.209  16.981  -1.617  1.00 20.00    -0.130 Cl
ENDBRANCH   7   8
ENDBRANCH   5   7
TORSDOF 2
ENDMDL
MODEL 7
REMARK VINA RESULT:      -3.8     11.094     12.108
REMARK  2 active torsions:
REMARK  status: ('A' for Active; 'I' for Inactive)
REMARK    1  A    between atoms: C5_5  and  C6_6 
REMARK    2  A    between atoms: C6_6  and  C7_7 
ROOT
HETATM    1  C1  UNL     1     -33.303  15.798  -6.275  1.00 20.00     0.027 C 
HETATM    2  C2  UNL     1     -33.784  16.571  -5.052  1.00 20.00     0.009 C 
HETATM    3  C3  UNL     1     -34.133  14.538  -6.477  1.00 20.00     0.167 C 
HETATM    4  C4  UNL     1     -34.674  14.394  -4.175  1.00 20.00     0.172 C 
HETATM    5  C5  UNL     1     -33.869  15.650  -3.829  1.00 20.00     0.010 C 
HETATM    6  O8  UNL     1     -34.110  13.725  -5.303  1.00 20.00    -0.391 OA
ENDROOT
BRANCH   5   7
HETATM    7  C6  UNL     1     -34.469  16.377  -2.631  1.00 20.00     0.021 C 
BRANCH   7   8
HETATM    8  C7  UNL     1     -33.465  17.252  -1.892  1.00 20.00     0.115 C 
HETATM    9 CL9  UNL     1     -34.124  17.884  -0.365  1.00 20.00    -0.130 Cl
ENDBRANCH   7   8
ENDBRANCH   5   7
TORSDOF 2
ENDMDL
MODEL 8
REMARK VINA RESULT:      -3.8     11.543     12.033
REMARK  2 active torsions:
REMARK  status: ('A' for Active; 'I' for Inactive)
REMARK    1  A    between atoms: C5_5  and  C6_6 
REMARK    2  A    between atoms: C6_6  and  C7_7 
ROOT
HETATM    1  C1  UNL     1     -34.040  18.196   0.167  1.00 20.00     0.027 C 
HETATM    2  C2  UNL     1     -34.900  17.421  -0.826  1.00 20.00     0.009 C 
HETATM    3  C3  UNL     1     -33.200  19.243  -0.552  1.00 20.00     0.167 C 
HETATM    4  C4  UNL     1     -33.204  18.016  -2.578  1.00 20.00     0.172 C 
HETATM    5  C5  UNL     1     -34.044  16.884  -1.980  1.00 20.00     0.010 C 
HETATM    6  O8  UNL     1     -32.405  18.640  -1.572  1.00 20.00    -0.391 OA
ENDROOT
BRANCH   5   7
HETATM    7  C6  UNL     1     -34.908  16.217  -3.044  1.00 20.00     0.021 C 
BRANCH   7   8
HETATM    8  C7  UNL     1     -34.134  15.251  -3.931  1.00 20.00     0.115 C 
HETATM    9 CL9  UNL     1     -35.127  13.863  -4.434  1.00 20.00    -0.130 Cl
ENDBRANCH   7   8
ENDBRANCH   5   7
TORSDOF 2
ENDMDL
MODEL 9
REMARK VINA RESULT:      -3.7     11.032     11.541
REMARK  2 active torsions:
REMARK  status: ('A' for Active; 'I' for Inactive)
REMARK    1  A    between atoms: C5_5  and  C6_6 
REMARK    2  A    between atoms: C6_6  and  C7_7 
ROOT
HETATM    1  C1  UNL     1     -36.754  14.721  -5.069  1.00 20.00     0.027 C 
HETATM    2  C2  UNL     1     -36.205  15.540  -3.906  1.00 20.00     0.009 C 
HETATM    3  C3  UNL     1     -35.985  13.415  -5.218  1.00 20.00     0.167 C 
HETATM    4  C4  UNL     1     -34.034  14.324  -4.229  1.00 20.00     0.172 C 
HETATM    5  C5  UNL     1     -34.684  15.694  -4.023  1.00 20.00     0.010 C 
HETATM    6  O8  UNL     1     -34.589  13.665  -5.368  1.00 20.00    -0.391 OA
ENDROOT
BRANCH   5   7
HETATM    7  C6  UNL     1     -34.106  16.402  -2.803  1.00 20.00     0.021 C 
BRANCH   7   8
HETATM    8  C7  UNL     1     -35.154  16.751  -1.755  1.00 20.00     0.115 C 
HETATM    9 CL9  UNL     1     -34.458  17.652  -0.387  1.00 20.00    -0.130 Cl
ENDBRANCH   7   8
ENDBRANCH   5   7
TORSDOF 2
ENDMDL
