MODEL 1
REMARK VINA RESULT:      -6.1      0.000      0.000
REMARK  4 active torsions:
REMARK  status: ('A' for Active; 'I' for Inactive)
REMARK    1  A    between atoms: C1_1  and  C8_8 
REMARK    2  A    between atoms: C1_1  and  C9_9 
REMARK    3  A    between atoms: C4_4  and  C8_8 
REMARK    4  A    between atoms: C9_9  and  C10_10 
ROOT
HETATM    1  C1  UNL     1     -32.562   7.367   3.051  1.00 20.00     0.128 C 
HETATM    2  O11 UNL     1     -31.607   7.793   3.700  1.00 20.00    -0.298 OA
ENDROOT
BRANCH   1   3
HETATM    3  C8  UNL     1     -33.288   8.218   2.024  1.00 20.00     0.082 C 
BRANCH   3   4
HETATM    4  C4  UNL     1     -32.371   8.963   1.105  1.00 20.00    -0.008 A 
HETATM    5  C2  UNL     1     -32.884   9.502  -0.202  1.00 20.00     0.005 A 
HETATM    6  C3  UNL     1     -32.532  10.445   0.914  1.00 20.00     0.005 A 
ENDBRANCH   3   4
ENDBRANCH   1   3
BRANCH   1   7
HETATM    7  C9  UNL     1     -33.086   5.955   3.258  1.00 20.00     0.086 C 
BRANCH   7   8
HETATM    8  C10 UNL     1     -34.215   5.821   4.305  1.00 20.00    -0.045 C 
HETATM    9  C5  UNL     1     -34.029   6.820   5.459  1.00 20.00     0.015 C 
HETATM   10  C6  UNL     1     -34.280   4.394   4.874  1.00 20.00     0.015 C 
HETATM   11  C7  UNL     1     -35.553   6.130   3.607  1.00 20.00     0.015 C 
ENDBRANCH   7   8
ENDBRANCH   1   7
TORSDOF 4
ENDMDL
MODEL 2
REMARK VINA RESULT:      -6.1      0.126      1.284
REMARK  4 active torsions:
REMARK  status: ('A' for Active; 'I' for Inactive)
REMARK    1  A    between atoms: C1_1  and  C8_8 
REMARK    2  A    between atoms: C1_1  and  C9_9 
REMARK    3  A    between atoms: C4_4  and  C8_8 
REMARK    4  A    between atoms: C9_9  and  C10_10 
ROOT
HETATM    1  C1  UNL     1     -32.586   7.370   3.085  1.00 20.00     0.128 C 
HETATM    2  O11 UNL     1     -31.694   7.857   3.779  1.00 20.00    -0.298 OA
ENDROOT
BRANCH   1   3
HETATM    3  C8  UNL     1     -33.287   8.161   1.995  1.00 20.00     0.082 C 
BRANCH   3   4
HETATM    4  C4  UNL     1     -32.362   9.000   1.172  1.00 20.00    -0.008 A 
HETATM    5  C2  UNL     1     -32.846   9.637  -0.101  1.00 20.00     0.005 A 
HETATM    6  C3  UNL     1     -32.553  10.490   1.101  1.00 20.00     0.005 A 
ENDBRANCH   3   4
ENDBRANCH   1   3
BRANCH   1   7
HETATM    7  C9  UNL     1     -33.056   5.939   3.298  1.00 20.00     0.086 C 
BRANCH   7   8
HETATM    8  C10 UNL     1     -34.245   5.777   4.272  1.00 20.00    -0.045 C 
HETATM    9  C5  UNL     1     -35.577   6.132   3.593  1.00 20.00     0.015 C 
HETATM   10  C6  UNL     1     -34.063   6.650   5.523  1.00 20.00     0.015 C 
HETATM   11  C7  UNL     1     -34.303   4.300   4.711  1.00 20.00     0.015 C 
ENDBRANCH   7   8
ENDBRANCH   1   7
TORSDOF 4
ENDMDL
MODEL 3
REMARK VINA RESULT:      -6.0      0.596      1.509
REMARK  4 active torsions:
REMARK  status: ('A' for Active; 'I' for Inactive)
REMARK    1  A    between atoms: C1_1  and  C8_8 
REMARK    2  A    between atoms: C1_1  and  C9_9 
REMARK    3  A    between atoms: C4_4  and  C8_8 
REMARK    4  A    between atoms: C9_9  and  C10_10 
ROOT
HETATM    1  C1  UNL     1     -32.528   7.733   3.454  1.00 20.00     0.128 C 
HETATM    2  O11 UNL     1     -31.350   7.931   3.752  1.00 20.00    -0.298 OA
ENDROOT
BRANCH   1   3
HETATM    3  C8  UNL     1     -33.060   7.974   2.052  1.00 20.00     0.082 C 
BRANCH   3   4
HETATM    4  C4  UNL     1     -32.255   8.960   1.265  1.00 20.00    -0.008 A 
HETATM    5  C2  UNL     1     -32.778   9.495  -0.039  1.00 20.00     0.005 A 
HETATM    6  C3  UNL     1     -32.701  10.392   1.165  1.00 20.00     0.005 A 
ENDBRANCH   3   4
ENDBRANCH   1   3
BRANCH   1   7
HETATM    7  C9  UNL     1     -33.531   7.250   4.489  1.00 20.00     0.086 C 
BRANCH   7   8
HETATM    8  C10 UNL     1     -34.211   5.900   4.165  1.00 20.00    -0.045 C 
HETATM    9  C5  UNL     1     -33.340   5.045   3.230  1.00 20.00     0.015 C 
HETATM   10  C6  UNL     1     -35.591   6.112   3.522  1.00 20.00     0.015 C 
HETATM   11  C7  UNL     1     -34.401   5.132   5.487  1.00 20.00     0.015 C 
ENDBRANCH   7   8
ENDBRANCH   1   7
TORSDOF 4
ENDMDL
MODEL 4
REMARK VINA RESULT:      -5.9      0.667      4.960
REMARK  4 active torsions:
REMARK  status: ('A' for Active; 'I' for Inactive)
REMARK    1  A    between atoms: C1_1  and  C8_8 
REMARK    2  A    between atoms: C1_1  and  C9_9 
REMARK    3  A    between atoms: C4_4  and  C8_8 
REMARK    4  A    between atoms: C9_9  and  C10_10 
ROOT
HETATM    1  C1  UNL     1     -32.597   7.655   2.873  1.00 20.00     0.128 C 
HETATM    2  O11 UNL     1     -31.690   8.120   3.564  1.00 20.00    -0.298 OA
ENDROOT
BRANCH   1   3
HETATM    3  C8  UNL     1     -32.968   6.183   2.908  1.00 20.00     0.082 C 
BRANCH   3   4
HETATM    4  C4  UNL     1     -34.293   5.912   3.548  1.00 20.00    -0.008 A 
HETATM    5  C2  UNL     1     -34.493   4.676   4.380  1.00 20.00     0.005 A 
HETATM    6  C3  UNL     1     -34.450   6.027   5.038  1.00 20.00     0.005 A 
ENDBRANCH   3   4
ENDBRANCH   1   3
BRANCH   1   7
HETATM    7  C9  UNL     1     -33.391   8.535   1.921  1.00 20.00     0.086 C 
BRANCH   7   8
HETATM    8  C10 UNL     1     -32.548   9.295   0.872  1.00 20.00    -0.045 C 
HETATM    9  C5  UNL     1     -33.246   9.315  -0.498  1.00 20.00     0.015 C 
HETATM   10  C6  UNL     1     -31.152   8.671   0.722  1.00 20.00     0.015 C 
HETATM   11  C7  UNL     1     -32.384  10.749   1.354  1.00 20.00     0.015 C 
ENDBRANCH   7   8
ENDBRANCH   1   7
TORSDOF 4
ENDMDL
MODEL 5
REMARK VINA RESULT:      -5.9      0.670      4.953
REMARK  4 active torsions:
REMARK  status: ('A' for Active; 'I' for Inactive)
REMARK    1  A    between atoms: C1_1  and  C8_8 
REMARK    2  A    between atoms: C1_1  and  C9_9 
REMARK    3  A    between atoms: C4_4  and  C8_8 
REMARK    4  A    between atoms: C9_9  and  C10_10 
ROOT
HETATM    1  C1  UNL     1     -32.598   7.625   2.855  1.00 20.00     0.128 C 
HETATM    2  O11 UNL     1     -31.701   8.119   3.537  1.00 20.00    -0.298 OA
ENDROOT
BRANCH   1   3
HETATM    3  C8  UNL     1     -32.953   6.150   2.928  1.00 20.00     0.082 C 
BRANCH   3   4
HETATM    4  C4  UNL     1     -34.290   5.884   3.544  1.00 20.00    -0.008 A 
HETATM    5  C2  UNL     1     -34.505   4.657   4.386  1.00 20.00     0.005 A 
HETATM    6  C3  UNL     1     -34.478   6.015   5.030  1.00 20.00     0.005 A 
ENDBRANCH   3   4
ENDBRANCH   1   3
BRANCH   1   7
HETATM    7  C9  UNL     1     -33.397   8.470   1.874  1.00 20.00     0.086 C 
BRANCH   7   8
HETATM    8  C10 UNL     1     -32.551   9.306   0.888  1.00 20.00    -0.045 C 
HETATM    9  C5  UNL     1     -31.164   8.681   0.670  1.00 20.00     0.015 C 
HETATM   10  C6  UNL     1     -32.385  10.752   1.384  1.00 20.00     0.015 C 
HETATM   11  C7  UNL     1     -33.287   9.336  -0.466  1.00 20.00     0.015 C 
ENDBRANCH   7   8
ENDBRANCH   1   7
TORSDOF 4
ENDMDL
MODEL 6
REMARK VINA RESULT:      -4.4      1.265      4.689
REMARK  4 active torsions:
REMARK  status: ('A' for Active; 'I' for Inactive)
REMARK    1  A    between atoms: C1_1  and  C8_8 
REMARK    2  A    between atoms: C1_1  and  C9_9 
REMARK    3  A    between atoms: C4_4  and  C8_8 
REMARK    4  A    between atoms: C9_9  and  C10_10 
ROOT
HETATM    1  C1  UNL     1     -33.264   6.510   2.656  1.00 20.00     0.128 C 
HETATM    2  O11 UNL     1     -32.148   5.994   2.703  1.00 20.00    -0.298 OA
ENDROOT
BRANCH   1   3
HETATM    3  C8  UNL     1     -34.480   5.870   3.302  1.00 20.00     0.082 C 
BRANCH   3   4
HETATM    4  C4  UNL     1     -34.837   6.460   4.629  1.00 20.00    -0.008 A 
HETATM    5  C2  UNL     1     -34.509   5.724   5.899  1.00 20.00     0.005 A 
HETATM    6  C3  UNL     1     -33.760   6.977   5.541  1.00 20.00     0.005 A 
ENDBRANCH   3   4
ENDBRANCH   1   3
BRANCH   1   7
HETATM    7  C9  UNL     1     -33.494   7.823   1.923  1.00 20.00     0.086 C 
BRANCH   7   8
HETATM    8  C10 UNL     1     -32.275   8.771   1.876  1.00 20.00    -0.045 C 
HETATM    9  C5  UNL     1     -31.364   8.452   0.679  1.00 20.00     0.015 C 
HETATM   10  C6  UNL     1     -31.455   8.689   3.174  1.00 20.00     0.015 C 
HETATM   11  C7  UNL     1     -32.796  10.212   1.717  1.00 20.00     0.015 C 
ENDBRANCH   7   8
ENDBRANCH   1   7
TORSDOF 4
ENDMDL
MODEL 7
REMARK VINA RESULT:      -4.3     10.635     11.551
REMARK  4 active torsions:
REMARK  status: ('A' for Active; 'I' for Inactive)
REMARK    1  A    between atoms: C1_1  and  C8_8 
REMARK    2  A    between atoms: C1_1  and  C9_9 
REMARK    3  A    between atoms: C4_4  and  C8_8 
REMARK    4  A    between atoms: C9_9  and  C10_10 
ROOT
HETATM    1  C1  UNL     1     -33.465  15.471  -4.412  1.00 20.00     0.128 C 
HETATM    2  O11 UNL     1     -32.516  15.543  -5.191  1.00 20.00    -0.298 OA
ENDROOT
BRANCH   1   3
HETATM    3  C8  UNL     1     -33.677  16.481  -3.298  1.00 20.00     0.082 C 
BRANCH   3   4
HETATM    4  C4  UNL     1     -34.903  16.224  -2.479  1.00 20.00    -0.008 A 
HETATM    5  C2  UNL     1     -35.177  17.044  -1.249  1.00 20.00     0.005 A 
HETATM    6  C3  UNL     1     -36.030  17.218  -2.473  1.00 20.00     0.005 A 
ENDBRANCH   3   4
ENDBRANCH   1   3
BRANCH   1   7
HETATM    7  C9  UNL     1     -34.480  14.342  -4.509  1.00 20.00     0.086 C 
BRANCH   7   8
HETATM    8  C10 UNL     1     -35.439  14.425  -5.718  1.00 20.00    -0.045 C 
HETATM    9  C5  UNL     1     -34.937  13.568  -6.891  1.00 20.00     0.015 C 
HETATM   10  C6  UNL     1     -35.618  15.877  -6.189  1.00 20.00     0.015 C 
HETATM   11  C7  UNL     1     -36.813  13.883  -5.275  1.00 20.00     0.015 C 
ENDBRANCH   7   8
ENDBRANCH   1   7
TORSDOF 4
ENDMDL
MODEL 8
REMARK VINA RESULT:      -4.2     10.584     12.102
REMARK  4 active torsions:
REMARK  status: ('A' for Active; 'I' for Inactive)
REMARK    1  A    between atoms: C1_1  and  C8_8 
REMARK    2  A    between atoms: C1_1  and  C9_9 
REMARK    3  A    between atoms: C4_4  and  C8_8 
REMARK    4  A    between atoms: C9_9  and  C10_10 
ROOT
HETATM    1  C1  UNL     1     -34.236  14.773  -4.254  1.00 20.00     0.128 C 
HETATM    2  O11 UNL     1     -34.483  13.571  -4.158  1.00 20.00    -0.298 OA
ENDROOT
BRANCH   1   3
HETATM    3  C8  UNL     1     -34.696  15.780  -3.215  1.00 20.00     0.082 C 
BRANCH   3   4
HETATM    4  C4  UNL     1     -33.598  16.659  -2.703  1.00 20.00    -0.008 A 
HETATM    5  C2  UNL     1     -33.733  18.155  -2.769  1.00 20.00     0.005 A 
HETATM    6  C3  UNL     1     -33.791  17.453  -1.442  1.00 20.00     0.005 A 
ENDBRANCH   3   4
ENDBRANCH   1   3
BRANCH   1   7
HETATM    7  C9  UNL     1     -33.466  15.325  -5.444  1.00 20.00     0.086 C 
BRANCH   7   8
HETATM    8  C10 UNL     1     -34.292  15.494  -6.739  1.00 20.00    -0.045 C 
HETATM    9  C5  UNL     1     -35.795  15.599  -6.435  1.00 20.00     0.015 C 
HETATM   10  C6  UNL     1     -34.050  14.326  -7.709  1.00 20.00     0.015 C 
HETATM   11  C7  UNL     1     -33.844  16.799  -7.424  1.00 20.00     0.015 C 
ENDBRANCH   7   8
ENDBRANCH   1   7
TORSDOF 4
ENDMDL
MODEL 9
REMARK VINA RESULT:      -4.1     10.860     11.863
REMARK  4 active torsions:
REMARK  status: ('A' for Active; 'I' for Inactive)
REMARK    1  A    between atoms: C1_1  and  C8_8 
REMARK    2  A    between atoms: C1_1  and  C9_9 
REMARK    3  A    between atoms: C4_4  and  C8_8 
REMARK    4  A    between atoms: C9_9  and  C10_10 
ROOT
HETATM    1  C1  UNL     1     -36.338  15.136  -4.163  1.00 20.00     0.128 C 
HETATM    2  O11 UNL     1     -37.506  14.780  -4.316  1.00 20.00    -0.298 OA
ENDROOT
BRANCH   1   3
HETATM    3  C8  UNL     1     -35.968  16.385  -3.383  1.00 20.00     0.082 C 
BRANCH   3   4
HETATM    4  C4  UNL     1     -34.760  16.215  -2.516  1.00 20.00    -0.008 A 
HETATM    5  C2  UNL     1     -33.641  17.219  -2.571  1.00 20.00     0.005 A 
HETATM    6  C3  UNL     1     -34.524  17.143  -1.357  1.00 20.00     0.005 A 
ENDBRANCH   3   4
ENDBRANCH   1   3
BRANCH   1   7
HETATM    7  C9  UNL     1     -35.189  14.348  -4.772  1.00 20.00     0.086 C 
BRANCH   7   8
HETATM    8  C10 UNL     1     -34.663  14.889  -6.120  1.00 20.00    -0.045 C 
HETATM    9  C5  UNL     1     -33.317  15.612  -5.946  1.00 20.00     0.015 C 
HETATM   10  C6  UNL     1     -35.675  15.848  -6.768  1.00 20.00     0.015 C 
HETATM   11  C7  UNL     1     -34.451  13.691  -7.066  1.00 20.00     0.015 C 
ENDBRANCH   7   8
ENDBRANCH   1   7
TORSDOF 4
ENDMDL
