MODEL 1
REMARK VINA RESULT:      -5.7      0.000      0.000
REMARK  4 active torsions:
REMARK  status: ('A' for Active; 'I' for Inactive)
REMARK    1  A    between atoms: C5_5  and  C7_7 
REMARK    2  A    between atoms: C6_6  and  C8_8 
REMARK    3  A    between atoms: C7_7  and  C8_8 
REMARK    4  A    between atoms: C8_8  and  O9_9 
ROOT
HETATM    1  C8  UNL     1     -32.600   7.294   3.656  1.00 20.00     0.122 C 
ENDROOT
BRANCH   1   2
HETATM    2  C6  UNL     1     -33.886   7.292   4.472  1.00 20.00     0.014 A 
HETATM    3  C3  UNL     1     -34.348   6.035   5.156  1.00 20.00     0.007 A 
HETATM    4  C4  UNL     1     -33.832   7.188   5.971  1.00 20.00     0.007 A 
ENDBRANCH   1   2
BRANCH   1   5
HETATM    5  C7  UNL     1     -32.863   7.705   2.207  1.00 20.00     0.036 C 
BRANCH   5   6
HETATM    6  C5  UNL     1     -32.061   8.936   1.802  1.00 20.00    -0.012 A 
HETATM    7  C1  UNL     1     -31.928   9.308   0.351  1.00 20.00     0.005 A 
HETATM    8  C2  UNL     1     -32.763  10.155   1.271  1.00 20.00     0.005 A 
ENDBRANCH   5   6
ENDBRANCH   1   5
BRANCH   1   9
HETATM    9  O9  UNL     1     -31.683   8.213   4.245  1.00 20.00    -0.395 OA
HETATM   10  H23 UNL     1     -31.690   8.038   5.199  1.00 20.00     0.210 HD
ENDBRANCH   1   9
TORSDOF 4
ENDMDL
MODEL 2
REMARK VINA RESULT:      -5.4      0.762      4.458
REMARK  4 active torsions:
REMARK  status: ('A' for Active; 'I' for Inactive)
REMARK    1  A    between atoms: C5_5  and  C7_7 
REMARK    2  A    between atoms: C6_6  and  C8_8 
REMARK    3  A    between atoms: C7_7  and  C8_8 
REMARK    4  A    between atoms: C8_8  and  O9_9 
ROOT
HETATM    1  C8  UNL     1     -32.634   8.087   2.932  1.00 20.00     0.122 C 
ENDROOT
BRANCH   1   2
HETATM    2  C6  UNL     1     -32.726   8.471   1.461  1.00 20.00     0.014 A 
HETATM    3  C3  UNL     1     -32.697   9.918   1.053  1.00 20.00     0.007 A 
HETATM    4  C4  UNL     1     -31.526   9.028   0.747  1.00 20.00     0.007 A 
ENDBRANCH   1   2
BRANCH   1   5
HETATM    5  C7  UNL     1     -33.211   6.692   3.178  1.00 20.00     0.036 C 
BRANCH   5   6
HETATM    6  C5  UNL     1     -34.331   6.706   4.211  1.00 20.00    -0.012 A 
HETATM    7  C1  UNL     1     -34.561   5.509   5.093  1.00 20.00     0.005 A 
HETATM    8  C2  UNL     1     -34.007   6.780   5.677  1.00 20.00     0.005 A 
ENDBRANCH   5   6
ENDBRANCH   1   5
BRANCH   1   9
HETATM    9  O9  UNL     1     -31.264   8.103   3.326  1.00 20.00    -0.395 OA
HETATM   10  H23 UNL     1     -30.950   9.012   3.198  1.00 20.00     0.210 HD
ENDBRANCH   1   9
TORSDOF 4
ENDMDL
MODEL 3
REMARK VINA RESULT:      -5.4      0.952      1.298
REMARK  4 active torsions:
REMARK  status: ('A' for Active; 'I' for Inactive)
REMARK    1  A    between atoms: C5_5  and  C7_7 
REMARK    2  A    between atoms: C6_6  and  C8_8 
REMARK    3  A    between atoms: C7_7  and  C8_8 
REMARK    4  A    between atoms: C8_8  and  O9_9 
ROOT
HETATM    1  C8  UNL     1     -32.032   7.536   3.253  1.00 20.00     0.122 C 
ENDROOT
BRANCH   1   2
HETATM    2  C6  UNL     1     -33.528   7.262   3.332  1.00 20.00     0.014 A 
HETATM    3  C3  UNL     1     -34.042   5.849   3.301  1.00 20.00     0.007 A 
HETATM    4  C4  UNL     1     -34.121   6.650   4.570  1.00 20.00     0.007 A 
ENDBRANCH   1   2
BRANCH   1   5
HETATM    5  C7  UNL     1     -31.673   8.281   1.966  1.00 20.00     0.036 C 
BRANCH   5   6
HETATM    6  C5  UNL     1     -32.847   9.079   1.414  1.00 20.00    -0.012 A 
HETATM    7  C1  UNL     1     -32.669  10.525   1.038  1.00 20.00     0.005 A 
HETATM    8  C2  UNL     1     -32.870   9.489  -0.033  1.00 20.00     0.005 A 
ENDBRANCH   5   6
ENDBRANCH   1   5
BRANCH   1   9
HETATM    9  O9  UNL     1     -31.651   8.328   4.375  1.00 20.00    -0.395 OA
HETATM   10  H23 UNL     1     -31.950   9.232   4.190  1.00 20.00     0.210 HD
ENDBRANCH   1   9
TORSDOF 4
ENDMDL
MODEL 4
REMARK VINA RESULT:      -5.2      1.423      2.091
REMARK  4 active torsions:
REMARK  status: ('A' for Active; 'I' for Inactive)
REMARK    1  A    between atoms: C5_5  and  C7_7 
REMARK    2  A    between atoms: C6_6  and  C8_8 
REMARK    3  A    between atoms: C7_7  and  C8_8 
REMARK    4  A    between atoms: C8_8  and  O9_9 
ROOT
HETATM    1  C8  UNL     1     -33.670   6.761   4.666  1.00 20.00     0.122 C 
ENDROOT
BRANCH   1   2
HETATM    2  C6  UNL     1     -34.727   5.666   4.711  1.00 20.00     0.014 A 
HETATM    3  C3  UNL     1     -34.351   4.238   4.428  1.00 20.00     0.007 A 
HETATM    4  C4  UNL     1     -34.722   4.654   5.823  1.00 20.00     0.007 A 
ENDBRANCH   1   2
BRANCH   1   5
HETATM    5  C7  UNL     1     -33.796   7.601   3.394  1.00 20.00     0.036 C 
BRANCH   5   6
HETATM    6  C5  UNL     1     -32.516   7.592   2.567  1.00 20.00    -0.012 A 
HETATM    7  C1  UNL     1     -32.132   8.798   1.755  1.00 20.00     0.005 A 
HETATM    8  C2  UNL     1     -31.342   8.434   2.982  1.00 20.00     0.005 A 
ENDBRANCH   5   6
ENDBRANCH   1   5
BRANCH   1   9
HETATM    9  O9  UNL     1     -33.833   7.605   5.803  1.00 20.00    -0.395 OA
HETATM   10  H23 UNL     1     -34.789   7.702   5.940  1.00 20.00     0.210 HD
ENDBRANCH   1   9
TORSDOF 4
ENDMDL
MODEL 5
REMARK VINA RESULT:      -5.0      1.527      1.676
REMARK  4 active torsions:
REMARK  status: ('A' for Active; 'I' for Inactive)
REMARK    1  A    between atoms: C5_5  and  C7_7 
REMARK    2  A    between atoms: C6_6  and  C8_8 
REMARK    3  A    between atoms: C7_7  and  C8_8 
REMARK    4  A    between atoms: C8_8  and  O9_9 
ROOT
HETATM    1  C8  UNL     1     -33.794   7.027   3.463  1.00 20.00     0.122 C 
ENDROOT
BRANCH   1   2
HETATM    2  C6  UNL     1     -33.394   6.616   4.874  1.00 20.00     0.014 A 
HETATM    3  C3  UNL     1     -33.851   7.425   6.056  1.00 20.00     0.007 A 
HETATM    4  C4  UNL     1     -34.420   6.055   5.819  1.00 20.00     0.007 A 
ENDBRANCH   1   2
BRANCH   1   5
HETATM    5  C7  UNL     1     -32.591   7.008   2.518  1.00 20.00     0.036 C 
BRANCH   5   6
HETATM    6  C5  UNL     1     -32.009   8.398   2.296  1.00 20.00    -0.012 A 
HETATM    7  C1  UNL     1     -31.452   8.780   0.953  1.00 20.00     0.005 A 
HETATM    8  C2  UNL     1     -32.736   9.394   1.436  1.00 20.00     0.005 A 
ENDBRANCH   5   6
ENDBRANCH   1   5
BRANCH   1   9
HETATM    9  O9  UNL     1     -34.781   6.118   2.982  1.00 20.00    -0.395 OA
HETATM   10  H23 UNL     1     -35.605   6.623   2.900  1.00 20.00     0.210 HD
ENDBRANCH   1   9
TORSDOF 4
ENDMDL
MODEL 6
REMARK VINA RESULT:      -4.6      1.234      4.596
REMARK  4 active torsions:
REMARK  status: ('A' for Active; 'I' for Inactive)
REMARK    1  A    between atoms: C5_5  and  C7_7 
REMARK    2  A    between atoms: C6_6  and  C8_8 
REMARK    3  A    between atoms: C7_7  and  C8_8 
REMARK    4  A    between atoms: C8_8  and  O9_9 
ROOT
HETATM    1  C8  UNL     1     -33.439   7.752   3.686  1.00 20.00     0.122 C 
ENDROOT
BRANCH   1   2
HETATM    2  C6  UNL     1     -32.497   7.707   2.492  1.00 20.00     0.014 A 
HETATM    3  C3  UNL     1     -32.485   8.831   1.493  1.00 20.00     0.007 A 
HETATM    4  C4  UNL     1     -31.319   8.639   2.420  1.00 20.00     0.007 A 
ENDBRANCH   1   2
BRANCH   1   5
HETATM    5  C7  UNL     1     -34.372   6.540   3.703  1.00 20.00     0.036 C 
BRANCH   5   6
HETATM    6  C5  UNL     1     -33.849   5.421   4.594  1.00 20.00    -0.012 A 
HETATM    7  C1  UNL     1     -34.697   4.889   5.717  1.00 20.00     0.005 A 
HETATM    8  C2  UNL     1     -34.439   4.041   4.502  1.00 20.00     0.005 A 
ENDBRANCH   5   6
ENDBRANCH   1   5
BRANCH   1   9
HETATM    9  O9  UNL     1     -32.665   7.763   4.883  1.00 20.00    -0.395 OA
HETATM   10  H23 UNL     1     -33.134   7.203   5.521  1.00 20.00     0.210 HD
ENDBRANCH   1   9
TORSDOF 4
ENDMDL
MODEL 7
REMARK VINA RESULT:      -4.5      1.798      4.550
REMARK  4 active torsions:
REMARK  status: ('A' for Active; 'I' for Inactive)
REMARK    1  A    between atoms: C5_5  and  C7_7 
REMARK    2  A    between atoms: C6_6  and  C8_8 
REMARK    3  A    between atoms: C7_7  and  C8_8 
REMARK    4  A    between atoms: C8_8  and  O9_9 
ROOT
HETATM    1  C8  UNL     1     -33.189   6.295   3.204  1.00 20.00     0.122 C 
ENDROOT
BRANCH   1   2
HETATM    2  C6  UNL     1     -32.889   7.753   2.883  1.00 20.00     0.014 A 
HETATM    3  C3  UNL     1     -31.604   8.381   3.346  1.00 20.00     0.007 A 
HETATM    4  C4  UNL     1     -31.821   8.104   1.885  1.00 20.00     0.007 A 
ENDBRANCH   1   2
BRANCH   1   5
HETATM    5  C7  UNL     1     -34.696   6.043   3.283  1.00 20.00     0.036 C 
BRANCH   5   6
HETATM    6  C5  UNL     1     -35.156   5.737   4.703  1.00 20.00    -0.012 A 
HETATM    7  C1  UNL     1     -34.499   4.638   5.491  1.00 20.00     0.005 A 
HETATM    8  C2  UNL     1     -34.275   6.075   5.874  1.00 20.00     0.005 A 
ENDBRANCH   5   6
ENDBRANCH   1   5
BRANCH   1   9
HETATM    9  O9  UNL     1     -32.631   5.475   2.181  1.00 20.00    -0.395 OA
HETATM   10  H23 UNL     1     -33.030   4.596   2.281  1.00 20.00     0.210 HD
ENDBRANCH   1   9
TORSDOF 4
ENDMDL
MODEL 8
REMARK VINA RESULT:      -4.0     10.565     11.566
REMARK  4 active torsions:
REMARK  status: ('A' for Active; 'I' for Inactive)
REMARK    1  A    between atoms: C5_5  and  C7_7 
REMARK    2  A    between atoms: C6_6  and  C8_8 
REMARK    3  A    between atoms: C7_7  and  C8_8 
REMARK    4  A    between atoms: C8_8  and  O9_9 
ROOT
HETATM    1  C8  UNL     1     -35.304  13.992  -5.059  1.00 20.00     0.122 C 
ENDROOT
BRANCH   1   2
HETATM    2  C6  UNL     1     -35.214  14.446  -6.509  1.00 20.00     0.014 A 
HETATM    3  C3  UNL     1     -33.916  14.967  -7.061  1.00 20.00     0.007 A 
HETATM    4  C4  UNL     1     -34.443  13.634  -7.512  1.00 20.00     0.007 A 
ENDBRANCH   1   2
BRANCH   1   5
HETATM    5  C7  UNL     1     -36.134  14.967  -4.222  1.00 20.00     0.036 C 
BRANCH   5   6
HETATM    6  C5  UNL     1     -35.339  16.203  -3.820  1.00 20.00    -0.012 A 
HETATM    7  C1  UNL     1     -35.038  16.471  -2.371  1.00 20.00     0.005 A 
HETATM    8  C2  UNL     1     -33.933  16.065  -3.307  1.00 20.00     0.005 A 
ENDBRANCH   5   6
ENDBRANCH   1   5
BRANCH   1   9
HETATM    9  O9  UNL     1     -35.913  12.704  -5.018  1.00 20.00    -0.395 OA
HETATM   10  H23 UNL     1     -35.305  12.125  -4.533  1.00 20.00     0.210 HD
ENDBRANCH   1   9
TORSDOF 4
ENDMDL
MODEL 9
REMARK VINA RESULT:      -3.9     10.193     11.194
REMARK  4 active torsions:
REMARK  status: ('A' for Active; 'I' for Inactive)
REMARK    1  A    between atoms: C5_5  and  C7_7 
REMARK    2  A    between atoms: C6_6  and  C8_8 
REMARK    3  A    between atoms: C7_7  and  C8_8 
REMARK    4  A    between atoms: C8_8  and  O9_9 
ROOT
HETATM    1  C8  UNL     1     -35.729  14.186  -4.956  1.00 20.00     0.122 C 
ENDROOT
BRANCH   1   2
HETATM    2  C6  UNL     1     -37.043  14.896  -4.660  1.00 20.00     0.014 A 
HETATM    3  C3  UNL     1     -37.736  15.687  -5.736  1.00 20.00     0.007 A 
HETATM    4  C4  UNL     1     -38.328  14.392  -5.256  1.00 20.00     0.007 A 
ENDBRANCH   1   2
BRANCH   1   5
HETATM    5  C7  UNL     1     -34.649  14.577  -3.947  1.00 20.00     0.036 C 
BRANCH   5   6
HETATM    6  C5  UNL     1     -34.712  16.053  -3.576  1.00 20.00    -0.012 A 
HETATM    7  C1  UNL     1     -34.945  16.466  -2.149  1.00 20.00     0.005 A 
HETATM    8  C2  UNL     1     -33.600  16.683  -2.784  1.00 20.00     0.005 A 
ENDBRANCH   5   6
ENDBRANCH   1   5
BRANCH   1   9
HETATM    9  O9  UNL     1     -35.943  12.778  -4.891  1.00 20.00    -0.395 OA
HETATM   10  H23 UNL     1     -35.230  12.366  -5.402  1.00 20.00     0.210 HD
ENDBRANCH   1   9
TORSDOF 4
ENDMDL
