MODEL 1
REMARK VINA RESULT:      -5.6      0.000      0.000
REMARK  5 active torsions:
REMARK  status: ('A' for Active; 'I' for Inactive)
REMARK    1  A    between atoms: C3_3  and  C5_5 
REMARK    2  A    between atoms: C5_5  and  C8_8 
REMARK    3  A    between atoms: C6_6  and  C7_7 
REMARK    4  A    between atoms: C7_7  and  C8_8 
REMARK    5  A    between atoms: C8_8  and  O9_9 
ROOT
HETATM    1  C8  UNL     1     -32.425   8.120   2.825  1.00 20.00     0.118 C 
ENDROOT
BRANCH   1   2
HETATM    2  C5  UNL     1     -32.965   6.690   2.956  1.00 20.00     0.036 C 
BRANCH   2   3
HETATM    3  C3  UNL     1     -34.261   6.592   3.744  1.00 20.00    -0.012 A 
HETATM    4  C1  UNL     1     -34.726   5.264   4.274  1.00 20.00     0.005 A 
HETATM    5  C2  UNL     1     -34.227   6.319   5.223  1.00 20.00     0.005 A 
ENDBRANCH   2   3
ENDBRANCH   1   2
BRANCH   1   6
HETATM    6  C7  UNL     1     -31.788   8.401   1.458  1.00 20.00     0.031 C 
BRANCH   6   7
HETATM    7  C6  UNL     1     -32.308   9.699   0.832  1.00 20.00    -0.002 C 
HETATM    8  C4  UNL     1     -33.174   9.420  -0.387  1.00 20.00     0.005 C 
ENDBRANCH   6   7
ENDBRANCH   1   6
BRANCH   1   9
HETATM    9  O9  UNL     1     -31.432   8.312   3.833  1.00 20.00    -0.396 OA
HETATM   10  H25 UNL     1     -30.577   8.138   3.411  1.00 20.00     0.210 HD
ENDBRANCH   1   9
TORSDOF 5
ENDMDL
MODEL 2
REMARK VINA RESULT:      -5.5      0.878      4.591
REMARK  5 active torsions:
REMARK  status: ('A' for Active; 'I' for Inactive)
REMARK    1  A    between atoms: C3_3  and  C5_5 
REMARK    2  A    between atoms: C5_5  and  C8_8 
REMARK    3  A    between atoms: C6_6  and  C7_7 
REMARK    4  A    between atoms: C7_7  and  C8_8 
REMARK    5  A    between atoms: C8_8  and  O9_9 
ROOT
HETATM    1  C8  UNL     1     -32.391   7.436   3.340  1.00 20.00     0.118 C 
ENDROOT
BRANCH   1   2
HETATM    2  C5  UNL     1     -33.048   7.928   2.043  1.00 20.00     0.036 C 
BRANCH   2   3
HETATM    3  C3  UNL     1     -32.227   8.966   1.295  1.00 20.00    -0.012 A 
HETATM    4  C1  UNL     1     -32.684   9.470  -0.045  1.00 20.00     0.005 A 
HETATM    5  C2  UNL     1     -32.736  10.374   1.155  1.00 20.00     0.005 A 
ENDBRANCH   2   3
ENDBRANCH   1   2
BRANCH   1   6
HETATM    6  C7  UNL     1     -33.384   7.295   4.501  1.00 20.00     0.031 C 
BRANCH   6   7
HETATM    7  C6  UNL     1     -34.405   6.179   4.258  1.00 20.00    -0.002 C 
HETATM    8  C4  UNL     1     -34.597   5.321   5.499  1.00 20.00     0.005 C 
ENDBRANCH   6   7
ENDBRANCH   1   6
BRANCH   1   9
HETATM    9  O9  UNL     1     -31.390   8.383   3.716  1.00 20.00    -0.396 OA
HETATM   10  H25 UNL     1     -31.858   9.201   3.938  1.00 20.00     0.210 HD
ENDBRANCH   1   9
TORSDOF 5
ENDMDL
MODEL 3
REMARK VINA RESULT:      -5.4      2.015      4.572
REMARK  5 active torsions:
REMARK  status: ('A' for Active; 'I' for Inactive)
REMARK    1  A    between atoms: C3_3  and  C5_5 
REMARK    2  A    between atoms: C5_5  and  C8_8 
REMARK    3  A    between atoms: C6_6  and  C7_7 
REMARK    4  A    between atoms: C7_7  and  C8_8 
REMARK    5  A    between atoms: C8_8  and  O9_9 
ROOT
HETATM    1  C8  UNL     1     -34.126   5.374   3.124  1.00 20.00     0.118 C 
ENDROOT
BRANCH   1   2
HETATM    2  C5  UNL     1     -32.816   6.024   2.659  1.00 20.00     0.036 C 
BRANCH   2   3
HETATM    3  C3  UNL     1     -32.822   7.542   2.736  1.00 20.00    -0.012 A 
HETATM    4  C1  UNL     1     -31.628   8.277   3.278  1.00 20.00     0.005 A 
HETATM    5  C2  UNL     1     -31.953   8.349   1.812  1.00 20.00     0.005 A 
ENDBRANCH   2   3
ENDBRANCH   1   2
BRANCH   1   6
HETATM    6  C7  UNL     1     -34.919   6.251   4.101  1.00 20.00     0.031 C 
BRANCH   6   7
HETATM    7  C6  UNL     1     -34.495   6.026   5.556  1.00 20.00    -0.002 C 
HETATM    8  C4  UNL     1     -33.784   7.246   6.122  1.00 20.00     0.005 C 
ENDBRANCH   6   7
ENDBRANCH   1   6
BRANCH   1   9
HETATM    9  O9  UNL     1     -33.803   4.147   3.779  1.00 20.00    -0.396 OA
HETATM   10  H25 UNL     1     -34.601   3.876   4.259  1.00 20.00     0.210 HD
ENDBRANCH   1   9
TORSDOF 5
ENDMDL
MODEL 4
REMARK VINA RESULT:      -5.4      1.377      1.689
REMARK  5 active torsions:
REMARK  status: ('A' for Active; 'I' for Inactive)
REMARK    1  A    between atoms: C3_3  and  C5_5 
REMARK    2  A    between atoms: C5_5  and  C8_8 
REMARK    3  A    between atoms: C6_6  and  C7_7 
REMARK    4  A    between atoms: C7_7  and  C8_8 
REMARK    5  A    between atoms: C8_8  and  O9_9 
ROOT
HETATM    1  C8  UNL     1     -32.737   6.957   3.142  1.00 20.00     0.118 C 
ENDROOT
BRANCH   1   2
HETATM    2  C5  UNL     1     -33.585   7.034   4.419  1.00 20.00     0.036 C 
BRANCH   2   3
HETATM    3  C3  UNL     1     -34.650   5.953   4.515  1.00 20.00    -0.012 A 
HETATM    4  C1  UNL     1     -34.275   4.506   4.362  1.00 20.00     0.005 A 
HETATM    5  C2  UNL     1     -34.691   5.036   5.706  1.00 20.00     0.005 A 
ENDBRANCH   2   3
ENDBRANCH   1   2
BRANCH   1   6
HETATM    6  C7  UNL     1     -31.933   8.236   2.876  1.00 20.00     0.031 C 
BRANCH   6   7
HETATM    7  C6  UNL     1     -31.954   8.636   1.397  1.00 20.00    -0.002 C 
HETATM    8  C4  UNL     1     -32.524  10.034   1.208  1.00 20.00     0.005 C 
ENDBRANCH   6   7
ENDBRANCH   1   6
BRANCH   1   9
HETATM    9  O9  UNL     1     -33.618   6.740   2.038  1.00 20.00    -0.396 OA
HETATM   10  H25 UNL     1     -34.206   6.015   2.298  1.00 20.00     0.210 HD
ENDBRANCH   1   9
TORSDOF 5
ENDMDL
MODEL 5
REMARK VINA RESULT:      -5.3      1.195      4.492
REMARK  5 active torsions:
REMARK  status: ('A' for Active; 'I' for Inactive)
REMARK    1  A    between atoms: C3_3  and  C5_5 
REMARK    2  A    between atoms: C5_5  and  C8_8 
REMARK    3  A    between atoms: C6_6  and  C7_7 
REMARK    4  A    between atoms: C7_7  and  C8_8 
REMARK    5  A    between atoms: C8_8  and  O9_9 
ROOT
HETATM    1  C8  UNL     1     -32.553   7.104   3.702  1.00 20.00     0.118 C 
ENDROOT
BRANCH   1   2
HETATM    2  C5  UNL     1     -31.890   8.263   2.946  1.00 20.00     0.036 C 
BRANCH   2   3
HETATM    3  C3  UNL     1     -32.588   8.627   1.646  1.00 20.00    -0.012 A 
HETATM    4  C1  UNL     1     -32.664  10.062   1.203  1.00 20.00     0.005 A 
HETATM    5  C2  UNL     1     -31.786   9.092   0.462  1.00 20.00     0.005 A 
ENDBRANCH   2   3
ENDBRANCH   1   2
BRANCH   1   6
HETATM    6  C7  UNL     1     -33.719   6.471   2.932  1.00 20.00     0.031 C 
BRANCH   6   7
HETATM    7  C6  UNL     1     -34.800   5.918   3.867  1.00 20.00    -0.002 C 
HETATM    8  C4  UNL     1     -34.455   4.517   4.347  1.00 20.00     0.005 C 
ENDBRANCH   6   7
ENDBRANCH   1   6
BRANCH   1   9
HETATM    9  O9  UNL     1     -33.054   7.611   4.940  1.00 20.00    -0.396 OA
HETATM   10  H25 UNL     1     -32.305   8.042   5.380  1.00 20.00     0.210 HD
ENDBRANCH   1   9
TORSDOF 5
ENDMDL
MODEL 6
REMARK VINA RESULT:      -5.3      1.238      4.695
REMARK  5 active torsions:
REMARK  status: ('A' for Active; 'I' for Inactive)
REMARK    1  A    between atoms: C3_3  and  C5_5 
REMARK    2  A    between atoms: C5_5  and  C8_8 
REMARK    3  A    between atoms: C6_6  and  C7_7 
REMARK    4  A    between atoms: C7_7  and  C8_8 
REMARK    5  A    between atoms: C8_8  and  O9_9 
ROOT
HETATM    1  C8  UNL     1     -33.175   7.091   2.847  1.00 20.00     0.118 C 
ENDROOT
BRANCH   1   2
HETATM    2  C5  UNL     1     -32.035   8.117   2.810  1.00 20.00     0.036 C 
BRANCH   2   3
HETATM    3  C3  UNL     1     -31.839   8.769   1.451  1.00 20.00    -0.012 A 
HETATM    4  C1  UNL     1     -33.012   8.979   0.535  1.00 20.00     0.005 A 
HETATM    5  C2  UNL     1     -32.356  10.158   1.197  1.00 20.00     0.005 A 
ENDBRANCH   2   3
ENDBRANCH   1   2
BRANCH   1   6
HETATM    6  C7  UNL     1     -33.915   7.060   4.190  1.00 20.00     0.031 C 
BRANCH   6   7
HETATM    7  C6  UNL     1     -34.861   5.861   4.304  1.00 20.00    -0.002 C 
HETATM    8  C4  UNL     1     -34.595   5.061   5.570  1.00 20.00     0.005 C 
ENDBRANCH   6   7
ENDBRANCH   1   6
BRANCH   1   9
HETATM    9  O9  UNL     1     -32.615   5.798   2.611  1.00 20.00    -0.396 OA
HETATM   10  H25 UNL     1     -31.661   5.929   2.508  1.00 20.00     0.210 HD
ENDBRANCH   1   9
TORSDOF 5
ENDMDL
MODEL 7
REMARK VINA RESULT:      -4.7      1.003      1.721
REMARK  5 active torsions:
REMARK  status: ('A' for Active; 'I' for Inactive)
REMARK    1  A    between atoms: C3_3  and  C5_5 
REMARK    2  A    between atoms: C5_5  and  C8_8 
REMARK    3  A    between atoms: C6_6  and  C7_7 
REMARK    4  A    between atoms: C7_7  and  C8_8 
REMARK    5  A    between atoms: C8_8  and  O9_9 
ROOT
HETATM    1  C8  UNL     1     -33.021   8.004   4.409  1.00 20.00     0.118 C 
ENDROOT
BRANCH   1   2
HETATM    2  C5  UNL     1     -33.501   6.906   5.367  1.00 20.00     0.036 C 
BRANCH   2   3
HETATM    3  C3  UNL     1     -34.559   5.990   4.771  1.00 20.00    -0.012 A 
HETATM    4  C1  UNL     1     -34.154   4.746   4.031  1.00 20.00     0.005 A 
HETATM    5  C2  UNL     1     -34.816   4.638   5.376  1.00 20.00     0.005 A 
ENDBRANCH   2   3
ENDBRANCH   1   2
BRANCH   1   6
HETATM    6  C7  UNL     1     -32.899   7.525   2.957  1.00 20.00     0.031 C 
BRANCH   6   7
HETATM    7  C6  UNL     1     -31.838   8.308   2.176  1.00 20.00    -0.002 C 
HETATM    8  C4  UNL     1     -32.476   9.259   1.174  1.00 20.00     0.005 C 
ENDBRANCH   6   7
ENDBRANCH   1   6
BRANCH   1   9
HETATM    9  O9  UNL     1     -31.735   8.444   4.848  1.00 20.00    -0.396 OA
HETATM   10  H25 UNL     1     -31.893   9.073   5.567  1.00 20.00     0.210 HD
ENDBRANCH   1   9
TORSDOF 5
ENDMDL
MODEL 8
REMARK VINA RESULT:      -4.1     10.076     11.082
REMARK  5 active torsions:
REMARK  status: ('A' for Active; 'I' for Inactive)
REMARK    1  A    between atoms: C3_3  and  C5_5 
REMARK    2  A    between atoms: C5_5  and  C8_8 
REMARK    3  A    between atoms: C6_6  and  C7_7 
REMARK    4  A    between atoms: C7_7  and  C8_8 
REMARK    5  A    between atoms: C8_8  and  O9_9 
ROOT
HETATM    1  C8  UNL     1     -35.336  13.913  -5.318  1.00 20.00     0.118 C 
ENDROOT
BRANCH   1   2
HETATM    2  C5  UNL     1     -34.554  14.392  -4.088  1.00 20.00     0.036 C 
BRANCH   2   3
HETATM    3  C3  UNL     1     -34.705  15.878  -3.806  1.00 20.00    -0.012 A 
HETATM    4  C1  UNL     1     -35.264  16.346  -2.491  1.00 20.00     0.005 A 
HETATM    5  C2  UNL     1     -33.808  16.552  -2.804  1.00 20.00     0.005 A 
ENDBRANCH   2   3
ENDBRANCH   1   2
BRANCH   1   6
HETATM    6  C7  UNL     1     -36.446  14.882  -5.742  1.00 20.00     0.031 C 
BRANCH   6   7
HETATM    7  C6  UNL     1     -37.839  14.374  -5.353  1.00 20.00    -0.002 C 
HETATM    8  C4  UNL     1     -38.552  15.357  -4.436  1.00 20.00     0.005 C 
ENDBRANCH   6   7
ENDBRANCH   1   6
BRANCH   1   9
HETATM    9  O9  UNL     1     -35.933  12.654  -5.000  1.00 20.00    -0.396 OA
HETATM   10  H25 UNL     1     -36.523  12.439  -5.738  1.00 20.00     0.210 HD
ENDBRANCH   1   9
TORSDOF 5
ENDMDL
MODEL 9
REMARK VINA RESULT:      -4.0     10.006     11.156
REMARK  5 active torsions:
REMARK  status: ('A' for Active; 'I' for Inactive)
REMARK    1  A    between atoms: C3_3  and  C5_5 
REMARK    2  A    between atoms: C5_5  and  C8_8 
REMARK    3  A    between atoms: C6_6  and  C7_7 
REMARK    4  A    between atoms: C7_7  and  C8_8 
REMARK    5  A    between atoms: C8_8  and  O9_9 
ROOT
HETATM    1  C8  UNL     1     -35.089  13.780  -5.361  1.00 20.00     0.118 C 
ENDROOT
BRANCH   1   2
HETATM    2  C5  UNL     1     -34.439  14.304  -4.074  1.00 20.00     0.036 C 
BRANCH   2   3
HETATM    3  C3  UNL     1     -34.604  15.801  -3.868  1.00 20.00    -0.012 A 
HETATM    4  C1  UNL     1     -35.193  16.328  -2.589  1.00 20.00     0.005 A 
HETATM    5  C2  UNL     1     -33.733  16.529  -2.882  1.00 20.00     0.005 A 
ENDBRANCH   2   3
ENDBRANCH   1   2
BRANCH   1   6
HETATM    6  C7  UNL     1     -35.916  14.844  -6.094  1.00 20.00     0.031 C 
BRANCH   6   7
HETATM    7  C6  UNL     1     -35.368  15.141  -7.494  1.00 20.00    -0.002 C 
HETATM    8  C4  UNL     1     -34.221  14.208  -7.851  1.00 20.00     0.005 C 
ENDBRANCH   6   7
ENDBRANCH   1   6
BRANCH   1   9
HETATM    9  O9  UNL     1     -35.955  12.699  -5.011  1.00 20.00    -0.396 OA
HETATM   10  H25 UNL     1     -35.640  11.927  -5.505  1.00 20.00     0.210 HD
ENDBRANCH   1   9
TORSDOF 5
ENDMDL
