MODEL 1
REMARK VINA RESULT:      -6.4      0.000      0.000
REMARK  1 active torsions:
REMARK  status: ('A' for Active; 'I' for Inactive)
REMARK    1  A    between atoms: C5_5  and  C9_9 
ROOT
HETATM    1  C1  UNL     1     -32.206   9.460   0.766  1.00 20.00     0.012 C 
HETATM    2  C2  UNL     1     -32.027   8.816   1.762  1.00 20.00    -0.117 C 
HETATM    3  C9  UNL     1     -31.802   8.029   2.981  1.00 20.00     0.098 C 
ENDROOT
BRANCH   3   4
HETATM    4  C5  UNL     1     -33.116   7.670   3.657  1.00 20.00     0.002 C 
HETATM    5  C3  UNL     1     -33.131   8.036   5.150  1.00 20.00     0.007 C 
HETATM    6  C4  UNL     1     -33.849   6.890   5.868  1.00 20.00     0.021 C 
HETATM    7  C7  UNL     1     -34.459   6.045   4.756  1.00 20.00     0.086 C 
HETATM    8  C6  UNL     1     -33.439   6.167   3.623  1.00 20.00     0.005 C 
HETATM    9 CL10 UNL     1     -34.730   4.371   5.273  1.00 20.00    -0.125 Cl
HETATM   10  C8  UNL     1     -33.970   5.695   2.275  1.00 20.00     0.012 C 
ENDBRANCH   3   4
TORSDOF 1
ENDMDL
MODEL 2
REMARK VINA RESULT:      -5.4      0.925      2.131
REMARK  1 active torsions:
REMARK  status: ('A' for Active; 'I' for Inactive)
REMARK    1  A    between atoms: C5_5  and  C9_9 
ROOT
HETATM    1  C1  UNL     1     -31.408   8.801   0.664  1.00 20.00     0.012 C 
HETATM    2  C2  UNL     1     -32.123   8.667   1.618  1.00 20.00    -0.117 C 
HETATM    3  C9  UNL     1     -33.000   8.509   2.784  1.00 20.00     0.098 C 
ENDROOT
BRANCH   3   4
HETATM    4  C5  UNL     1     -32.816   7.145   3.432  1.00 20.00     0.002 C 
HETATM    5  C3  UNL     1     -32.997   5.989   2.436  1.00 20.00     0.007 C 
HETATM    6  C4  UNL     1     -33.759   4.891   3.181  1.00 20.00     0.021 C 
HETATM    7  C7  UNL     1     -33.754   5.325   4.642  1.00 20.00     0.086 C 
HETATM    8  C6  UNL     1     -33.827   6.851   4.553  1.00 20.00     0.005 C 
HETATM    9 CL10 UNL     1     -35.103   4.616   5.547  1.00 20.00    -0.125 Cl
HETATM   10  C8  UNL     1     -33.492   7.551   5.865  1.00 20.00     0.012 C 
ENDBRANCH   3   4
TORSDOF 1
ENDMDL
MODEL 3
REMARK VINA RESULT:      -4.9      2.390      4.220
REMARK  1 active torsions:
REMARK  status: ('A' for Active; 'I' for Inactive)
REMARK    1  A    between atoms: C5_5  and  C9_9 
ROOT
HETATM    1  C1  UNL     1     -34.699   4.828   5.671  1.00 20.00     0.012 C 
HETATM    2  C2  UNL     1     -34.250   5.928   5.503  1.00 20.00    -0.117 C 
HETATM    3  C9  UNL     1     -33.703   7.276   5.304  1.00 20.00     0.098 C 
ENDROOT
BRANCH   3   4
HETATM    4  C5  UNL     1     -32.741   7.312   4.126  1.00 20.00     0.002 C 
HETATM    5  C3  UNL     1     -31.719   8.455   4.234  1.00 20.00     0.007 C 
HETATM    6  C4  UNL     1     -31.556   9.025   2.823  1.00 20.00     0.021 C 
HETATM    7  C7  UNL     1     -32.268   8.033   1.910  1.00 20.00     0.086 C 
HETATM    8  C6  UNL     1     -33.432   7.538   2.771  1.00 20.00     0.005 C 
HETATM    9 CL10 UNL     1     -32.794   8.790   0.396  1.00 20.00    -0.125 Cl
HETATM   10  C8  UNL     1     -34.103   6.285   2.220  1.00 20.00     0.012 C 
ENDBRANCH   3   4
TORSDOF 1
ENDMDL
MODEL 4
REMARK VINA RESULT:      -4.7      2.272      4.447
REMARK  1 active torsions:
REMARK  status: ('A' for Active; 'I' for Inactive)
REMARK    1  A    between atoms: C5_5  and  C9_9 
ROOT
HETATM    1  C1  UNL     1     -33.460   3.194   4.401  1.00 20.00     0.012 C 
HETATM    2  C2  UNL     1     -34.239   4.104   4.470  1.00 20.00    -0.117 C 
HETATM    3  C9  UNL     1     -35.197   5.213   4.559  1.00 20.00     0.098 C 
ENDROOT
BRANCH   3   4
HETATM    4  C5  UNL     1     -34.634   6.480   3.931  1.00 20.00     0.002 C 
HETATM    5  C3  UNL     1     -34.256   6.288   2.454  1.00 20.00     0.007 C 
HETATM    6  C4  UNL     1     -32.948   7.053   2.239  1.00 20.00     0.021 C 
HETATM    7  C7  UNL     1     -32.757   7.877   3.507  1.00 20.00     0.086 C 
HETATM    8  C6  UNL     1     -33.342   6.978   4.599  1.00 20.00     0.005 C 
HETATM    9 CL10 UNL     1     -31.054   8.284   3.779  1.00 20.00    -0.125 Cl
HETATM   10  C8  UNL     1     -33.586   7.706   5.916  1.00 20.00     0.012 C 
ENDBRANCH   3   4
TORSDOF 1
ENDMDL
MODEL 5
REMARK VINA RESULT:      -4.4     11.535     12.149
REMARK  1 active torsions:
REMARK  status: ('A' for Active; 'I' for Inactive)
REMARK    1  A    between atoms: C5_5  and  C9_9 
ROOT
HETATM    1  C1  UNL     1     -34.829  17.264  -0.842  1.00 20.00     0.012 C 
HETATM    2  C2  UNL     1     -35.289  16.777  -1.837  1.00 20.00    -0.117 C 
HETATM    3  C9  UNL     1     -35.858  16.184  -3.054  1.00 20.00     0.098 C 
ENDROOT
BRANCH   3   4
HETATM    4  C5  UNL     1     -34.836  15.319  -3.776  1.00 20.00     0.002 C 
HETATM    5  C3  UNL     1     -33.509  16.054  -4.021  1.00 20.00     0.007 C 
HETATM    6  C4  UNL     1     -33.042  15.647  -5.421  1.00 20.00     0.021 C 
HETATM    7  C7  UNL     1     -33.954  14.495  -5.825  1.00 20.00     0.086 C 
HETATM    8  C6  UNL     1     -35.289  14.861  -5.172  1.00 20.00     0.005 C 
HETATM    9 CL10 UNL     1     -34.064  14.326  -7.586  1.00 20.00    -0.125 Cl
HETATM   10  C8  UNL     1     -36.282  13.706  -5.135  1.00 20.00     0.012 C 
ENDBRANCH   3   4
TORSDOF 1
ENDMDL
MODEL 6
REMARK VINA RESULT:      -4.2     10.816     11.898
REMARK  1 active torsions:
REMARK  status: ('A' for Active; 'I' for Inactive)
REMARK    1  A    between atoms: C5_5  and  C9_9 
ROOT
HETATM    1  C1  UNL     1     -35.509  17.056  -0.727  1.00 20.00     0.012 C 
HETATM    2  C2  UNL     1     -34.642  17.042  -1.556  1.00 20.00    -0.117 C 
HETATM    3  C9  UNL     1     -33.576  17.027  -2.565  1.00 20.00     0.098 C 
ENDROOT
BRANCH   3   4
HETATM    4  C5  UNL     1     -34.099  16.554  -3.913  1.00 20.00     0.002 C 
HETATM    5  C3  UNL     1     -35.479  17.142  -4.249  1.00 20.00     0.007 C 
HETATM    6  C4  UNL     1     -36.280  16.017  -4.909  1.00 20.00     0.021 C 
HETATM    7  C7  UNL     1     -35.265  14.913  -5.179  1.00 20.00     0.086 C 
HETATM    8  C6  UNL     1     -34.297  15.031  -4.000  1.00 20.00     0.005 C 
HETATM    9 CL10 UNL     1     -36.036  13.320  -5.289  1.00 20.00    -0.125 Cl
HETATM   10  C8  UNL     1     -32.995  14.266  -4.205  1.00 20.00     0.012 C 
ENDBRANCH   3   4
TORSDOF 1
ENDMDL
MODEL 7
REMARK VINA RESULT:      -4.2      1.503      2.520
REMARK  1 active torsions:
REMARK  status: ('A' for Active; 'I' for Inactive)
REMARK    1  A    between atoms: C5_5  and  C9_9 
ROOT
HETATM    1  C1  UNL     1     -32.952  10.534   1.527  1.00 20.00     0.012 C 
HETATM    2  C2  UNL     1     -32.701   9.386   1.285  1.00 20.00    -0.117 C 
HETATM    3  C9  UNL     1     -32.391   7.983   0.981  1.00 20.00     0.098 C 
ENDROOT
BRANCH   3   4
HETATM    4  C5  UNL     1     -32.561   7.103   2.210  1.00 20.00     0.002 C 
HETATM    5  C3  UNL     1     -33.883   6.320   2.197  1.00 20.00     0.007 C 
HETATM    6  C4  UNL     1     -34.410   6.337   3.634  1.00 20.00     0.021 C 
HETATM    7  C7  UNL     1     -33.260   6.882   4.472  1.00 20.00     0.086 C 
HETATM    8  C6  UNL     1     -32.588   7.887   3.533  1.00 20.00     0.005 C 
HETATM    9 CL10 UNL     1     -33.832   7.616   5.980  1.00 20.00    -0.125 Cl
HETATM   10  C8  UNL     1     -31.205   8.324   4.002  1.00 20.00     0.012 C 
ENDBRANCH   3   4
TORSDOF 1
ENDMDL
MODEL 8
REMARK VINA RESULT:      -4.1     11.800     12.941
REMARK  1 active torsions:
REMARK  status: ('A' for Active; 'I' for Inactive)
REMARK    1  A    between atoms: C5_5  and  C9_9 
ROOT
HETATM    1  C1  UNL     1     -32.963  17.872  -1.588  1.00 20.00     0.012 C 
HETATM    2  C2  UNL     1     -33.894  17.189  -1.914  1.00 20.00    -0.117 C 
HETATM    3  C9  UNL     1     -35.037  16.355  -2.306  1.00 20.00     0.098 C 
ENDROOT
BRANCH   3   4
HETATM    4  C5  UNL     1     -34.894  15.863  -3.739  1.00 20.00     0.002 C 
HETATM    5  C3  UNL     1     -33.538  15.187  -3.998  1.00 20.00     0.007 C 
HETATM    6  C4  UNL     1     -33.092  15.635  -5.392  1.00 20.00     0.021 C 
HETATM    7  C7  UNL     1     -34.309  16.323  -5.997  1.00 20.00     0.086 C 
HETATM    8  C6  UNL     1     -34.974  16.985  -4.788  1.00 20.00     0.005 C 
HETATM    9 CL10 UNL     1     -33.853  17.481  -7.260  1.00 20.00    -0.125 Cl
HETATM   10  C8  UNL     1     -36.399  17.454  -5.061  1.00 20.00     0.012 C 
ENDBRANCH   3   4
TORSDOF 1
ENDMDL
MODEL 9
REMARK VINA RESULT:      -4.1     11.433     12.102
REMARK  1 active torsions:
REMARK  status: ('A' for Active; 'I' for Inactive)
REMARK    1  A    between atoms: C5_5  and  C9_9 
ROOT
HETATM    1  C1  UNL     1     -30.738  18.906   1.854  1.00 20.00     0.012 C 
HETATM    2  C2  UNL     1     -31.768  19.059   1.259  1.00 20.00    -0.117 C 
HETATM    3  C9  UNL     1     -33.029  19.252   0.533  1.00 20.00     0.098 C 
ENDROOT
BRANCH   3   4
HETATM    4  C5  UNL     1     -33.426  17.996  -0.228  1.00 20.00     0.002 C 
HETATM    5  C3  UNL     1     -32.692  17.864  -1.572  1.00 20.00     0.007 C 
HETATM    6  C4  UNL     1     -33.718  17.330  -2.574  1.00 20.00     0.021 C 
HETATM    7  C7  UNL     1     -34.918  16.916  -1.731  1.00 20.00     0.086 C 
HETATM    8  C6  UNL     1     -34.918  17.941  -0.595  1.00 20.00     0.005 C 
HETATM    9 CL10 UNL     1     -36.420  16.922  -2.673  1.00 20.00    -0.125 Cl
HETATM   10  C8  UNL     1     -35.812  17.548   0.575  1.00 20.00     0.012 C 
ENDBRANCH   3   4
TORSDOF 1
ENDMDL
