MODEL 1
REMARK VINA RESULT:      -6.4      0.000      0.000
REMARK  2 active torsions:
REMARK  status: ('A' for Active; 'I' for Inactive)
REMARK    1  A    between atoms: C5_5  and  C9_9 
REMARK    2  A    between atoms: C9_9  and  C10_10 
ROOT
HETATM    1  C1  UNL     1     -34.466   5.125   5.116  1.00 20.00     0.131 C 
HETATM    2  C2  UNL     1     -34.015   4.176   4.036  1.00 20.00     0.079 C 
HETATM    3  C3  UNL     1     -33.813   5.117   2.854  1.00 20.00     0.013 C 
HETATM    4  C4  UNL     1     -34.283   6.576   4.715  1.00 20.00     0.055 C 
HETATM    5  C5  UNL     1     -33.365   6.435   3.490  1.00 20.00    -0.003 C 
HETATM    6  C6  UNL     1     -33.678   7.412   5.828  1.00 20.00     0.018 C 
HETATM    7  O11 UNL     1     -34.924   4.757   6.190  1.00 20.00    -0.298 OA
ENDROOT
BRANCH   5   8
HETATM    8  C9  UNL     1     -33.470   7.606   2.525  1.00 20.00     0.009 C 
BRANCH   8   9
HETATM    9  C10 UNL     1     -32.105   8.189   2.113  1.00 20.00    -0.022 C 
HETATM   10  C7  UNL     1     -32.243   9.494   1.327  1.00 20.00     0.009 C 
HETATM   11  C8  UNL     1     -31.244   8.422   3.356  1.00 20.00     0.009 C 
ENDBRANCH   8   9
ENDBRANCH   5   8
TORSDOF 2
ENDMDL
MODEL 2
REMARK VINA RESULT:      -6.2      1.079      1.495
REMARK  2 active torsions:
REMARK  status: ('A' for Active; 'I' for Inactive)
REMARK    1  A    between atoms: C5_5  and  C9_9 
REMARK    2  A    between atoms: C9_9  and  C10_10 
ROOT
HETATM    1  C1  UNL     1     -34.329   5.858   4.067  1.00 20.00     0.131 C 
HETATM    2  C2  UNL     1     -33.685   5.142   2.908  1.00 20.00     0.079 C 
HETATM    3  C3  UNL     1     -32.890   6.261   2.248  1.00 20.00     0.013 C 
HETATM    4  C4  UNL     1     -33.750   7.244   4.275  1.00 20.00     0.055 C 
HETATM    5  C5  UNL     1     -32.482   7.172   3.409  1.00 20.00    -0.003 C 
HETATM    6  C6  UNL     1     -33.464   7.539   5.736  1.00 20.00     0.018 C 
HETATM    7  O11 UNL     1     -35.214   5.367   4.757  1.00 20.00    -0.298 OA
ENDROOT
BRANCH   5   8
HETATM    8  C9  UNL     1     -32.004   8.535   2.932  1.00 20.00     0.009 C 
BRANCH   8   9
HETATM    9  C10 UNL     1     -32.423   8.865   1.487  1.00 20.00    -0.022 C 
HETATM   10  C7  UNL     1     -32.989  10.280   1.354  1.00 20.00     0.009 C 
HETATM   11  C8  UNL     1     -31.228   8.695   0.548  1.00 20.00     0.009 C 
ENDBRANCH   8   9
ENDBRANCH   5   8
TORSDOF 2
ENDMDL
MODEL 3
REMARK VINA RESULT:      -6.0      1.068      2.260
REMARK  2 active torsions:
REMARK  status: ('A' for Active; 'I' for Inactive)
REMARK    1  A    between atoms: C5_5  and  C9_9 
REMARK    2  A    between atoms: C9_9  and  C10_10 
ROOT
HETATM    1  C1  UNL     1     -34.201   5.360   4.415  1.00 20.00     0.131 C 
HETATM    2  C2  UNL     1     -34.309   6.351   5.545  1.00 20.00     0.079 C 
HETATM    3  C3  UNL     1     -33.316   7.425   5.120  1.00 20.00     0.013 C 
HETATM    4  C4  UNL     1     -33.416   5.915   3.243  1.00 20.00     0.055 C 
HETATM    5  C5  UNL     1     -33.375   7.412   3.590  1.00 20.00    -0.003 C 
HETATM    6  C6  UNL     1     -34.082   5.625   1.910  1.00 20.00     0.018 C 
HETATM    7  O11 UNL     1     -34.696   4.241   4.448  1.00 20.00    -0.298 OA
ENDROOT
BRANCH   5   8
HETATM    8  C9  UNL     1     -32.197   8.141   2.961  1.00 20.00     0.009 C 
BRANCH   8   9
HETATM    9  C10 UNL     1     -32.518   8.761   1.589  1.00 20.00    -0.022 C 
HETATM   10  C7  UNL     1     -32.806  10.260   1.680  1.00 20.00     0.009 C 
HETATM   11  C8  UNL     1     -31.356   8.516   0.624  1.00 20.00     0.009 C 
ENDBRANCH   8   9
ENDBRANCH   5   8
TORSDOF 2
ENDMDL
MODEL 4
REMARK VINA RESULT:      -4.9     11.288     12.079
REMARK  2 active torsions:
REMARK  status: ('A' for Active; 'I' for Inactive)
REMARK    1  A    between atoms: C5_5  and  C9_9 
REMARK    2  A    between atoms: C9_9  and  C10_10 
ROOT
HETATM    1  C1  UNL     1     -35.678  13.764  -4.988  1.00 20.00     0.131 C 
HETATM    2  C2  UNL     1     -36.914  14.617  -5.110  1.00 20.00     0.079 C 
HETATM    3  C3  UNL     1     -36.754  15.573  -3.934  1.00 20.00     0.013 C 
HETATM    4  C4  UNL     1     -34.689  14.330  -3.987  1.00 20.00     0.055 C 
HETATM    5  C5  UNL     1     -35.241  15.751  -3.792  1.00 20.00    -0.003 C 
HETATM    6  C6  UNL     1     -33.263  14.304  -4.505  1.00 20.00     0.018 C 
HETATM    7  O11 UNL     1     -35.502  12.735  -5.628  1.00 20.00    -0.298 OA
ENDROOT
BRANCH   5   8
HETATM    8  C9  UNL     1     -34.855  16.366  -2.455  1.00 20.00     0.009 C 
BRANCH   8   9
HETATM    9  C10 UNL     1     -33.545  17.175  -2.503  1.00 20.00    -0.022 C 
HETATM   10  C7  UNL     1     -33.527  18.185  -3.651  1.00 20.00     0.009 C 
HETATM   11  C8  UNL     1     -33.334  17.899  -1.172  1.00 20.00     0.009 C 
ENDBRANCH   8   9
ENDBRANCH   5   8
TORSDOF 2
ENDMDL
MODEL 5
REMARK VINA RESULT:      -4.6     11.245     12.148
REMARK  2 active torsions:
REMARK  status: ('A' for Active; 'I' for Inactive)
REMARK    1  A    between atoms: C5_5  and  C9_9 
REMARK    2  A    between atoms: C9_9  and  C10_10 
ROOT
HETATM    1  C1  UNL     1     -35.615  13.837  -4.821  1.00 20.00     0.131 C 
HETATM    2  C2  UNL     1     -36.833  14.724  -4.885  1.00 20.00     0.079 C 
HETATM    3  C3  UNL     1     -36.554  15.724  -3.770  1.00 20.00     0.013 C 
HETATM    4  C4  UNL     1     -34.535  14.415  -3.929  1.00 20.00     0.055 C 
HETATM    5  C5  UNL     1     -35.029  15.861  -3.756  1.00 20.00    -0.003 C 
HETATM    6  C6  UNL     1     -33.155  14.322  -4.555  1.00 20.00     0.018 C 
HETATM    7  O11 UNL     1     -35.520  12.777  -5.426  1.00 20.00    -0.298 OA
ENDROOT
BRANCH   5   8
HETATM    8  C9  UNL     1     -34.521  16.520  -2.483  1.00 20.00     0.009 C 
BRANCH   8   9
HETATM    9  C10 UNL     1     -35.573  17.400  -1.782  1.00 20.00    -0.022 C 
HETATM   10  C7  UNL     1     -35.491  17.303  -0.258  1.00 20.00     0.009 C 
HETATM   11  C8  UNL     1     -35.404  18.857  -2.218  1.00 20.00     0.009 C 
ENDBRANCH   8   9
ENDBRANCH   5   8
TORSDOF 2
ENDMDL
MODEL 6
REMARK VINA RESULT:      -4.4     11.749     12.294
REMARK  2 active torsions:
REMARK  status: ('A' for Active; 'I' for Inactive)
REMARK    1  A    between atoms: C5_5  and  C9_9 
REMARK    2  A    between atoms: C9_9  and  C10_10 
ROOT
HETATM    1  C1  UNL     1     -34.329  18.384   0.321  1.00 20.00     0.131 C 
HETATM    2  C2  UNL     1     -35.517  17.457   0.306  1.00 20.00     0.079 C 
HETATM    3  C3  UNL     1     -35.573  17.041  -1.159  1.00 20.00     0.013 C 
HETATM    4  C4  UNL     1     -33.539  18.322  -0.972  1.00 20.00     0.055 C 
HETATM    5  C5  UNL     1     -34.111  17.046  -1.612  1.00 20.00    -0.003 C 
HETATM    6  C6  UNL     1     -32.042  18.256  -0.733  1.00 20.00     0.018 C 
HETATM    7  O11 UNL     1     -34.042  19.098   1.273  1.00 20.00    -0.298 OA
ENDROOT
BRANCH   5   8
HETATM    8  C9  UNL     1     -33.976  17.023  -3.127  1.00 20.00     0.009 C 
BRANCH   8   9
HETATM    9  C10 UNL     1     -33.893  15.603  -3.717  1.00 20.00    -0.022 C 
HETATM   10  C7  UNL     1     -35.267  15.047  -4.091  1.00 20.00     0.009 C 
HETATM   11  C8  UNL     1     -32.982  15.604  -4.946  1.00 20.00     0.009 C 
ENDBRANCH   8   9
ENDBRANCH   5   8
TORSDOF 2
ENDMDL
MODEL 7
REMARK VINA RESULT:      -4.3     11.562     12.422
REMARK  2 active torsions:
REMARK  status: ('A' for Active; 'I' for Inactive)
REMARK    1  A    between atoms: C5_5  and  C9_9 
REMARK    2  A    between atoms: C9_9  and  C10_10 
ROOT
HETATM    1  C1  UNL     1     -36.457  14.723  -5.313  1.00 20.00     0.131 C 
HETATM    2  C2  UNL     1     -35.591  13.591  -4.823  1.00 20.00     0.079 C 
HETATM    3  C3  UNL     1     -34.413  14.338  -4.209  1.00 20.00     0.013 C 
HETATM    4  C4  UNL     1     -35.990  16.067  -4.790  1.00 20.00     0.055 C 
HETATM    5  C5  UNL     1     -35.023  15.636  -3.675  1.00 20.00    -0.003 C 
HETATM    6  C6  UNL     1     -37.138  16.926  -4.291  1.00 20.00     0.018 C 
HETATM    7  O11 UNL     1     -37.425  14.564  -6.046  1.00 20.00    -0.298 OA
ENDROOT
BRANCH   5   8
HETATM    8  C9  UNL     1     -33.966  16.683  -3.359  1.00 20.00     0.009 C 
BRANCH   8   9
HETATM    9  C10 UNL     1     -33.797  16.955  -1.853  1.00 20.00    -0.022 C 
HETATM   10  C7  UNL     1     -32.984  18.221  -1.577  1.00 20.00     0.009 C 
HETATM   11  C8  UNL     1     -35.171  17.067  -1.189  1.00 20.00     0.009 C 
ENDBRANCH   8   9
ENDBRANCH   5   8
TORSDOF 2
ENDMDL
MODEL 8
REMARK VINA RESULT:      -4.2     11.572     12.983
REMARK  2 active torsions:
REMARK  status: ('A' for Active; 'I' for Inactive)
REMARK    1  A    between atoms: C5_5  and  C9_9 
REMARK    2  A    between atoms: C9_9  and  C10_10 
ROOT
HETATM    1  C1  UNL     1     -33.403  18.280  -2.463  1.00 20.00     0.131 C 
HETATM    2  C2  UNL     1     -33.731  17.611  -1.153  1.00 20.00     0.079 C 
HETATM    3  C3  UNL     1     -34.991  16.830  -1.504  1.00 20.00     0.013 C 
HETATM    4  C4  UNL     1     -34.230  17.730  -3.608  1.00 20.00     0.055 C 
HETATM    5  C5  UNL     1     -34.805  16.452  -2.976  1.00 20.00    -0.003 C 
HETATM    6  C6  UNL     1     -33.397  17.465  -4.849  1.00 20.00     0.018 C 
HETATM    7  O11 UNL     1     -32.562  19.163  -2.578  1.00 20.00    -0.298 OA
ENDROOT
BRANCH   5   8
HETATM    8  C9  UNL     1     -36.104  15.995  -3.623  1.00 20.00     0.009 C 
BRANCH   8   9
HETATM    9  C10 UNL     1     -35.950  14.729  -4.486  1.00 20.00    -0.022 C 
HETATM   10  C7  UNL     1     -36.044  15.029  -5.982  1.00 20.00     0.009 C 
HETATM   11  C8  UNL     1     -34.615  14.049  -4.177  1.00 20.00     0.009 C 
ENDBRANCH   8   9
ENDBRANCH   5   8
TORSDOF 2
ENDMDL
MODEL 9
REMARK VINA RESULT:      -4.2     11.677     12.899
REMARK  2 active torsions:
REMARK  status: ('A' for Active; 'I' for Inactive)
REMARK    1  A    between atoms: C5_5  and  C9_9 
REMARK    2  A    between atoms: C9_9  and  C10_10 
ROOT
HETATM    1  C1  UNL     1     -33.500  17.802  -3.392  1.00 20.00     0.131 C 
HETATM    2  C2  UNL     1     -33.378  17.864  -4.893  1.00 20.00     0.079 C 
HETATM    3  C3  UNL     1     -33.561  16.403  -5.284  1.00 20.00     0.013 C 
HETATM    4  C4  UNL     1     -34.002  16.454  -2.914  1.00 20.00     0.055 C 
HETATM    5  C5  UNL     1     -34.517  15.843  -4.228  1.00 20.00    -0.003 C 
HETATM    6  C6  UNL     1     -35.075  16.580  -1.848  1.00 20.00     0.018 C 
HETATM    7  O11 UNL     1     -33.224  18.739  -2.653  1.00 20.00    -0.298 OA
ENDROOT
BRANCH   5   8
HETATM    8  C9  UNL     1     -34.536  14.322  -4.215  1.00 20.00     0.009 C 
BRANCH   8   9
HETATM    9  C10 UNL     1     -35.781  13.715  -4.888  1.00 20.00    -0.022 C 
HETATM   10  C7  UNL     1     -36.999  14.635  -4.795  1.00 20.00     0.009 C 
HETATM   11  C8  UNL     1     -35.479  13.404  -6.355  1.00 20.00     0.009 C 
ENDBRANCH   8   9
ENDBRANCH   5   8
TORSDOF 2
ENDMDL
