MODEL 1
REMARK VINA RESULT:      -5.9      0.000      0.000
REMARK  1 active torsions:
REMARK  status: ('A' for Active; 'I' for Inactive)
REMARK    1  A    between atoms: C5_5  and  C9_9 
ROOT
HETATM    1  C1  UNL     1     -32.165   9.113   1.515  1.00 20.00     0.012 C 
HETATM    2  C2  UNL     1     -32.237   8.319   2.413  1.00 20.00    -0.117 C 
HETATM    3  C9  UNL     1     -32.316   7.346   3.508  1.00 20.00     0.098 C 
ENDROOT
BRANCH   3   4
HETATM    4  C5  UNL     1     -33.706   7.336   4.136  1.00 20.00     0.002 C 
HETATM    5  C3  UNL     1     -33.636   7.049   5.648  1.00 20.00     0.007 C 
HETATM    6  C4  UNL     1     -34.751   6.047   5.933  1.00 20.00     0.021 C 
HETATM    7  C7  UNL     1     -34.850   5.225   4.652  1.00 20.00     0.086 C 
HETATM    8  C6  UNL     1     -34.709   6.303   3.565  1.00 20.00     0.005 C 
HETATM    9 CL10 UNL     1     -33.556   3.994   4.604  1.00 20.00    -0.125 Cl
HETATM   10  C8  UNL     1     -34.445   5.791   2.155  1.00 20.00     0.012 C 
ENDBRANCH   3   4
TORSDOF 1
ENDMDL
MODEL 2
REMARK VINA RESULT:      -5.1      1.443      2.412
REMARK  1 active torsions:
REMARK  status: ('A' for Active; 'I' for Inactive)
REMARK    1  A    between atoms: C5_5  and  C9_9 
ROOT
HETATM    1  C1  UNL     1     -31.472   8.783   0.741  1.00 20.00     0.012 C 
HETATM    2  C2  UNL     1     -32.146   8.515   1.698  1.00 20.00    -0.117 C 
HETATM    3  C9  UNL     1     -32.974   8.197   2.866  1.00 20.00     0.098 C 
ENDROOT
BRANCH   3   4
HETATM    4  C5  UNL     1     -32.640   6.814   3.416  1.00 20.00     0.002 C 
HETATM    5  C3  UNL     1     -32.997   5.708   2.405  1.00 20.00     0.007 C 
HETATM    6  C4  UNL     1     -33.678   4.608   3.215  1.00 20.00     0.021 C 
HETATM    7  C7  UNL     1     -34.392   5.357   4.335  1.00 20.00     0.086 C 
HETATM    8  C6  UNL     1     -33.346   6.411   4.735  1.00 20.00     0.005 C 
HETATM    9 CL10 UNL     1     -35.919   6.063   3.733  1.00 20.00    -0.125 Cl
HETATM   10  C8  UNL     1     -33.853   7.542   5.620  1.00 20.00     0.012 C 
ENDBRANCH   3   4
TORSDOF 1
ENDMDL
MODEL 3
REMARK VINA RESULT:      -4.4     12.055     12.601
REMARK  1 active torsions:
REMARK  status: ('A' for Active; 'I' for Inactive)
REMARK    1  A    between atoms: C5_5  and  C9_9 
ROOT
HETATM    1  C1  UNL     1     -31.483  18.629   0.519  1.00 20.00     0.012 C 
HETATM    2  C2  UNL     1     -32.242  18.550  -0.408  1.00 20.00    -0.117 C 
HETATM    3  C9  UNL     1     -33.166  18.463  -1.543  1.00 20.00     0.098 C 
ENDROOT
BRANCH   3   4
HETATM    4  C5  UNL     1     -33.751  17.059  -1.670  1.00 20.00     0.002 C 
HETATM    5  C3  UNL     1     -33.627  16.529  -3.110  1.00 20.00     0.007 C 
HETATM    6  C4  UNL     1     -34.969  15.877  -3.431  1.00 20.00     0.021 C 
HETATM    7  C7  UNL     1     -35.980  16.696  -2.635  1.00 20.00     0.086 C 
HETATM    8  C6  UNL     1     -35.247  16.904  -1.299  1.00 20.00     0.005 C 
HETATM    9 CL10 UNL     1     -36.350  18.221  -3.488  1.00 20.00    -0.125 Cl
HETATM   10  C8  UNL     1     -35.843  17.957  -0.375  1.00 20.00     0.012 C 
ENDBRANCH   3   4
TORSDOF 1
ENDMDL
MODEL 4
REMARK VINA RESULT:      -4.4     11.995     12.855
REMARK  1 active torsions:
REMARK  status: ('A' for Active; 'I' for Inactive)
REMARK    1  A    between atoms: C5_5  and  C9_9 
ROOT
HETATM    1  C1  UNL     1     -33.675  17.391  -1.524  1.00 20.00     0.012 C 
HETATM    2  C2  UNL     1     -34.243  16.674  -2.302  1.00 20.00    -0.117 C 
HETATM    3  C9  UNL     1     -34.946  15.800  -3.247  1.00 20.00     0.098 C 
ENDROOT
BRANCH   3   4
HETATM    4  C5  UNL     1     -33.983  15.219  -4.278  1.00 20.00     0.002 C 
HETATM    5  C3  UNL     1     -33.296  16.331  -5.092  1.00 20.00     0.007 C 
HETATM    6  C4  UNL     1     -33.326  15.863  -6.544  1.00 20.00     0.021 C 
HETATM    7  C7  UNL     1     -34.612  15.049  -6.647  1.00 20.00     0.086 C 
HETATM    8  C6  UNL     1     -34.599  14.259  -5.327  1.00 20.00     0.005 C 
HETATM    9 CL10 UNL     1     -36.021  16.134  -6.812  1.00 20.00    -0.125 Cl
HETATM   10  C8  UNL     1     -35.907  13.575  -4.953  1.00 20.00     0.012 C 
ENDBRANCH   3   4
TORSDOF 1
ENDMDL
MODEL 5
REMARK VINA RESULT:      -4.2     11.498     12.717
REMARK  1 active torsions:
REMARK  status: ('A' for Active; 'I' for Inactive)
REMARK    1  A    between atoms: C5_5  and  C9_9 
ROOT
HETATM    1  C1  UNL     1     -33.931  17.504  -1.148  1.00 20.00     0.012 C 
HETATM    2  C2  UNL     1     -33.813  16.908  -2.183  1.00 20.00    -0.117 C 
HETATM    3  C9  UNL     1     -33.659  16.183  -3.449  1.00 20.00     0.098 C 
ENDROOT
BRANCH   3   4
HETATM    4  C5  UNL     1     -34.964  15.504  -3.855  1.00 20.00     0.002 C 
HETATM    5  C3  UNL     1     -34.745  14.009  -4.160  1.00 20.00     0.007 C 
HETATM    6  C4  UNL     1     -35.534  13.726  -5.436  1.00 20.00     0.021 C 
HETATM    7  C7  UNL     1     -35.469  15.037  -6.213  1.00 20.00     0.086 C 
HETATM    8  C6  UNL     1     -35.677  16.081  -5.104  1.00 20.00     0.005 C 
HETATM    9 CL10 UNL     1     -33.895  15.187  -7.044  1.00 20.00    -0.125 Cl
HETATM   10  C8  UNL     1     -35.353  17.520  -5.480  1.00 20.00     0.012 C 
ENDBRANCH   3   4
TORSDOF 1
ENDMDL
MODEL 6
REMARK VINA RESULT:      -4.2      2.149      4.131
REMARK  1 active torsions:
REMARK  status: ('A' for Active; 'I' for Inactive)
REMARK    1  A    between atoms: C5_5  and  C9_9 
ROOT
HETATM    1  C1  UNL     1     -34.706   5.063   5.888  1.00 20.00     0.012 C 
HETATM    2  C2  UNL     1     -34.342   6.094   5.392  1.00 20.00    -0.117 C 
HETATM    3  C9  UNL     1     -33.906   7.357   4.789  1.00 20.00     0.098 C 
ENDROOT
BRANCH   3   4
HETATM    4  C5  UNL     1     -32.612   7.173   4.002  1.00 20.00     0.002 C 
HETATM    5  C3  UNL     1     -31.717   8.423   4.096  1.00 20.00     0.007 C 
HETATM    6  C4  UNL     1     -31.197   8.669   2.683  1.00 20.00     0.021 C 
HETATM    7  C7  UNL     1     -32.324   8.180   1.780  1.00 20.00     0.086 C 
HETATM    8  C6  UNL     1     -32.765   6.887   2.487  1.00 20.00     0.005 C 
HETATM    9 CL10 UNL     1     -33.615   9.410   1.678  1.00 20.00    -0.125 Cl
HETATM   10  C8  UNL     1     -34.092   6.300   2.026  1.00 20.00     0.012 C 
ENDBRANCH   3   4
TORSDOF 1
ENDMDL
MODEL 7
REMARK VINA RESULT:      -4.1     11.377     12.590
REMARK  1 active torsions:
REMARK  status: ('A' for Active; 'I' for Inactive)
REMARK    1  A    between atoms: C5_5  and  C9_9 
ROOT
HETATM    1  C1  UNL     1     -33.370  17.768  -1.253  1.00 20.00     0.012 C 
HETATM    2  C2  UNL     1     -34.012  17.042  -1.962  1.00 20.00    -0.117 C 
HETATM    3  C9  UNL     1     -34.800  16.151  -2.820  1.00 20.00     0.098 C 
ENDROOT
BRANCH   3   4
HETATM    4  C5  UNL     1     -34.516  16.415  -4.295  1.00 20.00     0.002 C 
HETATM    5  C3  UNL     1     -35.818  16.663  -5.080  1.00 20.00     0.007 C 
HETATM    6  C4  UNL     1     -35.681  15.868  -6.375  1.00 20.00     0.021 C 
HETATM    7  C7  UNL     1     -34.837  14.660  -5.983  1.00 20.00     0.086 C 
HETATM    8  C6  UNL     1     -33.778  15.291  -5.064  1.00 20.00     0.005 C 
HETATM    9 CL10 UNL     1     -35.849  13.436  -5.166  1.00 20.00    -0.125 Cl
HETATM   10  C8  UNL     1     -32.954  14.314  -4.235  1.00 20.00     0.012 C 
ENDBRANCH   3   4
TORSDOF 1
ENDMDL
MODEL 8
REMARK VINA RESULT:      -4.1     12.213     13.182
REMARK  1 active torsions:
REMARK  status: ('A' for Active; 'I' for Inactive)
REMARK    1  A    between atoms: C5_5  and  C9_9 
ROOT
HETATM    1  C1  UNL     1     -33.013  17.750  -1.489  1.00 20.00     0.012 C 
HETATM    2  C2  UNL     1     -33.994  17.175  -1.873  1.00 20.00    -0.117 C 
HETATM    3  C9  UNL     1     -35.198  16.476  -2.334  1.00 20.00     0.098 C 
ENDROOT
BRANCH   3   4
HETATM    4  C5  UNL     1     -34.936  15.732  -3.640  1.00 20.00     0.002 C 
HETATM    5  C3  UNL     1     -33.430  15.477  -3.846  1.00 20.00     0.007 C 
HETATM    6  C4  UNL     1     -33.149  15.806  -5.309  1.00 20.00     0.021 C 
HETATM    7  C7  UNL     1     -34.139  16.918  -5.638  1.00 20.00     0.086 C 
HETATM    8  C6  UNL     1     -35.418  16.430  -4.937  1.00 20.00     0.005 C 
HETATM    9 CL10 UNL     1     -33.542  18.483  -5.018  1.00 20.00    -0.125 Cl
HETATM   10  C8  UNL     1     -36.529  17.461  -4.793  1.00 20.00     0.012 C 
ENDBRANCH   3   4
TORSDOF 1
ENDMDL
MODEL 9
REMARK VINA RESULT:      -4.1     11.961     12.802
REMARK  1 active torsions:
REMARK  status: ('A' for Active; 'I' for Inactive)
REMARK    1  A    between atoms: C5_5  and  C9_9 
ROOT
HETATM    1  C1  UNL     1     -33.828  15.980  -7.230  1.00 20.00     0.012 C 
HETATM    2  C2  UNL     1     -33.514  15.657  -6.117  1.00 20.00    -0.117 C 
HETATM    3  C9  UNL     1     -33.119  15.264  -4.760  1.00 20.00     0.098 C 
ENDROOT
BRANCH   3   4
HETATM    4  C5  UNL     1     -34.342  14.952  -3.901  1.00 20.00     0.002 C 
HETATM    5  C3  UNL     1     -35.595  14.734  -4.770  1.00 20.00     0.007 C 
HETATM    6  C4  UNL     1     -36.721  15.492  -4.072  1.00 20.00     0.021 C 
HETATM    7  C7  UNL     1     -36.022  16.676  -3.414  1.00 20.00     0.086 C 
HETATM    8  C6  UNL     1     -34.741  16.028  -2.861  1.00 20.00     0.005 C 
HETATM    9 CL10 UNL     1     -35.707  17.958  -4.618  1.00 20.00    -0.125 Cl
HETATM   10  C8  UNL     1     -33.652  16.993  -2.412  1.00 20.00     0.012 C 
ENDBRANCH   3   4
TORSDOF 1
ENDMDL
