MODEL 1
REMARK VINA RESULT:      -5.0      0.000      0.000
REMARK  2 active torsions:
REMARK  status: ('A' for Active; 'I' for Inactive)
REMARK    1  A    between atoms: C4_4  and  C9_9 
REMARK    2  A    between atoms: C6_6  and  N10_10 
ROOT
HETATM    1  C1  UNL     1     -32.250   9.006   1.602  1.00 20.00     0.158 C 
HETATM    2  N10 UNL     1     -32.015   8.057   2.252  1.00 20.00    -0.270 NA
HETATM    3  S11 UNL     1     -32.538  10.303   0.725  1.00 20.00    -0.055 SA
ENDROOT
BRANCH   2   4
HETATM    4  C6  UNL     1     -33.142   7.146   2.433  1.00 20.00     0.113 C 
HETATM    5  C3  UNL     1     -32.681   5.690   2.411  1.00 20.00     0.028 C 
HETATM    6  C2  UNL     1     -33.605   4.945   3.379  1.00 20.00     0.007 C 
HETATM    7  C4  UNL     1     -34.599   5.992   3.896  1.00 20.00    -0.009 C 
HETATM    8  C5  UNL     1     -33.833   7.325   3.792  1.00 20.00     0.010 C 
HETATM    9  C7  UNL     1     -32.866   7.579   4.953  1.00 20.00     0.012 C 
BRANCH   7  10
HETATM   10  C9  UNL     1     -35.163   5.647   5.266  1.00 20.00     0.000 C 
HETATM   11  C8  UNL     1     -34.425   4.512   5.899  1.00 20.00     0.005 C 
ENDBRANCH   7  10
ENDBRANCH   2   4
TORSDOF 2
ENDMDL
MODEL 2
REMARK VINA RESULT:      -4.3     11.551     12.154
REMARK  2 active torsions:
REMARK  status: ('A' for Active; 'I' for Inactive)
REMARK    1  A    between atoms: C4_4  and  C9_9 
REMARK    2  A    between atoms: C6_6  and  N10_10 
ROOT
HETATM    1  C1  UNL     1     -31.825  18.682  -0.048  1.00 20.00     0.158 C 
HETATM    2  N10 UNL     1     -32.258  18.543  -1.131  1.00 20.00    -0.270 NA
HETATM    3  S11 UNL     1     -31.221  18.896   1.409  1.00 20.00    -0.055 SA
ENDROOT
BRANCH   2   4
HETATM    4  C6  UNL     1     -33.181  17.422  -1.281  1.00 20.00     0.113 C 
HETATM    5  C3  UNL     1     -34.529  17.728  -0.631  1.00 20.00     0.028 C 
HETATM    6  C2  UNL     1     -35.578  17.018  -1.490  1.00 20.00     0.007 C 
HETATM    7  C4  UNL     1     -34.795  16.286  -2.587  1.00 20.00    -0.009 C 
HETATM    8  C5  UNL     1     -33.508  17.118  -2.750  1.00 20.00     0.010 C 
HETATM    9  C7  UNL     1     -33.681  18.366  -3.621  1.00 20.00     0.012 C 
BRANCH   7  10
HETATM   10  C9  UNL     1     -35.613  16.060  -3.849  1.00 20.00     0.000 C 
HETATM   11  C8  UNL     1     -35.368  14.705  -4.431  1.00 20.00     0.005 C 
ENDBRANCH   7  10
ENDBRANCH   2   4
TORSDOF 2
ENDMDL
MODEL 3
REMARK VINA RESULT:      -4.1     11.484     12.068
REMARK  2 active torsions:
REMARK  status: ('A' for Active; 'I' for Inactive)
REMARK    1  A    between atoms: C4_4  and  C9_9 
REMARK    2  A    between atoms: C6_6  and  N10_10 
ROOT
HETATM    1  C1  UNL     1     -36.015  14.961  -4.443  1.00 20.00     0.158 C 
HETATM    2  N10 UNL     1     -36.089  15.946  -3.809  1.00 20.00    -0.270 NA
HETATM    3  S11 UNL     1     -35.940  13.634  -5.320  1.00 20.00    -0.055 SA
ENDROOT
BRANCH   2   4
HETATM    4  C6  UNL     1     -35.067  16.087  -2.776  1.00 20.00     0.113 C 
HETATM    5  C3  UNL     1     -33.826  16.788  -3.323  1.00 20.00     0.028 C 
HETATM    6  C2  UNL     1     -33.261  17.607  -2.160  1.00 20.00     0.007 C 
HETATM    7  C4  UNL     1     -34.175  17.317  -0.962  1.00 20.00    -0.009 C 
HETATM    8  C5  UNL     1     -35.531  16.959  -1.601  1.00 20.00     0.010 C 
HETATM    9  C7  UNL     1     -36.362  18.176  -2.019  1.00 20.00     0.012 C 
BRANCH   7  10
HETATM   10  C9  UNL     1     -34.190  18.444   0.059  1.00 20.00     0.000 C 
HETATM   11  C8  UNL     1     -32.809  18.906   0.394  1.00 20.00     0.005 C 
ENDBRANCH   7  10
ENDBRANCH   2   4
TORSDOF 2
ENDMDL
MODEL 4
REMARK VINA RESULT:      -4.0     11.254     12.024
REMARK  2 active torsions:
REMARK  status: ('A' for Active; 'I' for Inactive)
REMARK    1  A    between atoms: C4_4  and  C9_9 
REMARK    2  A    between atoms: C6_6  and  N10_10 
ROOT
HETATM    1  C1  UNL     1     -35.498  13.491  -6.274  1.00 20.00     0.158 C 
HETATM    2  N10 UNL     1     -35.430  13.450  -5.103  1.00 20.00    -0.270 NA
HETATM    3  S11 UNL     1     -35.616  13.526  -7.862  1.00 20.00    -0.055 SA
ENDROOT
BRANCH   2   4
HETATM    4  C6  UNL     1     -34.362  14.259  -4.524  1.00 20.00     0.113 C 
HETATM    5  C3  UNL     1     -33.696  15.132  -5.585  1.00 20.00     0.028 C 
HETATM    6  C2  UNL     1     -33.289  16.422  -4.869  1.00 20.00     0.007 C 
HETATM    7  C4  UNL     1     -33.695  16.233  -3.402  1.00 20.00    -0.009 C 
HETATM    8  C5  UNL     1     -34.875  15.243  -3.463  1.00 20.00     0.010 C 
HETATM    9  C7  UNL     1     -36.216  15.895  -3.815  1.00 20.00     0.012 C 
BRANCH   7  10
HETATM   10  C9  UNL     1     -33.959  17.548  -2.685  1.00 20.00     0.000 C 
HETATM   11  C8  UNL     1     -34.039  17.364  -1.204  1.00 20.00     0.005 C 
ENDBRANCH   7  10
ENDBRANCH   2   4
TORSDOF 2
ENDMDL
MODEL 5
REMARK VINA RESULT:      -4.0     11.293     11.995
REMARK  2 active torsions:
REMARK  status: ('A' for Active; 'I' for Inactive)
REMARK    1  A    between atoms: C4_4  and  C9_9 
REMARK    2  A    between atoms: C6_6  and  N10_10 
ROOT
HETATM    1  C1  UNL     1     -32.921  18.338  -1.461  1.00 20.00     0.158 C 
HETATM    2  N10 UNL     1     -33.206  17.963  -2.536  1.00 20.00    -0.270 NA
HETATM    3  S11 UNL     1     -32.522  18.873  -0.015  1.00 20.00    -0.055 SA
ENDROOT
BRANCH   2   4
HETATM    4  C6  UNL     1     -33.877  16.666  -2.574  1.00 20.00     0.113 C 
HETATM    5  C3  UNL     1     -35.394  16.833  -2.599  1.00 20.00     0.028 C 
HETATM    6  C2  UNL     1     -35.928  15.673  -3.443  1.00 20.00     0.007 C 
HETATM    7  C4  UNL     1     -34.699  14.847  -3.844  1.00 20.00    -0.009 C 
HETATM    8  C5  UNL     1     -33.543  15.866  -3.842  1.00 20.00     0.010 C 
HETATM    9  C7  UNL     1     -33.462  16.717  -5.112  1.00 20.00     0.012 C 
BRANCH   7  10
HETATM   10  C9  UNL     1     -34.904  14.066  -5.133  1.00 20.00     0.000 C 
HETATM   11  C8  UNL     1     -36.344  13.739  -5.358  1.00 20.00     0.005 C 
ENDBRANCH   7  10
ENDBRANCH   2   4
TORSDOF 2
ENDMDL
MODEL 6
REMARK VINA RESULT:      -3.8     11.271     12.131
REMARK  2 active torsions:
REMARK  status: ('A' for Active; 'I' for Inactive)
REMARK    1  A    between atoms: C4_4  and  C9_9 
REMARK    2  A    between atoms: C6_6  and  N10_10 
ROOT
HETATM    1  C1  UNL     1     -34.093  16.990  -1.954  1.00 20.00     0.158 C 
HETATM    2  N10 UNL     1     -33.652  16.516  -2.934  1.00 20.00    -0.270 NA
HETATM    3  S11 UNL     1     -34.666  17.655  -0.626  1.00 20.00    -0.055 SA
ENDROOT
BRANCH   2   4
HETATM    4  C6  UNL     1     -34.414  15.389  -3.464  1.00 20.00     0.113 C 
HETATM    5  C3  UNL     1     -35.828  15.816  -3.851  1.00 20.00     0.028 C 
HETATM    6  C2  UNL     1     -36.206  14.960  -5.063  1.00 20.00     0.007 C 
HETATM    7  C4  UNL     1     -35.008  14.033  -5.310  1.00 20.00    -0.009 C 
HETATM    8  C5  UNL     1     -33.804  14.816  -4.751  1.00 20.00     0.010 C 
HETATM    9  C7  UNL     1     -33.257  15.881  -5.707  1.00 20.00     0.012 C 
BRANCH   7  10
HETATM   10  C9  UNL     1     -34.900  13.577  -6.756  1.00 20.00     0.000 C 
HETATM   11  C8  UNL     1     -36.082  14.008  -7.562  1.00 20.00     0.005 C 
ENDBRANCH   7  10
ENDBRANCH   2   4
TORSDOF 2
ENDMDL
MODEL 7
REMARK VINA RESULT:      -3.8     11.358     12.410
REMARK  2 active torsions:
REMARK  status: ('A' for Active; 'I' for Inactive)
REMARK    1  A    between atoms: C4_4  and  C9_9 
REMARK    2  A    between atoms: C6_6  and  N10_10 
ROOT
HETATM    1  C1  UNL     1     -38.695  15.147  -5.649  1.00 20.00     0.158 C 
HETATM    2  N10 UNL     1     -37.582  14.848  -5.874  1.00 20.00    -0.270 NA
HETATM    3  S11 UNL     1     -40.210  15.552  -5.374  1.00 20.00    -0.055 SA
ENDROOT
BRANCH   2   4
HETATM    4  C6  UNL     1     -36.728  14.735  -4.695  1.00 20.00     0.113 C 
HETATM    5  C3  UNL     1     -35.618  13.709  -4.916  1.00 20.00     0.028 C 
HETATM    6  C2  UNL     1     -34.408  14.229  -4.137  1.00 20.00     0.007 C 
HETATM    7  C4  UNL     1     -34.873  15.521  -3.454  1.00 20.00    -0.009 C 
HETATM    8  C5  UNL     1     -35.999  16.046  -4.367  1.00 20.00     0.010 C 
HETATM    9  C7  UNL     1     -35.497  16.805  -5.600  1.00 20.00     0.012 C 
BRANCH   7  10
HETATM   10  C9  UNL     1     -33.733  16.487  -3.172  1.00 20.00     0.000 C 
HETATM   11  C8  UNL     1     -33.844  17.092  -1.811  1.00 20.00     0.005 C 
ENDBRANCH   7  10
ENDBRANCH   2   4
TORSDOF 2
ENDMDL
MODEL 8
REMARK VINA RESULT:      -3.7      1.021      1.863
REMARK  2 active torsions:
REMARK  status: ('A' for Active; 'I' for Inactive)
REMARK    1  A    between atoms: C4_4  and  C9_9 
REMARK    2  A    between atoms: C6_6  and  N10_10 
ROOT
HETATM    1  C1  UNL     1     -32.422   9.043   1.470  1.00 20.00     0.158 C 
HETATM    2  N10 UNL     1     -32.238   7.883   1.449  1.00 20.00    -0.270 NA
HETATM    3  S11 UNL     1     -32.667  10.616   1.466  1.00 20.00    -0.055 SA
ENDROOT
BRANCH   2   4
HETATM    4  C6  UNL     1     -32.294   7.232   2.754  1.00 20.00     0.113 C 
HETATM    5  C3  UNL     1     -32.942   8.142   3.795  1.00 20.00     0.028 C 
HETATM    6  C2  UNL     1     -33.697   7.213   4.750  1.00 20.00     0.007 C 
HETATM    7  C4  UNL     1     -33.423   5.789   4.252  1.00 20.00    -0.009 C 
HETATM    8  C5  UNL     1     -33.157   5.961   2.744  1.00 20.00     0.010 C 
HETATM    9  C7  UNL     1     -34.429   6.080   1.898  1.00 20.00     0.012 C 
BRANCH   7  10
HETATM   10  C9  UNL     1     -34.520   4.807   4.632  1.00 20.00     0.000 C 
HETATM   11  C8  UNL     1     -34.850   4.882   6.087  1.00 20.00     0.005 C 
ENDBRANCH   7  10
ENDBRANCH   2   4
TORSDOF 2
ENDMDL
MODEL 9
REMARK VINA RESULT:      -3.7     10.904     12.518
REMARK  2 active torsions:
REMARK  status: ('A' for Active; 'I' for Inactive)
REMARK    1  A    between atoms: C4_4  and  C9_9 
REMARK    2  A    between atoms: C6_6  and  N10_10 
ROOT
HETATM    1  C1  UNL     1     -34.314  17.003  -1.884  1.00 20.00     0.158 C 
HETATM    2  N10 UNL     1     -33.666  16.718  -2.820  1.00 20.00    -0.270 NA
HETATM    3  S11 UNL     1     -35.166  17.391  -0.596  1.00 20.00    -0.055 SA
ENDROOT
BRANCH   2   4
HETATM    4  C6  UNL     1     -34.421  16.554  -4.059  1.00 20.00     0.113 C 
HETATM    5  C3  UNL     1     -33.674  17.162  -5.244  1.00 20.00     0.028 C 
HETATM    6  C2  UNL     1     -34.013  16.282  -6.449  1.00 20.00     0.007 C 
HETATM    7  C4  UNL     1     -34.984  15.215  -5.927  1.00 20.00    -0.009 C 
HETATM    8  C5  UNL     1     -34.628  15.079  -4.434  1.00 20.00     0.010 C 
HETATM    9  C7  UNL     1     -33.409  14.191  -4.163  1.00 20.00     0.012 C 
BRANCH   7  10
HETATM   10  C9  UNL     1     -34.951  13.933  -6.745  1.00 20.00     0.000 C 
HETATM   11  C8  UNL     1     -34.032  14.049  -7.918  1.00 20.00     0.005 C 
ENDBRANCH   7  10
ENDBRANCH   2   4
TORSDOF 2
ENDMDL
