MODEL 1
REMARK VINA RESULT:      -5.4      0.000      0.000
REMARK  2 active torsions:
REMARK  status: ('A' for Active; 'I' for Inactive)
REMARK    1  A    between atoms: C3_3  and  C8_8 
REMARK    2  A    between atoms: C8_8  and  C9_9 
ROOT
HETATM    1  C1  UNL     1     -33.346   8.111   5.066  1.00 20.00     0.006 C 
HETATM    2  C2  UNL     1     -34.021   6.978   5.832  1.00 20.00     0.021 C 
HETATM    3  C3  UNL     1     -33.284   7.660   3.591  1.00 20.00    -0.009 C 
HETATM    4  C4  UNL     1     -33.893   6.236   3.574  1.00 20.00     0.004 C 
HETATM    5  C5  UNL     1     -33.686   5.743   5.009  1.00 20.00     0.086 C 
HETATM    6  C6  UNL     1     -33.351   5.286   2.515  1.00 20.00     0.012 C 
HETATM    7 CL10 UNL     1     -34.724   4.371   5.432  1.00 20.00    -0.125 Cl
ENDROOT
BRANCH   3   8
HETATM    8  C8  UNL     1     -31.859   7.771   3.054  1.00 20.00     0.005 C 
BRANCH   8   9
HETATM    9  C9  UNL     1     -31.842   8.364   1.649  1.00 20.00    -0.004 C 
HETATM   10  C7  UNL     1     -32.573   9.697   1.605  1.00 20.00     0.005 C 
ENDBRANCH   8   9
ENDBRANCH   3   8
TORSDOF 2
ENDMDL
MODEL 2
REMARK VINA RESULT:      -5.4      0.878      2.166
REMARK  2 active torsions:
REMARK  status: ('A' for Active; 'I' for Inactive)
REMARK    1  A    between atoms: C3_3  and  C8_8 
REMARK    2  A    between atoms: C8_8  and  C9_9 
ROOT
HETATM    1  C1  UNL     1     -33.105   5.697   2.352  1.00 20.00     0.006 C 
HETATM    2  C2  UNL     1     -33.841   4.779   3.322  1.00 20.00     0.021 C 
HETATM    3  C3  UNL     1     -32.643   6.918   3.175  1.00 20.00    -0.009 C 
HETATM    4  C4  UNL     1     -33.185   6.674   4.605  1.00 20.00     0.004 C 
HETATM    5  C5  UNL     1     -34.373   5.734   4.380  1.00 20.00     0.086 C 
HETATM    6  C6  UNL     1     -33.531   7.917   5.414  1.00 20.00     0.012 C 
HETATM    7 CL10 UNL     1     -34.871   4.876   5.848  1.00 20.00    -0.125 Cl
ENDROOT
BRANCH   3   8
HETATM    8  C8  UNL     1     -33.099   8.217   2.513  1.00 20.00     0.005 C 
BRANCH   8   9
HETATM    9  C9  UNL     1     -32.030   8.762   1.572  1.00 20.00    -0.004 C 
HETATM   10  C7  UNL     1     -32.521  10.001   0.839  1.00 20.00     0.005 C 
ENDBRANCH   8   9
ENDBRANCH   3   8
TORSDOF 2
ENDMDL
MODEL 3
REMARK VINA RESULT:      -4.5      2.499      4.119
REMARK  2 active torsions:
REMARK  status: ('A' for Active; 'I' for Inactive)
REMARK    1  A    between atoms: C3_3  and  C8_8 
REMARK    2  A    between atoms: C8_8  and  C9_9 
ROOT
HETATM    1  C1  UNL     1     -32.222   8.077   4.587  1.00 20.00     0.006 C 
HETATM    2  C2  UNL     1     -31.644   8.737   3.339  1.00 20.00     0.021 C 
HETATM    3  C3  UNL     1     -32.983   6.825   4.101  1.00 20.00    -0.009 C 
HETATM    4  C4  UNL     1     -32.852   6.842   2.558  1.00 20.00     0.004 C 
HETATM    5  C5  UNL     1     -32.605   8.318   2.238  1.00 20.00     0.086 C 
HETATM    6  C6  UNL     1     -34.009   6.231   1.778  1.00 20.00     0.012 C 
HETATM    7 CL10 UNL     1     -31.909   8.576   0.628  1.00 20.00    -0.125 Cl
ENDROOT
BRANCH   3   8
HETATM    8  C8  UNL     1     -34.413   6.822   4.638  1.00 20.00     0.005 C 
BRANCH   8   9
HETATM    9  C9  UNL     1     -34.648   5.645   5.578  1.00 20.00    -0.004 C 
HETATM   10  C7  UNL     1     -34.436   4.319   4.864  1.00 20.00     0.005 C 
ENDBRANCH   8   9
ENDBRANCH   3   8
TORSDOF 2
ENDMDL
MODEL 4
REMARK VINA RESULT:      -4.4      2.293      4.320
REMARK  2 active torsions:
REMARK  status: ('A' for Active; 'I' for Inactive)
REMARK    1  A    between atoms: C3_3  and  C8_8 
REMARK    2  A    between atoms: C8_8  and  C9_9 
ROOT
HETATM    1  C1  UNL     1     -34.315   6.034   2.590  1.00 20.00     0.006 C 
HETATM    2  C2  UNL     1     -33.071   6.864   2.291  1.00 20.00     0.021 C 
HETATM    3  C3  UNL     1     -34.784   6.448   4.002  1.00 20.00    -0.009 C 
HETATM    4  C4  UNL     1     -33.740   7.485   4.489  1.00 20.00     0.004 C 
HETATM    5  C5  UNL     1     -32.493   7.146   3.669  1.00 20.00     0.086 C 
HETATM    6  C6  UNL     1     -33.493   7.534   5.991  1.00 20.00     0.012 C 
HETATM    7 CL10 UNL     1     -31.309   8.464   3.626  1.00 20.00    -0.125 Cl
ENDROOT
BRANCH   3   8
HETATM    8  C8  UNL     1     -34.955   5.220   4.894  1.00 20.00     0.005 C 
BRANCH   8   9
HETATM    9  C9  UNL     1     -34.399   3.969   4.222  1.00 20.00    -0.004 C 
HETATM   10  C7  UNL     1     -33.119   3.503   4.899  1.00 20.00     0.005 C 
ENDBRANCH   8   9
ENDBRANCH   3   8
TORSDOF 2
ENDMDL
MODEL 5
REMARK VINA RESULT:      -4.1     11.568     12.345
REMARK  2 active torsions:
REMARK  status: ('A' for Active; 'I' for Inactive)
REMARK    1  A    between atoms: C3_3  and  C8_8 
REMARK    2  A    between atoms: C8_8  and  C9_9 
ROOT
HETATM    1  C1  UNL     1     -33.381  16.012  -4.301  1.00 20.00     0.006 C 
HETATM    2  C2  UNL     1     -33.056  15.622  -5.739  1.00 20.00     0.021 C 
HETATM    3  C3  UNL     1     -34.504  15.060  -3.837  1.00 20.00    -0.009 C 
HETATM    4  C4  UNL     1     -34.823  14.176  -5.067  1.00 20.00     0.004 C 
HETATM    5  C5  UNL     1     -34.362  15.031  -6.250  1.00 20.00     0.086 C 
HETATM    6  C6  UNL     1     -36.260  13.686  -5.189  1.00 20.00     0.012 C 
HETATM    7 CL10 UNL     1     -34.121  14.095  -7.736  1.00 20.00    -0.125 Cl
ENDROOT
BRANCH   3   8
HETATM    8  C8  UNL     1     -35.683  15.854  -3.275  1.00 20.00     0.005 C 
BRANCH   8   9
HETATM    9  C9  UNL     1     -35.211  17.127  -2.583  1.00 20.00    -0.004 C 
HETATM   10  C7  UNL     1     -35.324  17.006  -1.071  1.00 20.00     0.005 C 
ENDBRANCH   8   9
ENDBRANCH   3   8
TORSDOF 2
ENDMDL
MODEL 6
REMARK VINA RESULT:      -4.0     11.305     11.910
REMARK  2 active torsions:
REMARK  status: ('A' for Active; 'I' for Inactive)
REMARK    1  A    between atoms: C3_3  and  C8_8 
REMARK    2  A    between atoms: C8_8  and  C9_9 
ROOT
HETATM    1  C1  UNL     1     -36.398  16.529  -3.592  1.00 20.00     0.006 C 
HETATM    2  C2  UNL     1     -36.858  15.346  -4.438  1.00 20.00     0.021 C 
HETATM    3  C3  UNL     1     -34.865  16.605  -3.750  1.00 20.00    -0.009 C 
HETATM    4  C4  UNL     1     -34.490  15.409  -4.660  1.00 20.00     0.004 C 
HETATM    5  C5  UNL     1     -35.646  14.427  -4.453  1.00 20.00     0.086 C 
HETATM    6  C6  UNL     1     -33.115  14.794  -4.429  1.00 20.00     0.012 C 
HETATM    7 CL10 UNL     1     -35.764  13.208  -5.733  1.00 20.00    -0.125 Cl
ENDROOT
BRANCH   3   8
HETATM    8  C8  UNL     1     -34.184  16.629  -2.383  1.00 20.00     0.005 C 
BRANCH   8   9
HETATM    9  C9  UNL     1     -35.183  16.934  -1.274  1.00 20.00    -0.004 C 
HETATM   10  C7  UNL     1     -34.563  17.815  -0.200  1.00 20.00     0.005 C 
ENDBRANCH   8   9
ENDBRANCH   3   8
TORSDOF 2
ENDMDL
MODEL 7
REMARK VINA RESULT:      -4.0     11.517     12.216
REMARK  2 active torsions:
REMARK  status: ('A' for Active; 'I' for Inactive)
REMARK    1  A    between atoms: C3_3  and  C8_8 
REMARK    2  A    between atoms: C8_8  and  C9_9 
ROOT
HETATM    1  C1  UNL     1     -33.274  15.007  -4.420  1.00 20.00     0.006 C 
HETATM    2  C2  UNL     1     -33.946  14.370  -5.632  1.00 20.00     0.021 C 
HETATM    3  C3  UNL     1     -34.413  15.481  -3.492  1.00 20.00    -0.009 C 
HETATM    4  C4  UNL     1     -35.722  15.136  -4.245  1.00 20.00     0.004 C 
HETATM    5  C5  UNL     1     -35.286  15.085  -5.712  1.00 20.00     0.086 C 
HETATM    6  C6  UNL     1     -36.908  16.058  -3.989  1.00 20.00     0.012 C 
HETATM    7 CL10 UNL     1     -36.432  14.218  -6.749  1.00 20.00    -0.125 Cl
ENDROOT
BRANCH   3   8
HETATM    8  C8  UNL     1     -34.233  16.954  -3.129  1.00 20.00     0.005 C 
BRANCH   8   9
HETATM    9  C9  UNL     1     -33.961  17.126  -1.639  1.00 20.00    -0.004 C 
HETATM   10  C7  UNL     1     -35.253  17.113  -0.837  1.00 20.00     0.005 C 
ENDBRANCH   8   9
ENDBRANCH   3   8
TORSDOF 2
ENDMDL
MODEL 8
REMARK VINA RESULT:      -4.0     11.085     12.214
REMARK  2 active torsions:
REMARK  status: ('A' for Active; 'I' for Inactive)
REMARK    1  A    between atoms: C3_3  and  C8_8 
REMARK    2  A    between atoms: C8_8  and  C9_9 
ROOT
HETATM    1  C1  UNL     1     -36.794  14.581  -4.932  1.00 20.00     0.006 C 
HETATM    2  C2  UNL     1     -36.556  15.588  -3.811  1.00 20.00     0.021 C 
HETATM    3  C3  UNL     1     -35.490  13.765  -5.065  1.00 20.00    -0.009 C 
HETATM    4  C4  UNL     1     -34.517  14.381  -4.029  1.00 20.00     0.004 C 
HETATM    5  C5  UNL     1     -35.051  15.803  -3.840  1.00 20.00     0.086 C 
HETATM    6  C6  UNL     1     -33.036  14.323  -4.382  1.00 20.00     0.012 C 
HETATM    7 CL10 UNL     1     -34.470  16.574  -2.354  1.00 20.00    -0.125 Cl
ENDROOT
BRANCH   3   8
HETATM    8  C8  UNL     1     -34.999  13.770  -6.512  1.00 20.00     0.005 C 
BRANCH   8   9
HETATM    9  C9  UNL     1     -35.594  14.936  -7.292  1.00 20.00    -0.004 C 
HETATM   10  C7  UNL     1     -34.543  15.994  -7.590  1.00 20.00     0.005 C 
ENDBRANCH   8   9
ENDBRANCH   3   8
TORSDOF 2
ENDMDL
MODEL 9
REMARK VINA RESULT:      -4.0     11.510     12.286
REMARK  2 active torsions:
REMARK  status: ('A' for Active; 'I' for Inactive)
REMARK    1  A    between atoms: C3_3  and  C8_8 
REMARK    2  A    between atoms: C8_8  and  C9_9 
ROOT
HETATM    1  C1  UNL     1     -33.523  14.763  -4.813  1.00 20.00     0.006 C 
HETATM    2  C2  UNL     1     -33.955  14.419  -6.234  1.00 20.00     0.021 C 
HETATM    3  C3  UNL     1     -34.793  14.672  -3.939  1.00 20.00    -0.009 C 
HETATM    4  C4  UNL     1     -35.938  14.322  -4.921  1.00 20.00     0.004 C 
HETATM    5  C5  UNL     1     -35.420  14.829  -6.269  1.00 20.00     0.086 C 
HETATM    6  C6  UNL     1     -37.320  14.849  -4.558  1.00 20.00     0.012 C 
HETATM    7 CL10 UNL     1     -36.267  14.119  -7.654  1.00 20.00    -0.125 Cl
ENDROOT
BRANCH   3   8
HETATM    8  C8  UNL     1     -34.986  15.958  -3.137  1.00 20.00     0.005 C 
BRANCH   8   9
HETATM    9  C9  UNL     1     -33.654  16.651  -2.876  1.00 20.00    -0.004 C 
HETATM   10  C7  UNL     1     -33.671  17.397  -1.551  1.00 20.00     0.005 C 
ENDBRANCH   8   9
ENDBRANCH   3   8
TORSDOF 2
ENDMDL
