MODEL 1
REMARK VINA RESULT:      -4.8      0.000      0.000
REMARK  2 active torsions:
REMARK  status: ('A' for Active; 'I' for Inactive)
REMARK    1  A    between atoms: C4_4  and  C5_5 
REMARK    2  A    between atoms: C5_5  and  C7_7 
ROOT
HETATM    1  C3  UNL     1     -33.069   5.207   2.801  1.00 20.00     0.207 A 
HETATM    2  C5  UNL     1     -33.615   6.416   3.524  1.00 20.00     0.085 A 
HETATM    3  O8  UNL     1     -34.291   5.844   2.395  1.00 20.00    -0.375 OA
ENDROOT
BRANCH   2   4
HETATM    4  C4  UNL     1     -33.052   7.813   3.296  1.00 20.00     0.022 A 
HETATM    5  C1  UNL     1     -31.576   8.094   3.254  1.00 20.00     0.008 A 
HETATM    6  C2  UNL     1     -32.401   8.223   2.004  1.00 20.00     0.008 A 
ENDBRANCH   2   4
BRANCH   2   7
HETATM    7  C7  UNL     1     -34.343   6.192   4.816  1.00 20.00     0.036 C 
HETATM    8  C6  UNL     1     -33.889   7.124   5.906  1.00 20.00     0.008 C 
ENDBRANCH   2   7
TORSDOF 2
ENDMDL
MODEL 2
REMARK VINA RESULT:      -4.5      0.924      2.956
REMARK  2 active torsions:
REMARK  status: ('A' for Active; 'I' for Inactive)
REMARK    1  A    between atoms: C4_4  and  C5_5 
REMARK    2  A    between atoms: C5_5  and  C7_7 
ROOT
HETATM    1  C3  UNL     1     -34.084   5.779   2.173  1.00 20.00     0.207 A 
HETATM    2  C5  UNL     1     -33.463   6.523   3.331  1.00 20.00     0.085 A 
HETATM    3  O8  UNL     1     -33.268   5.113   3.149  1.00 20.00    -0.375 OA
ENDROOT
BRANCH   2   4
HETATM    4  C4  UNL     1     -34.267   6.905   4.567  1.00 20.00     0.022 A 
HETATM    5  C1  UNL     1     -34.356   6.022   5.781  1.00 20.00     0.008 A 
HETATM    6  C2  UNL     1     -33.621   7.331   5.855  1.00 20.00     0.008 A 
ENDBRANCH   2   4
BRANCH   2   7
HETATM    7  C7  UNL     1     -32.223   7.324   3.068  1.00 20.00     0.036 C 
HETATM    8  C6  UNL     1     -32.481   8.524   2.200  1.00 20.00     0.008 C 
ENDBRANCH   2   7
TORSDOF 2
ENDMDL
MODEL 3
REMARK VINA RESULT:      -4.4      1.237      3.106
REMARK  2 active torsions:
REMARK  status: ('A' for Active; 'I' for Inactive)
REMARK    1  A    between atoms: C4_4  and  C5_5 
REMARK    2  A    between atoms: C5_5  and  C7_7 
ROOT
HETATM    1  C3  UNL     1     -31.964   7.657   3.260  1.00 20.00     0.207 A 
HETATM    2  C5  UNL     1     -33.352   7.068   3.340  1.00 20.00     0.085 A 
HETATM    3  O8  UNL     1     -33.097   8.307   2.665  1.00 20.00    -0.375 OA
ENDROOT
BRANCH   2   4
HETATM    4  C4  UNL     1     -34.205   7.185   4.597  1.00 20.00     0.022 A 
HETATM    5  C1  UNL     1     -34.322   6.073   5.603  1.00 20.00     0.008 A 
HETATM    6  C2  UNL     1     -33.611   7.346   5.968  1.00 20.00     0.008 A 
ENDBRANCH   2   4
BRANCH   2   7
HETATM    7  C7  UNL     1     -33.696   5.950   2.402  1.00 20.00     0.036 C 
HETATM    8  C6  UNL     1     -32.996   4.665   2.748  1.00 20.00     0.008 C 
ENDBRANCH   2   7
TORSDOF 2
ENDMDL
MODEL 4
REMARK VINA RESULT:      -4.3      1.480      1.952
REMARK  2 active torsions:
REMARK  status: ('A' for Active; 'I' for Inactive)
REMARK    1  A    between atoms: C4_4  and  C5_5 
REMARK    2  A    between atoms: C5_5  and  C7_7 
ROOT
HETATM    1  C3  UNL     1     -33.982   4.020   4.563  1.00 20.00     0.207 A 
HETATM    2  C5  UNL     1     -34.357   5.481   4.616  1.00 20.00     0.085 A 
HETATM    3  O8  UNL     1     -35.344   4.456   4.438  1.00 20.00    -0.375 OA
ENDROOT
BRANCH   2   4
HETATM    4  C4  UNL     1     -34.167   6.406   3.421  1.00 20.00     0.022 A 
HETATM    5  C1  UNL     1     -32.810   6.764   2.882  1.00 20.00     0.008 A 
HETATM    6  C2  UNL     1     -33.738   5.906   2.069  1.00 20.00     0.008 A 
ENDBRANCH   2   4
BRANCH   2   7
HETATM    7  C7  UNL     1     -34.432   6.138   5.962  1.00 20.00     0.036 C 
HETATM    8  C6  UNL     1     -33.650   7.421   6.027  1.00 20.00     0.008 C 
ENDBRANCH   2   7
TORSDOF 2
ENDMDL
MODEL 5
REMARK VINA RESULT:      -4.2      1.385      2.703
REMARK  2 active torsions:
REMARK  status: ('A' for Active; 'I' for Inactive)
REMARK    1  A    between atoms: C4_4  and  C5_5 
REMARK    2  A    between atoms: C5_5  and  C7_7 
ROOT
HETATM    1  C3  UNL     1     -32.668   8.133   2.431  1.00 20.00     0.207 A 
HETATM    2  C5  UNL     1     -33.391   7.141   3.310  1.00 20.00     0.085 A 
HETATM    3  O8  UNL     1     -31.974   7.338   3.404  1.00 20.00    -0.375 OA
ENDROOT
BRANCH   2   4
HETATM    4  C4  UNL     1     -33.816   5.771   2.797  1.00 20.00     0.022 A 
HETATM    5  C1  UNL     1     -32.872   4.602   2.731  1.00 20.00     0.008 A 
HETATM    6  C2  UNL     1     -34.016   4.591   3.707  1.00 20.00     0.008 A 
ENDBRANCH   2   4
BRANCH   2   7
HETATM    7  C7  UNL     1     -34.136   7.669   4.500  1.00 20.00     0.036 C 
HETATM    8  C6  UNL     1     -33.489   7.291   5.804  1.00 20.00     0.008 C 
ENDBRANCH   2   7
TORSDOF 2
ENDMDL
MODEL 6
REMARK VINA RESULT:      -4.2      1.566      2.356
REMARK  2 active torsions:
REMARK  status: ('A' for Active; 'I' for Inactive)
REMARK    1  A    between atoms: C4_4  and  C5_5 
REMARK    2  A    between atoms: C5_5  and  C7_7 
ROOT
HETATM    1  C3  UNL     1     -33.962   7.790   5.457  1.00 20.00     0.207 A 
HETATM    2  C5  UNL     1     -33.747   6.760   4.374  1.00 20.00     0.085 A 
HETATM    3  O8  UNL     1     -33.195   6.598   5.688  1.00 20.00    -0.375 OA
ENDROOT
BRANCH   2   4
HETATM    4  C4  UNL     1     -32.721   6.959   3.266  1.00 20.00     0.022 A 
HETATM    5  C1  UNL     1     -32.805   8.089   2.277  1.00 20.00     0.008 A 
HETATM    6  C2  UNL     1     -31.699   8.061   3.295  1.00 20.00     0.008 A 
ENDBRANCH   2   4
BRANCH   2   7
HETATM    7  C7  UNL     1     -34.863   5.801   4.086  1.00 20.00     0.036 C 
HETATM    8  C6  UNL     1     -34.523   4.385   4.463  1.00 20.00     0.008 C 
ENDBRANCH   2   7
TORSDOF 2
ENDMDL
MODEL 7
REMARK VINA RESULT:      -4.2      1.317      3.300
REMARK  2 active torsions:
REMARK  status: ('A' for Active; 'I' for Inactive)
REMARK    1  A    between atoms: C4_4  and  C5_5 
REMARK    2  A    between atoms: C5_5  and  C7_7 
ROOT
HETATM    1  C3  UNL     1     -33.556   7.179   5.509  1.00 20.00     0.207 A 
HETATM    2  C5  UNL     1     -33.340   7.017   4.023  1.00 20.00     0.085 A 
HETATM    3  O8  UNL     1     -34.308   7.936   4.548  1.00 20.00    -0.375 OA
ENDROOT
BRANCH   2   4
HETATM    4  C4  UNL     1     -33.924   5.843   3.248  1.00 20.00     0.022 A 
HETATM    5  C1  UNL     1     -33.077   4.713   2.731  1.00 20.00     0.008 A 
HETATM    6  C2  UNL     1     -34.060   4.468   3.841  1.00 20.00     0.008 A 
ENDBRANCH   2   4
BRANCH   2   7
HETATM    7  C7  UNL     1     -32.157   7.702   3.407  1.00 20.00     0.036 C 
HETATM    8  C6  UNL     1     -32.481   8.341   2.084  1.00 20.00     0.008 C 
ENDBRANCH   2   7
TORSDOF 2
ENDMDL
MODEL 8
REMARK VINA RESULT:      -3.8      1.716      2.711
REMARK  2 active torsions:
REMARK  status: ('A' for Active; 'I' for Inactive)
REMARK    1  A    between atoms: C4_4  and  C5_5 
REMARK    2  A    between atoms: C5_5  and  C7_7 
ROOT
HETATM    1  C3  UNL     1     -31.520   8.411   3.697  1.00 20.00     0.207 A 
HETATM    2  C5  UNL     1     -32.646   7.996   2.781  1.00 20.00     0.085 A 
HETATM    3  O8  UNL     1     -31.418   7.258   2.847  1.00 20.00    -0.375 OA
ENDROOT
BRANCH   2   4
HETATM    4  C4  UNL     1     -32.904   8.697   1.454  1.00 20.00     0.022 A 
HETATM    5  C1  UNL     1     -32.637  10.163   1.247  1.00 20.00     0.008 A 
HETATM    6  C2  UNL     1     -31.794   9.138   0.540  1.00 20.00     0.008 A 
ENDBRANCH   2   4
BRANCH   2   7
HETATM    7  C7  UNL     1     -33.804   7.257   3.382  1.00 20.00     0.036 C 
HETATM    8  C6  UNL     1     -33.856   5.815   2.958  1.00 20.00     0.008 C 
ENDBRANCH   2   7
TORSDOF 2
ENDMDL
MODEL 9
REMARK VINA RESULT:      -3.8     10.827     11.878
REMARK  2 active torsions:
REMARK  status: ('A' for Active; 'I' for Inactive)
REMARK    1  A    between atoms: C4_4  and  C5_5 
REMARK    2  A    between atoms: C5_5  and  C7_7 
ROOT
HETATM    1  C3  UNL     1     -36.909  13.869  -5.066  1.00 20.00     0.207 A 
HETATM    2  C5  UNL     1     -35.460  14.216  -5.309  1.00 20.00     0.085 A 
HETATM    3  O8  UNL     1     -35.918  12.857  -5.305  1.00 20.00    -0.375 OA
ENDROOT
BRANCH   2   4
HETATM    4  C4  UNL     1     -34.517  14.580  -4.169  1.00 20.00     0.022 A 
HETATM    5  C1  UNL     1     -33.044  14.283  -4.211  1.00 20.00     0.008 A 
HETATM    6  C2  UNL     1     -33.526  15.706  -4.264  1.00 20.00     0.008 A 
ENDBRANCH   2   4
BRANCH   2   7
HETATM    7  C7  UNL     1     -35.072  14.699  -6.675  1.00 20.00     0.036 C 
HETATM    8  C6  UNL     1     -34.400  13.633  -7.497  1.00 20.00     0.008 C 
ENDBRANCH   2   7
TORSDOF 2
ENDMDL
