MODEL 1
REMARK VINA RESULT:      -6.5      0.000      0.000
REMARK  1 active torsions:
REMARK  status: ('A' for Active; 'I' for Inactive)
REMARK    1  A    between atoms: C7_7  and  C9_9 
ROOT
HETATM    1  C1  UNL     1     -32.335   9.190   1.089  1.00 20.00     0.012 C 
HETATM    2  C2  UNL     1     -32.174   8.632   2.141  1.00 20.00    -0.117 C 
HETATM    3  C9  UNL     1     -31.971   7.952   3.425  1.00 20.00     0.098 C 
ENDROOT
BRANCH   3   4
HETATM    4  C7  UNL     1     -33.257   7.304   3.915  1.00 20.00     0.008 C 
HETATM    5  C5  UNL     1     -33.357   7.296   5.443  1.00 20.00     0.013 C 
HETATM    6  C4  UNL     1     -34.465   6.295   5.743  1.00 20.00     0.079 C 
HETATM    7  C3  UNL     1     -34.313   5.310   4.612  1.00 20.00     0.131 C 
HETATM    8  C6  UNL     1     -33.371   5.818   3.536  1.00 20.00     0.056 C 
HETATM    9  O10 UNL     1     -34.889   4.231   4.572  1.00 20.00    -0.298 OA
HETATM   10  C8  UNL     1     -33.914   5.595   2.137  1.00 20.00     0.018 C 
ENDBRANCH   3   4
TORSDOF 1
ENDMDL
MODEL 2
REMARK VINA RESULT:      -6.2      0.890      2.149
REMARK  1 active torsions:
REMARK  status: ('A' for Active; 'I' for Inactive)
REMARK    1  A    between atoms: C7_7  and  C9_9 
ROOT
HETATM    1  C1  UNL     1     -32.541   9.373   0.756  1.00 20.00     0.012 C 
HETATM    2  C2  UNL     1     -32.188   8.988   1.838  1.00 20.00    -0.117 C 
HETATM    3  C9  UNL     1     -31.753   8.523   3.160  1.00 20.00     0.098 C 
ENDROOT
BRANCH   3   4
HETATM    4  C7  UNL     1     -32.372   7.176   3.500  1.00 20.00     0.008 C 
HETATM    5  C5  UNL     1     -32.720   6.364   2.250  1.00 20.00     0.013 C 
HETATM    6  C4  UNL     1     -33.654   5.273   2.756  1.00 20.00     0.079 C 
HETATM    7  C3  UNL     1     -34.365   5.969   3.888  1.00 20.00     0.131 C 
HETATM    8  C6  UNL     1     -33.715   7.295   4.239  1.00 20.00     0.056 C 
HETATM    9  O10 UNL     1     -35.348   5.510   4.454  1.00 20.00    -0.298 OA
HETATM   10  C8  UNL     1     -33.562   7.486   5.737  1.00 20.00     0.018 C 
ENDBRANCH   3   4
TORSDOF 1
ENDMDL
MODEL 3
REMARK VINA RESULT:      -5.2      2.109      4.292
REMARK  1 active torsions:
REMARK  status: ('A' for Active; 'I' for Inactive)
REMARK    1  A    between atoms: C7_7  and  C9_9 
ROOT
HETATM    1  C1  UNL     1     -33.653   3.391   4.461  1.00 20.00     0.012 C 
HETATM    2  C2  UNL     1     -34.350   4.363   4.345  1.00 20.00    -0.117 C 
HETATM    3  C9  UNL     1     -35.207   5.546   4.204  1.00 20.00     0.098 C 
ENDROOT
BRANCH   3   4
HETATM    4  C7  UNL     1     -34.403   6.758   3.761  1.00 20.00     0.008 C 
HETATM    5  C5  UNL     1     -33.824   6.587   2.354  1.00 20.00     0.013 C 
HETATM    6  C4  UNL     1     -32.766   7.678   2.246  1.00 20.00     0.079 C 
HETATM    7  C3  UNL     1     -32.276   7.781   3.668  1.00 20.00     0.131 C 
HETATM    8  C6  UNL     1     -33.164   7.017   4.633  1.00 20.00     0.056 C 
HETATM    9  O10 UNL     1     -31.280   8.411   3.997  1.00 20.00    -0.298 OA
HETATM   10  C8  UNL     1     -33.469   7.810   5.890  1.00 20.00     0.018 C 
ENDBRANCH   3   4
TORSDOF 1
ENDMDL
MODEL 4
REMARK VINA RESULT:      -4.9      2.066      4.049
REMARK  1 active torsions:
REMARK  status: ('A' for Active; 'I' for Inactive)
REMARK    1  A    between atoms: C7_7  and  C9_9 
ROOT
HETATM    1  C1  UNL     1     -34.788   4.721   5.785  1.00 20.00     0.012 C 
HETATM    2  C2  UNL     1     -34.340   5.831   5.684  1.00 20.00    -0.117 C 
HETATM    3  C9  UNL     1     -33.797   7.189   5.565  1.00 20.00     0.098 C 
ENDROOT
BRANCH   3   4
HETATM    4  C7  UNL     1     -32.833   7.296   4.393  1.00 20.00     0.008 C 
HETATM    5  C5  UNL     1     -31.954   8.548   4.478  1.00 20.00     0.013 C 
HETATM    6  C4  UNL     1     -31.364   8.690   3.081  1.00 20.00     0.079 C 
HETATM    7  C3  UNL     1     -32.469   8.137   2.217  1.00 20.00     0.131 C 
HETATM    8  C6  UNL     1     -33.541   7.443   3.036  1.00 20.00     0.056 C 
HETATM    9  O10 UNL     1     -32.489   8.239   0.997  1.00 20.00    -0.298 OA
HETATM   10  C8  UNL     1     -33.962   6.116   2.433  1.00 20.00     0.018 C 
ENDBRANCH   3   4
TORSDOF 1
ENDMDL
MODEL 5
REMARK VINA RESULT:      -4.7     11.075     11.675
REMARK  1 active torsions:
REMARK  status: ('A' for Active; 'I' for Inactive)
REMARK    1  A    between atoms: C7_7  and  C9_9 
ROOT
HETATM    1  C1  UNL     1     -35.530  17.166  -0.547  1.00 20.00     0.012 C 
HETATM    2  C2  UNL     1     -34.801  16.985  -1.485  1.00 20.00    -0.117 C 
HETATM    3  C9  UNL     1     -33.906  16.767  -2.626  1.00 20.00     0.098 C 
ENDROOT
BRANCH   3   4
HETATM    4  C7  UNL     1     -34.629  16.067  -3.767  1.00 20.00     0.008 C 
HETATM    5  C5  UNL     1     -36.147  16.049  -3.568  1.00 20.00     0.013 C 
HETATM    6  C4  UNL     1     -36.645  15.003  -4.557  1.00 20.00     0.079 C 
HETATM    7  C3  UNL     1     -35.495  14.029  -4.590  1.00 20.00     0.131 C 
HETATM    8  C6  UNL     1     -34.263  14.579  -3.895  1.00 20.00     0.056 C 
HETATM    9  O10 UNL     1     -35.556  12.928  -5.120  1.00 20.00    -0.298 OA
HETATM   10  C8  UNL     1     -32.993  14.339  -4.690  1.00 20.00     0.018 C 
ENDBRANCH   3   4
TORSDOF 1
ENDMDL
MODEL 6
REMARK VINA RESULT:      -4.3     11.421     12.512
REMARK  1 active torsions:
REMARK  status: ('A' for Active; 'I' for Inactive)
REMARK    1  A    between atoms: C7_7  and  C9_9 
ROOT
HETATM    1  C1  UNL     1     -35.006  16.941  -1.451  1.00 20.00     0.012 C 
HETATM    2  C2  UNL     1     -34.370  16.597  -2.410  1.00 20.00    -0.117 C 
HETATM    3  C9  UNL     1     -33.587  16.181  -3.579  1.00 20.00     0.098 C 
ENDROOT
BRANCH   3   4
HETATM    4  C7  UNL     1     -34.473  15.529  -4.631  1.00 20.00     0.008 C 
HETATM    5  C5  UNL     1     -34.970  14.148  -4.196  1.00 20.00     0.013 C 
HETATM    6  C4  UNL     1     -35.483  13.510  -5.480  1.00 20.00     0.079 C 
HETATM    7  C3  UNL     1     -34.567  14.110  -6.516  1.00 20.00     0.131 C 
HETATM    8  C6  UNL     1     -33.739  15.250  -5.953  1.00 20.00     0.056 C 
HETATM    9  O10 UNL     1     -34.507  13.719  -7.674  1.00 20.00    -0.298 OA
HETATM   10  C8  UNL     1     -33.697  16.449  -6.881  1.00 20.00     0.018 C 
ENDBRANCH   3   4
TORSDOF 1
ENDMDL
MODEL 7
REMARK VINA RESULT:      -4.1     11.771     12.673
REMARK  1 active torsions:
REMARK  status: ('A' for Active; 'I' for Inactive)
REMARK    1  A    between atoms: C7_7  and  C9_9 
ROOT
HETATM    1  C1  UNL     1     -33.143  17.705  -1.678  1.00 20.00     0.012 C 
HETATM    2  C2  UNL     1     -33.913  16.963  -2.227  1.00 20.00    -0.117 C 
HETATM    3  C9  UNL     1     -34.857  16.058  -2.891  1.00 20.00     0.098 C 
ENDROOT
BRANCH   3   4
HETATM    4  C7  UNL     1     -34.259  15.472  -4.161  1.00 20.00     0.008 C 
HETATM    5  C5  UNL     1     -33.425  16.497  -4.935  1.00 20.00     0.013 C 
HETATM    6  C4  UNL     1     -33.249  15.876  -6.315  1.00 20.00     0.079 C 
HETATM    7  C3  UNL     1     -34.535  15.106  -6.477  1.00 20.00     0.131 C 
HETATM    8  C6  UNL     1     -35.318  15.024  -5.181  1.00 20.00     0.056 C 
HETATM    9  O10 UNL     1     -34.895  14.607  -7.535  1.00 20.00    -0.298 OA
HETATM   10  C8  UNL     1     -35.855  13.630  -4.915  1.00 20.00     0.018 C 
ENDBRANCH   3   4
TORSDOF 1
ENDMDL
MODEL 8
REMARK VINA RESULT:      -4.1     11.482     12.904
REMARK  1 active torsions:
REMARK  status: ('A' for Active; 'I' for Inactive)
REMARK    1  A    between atoms: C7_7  and  C9_9 
ROOT
HETATM    1  C1  UNL     1     -32.671  14.136  -4.282  1.00 20.00     0.012 C 
HETATM    2  C2  UNL     1     -33.672  14.760  -4.056  1.00 20.00    -0.117 C 
HETATM    3  C9  UNL     1     -34.899  15.517  -3.781  1.00 20.00     0.098 C 
ENDROOT
BRANCH   3   4
HETATM    4  C7  UNL     1     -34.592  16.980  -3.498  1.00 20.00     0.008 C 
HETATM    5  C5  UNL     1     -33.726  17.613  -4.591  1.00 20.00     0.013 C 
HETATM    6  C4  UNL     1     -33.209  18.901  -3.964  1.00 20.00     0.079 C 
HETATM    7  C3  UNL     1     -33.098  18.519  -2.510  1.00 20.00     0.131 C 
HETATM    8  C6  UNL     1     -33.767  17.189  -2.217  1.00 20.00     0.056 C 
HETATM    9  O10 UNL     1     -32.535  19.209  -1.670  1.00 20.00    -0.298 OA
HETATM   10  C8  UNL     1     -34.614  17.231  -0.959  1.00 20.00     0.018 C 
ENDBRANCH   3   4
TORSDOF 1
ENDMDL
MODEL 9
REMARK VINA RESULT:      -4.0     11.635     12.891
REMARK  1 active torsions:
REMARK  status: ('A' for Active; 'I' for Inactive)
REMARK    1  A    between atoms: C7_7  and  C9_9 
ROOT
HETATM    1  C1  UNL     1     -32.964  17.763  -1.572  1.00 20.00     0.012 C 
HETATM    2  C2  UNL     1     -33.957  17.173  -1.901  1.00 20.00    -0.117 C 
HETATM    3  C9  UNL     1     -35.172  16.452  -2.296  1.00 20.00     0.098 C 
ENDROOT
BRANCH   3   4
HETATM    4  C7  UNL     1     -35.046  15.889  -3.704  1.00 20.00     0.008 C 
HETATM    5  C5  UNL     1     -33.993  14.781  -3.793  1.00 20.00     0.013 C 
HETATM    6  C4  UNL     1     -33.733  14.627  -5.286  1.00 20.00     0.079 C 
HETATM    7  C3  UNL     1     -33.943  16.033  -5.787  1.00 20.00     0.131 C 
HETATM    8  C6  UNL     1     -34.566  16.928  -4.731  1.00 20.00     0.056 C 
HETATM    9  O10 UNL     1     -33.646  16.401  -6.916  1.00 20.00    -0.298 OA
HETATM   10  C8  UNL     1     -35.688  17.785  -5.287  1.00 20.00     0.018 C 
ENDBRANCH   3   4
TORSDOF 1
ENDMDL
