MODEL 1
REMARK VINA RESULT:      -6.2      0.000      0.000
REMARK  2 active torsions:
REMARK  status: ('A' for Active; 'I' for Inactive)
REMARK    1  A    between atoms: C7_7  and  C10_10 
REMARK    2  A    between atoms: C9_9  and  C10_10 
ROOT
HETATM    1  C1  UNL     1     -32.536   9.134   0.751  1.00 20.00     0.012 C 
HETATM    2  C2  UNL     1     -32.136   8.884   1.854  1.00 20.00    -0.117 C 
HETATM    3  C9  UNL     1     -31.643   8.582   3.205  1.00 20.00     0.093 C 
ENDROOT
BRANCH   3   4
HETATM    4  C10 UNL     1     -32.207   7.257   3.681  1.00 20.00     0.017 C 
BRANCH   4   5
HETATM    5  C7  UNL     1     -33.705   7.378   3.966  1.00 20.00    -0.002 C 
HETATM    6  C5  UNL     1     -33.991   7.349   5.472  1.00 20.00     0.013 C 
HETATM    7  C4  UNL     1     -34.018   5.872   5.850  1.00 20.00     0.079 C 
HETATM    8  C3  UNL     1     -34.511   5.231   4.579  1.00 20.00     0.131 C 
HETATM    9  C6  UNL     1     -34.565   6.217   3.426  1.00 20.00     0.055 C 
HETATM   10  O11 UNL     1     -34.833   4.052   4.497  1.00 20.00    -0.298 OA
HETATM   11  C8  UNL     1     -34.120   5.611   2.109  1.00 20.00     0.018 C 
ENDBRANCH   4   5
ENDBRANCH   3   4
TORSDOF 2
ENDMDL
MODEL 2
REMARK VINA RESULT:      -5.2      0.984      2.300
REMARK  2 active torsions:
REMARK  status: ('A' for Active; 'I' for Inactive)
REMARK    1  A    between atoms: C7_7  and  C10_10 
REMARK    2  A    between atoms: C9_9  and  C10_10 
ROOT
HETATM    1  C1  UNL     1     -33.168   9.502  -0.420  1.00 20.00     0.012 C 
HETATM    2  C2  UNL     1     -32.579   9.207   0.584  1.00 20.00    -0.117 C 
HETATM    3  C9  UNL     1     -31.854   8.847   1.810  1.00 20.00     0.093 C 
ENDROOT
BRANCH   3   4
HETATM    4  C10 UNL     1     -32.831   8.416   2.886  1.00 20.00     0.017 C 
BRANCH   4   5
HETATM    5  C7  UNL     1     -32.465   7.031   3.424  1.00 20.00    -0.002 C 
HETATM    6  C5  UNL     1     -32.699   5.942   2.370  1.00 20.00     0.013 C 
HETATM    7  C4  UNL     1     -34.184   5.607   2.458  1.00 20.00     0.079 C 
HETATM    8  C3  UNL     1     -34.481   5.877   3.910  1.00 20.00     0.131 C 
HETATM    9  C6  UNL     1     -33.319   6.551   4.616  1.00 20.00     0.055 C 
HETATM   10  O11 UNL     1     -35.539   5.579   4.450  1.00 20.00    -0.298 OA
HETATM   11  C8  UNL     1     -33.762   7.620   5.596  1.00 20.00     0.018 C 
ENDBRANCH   4   5
ENDBRANCH   3   4
TORSDOF 2
ENDMDL
MODEL 3
REMARK VINA RESULT:      -5.0      2.059      4.261
REMARK  2 active torsions:
REMARK  status: ('A' for Active; 'I' for Inactive)
REMARK    1  A    between atoms: C7_7  and  C10_10 
REMARK    2  A    between atoms: C9_9  and  C10_10 
ROOT
HETATM    1  C1  UNL     1     -34.725   4.581   5.404  1.00 20.00     0.012 C 
HETATM    2  C2  UNL     1     -34.347   5.693   5.652  1.00 20.00    -0.117 C 
HETATM    3  C9  UNL     1     -33.885   7.054   5.960  1.00 20.00     0.093 C 
ENDROOT
BRANCH   3   4
HETATM    4  C10 UNL     1     -33.698   7.844   4.679  1.00 20.00     0.017 C 
BRANCH   4   5
HETATM    5  C7  UNL     1     -32.505   7.308   3.884  1.00 20.00    -0.002 C 
HETATM    6  C5  UNL     1     -31.398   8.362   3.761  1.00 20.00     0.013 C 
HETATM    7  C4  UNL     1     -31.810   9.246   2.589  1.00 20.00     0.079 C 
HETATM    8  C3  UNL     1     -32.573   8.279   1.720  1.00 20.00     0.131 C 
HETATM    9  C6  UNL     1     -32.812   6.952   2.415  1.00 20.00     0.055 C 
HETATM   10  O11 UNL     1     -32.947   8.543   0.583  1.00 20.00    -0.298 OA
HETATM   11  C8  UNL     1     -34.189   6.379   2.138  1.00 20.00     0.018 C 
ENDBRANCH   4   5
ENDBRANCH   3   4
TORSDOF 2
ENDMDL
MODEL 4
REMARK VINA RESULT:      -4.5     11.422     12.229
REMARK  2 active torsions:
REMARK  status: ('A' for Active; 'I' for Inactive)
REMARK    1  A    between atoms: C7_7  and  C10_10 
REMARK    2  A    between atoms: C9_9  and  C10_10 
ROOT
HETATM    1  C1  UNL     1     -35.529  17.384  -0.287  1.00 20.00     0.012 C 
HETATM    2  C2  UNL     1     -34.939  17.038  -1.273  1.00 20.00    -0.117 C 
HETATM    3  C9  UNL     1     -34.213  16.616  -2.478  1.00 20.00     0.093 C 
ENDROOT
BRANCH   3   4
HETATM    4  C10 UNL     1     -35.142  15.861  -3.409  1.00 20.00     0.017 C 
BRANCH   4   5
HETATM    5  C7  UNL     1     -34.440  14.634  -3.995  1.00 20.00    -0.002 C 
HETATM    6  C5  UNL     1     -33.055  14.994  -4.548  1.00 20.00     0.013 C 
HETATM    7  C4  UNL     1     -33.310  15.543  -5.948  1.00 20.00     0.079 C 
HETATM    8  C3  UNL     1     -34.548  14.788  -6.361  1.00 20.00     0.131 C 
HETATM    9  C6  UNL     1     -35.146  14.000  -5.211  1.00 20.00     0.055 C 
HETATM   10  O11 UNL     1     -35.005  14.811  -7.497  1.00 20.00    -0.298 OA
HETATM   11  C8  UNL     1     -36.663  14.035  -5.197  1.00 20.00     0.018 C 
ENDBRANCH   4   5
ENDBRANCH   3   4
TORSDOF 2
ENDMDL
MODEL 5
REMARK VINA RESULT:      -4.5     11.060     11.843
REMARK  2 active torsions:
REMARK  status: ('A' for Active; 'I' for Inactive)
REMARK    1  A    between atoms: C7_7  and  C10_10 
REMARK    2  A    between atoms: C9_9  and  C10_10 
ROOT
HETATM    1  C1  UNL     1     -34.282  18.147   0.109  1.00 20.00     0.012 C 
HETATM    2  C2  UNL     1     -34.025  17.676  -0.964  1.00 20.00    -0.117 C 
HETATM    3  C9  UNL     1     -33.706  17.102  -2.278  1.00 20.00     0.093 C 
ENDROOT
BRANCH   3   4
HETATM    4  C10 UNL     1     -34.808  16.157  -2.716  1.00 20.00     0.017 C 
BRANCH   4   5
HETATM    5  C7  UNL     1     -34.969  16.183  -4.238  1.00 20.00    -0.002 C 
HETATM    6  C5  UNL     1     -36.447  16.245  -4.641  1.00 20.00     0.013 C 
HETATM    7  C4  UNL     1     -36.940  14.803  -4.593  1.00 20.00     0.079 C 
HETATM    8  C3  UNL     1     -35.691  14.032  -4.935  1.00 20.00     0.131 C 
HETATM    9  C6  UNL     1     -34.462  14.921  -4.966  1.00 20.00     0.055 C 
HETATM   10  O11 UNL     1     -35.682  12.829  -5.164  1.00 20.00    -0.298 OA
HETATM   11  C8  UNL     1     -33.235  14.254  -4.374  1.00 20.00     0.018 C 
ENDBRANCH   4   5
ENDBRANCH   3   4
TORSDOF 2
ENDMDL
MODEL 6
REMARK VINA RESULT:      -4.1     11.138     12.163
REMARK  2 active torsions:
REMARK  status: ('A' for Active; 'I' for Inactive)
REMARK    1  A    between atoms: C7_7  and  C10_10 
REMARK    2  A    between atoms: C9_9  and  C10_10 
ROOT
HETATM    1  C1  UNL     1     -34.692  14.147  -4.255  1.00 20.00     0.012 C 
HETATM    2  C2  UNL     1     -34.291  15.175  -3.782  1.00 20.00    -0.117 C 
HETATM    3  C9  UNL     1     -33.797  16.434  -3.208  1.00 20.00     0.093 C 
ENDROOT
BRANCH   3   4
HETATM    4  C10 UNL     1     -34.446  16.682  -1.860  1.00 20.00     0.017 C 
BRANCH   4   5
HETATM    5  C7  UNL     1     -34.487  18.180  -1.548  1.00 20.00    -0.002 C 
HETATM    6  C5  UNL     1     -33.126  18.840  -1.797  1.00 20.00     0.013 C 
HETATM    7  C4  UNL     1     -32.313  18.578  -0.533  1.00 20.00     0.079 C 
HETATM    8  C3  UNL     1     -33.386  18.527   0.525  1.00 20.00     0.131 C 
HETATM    9  C6  UNL     1     -34.780  18.528  -0.075  1.00 20.00     0.055 C 
HETATM   10  O11 UNL     1     -33.149  18.495   1.726  1.00 20.00    -0.298 OA
HETATM   11  C8  UNL     1     -35.737  17.605   0.654  1.00 20.00     0.018 C 
ENDBRANCH   4   5
ENDBRANCH   3   4
TORSDOF 2
ENDMDL
MODEL 7
REMARK VINA RESULT:      -4.0     11.613     12.506
REMARK  2 active torsions:
REMARK  status: ('A' for Active; 'I' for Inactive)
REMARK    1  A    between atoms: C7_7  and  C10_10 
REMARK    2  A    between atoms: C9_9  and  C10_10 
ROOT
HETATM    1  C1  UNL     1     -35.559  13.779  -4.929  1.00 20.00     0.012 C 
HETATM    2  C2  UNL     1     -36.235  14.681  -4.516  1.00 20.00    -0.117 C 
HETATM    3  C9  UNL     1     -37.066  15.782  -4.011  1.00 20.00     0.093 C 
ENDROOT
BRANCH   3   4
HETATM    4  C10 UNL     1     -36.187  16.904  -3.494  1.00 20.00     0.017 C 
BRANCH   4   5
HETATM    5  C7  UNL     1     -35.101  16.356  -2.566  1.00 20.00    -0.002 C 
HETATM    6  C5  UNL     1     -35.253  16.906  -1.142  1.00 20.00     0.013 C 
HETATM    7  C4  UNL     1     -34.575  18.272  -1.163  1.00 20.00     0.079 C 
HETATM    8  C3  UNL     1     -33.506  18.077  -2.207  1.00 20.00     0.131 C 
HETATM    9  C6  UNL     1     -33.660  16.759  -2.942  1.00 20.00     0.055 C 
HETATM   10  O11 UNL     1     -32.618  18.892  -2.424  1.00 20.00    -0.298 OA
HETATM   11  C8  UNL     1     -33.363  16.872  -4.425  1.00 20.00     0.018 C 
ENDBRANCH   4   5
ENDBRANCH   3   4
TORSDOF 2
ENDMDL
MODEL 8
REMARK VINA RESULT:      -4.0     11.244     12.586
REMARK  2 active torsions:
REMARK  status: ('A' for Active; 'I' for Inactive)
REMARK    1  A    between atoms: C7_7  and  C10_10 
REMARK    2  A    between atoms: C9_9  and  C10_10 
ROOT
HETATM    1  C1  UNL     1     -35.701  17.511   0.711  1.00 20.00     0.012 C 
HETATM    2  C2  UNL     1     -35.836  17.638  -0.475  1.00 20.00    -0.117 C 
HETATM    3  C9  UNL     1     -36.003  17.797  -1.926  1.00 20.00     0.093 C 
ENDROOT
BRANCH   3   4
HETATM    4  C10 UNL     1     -35.578  16.531  -2.642  1.00 20.00     0.017 C 
BRANCH   4   5
HETATM    5  C7  UNL     1     -34.052  16.446  -2.728  1.00 20.00    -0.002 C 
HETATM    6  C5  UNL     1     -33.437  17.803  -3.091  1.00 20.00     0.013 C 
HETATM    7  C4  UNL     1     -33.538  17.900  -4.609  1.00 20.00     0.079 C 
HETATM    8  C3  UNL     1     -33.447  16.453  -5.023  1.00 20.00     0.131 C 
HETATM    9  C6  UNL     1     -33.515  15.513  -3.834  1.00 20.00     0.055 C 
HETATM   10  O11 UNL     1     -33.325  16.090  -6.186  1.00 20.00    -0.298 OA
HETATM   11  C8  UNL     1     -34.332  14.266  -4.113  1.00 20.00     0.018 C 
ENDBRANCH   4   5
ENDBRANCH   3   4
TORSDOF 2
ENDMDL
MODEL 9
REMARK VINA RESULT:      -3.9      2.674      4.787
REMARK  2 active torsions:
REMARK  status: ('A' for Active; 'I' for Inactive)
REMARK    1  A    between atoms: C7_7  and  C10_10 
REMARK    2  A    between atoms: C9_9  and  C10_10 
ROOT
HETATM    1  C1  UNL     1     -34.782   5.407   5.070  1.00 20.00     0.012 C 
HETATM    2  C2  UNL     1     -34.179   5.520   4.038  1.00 20.00    -0.117 C 
HETATM    3  C9  UNL     1     -33.441   5.654   2.775  1.00 20.00     0.093 C 
ENDROOT
BRANCH   3   4
HETATM    4  C10 UNL     1     -33.531   7.079   2.266  1.00 20.00     0.017 C 
BRANCH   4   5
HETATM    5  C7  UNL     1     -32.141   7.619   1.923  1.00 20.00    -0.002 C 
HETATM    6  C5  UNL     1     -31.460   8.230   3.154  1.00 20.00     0.013 C 
HETATM    7  C4  UNL     1     -32.009   9.649   3.257  1.00 20.00     0.079 C 
HETATM    8  C3  UNL     1     -32.281   9.986   1.813  1.00 20.00     0.131 C 
HETATM    9  C6  UNL     1     -32.127   8.779   0.906  1.00 20.00     0.055 C 
HETATM   10  O11 UNL     1     -32.584  11.108   1.427  1.00 20.00    -0.298 OA
HETATM   11  C8  UNL     1     -33.178   8.724  -0.186  1.00 20.00     0.018 C 
ENDBRANCH   4   5
ENDBRANCH   3   4
TORSDOF 2
ENDMDL
