MODEL 1
REMARK VINA RESULT:      -6.8      0.000      0.000
REMARK  2 active torsions:
REMARK  status: ('A' for Active; 'I' for Inactive)
REMARK    1  A    between atoms: C2_2  and  C10_10 
REMARK    2  A    between atoms: C7_7  and  C10_10 
ROOT
HETATM    1  C1  UNL     1     -32.712   9.024   0.878  1.00 20.00    -0.111 C 
HETATM    2  C2  UNL     1     -32.468   8.534   1.947  1.00 20.00    -0.107 C 
HETATM    3  C8  UNL     1     -33.009   9.621  -0.423  1.00 20.00     0.112 C 
ENDROOT
BRANCH   2   4
HETATM    4  C10 UNL     1     -32.159   7.930   3.245  1.00 20.00     0.099 C 
BRANCH   4   5
HETATM    5  C7  UNL     1     -33.414   7.357   3.889  1.00 20.00     0.008 C 
HETATM    6  C5  UNL     1     -33.238   7.103   5.388  1.00 20.00     0.013 C 
HETATM    7  C4  UNL     1     -34.439   6.247   5.767  1.00 20.00     0.079 C 
HETATM    8  C3  UNL     1     -34.672   5.455   4.506  1.00 20.00     0.131 C 
HETATM    9  C6  UNL     1     -33.898   6.008   3.323  1.00 20.00     0.056 C 
HETATM   10  O11 UNL     1     -35.408   4.479   4.446  1.00 20.00    -0.298 OA
HETATM   11  C9  UNL     1     -32.811   5.023   2.921  1.00 20.00     0.018 C 
ENDBRANCH   4   5
ENDBRANCH   2   4
TORSDOF 2
ENDMDL
MODEL 2
REMARK VINA RESULT:      -5.6      0.934      1.833
REMARK  2 active torsions:
REMARK  status: ('A' for Active; 'I' for Inactive)
REMARK    1  A    between atoms: C2_2  and  C10_10 
REMARK    2  A    between atoms: C7_7  and  C10_10 
ROOT
HETATM    1  C1  UNL     1     -32.638   8.998   0.923  1.00 20.00    -0.111 C 
HETATM    2  C2  UNL     1     -32.402   8.565   2.017  1.00 20.00    -0.107 C 
HETATM    3  C8  UNL     1     -32.925   9.527  -0.410  1.00 20.00     0.112 C 
ENDROOT
BRANCH   2   4
HETATM    4  C10 UNL     1     -32.128   8.033   3.354  1.00 20.00     0.099 C 
BRANCH   4   5
HETATM    5  C7  UNL     1     -32.950   6.780   3.618  1.00 20.00     0.008 C 
HETATM    6  C5  UNL     1     -34.329   6.835   2.955  1.00 20.00     0.013 C 
HETATM    7  C4  UNL     1     -35.099   5.687   3.593  1.00 20.00     0.079 C 
HETATM    8  C3  UNL     1     -34.513   5.647   4.981  1.00 20.00     0.131 C 
HETATM    9  C6  UNL     1     -33.247   6.476   5.100  1.00 20.00     0.056 C 
HETATM   10  O11 UNL     1     -35.003   5.011   5.905  1.00 20.00    -0.298 OA
HETATM   11  C9  UNL     1     -33.509   7.682   5.990  1.00 20.00     0.018 C 
ENDBRANCH   4   5
ENDBRANCH   2   4
TORSDOF 2
ENDMDL
MODEL 3
REMARK VINA RESULT:      -5.0     11.158     12.008
REMARK  2 active torsions:
REMARK  status: ('A' for Active; 'I' for Inactive)
REMARK    1  A    between atoms: C2_2  and  C10_10 
REMARK    2  A    between atoms: C7_7  and  C10_10 
ROOT
HETATM    1  C1  UNL     1     -33.125  17.855  -1.132  1.00 20.00    -0.111 C 
HETATM    2  C2  UNL     1     -33.871  17.175  -1.781  1.00 20.00    -0.107 C 
HETATM    3  C8  UNL     1     -32.215  18.684  -0.343  1.00 20.00     0.112 C 
ENDROOT
BRANCH   2   4
HETATM    4  C10 UNL     1     -34.781  16.334  -2.563  1.00 20.00     0.099 C 
BRANCH   4   5
HETATM    5  C7  UNL     1     -34.025  15.578  -3.646  1.00 20.00     0.008 C 
HETATM    6  C5  UNL     1     -33.564  16.492  -4.785  1.00 20.00     0.013 C 
HETATM    7  C4  UNL     1     -33.142  15.533  -5.889  1.00 20.00     0.079 C 
HETATM    8  C3  UNL     1     -34.085  14.376  -5.679  1.00 20.00     0.131 C 
HETATM    9  C6  UNL     1     -34.811  14.454  -4.349  1.00 20.00     0.056 C 
HETATM   10  O11 UNL     1     -34.240  13.474  -6.491  1.00 20.00    -0.298 OA
HETATM   11  C9  UNL     1     -36.289  14.721  -4.589  1.00 20.00     0.018 C 
ENDBRANCH   4   5
ENDBRANCH   2   4
TORSDOF 2
ENDMDL
MODEL 4
REMARK VINA RESULT:      -4.7     11.170     11.810
REMARK  2 active torsions:
REMARK  status: ('A' for Active; 'I' for Inactive)
REMARK    1  A    between atoms: C2_2  and  C10_10 
REMARK    2  A    between atoms: C7_7  and  C10_10 
ROOT
HETATM    1  C1  UNL     1     -34.153  17.223  -1.473  1.00 20.00    -0.111 C 
HETATM    2  C2  UNL     1     -33.993  16.699  -2.541  1.00 20.00    -0.107 C 
HETATM    3  C8  UNL     1     -34.347  17.864  -0.173  1.00 20.00     0.112 C 
ENDROOT
BRANCH   2   4
HETATM    4  C10 UNL     1     -33.786  16.053  -3.840  1.00 20.00     0.099 C 
BRANCH   4   5
HETATM    5  C7  UNL     1     -34.779  14.919  -4.046  1.00 20.00     0.008 C 
HETATM    6  C5  UNL     1     -34.558  14.180  -5.369  1.00 20.00     0.013 C 
HETATM    7  C4  UNL     1     -35.813  13.336  -5.541  1.00 20.00     0.079 C 
HETATM    8  C3  UNL     1     -36.864  14.196  -4.889  1.00 20.00     0.131 C 
HETATM    9  C6  UNL     1     -36.265  15.329  -4.077  1.00 20.00     0.056 C 
HETATM   10  O11 UNL     1     -38.067  13.996  -5.000  1.00 20.00    -0.298 OA
HETATM   11  C9  UNL     1     -36.577  16.658  -4.748  1.00 20.00     0.018 C 
ENDBRANCH   4   5
ENDBRANCH   2   4
TORSDOF 2
ENDMDL
MODEL 5
REMARK VINA RESULT:      -4.5     11.205     11.862
REMARK  2 active torsions:
REMARK  status: ('A' for Active; 'I' for Inactive)
REMARK    1  A    between atoms: C2_2  and  C10_10 
REMARK    2  A    between atoms: C7_7  and  C10_10 
ROOT
HETATM    1  C1  UNL     1     -35.146  14.537  -4.559  1.00 20.00    -0.111 C 
HETATM    2  C2  UNL     1     -34.499  15.442  -4.110  1.00 20.00    -0.107 C 
HETATM    3  C8  UNL     1     -35.934  13.435  -5.108  1.00 20.00     0.112 C 
ENDROOT
BRANCH   2   4
HETATM    4  C10 UNL     1     -33.718  16.548  -3.549  1.00 20.00     0.099 C 
BRANCH   4   5
HETATM    5  C7  UNL     1     -33.970  16.686  -2.055  1.00 20.00     0.008 C 
HETATM    6  C5  UNL     1     -35.449  16.904  -1.728  1.00 20.00     0.013 C 
HETATM    7  C4  UNL     1     -35.451  17.342  -0.270  1.00 20.00     0.079 C 
HETATM    8  C3  UNL     1     -34.148  18.091  -0.164  1.00 20.00     0.131 C 
HETATM    9  C6  UNL     1     -33.245  17.856  -1.360  1.00 20.00     0.056 C 
HETATM   10  O11 UNL     1     -33.853  18.804   0.787  1.00 20.00    -0.298 OA
HETATM   11  C9  UNL     1     -33.124  19.140  -2.168  1.00 20.00     0.018 C 
ENDBRANCH   4   5
ENDBRANCH   2   4
TORSDOF 2
ENDMDL
MODEL 6
REMARK VINA RESULT:      -4.5     10.732     11.659
REMARK  2 active torsions:
REMARK  status: ('A' for Active; 'I' for Inactive)
REMARK    1  A    between atoms: C2_2  and  C10_10 
REMARK    2  A    between atoms: C7_7  and  C10_10 
ROOT
HETATM    1  C1  UNL     1     -35.495  17.466  -0.279  1.00 20.00    -0.111 C 
HETATM    2  C2  UNL     1     -35.264  17.349  -1.451  1.00 20.00    -0.107 C 
HETATM    3  C8  UNL     1     -35.777  17.609   1.148  1.00 20.00     0.112 C 
ENDROOT
BRANCH   2   4
HETATM    4  C10 UNL     1     -34.977  17.193  -2.879  1.00 20.00     0.099 C 
BRANCH   4   5
HETATM    5  C7  UNL     1     -34.726  15.732  -3.225  1.00 20.00     0.008 C 
HETATM    6  C5  UNL     1     -33.467  15.540  -4.074  1.00 20.00     0.013 C 
HETATM    7  C4  UNL     1     -33.571  14.108  -4.582  1.00 20.00     0.079 C 
HETATM    8  C3  UNL     1     -35.062  13.929  -4.714  1.00 20.00     0.131 C 
HETATM    9  C6  UNL     1     -35.842  15.034  -4.027  1.00 20.00     0.056 C 
HETATM   10  O11 UNL     1     -35.581  12.991  -5.305  1.00 20.00    -0.298 OA
HETATM   11  C9  UNL     1     -36.546  15.887  -5.073  1.00 20.00     0.018 C 
ENDBRANCH   4   5
ENDBRANCH   2   4
TORSDOF 2
ENDMDL
MODEL 7
REMARK VINA RESULT:      -4.3     10.994     12.202
REMARK  2 active torsions:
REMARK  status: ('A' for Active; 'I' for Inactive)
REMARK    1  A    between atoms: C2_2  and  C10_10 
REMARK    2  A    between atoms: C7_7  and  C10_10 
ROOT
HETATM    1  C1  UNL     1     -33.988  17.200  -1.604  1.00 20.00    -0.111 C 
HETATM    2  C2  UNL     1     -33.756  16.658  -2.649  1.00 20.00    -0.107 C 
HETATM    3  C8  UNL     1     -34.270  17.861  -0.330  1.00 20.00     0.112 C 
ENDROOT
BRANCH   2   4
HETATM    4  C10 UNL     1     -33.486  15.992  -3.925  1.00 20.00     0.099 C 
BRANCH   4   5
HETATM    5  C7  UNL     1     -34.764  15.413  -4.515  1.00 20.00     0.008 C 
HETATM    6  C5  UNL     1     -34.861  13.897  -4.329  1.00 20.00     0.013 C 
HETATM    7  C4  UNL     1     -35.999  13.477  -5.248  1.00 20.00     0.079 C 
HETATM    8  C3  UNL     1     -35.879  14.472  -6.373  1.00 20.00     0.131 C 
HETATM    9  C6  UNL     1     -34.959  15.629  -6.029  1.00 20.00     0.056 C 
HETATM   10  O11 UNL     1     -36.464  14.359  -7.443  1.00 20.00    -0.298 OA
HETATM   11  C9  UNL     1     -33.701  15.552  -6.882  1.00 20.00     0.018 C 
ENDBRANCH   4   5
ENDBRANCH   2   4
TORSDOF 2
ENDMDL
MODEL 8
REMARK VINA RESULT:      -4.3     11.190     11.817
REMARK  2 active torsions:
REMARK  status: ('A' for Active; 'I' for Inactive)
REMARK    1  A    between atoms: C2_2  and  C10_10 
REMARK    2  A    between atoms: C7_7  and  C10_10 
ROOT
HETATM    1  C1  UNL     1     -33.958  15.386  -3.686  1.00 20.00    -0.111 C 
HETATM    2  C2  UNL     1     -34.654  16.083  -3.000  1.00 20.00    -0.107 C 
HETATM    3  C8  UNL     1     -33.110  14.538  -4.523  1.00 20.00     0.112 C 
ENDROOT
BRANCH   2   4
HETATM    4  C10 UNL     1     -35.515  16.928  -2.169  1.00 20.00     0.099 C 
BRANCH   4   5
HETATM    5  C7  UNL     1     -34.920  17.108  -0.780  1.00 20.00     0.008 C 
HETATM    6  C5  UNL     1     -35.923  17.695   0.216  1.00 20.00     0.013 C 
HETATM    7  C4  UNL     1     -35.073  18.101   1.411  1.00 20.00     0.079 C 
HETATM    8  C3  UNL     1     -33.772  18.488   0.756  1.00 20.00     0.131 C 
HETATM    9  C6  UNL     1     -33.697  18.043  -0.693  1.00 20.00     0.056 C 
HETATM   10  O11 UNL     1     -32.876  19.089   1.334  1.00 20.00    -0.298 OA
HETATM   11  C9  UNL     1     -33.724  19.263  -1.602  1.00 20.00     0.018 C 
ENDBRANCH   4   5
ENDBRANCH   2   4
TORSDOF 2
ENDMDL
MODEL 9
REMARK VINA RESULT:      -4.3      2.758      5.397
REMARK  2 active torsions:
REMARK  status: ('A' for Active; 'I' for Inactive)
REMARK    1  A    between atoms: C2_2  and  C10_10 
REMARK    2  A    between atoms: C7_7  and  C10_10 
ROOT
HETATM    1  C1  UNL     1     -33.315   7.291   4.894  1.00 20.00    -0.111 C 
HETATM    2  C2  UNL     1     -32.604   7.825   4.087  1.00 20.00    -0.107 C 
HETATM    3  C8  UNL     1     -34.180   6.639   5.876  1.00 20.00     0.112 C 
ENDROOT
BRANCH   2   4
HETATM    4  C10 UNL     1     -31.744   8.470   3.092  1.00 20.00     0.099 C 
BRANCH   4   5
HETATM    5  C7  UNL     1     -32.355   8.371   1.702  1.00 20.00     0.008 C 
HETATM    6  C5  UNL     1     -31.294   8.285   0.601  1.00 20.00     0.013 C 
HETATM    7  C4  UNL     1     -32.069   8.527  -0.687  1.00 20.00     0.079 C 
HETATM    8  C3  UNL     1     -33.150   9.472  -0.231  1.00 20.00     0.131 C 
HETATM    9  C6  UNL     1     -33.252   9.552   1.281  1.00 20.00     0.056 C 
HETATM   10  O11 UNL     1     -33.869  10.099  -0.999  1.00 20.00    -0.298 OA
HETATM   11  C9  UNL     1     -32.807  10.929   1.750  1.00 20.00     0.018 C 
ENDBRANCH   4   5
ENDBRANCH   2   4
TORSDOF 2
ENDMDL
