MODEL 1
REMARK VINA RESULT:      -5.0      0.000      0.000
REMARK  1 active torsions:
REMARK  status: ('A' for Active; 'I' for Inactive)
REMARK    1  A    between atoms: C5_5  and  C8_8 
ROOT
HETATM    1  C1  UNL     1     -36.283  13.651  -5.685  1.00 20.00     0.018 A 
HETATM    2  C2  UNL     1     -36.153  14.492  -4.584  1.00 20.00     0.010 A 
HETATM    3  C3  UNL     1     -35.153  13.347  -6.430  1.00 20.00     0.087 A 
HETATM    4  C4  UNL     1     -33.810  14.670  -5.032  1.00 20.00     0.095 A 
HETATM    5  C5  UNL     1     -34.905  15.009  -4.250  1.00 20.00    -0.038 A 
HETATM    6  N12 UNL     1     -33.963  13.858  -6.087  1.00 20.00    -0.375 N 
HETATM    7  H28 UNL     1     -33.146  13.622  -6.648  1.00 20.00     0.164 HD
ENDROOT
BRANCH   5   8
HETATM    8  C8  UNL     1     -34.743  15.926  -3.054  1.00 20.00     0.025 C 
HETATM    9  C6  UNL     1     -33.380  16.611  -2.856  1.00 20.00     0.011 C 
HETATM   10  C7  UNL     1     -33.638  17.837  -1.972  1.00 20.00     0.021 C 
HETATM   11  C10 UNL     1     -35.154  17.940  -1.799  1.00 20.00     0.086 C 
HETATM   12  C9  UNL     1     -35.740  17.108  -2.952  1.00 20.00     0.008 C 
HETATM   13 CL13 UNL     1     -35.638  17.250  -0.216  1.00 20.00    -0.125 Cl
HETATM   14  C11 UNL     1     -35.833  17.953  -4.230  1.00 20.00     0.012 C 
ENDBRANCH   5   8
TORSDOF 1
ENDMDL
MODEL 2
REMARK VINA RESULT:      -4.9      1.214      1.778
REMARK  1 active torsions:
REMARK  status: ('A' for Active; 'I' for Inactive)
REMARK    1  A    between atoms: C5_5  and  C8_8 
ROOT
HETATM    1  C1  UNL     1     -33.231  15.543  -5.774  1.00 20.00     0.018 A 
HETATM    2  C2  UNL     1     -33.349  16.263  -4.590  1.00 20.00     0.010 A 
HETATM    3  C3  UNL     1     -33.977  14.383  -5.928  1.00 20.00     0.087 A 
HETATM    4  C4  UNL     1     -34.926  14.649  -3.797  1.00 20.00     0.095 A 
HETATM    5  C5  UNL     1     -34.204  15.816  -3.587  1.00 20.00    -0.038 A 
HETATM    6  N12 UNL     1     -34.794  13.974  -4.947  1.00 20.00    -0.375 N 
HETATM    7  H28 UNL     1     -35.333  13.120  -5.081  1.00 20.00     0.164 HD
ENDROOT
BRANCH   5   8
HETATM    8  C8  UNL     1     -34.347  16.587  -2.291  1.00 20.00     0.025 C 
HETATM    9  C6  UNL     1     -33.223  17.568  -1.913  1.00 20.00     0.011 C 
HETATM   10  C7  UNL     1     -33.838  18.568  -0.926  1.00 20.00     0.021 C 
HETATM   11  C10 UNL     1     -35.335  18.256  -0.863  1.00 20.00     0.086 C 
HETATM   12  C9  UNL     1     -35.624  17.453  -2.142  1.00 20.00     0.008 C 
HETATM   13 CL13 UNL     1     -35.696  17.274   0.593  1.00 20.00    -0.125 Cl
HETATM   14  C11 UNL     1     -35.874  18.398  -3.325  1.00 20.00     0.012 C 
ENDBRANCH   5   8
TORSDOF 1
ENDMDL
MODEL 3
REMARK VINA RESULT:      -4.9      3.330      5.615
REMARK  1 active torsions:
REMARK  status: ('A' for Active; 'I' for Inactive)
REMARK    1  A    between atoms: C5_5  and  C8_8 
ROOT
HETATM    1  C1  UNL     1     -32.205  18.890   0.326  1.00 20.00     0.018 A 
HETATM    2  C2  UNL     1     -32.376  18.212  -0.876  1.00 20.00     0.010 A 
HETATM    3  C3  UNL     1     -33.275  18.974   1.204  1.00 20.00     0.087 A 
HETATM    4  C4  UNL     1     -34.641  17.749  -0.260  1.00 20.00     0.095 A 
HETATM    5  C5  UNL     1     -33.605  17.633  -1.178  1.00 20.00    -0.038 A 
HETATM    6  N12 UNL     1     -34.449  18.408   0.890  1.00 20.00    -0.375 N 
HETATM    7  H28 UNL     1     -35.223  18.482   1.550  1.00 20.00     0.164 HD
ENDROOT
BRANCH   5   8
HETATM    8  C8  UNL     1     -33.811  16.890  -2.481  1.00 20.00     0.025 C 
HETATM    9  C6  UNL     1     -35.166  16.194  -2.703  1.00 20.00     0.011 C 
HETATM   10  C7  UNL     1     -35.317  16.018  -4.219  1.00 20.00     0.021 C 
HETATM   11  C10 UNL     1     -34.136  16.746  -4.864  1.00 20.00     0.086 C 
HETATM   12  C9  UNL     1     -33.632  17.714  -3.781  1.00 20.00     0.008 C 
HETATM   13 CL13 UNL     1     -32.855  15.570  -5.301  1.00 20.00    -0.125 Cl
HETATM   14  C11 UNL     1     -34.443  19.017  -3.806  1.00 20.00     0.012 C 
ENDBRANCH   5   8
TORSDOF 1
ENDMDL
MODEL 4
REMARK VINA RESULT:      -4.8     11.026     11.644
REMARK  1 active torsions:
REMARK  status: ('A' for Active; 'I' for Inactive)
REMARK    1  A    between atoms: C5_5  and  C8_8 
ROOT
HETATM    1  C1  UNL     1     -34.376   6.179   5.730  1.00 20.00     0.018 A 
HETATM    2  C2  UNL     1     -34.048   7.126   4.765  1.00 20.00     0.010 A 
HETATM    3  C3  UNL     1     -34.424   4.842   5.365  1.00 20.00     0.087 A 
HETATM    4  C4  UNL     1     -33.838   5.370   3.154  1.00 20.00     0.095 A 
HETATM    5  C5  UNL     1     -33.775   6.722   3.461  1.00 20.00    -0.038 A 
HETATM    6  N12 UNL     1     -34.157   4.479   4.103  1.00 20.00    -0.375 N 
HETATM    7  H28 UNL     1     -34.197   3.491   3.856  1.00 20.00     0.164 HD
ENDROOT
BRANCH   5   8
HETATM    8  C8  UNL     1     -33.415   7.738   2.397  1.00 20.00     0.025 C 
HETATM    9  C6  UNL     1     -33.908   9.183   2.587  1.00 20.00     0.011 C 
HETATM   10  C7  UNL     1     -32.992  10.067   1.733  1.00 20.00     0.021 C 
HETATM   11  C10 UNL     1     -31.890   9.157   1.186  1.00 20.00     0.086 C 
HETATM   12  C9  UNL     1     -31.903   7.926   2.107  1.00 20.00     0.008 C 
HETATM   13 CL13 UNL     1     -32.268   8.684  -0.502  1.00 20.00    -0.125 Cl
HETATM   14  C11 UNL     1     -31.060   8.186   3.363  1.00 20.00     0.012 C 
ENDBRANCH   5   8
TORSDOF 1
ENDMDL
MODEL 5
REMARK VINA RESULT:      -4.8      3.220      5.324
REMARK  1 active torsions:
REMARK  status: ('A' for Active; 'I' for Inactive)
REMARK    1  A    between atoms: C5_5  and  C8_8 
ROOT
HETATM    1  C1  UNL     1     -34.646  18.214   0.729  1.00 20.00     0.018 A 
HETATM    2  C2  UNL     1     -34.804  17.538  -0.476  1.00 20.00     0.010 A 
HETATM    3  C3  UNL     1     -33.437  18.843   0.989  1.00 20.00     0.087 A 
HETATM    4  C4  UNL     1     -32.572  18.151  -1.081  1.00 20.00     0.095 A 
HETATM    5  C5  UNL     1     -33.759  17.503  -1.395  1.00 20.00    -0.038 A 
HETATM    6  N12 UNL     1     -32.447  18.794   0.088  1.00 20.00    -0.375 N 
HETATM    7  H28 UNL     1     -31.567  19.264   0.298  1.00 20.00     0.164 HD
ENDROOT
BRANCH   5   8
HETATM    8  C8  UNL     1     -33.912  16.773  -2.713  1.00 20.00     0.025 C 
HETATM    9  C6  UNL     1     -35.201  15.963  -2.939  1.00 20.00     0.011 C 
HETATM   10  C7  UNL     1     -35.352  15.808  -4.457  1.00 20.00     0.021 C 
HETATM   11  C10 UNL     1     -34.249  16.654  -5.096  1.00 20.00     0.086 C 
HETATM   12  C9  UNL     1     -33.822  17.640  -3.995  1.00 20.00     0.008 C 
HETATM   13 CL13 UNL     1     -32.873  15.609  -5.572  1.00 20.00    -0.125 Cl
HETATM   14  C11 UNL     1     -34.748  18.863  -3.982  1.00 20.00     0.012 C 
ENDBRANCH   5   8
TORSDOF 1
ENDMDL
MODEL 6
REMARK VINA RESULT:      -4.8      1.836      2.191
REMARK  1 active torsions:
REMARK  status: ('A' for Active; 'I' for Inactive)
REMARK    1  A    between atoms: C5_5  and  C8_8 
ROOT
HETATM    1  C1  UNL     1     -34.318  15.638  -6.841  1.00 20.00     0.018 A 
HETATM    2  C2  UNL     1     -34.083  16.573  -5.838  1.00 20.00     0.010 A 
HETATM    3  C3  UNL     1     -34.092  14.297  -6.571  1.00 20.00     0.087 A 
HETATM    4  C4  UNL     1     -33.422  14.797  -4.377  1.00 20.00     0.095 A 
HETATM    5  C5  UNL     1     -33.631  16.153  -4.591  1.00 20.00    -0.038 A 
HETATM    6  N12 UNL     1     -33.656  13.918  -5.362  1.00 20.00    -0.375 N 
HETATM    7  H28 UNL     1     -33.497  12.928  -5.184  1.00 20.00     0.164 HD
ENDROOT
BRANCH   5   8
HETATM    8  C8  UNL     1     -33.370  17.155  -3.485  1.00 20.00     0.025 C 
HETATM    9  C6  UNL     1     -33.785  18.617  -3.730  1.00 20.00     0.011 C 
HETATM   10  C7  UNL     1     -33.930  19.261  -2.346  1.00 20.00     0.021 C 
HETATM   11  C10 UNL     1     -33.756  18.140  -1.320  1.00 20.00     0.086 C 
HETATM   12  C9  UNL     1     -34.009  16.843  -2.108  1.00 20.00     0.008 C 
HETATM   13 CL13 UNL     1     -32.087  18.161  -0.666  1.00 20.00    -0.125 Cl
HETATM   14  C11 UNL     1     -35.512  16.542  -2.176  1.00 20.00     0.012 C 
ENDBRANCH   5   8
TORSDOF 1
ENDMDL
MODEL 7
REMARK VINA RESULT:      -4.8      2.941      4.914
REMARK  1 active torsions:
REMARK  status: ('A' for Active; 'I' for Inactive)
REMARK    1  A    between atoms: C5_5  and  C8_8 
ROOT
HETATM    1  C1  UNL     1     -35.193  17.037  -0.990  1.00 20.00     0.018 A 
HETATM    2  C2  UNL     1     -35.353  16.477  -2.253  1.00 20.00     0.010 A 
HETATM    3  C3  UNL     1     -34.103  17.862  -0.757  1.00 20.00     0.087 A 
HETATM    4  C4  UNL     1     -33.356  17.585  -2.965  1.00 20.00     0.095 A 
HETATM    5  C5  UNL     1     -34.427  16.751  -3.255  1.00 20.00    -0.038 A 
HETATM    6  N12 UNL     1     -33.226  18.111  -1.739  1.00 20.00    -0.375 N 
HETATM    7  H28 UNL     1     -32.432  18.721  -1.548  1.00 20.00     0.164 HD
ENDROOT
BRANCH   5   8
HETATM    8  C8  UNL     1     -34.584  16.153  -4.638  1.00 20.00     0.025 C 
HETATM    9  C6  UNL     1     -33.769  16.776  -5.786  1.00 20.00     0.011 C 
HETATM   10  C7  UNL     1     -33.675  15.705  -6.879  1.00 20.00     0.021 C 
HETATM   11  C10 UNL     1     -34.292  14.431  -6.298  1.00 20.00     0.086 C 
HETATM   12  C9  UNL     1     -34.268  14.641  -4.775  1.00 20.00     0.008 C 
HETATM   13 CL13 UNL     1     -35.977  14.245  -6.880  1.00 20.00    -0.125 Cl
HETATM   14  C11 UNL     1     -32.903  14.239  -4.199  1.00 20.00     0.012 C 
ENDBRANCH   5   8
TORSDOF 1
ENDMDL
MODEL 8
REMARK VINA RESULT:      -4.7      3.043      4.901
REMARK  1 active torsions:
REMARK  status: ('A' for Active; 'I' for Inactive)
REMARK    1  A    between atoms: C5_5  and  C8_8 
ROOT
HETATM    1  C1  UNL     1     -34.353  17.241  -1.655  1.00 20.00     0.018 A 
HETATM    2  C2  UNL     1     -34.614  16.248  -2.594  1.00 20.00     0.010 A 
HETATM    3  C3  UNL     1     -33.648  18.368  -2.053  1.00 20.00     0.087 A 
HETATM    4  C4  UNL     1     -33.470  17.547  -4.245  1.00 20.00     0.095 A 
HETATM    5  C5  UNL     1     -34.170  16.398  -3.904  1.00 20.00    -0.038 A 
HETATM    6  N12 UNL     1     -33.232  18.488  -3.321  1.00 20.00    -0.375 N 
HETATM    7  H28 UNL     1     -32.716  19.324  -3.592  1.00 20.00     0.164 HD
ENDROOT
BRANCH   5   8
HETATM    8  C8  UNL     1     -34.445  15.328  -4.941  1.00 20.00     0.025 C 
HETATM    9  C6  UNL     1     -35.142  14.038  -4.473  1.00 20.00     0.011 C 
HETATM   10  C7  UNL     1     -35.774  13.413  -5.722  1.00 20.00     0.021 C 
HETATM   11  C10 UNL     1     -35.576  14.414  -6.861  1.00 20.00     0.086 C 
HETATM   12  C9  UNL     1     -35.297  15.756  -6.162  1.00 20.00     0.008 C 
HETATM   13 CL13 UNL     1     -34.176  13.928  -7.869  1.00 20.00    -0.125 Cl
HETATM   14  C11 UNL     1     -36.614  16.449  -5.787  1.00 20.00     0.012 C 
ENDBRANCH   5   8
TORSDOF 1
ENDMDL
MODEL 9
REMARK VINA RESULT:      -4.6      0.826      1.313
REMARK  1 active torsions:
REMARK  status: ('A' for Active; 'I' for Inactive)
REMARK    1  A    between atoms: C5_5  and  C8_8 
ROOT
HETATM    1  C1  UNL     1     -34.087  14.422  -6.883  1.00 20.00     0.018 A 
HETATM    2  C2  UNL     1     -33.970  15.234  -5.759  1.00 20.00     0.010 A 
HETATM    3  C3  UNL     1     -34.977  13.358  -6.849  1.00 20.00     0.087 A 
HETATM    4  C4  UNL     1     -35.612  13.891  -4.653  1.00 20.00     0.095 A 
HETATM    5  C5  UNL     1     -34.738  14.970  -4.629  1.00 20.00    -0.038 A 
HETATM    6  N12 UNL     1     -35.705  13.126  -5.749  1.00 20.00    -0.375 N 
HETATM    7  H28 UNL     1     -36.353  12.339  -5.745  1.00 20.00     0.164 HD
ENDROOT
BRANCH   5   8
HETATM    8  C8  UNL     1     -34.625  15.842  -3.396  1.00 20.00     0.025 C 
HETATM    9  C6  UNL     1     -33.326  16.644  -3.201  1.00 20.00     0.011 C 
HETATM   10  C7  UNL     1     -33.671  17.799  -2.253  1.00 20.00     0.021 C 
HETATM   11  C10 UNL     1     -35.184  17.750  -2.035  1.00 20.00     0.086 C 
HETATM   12  C9  UNL     1     -35.724  16.919  -3.211  1.00 20.00     0.008 C 
HETATM   13 CL13 UNL     1     -35.553  16.946  -0.476  1.00 20.00    -0.125 Cl
HETATM   14  C11 UNL     1     -35.934  17.808  -4.444  1.00 20.00     0.012 C 
ENDBRANCH   5   8
TORSDOF 1
ENDMDL
