MODEL 1
REMARK VINA RESULT:      -5.3      0.000      0.000
REMARK  1 active torsions:
REMARK  status: ('A' for Active; 'I' for Inactive)
REMARK    1  A    between atoms: C6_6  and  N9_9 
ROOT
HETATM    1  C1  UNL     1     -31.951   8.388   2.262  1.00 20.00     0.158 C 
HETATM    2  N9  UNL     1     -32.071   7.871   3.310  1.00 20.00    -0.270 NA
HETATM    3  S10 UNL     1     -31.759   9.088   0.846  1.00 20.00    -0.055 SA
ENDROOT
BRANCH   2   4
HETATM    4  C6  UNL     1     -33.457   7.649   3.733  1.00 20.00     0.113 C 
HETATM    5  C3  UNL     1     -33.586   7.923   5.234  1.00 20.00     0.028 C 
HETATM    6  C2  UNL     1     -33.769   6.556   5.883  1.00 20.00     0.007 C 
HETATM    7  C4  UNL     1     -34.541   5.769   4.826  1.00 20.00    -0.013 C 
HETATM    8  C5  UNL     1     -33.817   6.165   3.530  1.00 20.00     0.010 C 
HETATM    9  C7  UNL     1     -34.539   4.273   5.097  1.00 20.00     0.010 C 
HETATM   10  C8  UNL     1     -34.657   5.938   2.279  1.00 20.00     0.012 C 
ENDBRANCH   2   4
TORSDOF 1
ENDMDL
MODEL 2
REMARK VINA RESULT:      -4.9      1.051      2.129
REMARK  1 active torsions:
REMARK  status: ('A' for Active; 'I' for Inactive)
REMARK    1  A    between atoms: C6_6  and  N9_9 
ROOT
HETATM    1  C1  UNL     1     -32.649   8.763   1.778  1.00 20.00     0.158 C 
HETATM    2  N9  UNL     1     -33.303   8.475   2.710  1.00 20.00    -0.270 NA
HETATM    3  S10 UNL     1     -31.782   9.175   0.508  1.00 20.00    -0.055 SA
ENDROOT
BRANCH   2   4
HETATM    4  C6  UNL     1     -32.783   7.361   3.508  1.00 20.00     0.113 C 
HETATM    5  C3  UNL     1     -32.544   6.149   2.603  1.00 20.00     0.028 C 
HETATM    6  C2  UNL     1     -33.639   5.151   2.963  1.00 20.00     0.007 C 
HETATM    7  C4  UNL     1     -33.860   5.400   4.453  1.00 20.00    -0.013 C 
HETATM    8  C5  UNL     1     -33.849   6.934   4.535  1.00 20.00     0.010 C 
HETATM    9  C7  UNL     1     -35.145   4.767   4.965  1.00 20.00     0.010 C 
HETATM   10  C8  UNL     1     -33.551   7.459   5.933  1.00 20.00     0.012 C 
ENDBRANCH   2   4
TORSDOF 1
ENDMDL
MODEL 3
REMARK VINA RESULT:      -4.0     11.769     12.417
REMARK  1 active torsions:
REMARK  status: ('A' for Active; 'I' for Inactive)
REMARK    1  A    between atoms: C6_6  and  N9_9 
ROOT
HETATM    1  C1  UNL     1     -33.518  17.398  -4.366  1.00 20.00     0.158 C 
HETATM    2  N9  UNL     1     -33.442  18.071  -3.407  1.00 20.00    -0.270 NA
HETATM    3  S10 UNL     1     -33.620  16.509  -5.683  1.00 20.00    -0.055 SA
ENDROOT
BRANCH   2   4
HETATM    4  C6  UNL     1     -33.458  17.340  -2.137  1.00 20.00     0.113 C 
HETATM    5  C3  UNL     1     -34.779  16.577  -2.000  1.00 20.00     0.028 C 
HETATM    6  C2  UNL     1     -35.569  17.320  -0.929  1.00 20.00     0.007 C 
HETATM    7  C4  UNL     1     -34.481  17.837   0.010  1.00 20.00    -0.013 C 
HETATM    8  C5  UNL     1     -33.416  18.348  -0.972  1.00 20.00     0.010 C 
HETATM    9  C7  UNL     1     -34.996  18.902   0.966  1.00 20.00     0.010 C 
HETATM   10  C8  UNL     1     -32.030  18.461  -0.351  1.00 20.00     0.012 C 
ENDBRANCH   2   4
TORSDOF 1
ENDMDL
MODEL 4
REMARK VINA RESULT:      -3.9     11.791     12.402
REMARK  1 active torsions:
REMARK  status: ('A' for Active; 'I' for Inactive)
REMARK    1  A    between atoms: C6_6  and  N9_9 
ROOT
HETATM    1  C1  UNL     1     -33.531  16.701  -5.575  1.00 20.00     0.158 C 
HETATM    2  N9  UNL     1     -33.397  17.350  -4.606  1.00 20.00    -0.270 NA
HETATM    3  S10 UNL     1     -33.707  15.844  -6.906  1.00 20.00    -0.055 SA
ENDROOT
BRANCH   2   4
HETATM    4  C6  UNL     1     -33.525  16.612  -3.347  1.00 20.00     0.113 C 
HETATM    5  C3  UNL     1     -34.688  15.622  -3.446  1.00 20.00     0.028 C 
HETATM    6  C2  UNL     1     -35.789  16.197  -2.562  1.00 20.00     0.007 C 
HETATM    7  C4  UNL     1     -35.012  16.890  -1.446  1.00 20.00    -0.013 C 
HETATM    8  C5  UNL     1     -33.888  17.597  -2.218  1.00 20.00     0.010 C 
HETATM    9  C7  UNL     1     -35.883  17.833  -0.629  1.00 20.00     0.010 C 
HETATM   10  C8  UNL     1     -32.690  17.950  -1.347  1.00 20.00     0.012 C 
ENDBRANCH   2   4
TORSDOF 1
ENDMDL
MODEL 5
REMARK VINA RESULT:      -3.9     11.481     12.312
REMARK  1 active torsions:
REMARK  status: ('A' for Active; 'I' for Inactive)
REMARK    1  A    between atoms: C6_6  and  N9_9 
ROOT
HETATM    1  C1  UNL     1     -35.251  16.628  -2.350  1.00 20.00     0.158 C 
HETATM    2  N9  UNL     1     -35.648  16.110  -3.326  1.00 20.00    -0.270 NA
HETATM    3  S10 UNL     1     -34.735  17.349  -1.027  1.00 20.00    -0.055 SA
ENDROOT
BRANCH   2   4
HETATM    4  C6  UNL     1     -34.782  15.057  -3.862  1.00 20.00     0.113 C 
HETATM    5  C3  UNL     1     -33.354  15.589  -4.006  1.00 20.00     0.028 C 
HETATM    6  C2  UNL     1     -33.129  15.749  -5.506  1.00 20.00     0.007 C 
HETATM    7  C4  UNL     1     -33.959  14.616  -6.104  1.00 20.00    -0.013 C 
HETATM    8  C5  UNL     1     -35.254  14.687  -5.281  1.00 20.00     0.010 C 
HETATM    9  C7  UNL     1     -34.173  14.779  -7.601  1.00 20.00     0.010 C 
HETATM   10  C8  UNL     1     -36.055  13.392  -5.308  1.00 20.00     0.012 C 
ENDBRANCH   2   4
TORSDOF 1
ENDMDL
MODEL 6
REMARK VINA RESULT:      -3.7     11.463     12.703
REMARK  1 active torsions:
REMARK  status: ('A' for Active; 'I' for Inactive)
REMARK    1  A    between atoms: C6_6  and  N9_9 
ROOT
HETATM    1  C1  UNL     1     -38.869  14.724  -5.221  1.00 20.00     0.158 C 
HETATM    2  N9  UNL     1     -37.920  14.124  -4.880  1.00 20.00    -0.270 NA
HETATM    3  S10 UNL     1     -40.174  15.519  -5.669  1.00 20.00    -0.055 SA
ENDROOT
BRANCH   2   4
HETATM    4  C6  UNL     1     -36.644  14.668  -5.351  1.00 20.00     0.113 C 
HETATM    5  C3  UNL     1     -35.553  13.600  -5.232  1.00 20.00     0.028 C 
HETATM    6  C2  UNL     1     -34.667  14.051  -4.075  1.00 20.00     0.007 C 
HETATM    7  C4  UNL     1     -34.727  15.574  -4.164  1.00 20.00    -0.013 C 
HETATM    8  C5  UNL     1     -36.218  15.829  -4.431  1.00 20.00     0.010 C 
HETATM    9  C7  UNL     1     -34.203  16.251  -2.907  1.00 20.00     0.010 C 
HETATM   10  C8  UNL     1     -36.493  17.192  -5.051  1.00 20.00     0.012 C 
ENDBRANCH   2   4
TORSDOF 1
ENDMDL
MODEL 7
REMARK VINA RESULT:      -3.7     11.640     12.132
REMARK  1 active torsions:
REMARK  status: ('A' for Active; 'I' for Inactive)
REMARK    1  A    between atoms: C6_6  and  N9_9 
ROOT
HETATM    1  C1  UNL     1     -34.769  14.045  -5.848  1.00 20.00     0.158 C 
HETATM    2  N9  UNL     1     -34.842  14.356  -4.718  1.00 20.00    -0.270 NA
HETATM    3  S10 UNL     1     -34.668  13.595  -7.372  1.00 20.00    -0.055 SA
ENDROOT
BRANCH   2   4
HETATM    4  C6  UNL     1     -34.902  15.801  -4.479  1.00 20.00     0.113 C 
HETATM    5  C3  UNL     1     -33.516  16.313  -4.076  1.00 20.00     0.028 C 
HETATM    6  C2  UNL     1     -33.618  16.637  -2.590  1.00 20.00     0.007 C 
HETATM    7  C4  UNL     1     -35.064  17.103  -2.434  1.00 20.00    -0.013 C 
HETATM    8  C5  UNL     1     -35.832  16.077  -3.282  1.00 20.00     0.010 C 
HETATM    9  C7  UNL     1     -35.506  17.151  -0.980  1.00 20.00     0.010 C 
HETATM   10  C8  UNL     1     -37.207  16.566  -3.717  1.00 20.00     0.012 C 
ENDBRANCH   2   4
TORSDOF 1
ENDMDL
MODEL 8
REMARK VINA RESULT:      -3.7     11.683     12.173
REMARK  1 active torsions:
REMARK  status: ('A' for Active; 'I' for Inactive)
REMARK    1  A    between atoms: C6_6  and  N9_9 
ROOT
HETATM    1  C1  UNL     1     -34.019  15.816  -3.863  1.00 20.00     0.158 C 
HETATM    2  N9  UNL     1     -34.541  16.019  -2.831  1.00 20.00    -0.270 NA
HETATM    3  S10 UNL     1     -33.316  15.511  -5.258  1.00 20.00    -0.055 SA
ENDROOT
BRANCH   2   4
HETATM    4  C6  UNL     1     -34.570  17.426  -2.421  1.00 20.00     0.113 C 
HETATM    5  C3  UNL     1     -33.164  18.023  -2.533  1.00 20.00     0.028 C 
HETATM    6  C2  UNL     1     -32.683  18.205  -1.098  1.00 20.00     0.007 C 
HETATM    7  C4  UNL     1     -33.968  18.523  -0.338  1.00 20.00    -0.013 C 
HETATM    8  C5  UNL     1     -34.960  17.512  -0.933  1.00 20.00     0.010 C 
HETATM    9  C7  UNL     1     -33.799  18.403   1.168  1.00 20.00     0.010 C 
HETATM   10  C8  UNL     1     -36.417  17.911  -0.737  1.00 20.00     0.012 C 
ENDBRANCH   2   4
TORSDOF 1
ENDMDL
MODEL 9
REMARK VINA RESULT:      -3.6     11.570     12.507
REMARK  1 active torsions:
REMARK  status: ('A' for Active; 'I' for Inactive)
REMARK    1  A    between atoms: C6_6  and  N9_9 
ROOT
HETATM    1  C1  UNL     1     -34.081  16.616  -2.545  1.00 20.00     0.158 C 
HETATM    2  N9  UNL     1     -33.743  16.076  -3.531  1.00 20.00    -0.270 NA
HETATM    3  S10 UNL     1     -34.513  17.342  -1.195  1.00 20.00    -0.055 SA
ENDROOT
BRANCH   2   4
HETATM    4  C6  UNL     1     -34.752  16.044  -4.594  1.00 20.00     0.113 C 
HETATM    5  C3  UNL     1     -35.900  15.116  -4.185  1.00 20.00     0.028 C 
HETATM    6  C2  UNL     1     -35.756  13.880  -5.066  1.00 20.00     0.007 C 
HETATM    7  C4  UNL     1     -35.192  14.443  -6.368  1.00 20.00    -0.013 C 
HETATM    8  C5  UNL     1     -34.130  15.433  -5.864  1.00 20.00     0.010 C 
HETATM    9  C7  UNL     1     -34.638  13.360  -7.280  1.00 20.00     0.010 C 
HETATM   10  C8  UNL     1     -33.758  16.491  -6.894  1.00 20.00     0.012 C 
ENDBRANCH   2   4
TORSDOF 1
ENDMDL
