MODEL 1
REMARK VINA RESULT:      -6.2      0.000      0.000
REMARK  1 active torsions:
REMARK  status: ('A' for Active; 'I' for Inactive)
REMARK    1  A    between atoms: C7_7  and  C9_9 
ROOT
HETATM    1  C1  UNL     1     -32.511   9.601   0.608  1.00 20.00     0.012 C 
HETATM    2  C2  UNL     1     -32.379   8.965   1.618  1.00 20.00    -0.117 C 
HETATM    3  C9  UNL     1     -32.205   8.197   2.852  1.00 20.00     0.098 C 
ENDROOT
BRANCH   3   4
HETATM    4  C7  UNL     1     -33.256   7.103   2.964  1.00 20.00     0.008 C 
HETATM    5  C5  UNL     1     -32.661   5.701   2.811  1.00 20.00     0.013 C 
HETATM    6  C4  UNL     1     -33.771   4.768   3.275  1.00 20.00     0.079 C 
HETATM    7  C3  UNL     1     -34.458   5.596   4.330  1.00 20.00     0.131 C 
HETATM    8  C6  UNL     1     -34.027   7.050   4.298  1.00 20.00     0.056 C 
HETATM    9  O10 UNL     1     -35.276   5.142   5.120  1.00 20.00    -0.298 OA
HETATM   10  C8  UNL     1     -33.221   7.373   5.547  1.00 20.00     0.018 C 
ENDBRANCH   3   4
TORSDOF 1
ENDMDL
MODEL 2
REMARK VINA RESULT:      -5.1      1.243      2.115
REMARK  1 active torsions:
REMARK  status: ('A' for Active; 'I' for Inactive)
REMARK    1  A    between atoms: C7_7  and  C9_9 
ROOT
HETATM    1  C1  UNL     1     -31.491   8.361   1.314  1.00 20.00     0.012 C 
HETATM    2  C2  UNL     1     -32.263   8.377   2.234  1.00 20.00    -0.117 C 
HETATM    3  C9  UNL     1     -33.207   8.409   3.352  1.00 20.00     0.098 C 
ENDROOT
BRANCH   3   4
HETATM    4  C7  UNL     1     -33.204   7.087   4.104  1.00 20.00     0.008 C 
HETATM    5  C5  UNL     1     -34.071   7.127   5.365  1.00 20.00     0.013 C 
HETATM    6  C4  UNL     1     -34.205   5.668   5.777  1.00 20.00     0.079 C 
HETATM    7  C3  UNL     1     -34.177   4.961   4.447  1.00 20.00     0.131 C 
HETATM    8  C6  UNL     1     -33.725   5.868   3.317  1.00 20.00     0.056 C 
HETATM    9  O10 UNL     1     -34.479   3.783   4.299  1.00 20.00    -0.298 OA
HETATM   10  C8  UNL     1     -34.892   6.132   2.376  1.00 20.00     0.018 C 
ENDBRANCH   3   4
TORSDOF 1
ENDMDL
MODEL 3
REMARK VINA RESULT:      -4.9     10.760     11.490
REMARK  1 active torsions:
REMARK  status: ('A' for Active; 'I' for Inactive)
REMARK    1  A    between atoms: C7_7  and  C9_9 
ROOT
HETATM    1  C1  UNL     1     -35.193  17.406  -0.389  1.00 20.00     0.012 C 
HETATM    2  C2  UNL     1     -34.810  17.000  -1.453  1.00 20.00    -0.117 C 
HETATM    3  C9  UNL     1     -34.334  16.515  -2.749  1.00 20.00     0.098 C 
ENDROOT
BRANCH   3   4
HETATM    4  C7  UNL     1     -35.223  15.397  -3.270  1.00 20.00     0.008 C 
HETATM    5  C5  UNL     1     -36.317  15.907  -4.212  1.00 20.00     0.013 C 
HETATM    6  C4  UNL     1     -36.866  14.648  -4.870  1.00 20.00     0.079 C 
HETATM    7  C3  UNL     1     -35.646  13.766  -4.928  1.00 20.00     0.131 C 
HETATM    8  C6  UNL     1     -34.507  14.293  -4.075  1.00 20.00     0.056 C 
HETATM    9  O10 UNL     1     -35.587  12.734  -5.585  1.00 20.00    -0.298 OA
HETATM   10  C8  UNL     1     -33.369  14.756  -4.973  1.00 20.00     0.018 C 
ENDBRANCH   3   4
TORSDOF 1
ENDMDL
MODEL 4
REMARK VINA RESULT:      -4.8     11.194     11.808
REMARK  1 active torsions:
REMARK  status: ('A' for Active; 'I' for Inactive)
REMARK    1  A    between atoms: C7_7  and  C9_9 
ROOT
HETATM    1  C1  UNL     1     -35.398  17.020  -1.016  1.00 20.00     0.012 C 
HETATM    2  C2  UNL     1     -34.717  16.730  -1.962  1.00 20.00    -0.117 C 
HETATM    3  C9  UNL     1     -33.880  16.388  -3.113  1.00 20.00     0.098 C 
ENDROOT
BRANCH   3   4
HETATM    4  C7  UNL     1     -34.359  15.103  -3.771  1.00 20.00     0.008 C 
HETATM    5  C5  UNL     1     -35.834  15.165  -4.174  1.00 20.00     0.013 C 
HETATM    6  C4  UNL     1     -36.027  13.961  -5.086  1.00 20.00     0.079 C 
HETATM    7  C3  UNL     1     -34.677  13.849  -5.748  1.00 20.00     0.131 C 
HETATM    8  C6  UNL     1     -33.623  14.699  -5.064  1.00 20.00     0.056 C 
HETATM    9  O10 UNL     1     -34.459  13.144  -6.725  1.00 20.00    -0.298 OA
HETATM   10  C8  UNL     1     -33.213  15.842  -5.982  1.00 20.00     0.018 C 
ENDBRANCH   3   4
TORSDOF 1
ENDMDL
MODEL 5
REMARK VINA RESULT:      -4.6      2.229      4.448
REMARK  1 active torsions:
REMARK  status: ('A' for Active; 'I' for Inactive)
REMARK    1  A    between atoms: C7_7  and  C9_9 
ROOT
HETATM    1  C1  UNL     1     -34.486   4.648   6.272  1.00 20.00     0.012 C 
HETATM    2  C2  UNL     1     -34.820   5.210   5.265  1.00 20.00    -0.117 C 
HETATM    3  C9  UNL     1     -35.238   5.886   4.035  1.00 20.00     0.098 C 
ENDROOT
BRANCH   3   4
HETATM    4  C7  UNL     1     -34.294   7.029   3.696  1.00 20.00     0.008 C 
HETATM    5  C5  UNL     1     -33.341   7.363   4.846  1.00 20.00     0.013 C 
HETATM    6  C4  UNL     1     -32.291   8.268   4.215  1.00 20.00     0.079 C 
HETATM    7  C3  UNL     1     -32.221   7.735   2.808  1.00 20.00     0.131 C 
HETATM    8  C6  UNL     1     -33.369   6.797   2.485  1.00 20.00     0.056 C 
HETATM    9  O10 UNL     1     -31.338   8.034   2.013  1.00 20.00    -0.298 OA
HETATM   10  C8  UNL     1     -32.840   5.381   2.314  1.00 20.00     0.018 C 
ENDBRANCH   3   4
TORSDOF 1
ENDMDL
MODEL 6
REMARK VINA RESULT:      -4.4     10.687     12.019
REMARK  1 active torsions:
REMARK  status: ('A' for Active; 'I' for Inactive)
REMARK    1  A    between atoms: C7_7  and  C9_9 
ROOT
HETATM    1  C1  UNL     1     -35.277  17.007  -1.057  1.00 20.00     0.012 C 
HETATM    2  C2  UNL     1     -34.520  16.854  -1.976  1.00 20.00    -0.117 C 
HETATM    3  C9  UNL     1     -33.587  16.674  -3.089  1.00 20.00     0.098 C 
ENDROOT
BRANCH   3   4
HETATM    4  C7  UNL     1     -34.272  16.003  -4.269  1.00 20.00     0.008 C 
HETATM    5  C5  UNL     1     -33.857  16.610  -5.612  1.00 20.00     0.013 C 
HETATM    6  C4  UNL     1     -34.367  15.618  -6.648  1.00 20.00     0.079 C 
HETATM    7  C3  UNL     1     -34.247  14.307  -5.915  1.00 20.00     0.131 C 
HETATM    8  C6  UNL     1     -34.001  14.493  -4.429  1.00 20.00     0.056 C 
HETATM    9  O10 UNL     1     -34.345  13.214  -6.460  1.00 20.00    -0.298 OA
HETATM   10  C8  UNL     1     -32.594  14.029  -4.083  1.00 20.00     0.018 C 
ENDBRANCH   3   4
TORSDOF 1
ENDMDL
MODEL 7
REMARK VINA RESULT:      -4.4     10.724     11.793
REMARK  1 active torsions:
REMARK  status: ('A' for Active; 'I' for Inactive)
REMARK    1  A    between atoms: C7_7  and  C9_9 
ROOT
HETATM    1  C1  UNL     1     -34.422  14.085  -4.129  1.00 20.00     0.012 C 
HETATM    2  C2  UNL     1     -34.299  15.252  -3.872  1.00 20.00    -0.117 C 
HETATM    3  C9  UNL     1     -34.150  16.677  -3.573  1.00 20.00     0.098 C 
ENDROOT
BRANCH   3   4
HETATM    4  C7  UNL     1     -33.840  16.893  -2.099  1.00 20.00     0.008 C 
HETATM    5  C5  UNL     1     -32.987  18.140  -1.856  1.00 20.00     0.013 C 
HETATM    6  C4  UNL     1     -33.067  18.365  -0.352  1.00 20.00     0.079 C 
HETATM    7  C3  UNL     1     -34.451  17.862  -0.033  1.00 20.00     0.131 C 
HETATM    8  C6  UNL     1     -35.063  17.077  -1.178  1.00 20.00     0.056 C 
HETATM    9  O10 UNL     1     -35.014  18.061   1.037  1.00 20.00    -0.298 OA
HETATM   10  C8  UNL     1     -36.228  17.858  -1.768  1.00 20.00     0.018 C 
ENDBRANCH   3   4
TORSDOF 1
ENDMDL
MODEL 8
REMARK VINA RESULT:      -4.3     11.400     12.497
REMARK  1 active torsions:
REMARK  status: ('A' for Active; 'I' for Inactive)
REMARK    1  A    between atoms: C7_7  and  C9_9 
ROOT
HETATM    1  C1  UNL     1     -32.785  18.224  -0.944  1.00 20.00     0.012 C 
HETATM    2  C2  UNL     1     -33.537  17.500  -1.538  1.00 20.00    -0.117 C 
HETATM    3  C9  UNL     1     -34.464  16.620  -2.252  1.00 20.00     0.098 C 
ENDROOT
BRANCH   3   4
HETATM    4  C7  UNL     1     -33.793  15.996  -3.466  1.00 20.00     0.008 C 
HETATM    5  C5  UNL     1     -34.510  14.731  -3.946  1.00 20.00     0.013 C 
HETATM    6  C4  UNL     1     -33.913  14.458  -5.320  1.00 20.00     0.079 C 
HETATM    7  C3  UNL     1     -33.619  15.849  -5.818  1.00 20.00     0.131 C 
HETATM    8  C6  UNL     1     -33.712  16.891  -4.719  1.00 20.00     0.056 C 
HETATM    9  O10 UNL     1     -33.332  16.105  -6.981  1.00 20.00    -0.298 OA
HETATM   10  C8  UNL     1     -34.909  17.795  -4.971  1.00 20.00     0.018 C 
ENDBRANCH   3   4
TORSDOF 1
ENDMDL
MODEL 9
REMARK VINA RESULT:      -4.2      2.145      4.130
REMARK  1 active torsions:
REMARK  status: ('A' for Active; 'I' for Inactive)
REMARK    1  A    between atoms: C7_7  and  C9_9 
ROOT
HETATM    1  C1  UNL     1     -34.660   4.417   5.558  1.00 20.00     0.012 C 
HETATM    2  C2  UNL     1     -34.735   5.125   4.591  1.00 20.00    -0.117 C 
HETATM    3  C9  UNL     1     -34.840   5.985   3.411  1.00 20.00     0.098 C 
ENDROOT
BRANCH   3   4
HETATM    4  C7  UNL     1     -33.481   6.547   3.026  1.00 20.00     0.008 C 
HETATM    5  C5  UNL     1     -33.583   7.675   1.996  1.00 20.00     0.013 C 
HETATM    6  C4  UNL     1     -32.200   8.311   1.995  1.00 20.00     0.079 C 
HETATM    7  C3  UNL     1     -31.765   8.123   3.426  1.00 20.00     0.131 C 
HETATM    8  C6  UNL     1     -32.656   7.153   4.180  1.00 20.00     0.056 C 
HETATM    9  O10 UNL     1     -30.796   8.686   3.919  1.00 20.00    -0.298 OA
HETATM   10  C8  UNL     1     -33.447   7.905   5.240  1.00 20.00     0.018 C 
ENDBRANCH   3   4
TORSDOF 1
ENDMDL
