MODEL 1
REMARK VINA RESULT:      -5.6      0.000      0.000
REMARK  1 active torsions:
REMARK  status: ('A' for Active; 'I' for Inactive)
REMARK    1  A    between atoms: C4_4  and  C7_7 
ROOT
HETATM    1  C5  UNL     1     -32.077   7.767   4.073  1.00 20.00     0.011 C 
HETATM    2  C6  UNL     1     -33.398   7.354   4.733  1.00 20.00     0.021 C 
HETATM    3  C7  UNL     1     -32.191   7.417   2.574  1.00 20.00     0.025 C 
HETATM    4  C8  UNL     1     -33.334   6.373   2.512  1.00 20.00     0.008 C 
HETATM    5  C9  UNL     1     -34.297   6.883   3.594  1.00 20.00     0.086 C 
HETATM    6  C10 UNL     1     -32.785   4.962   2.755  1.00 20.00     0.012 C 
HETATM    7 CL12 UNL     1     -35.510   5.710   4.137  1.00 20.00    -0.125 Cl
ENDROOT
BRANCH   3   8
HETATM    8  C4  UNL     1     -32.446   8.586   1.636  1.00 20.00    -0.029 A 
HETATM    9  C1  UNL     1     -32.813   8.519   0.271  1.00 20.00     0.034 A 
HETATM   10  C2  UNL     1     -32.930   9.821  -0.158  1.00 20.00     0.142 A 
HETATM   11  O11 UNL     1     -32.659  10.684   0.856  1.00 20.00    -0.334 OA
HETATM   12  C3  UNL     1     -32.365   9.924   1.944  1.00 20.00     0.148 A 
ENDBRANCH   3   8
TORSDOF 1
ENDMDL
MODEL 2
REMARK VINA RESULT:      -4.7      9.806     10.691
REMARK  1 active torsions:
REMARK  status: ('A' for Active; 'I' for Inactive)
REMARK    1  A    between atoms: C4_4  and  C7_7 
ROOT
HETATM    1  C5  UNL     1     -35.391  18.072  -3.340  1.00 20.00     0.011 C 
HETATM    2  C6  UNL     1     -36.122  18.097  -1.992  1.00 20.00     0.021 C 
HETATM    3  C7  UNL     1     -34.188  17.119  -3.185  1.00 20.00     0.025 C 
HETATM    4  C8  UNL     1     -33.967  17.028  -1.654  1.00 20.00     0.008 C 
HETATM    5  C9  UNL     1     -35.405  17.073  -1.117  1.00 20.00     0.086 C 
HETATM    6  C10 UNL     1     -33.067  18.173  -1.173  1.00 20.00     0.012 C 
HETATM    7 CL12 UNL     1     -35.553  17.444   0.610  1.00 20.00    -0.125 Cl
ENDROOT
BRANCH   3   8
HETATM    8  C4  UNL     1     -34.344  15.744  -3.813  1.00 20.00    -0.029 A 
HETATM    9  C1  UNL     1     -35.554  15.105  -4.176  1.00 20.00     0.034 A 
HETATM   10  C2  UNL     1     -35.199  13.884  -4.701  1.00 20.00     0.142 A 
HETATM   11  O11 UNL     1     -33.850  13.731  -4.684  1.00 20.00    -0.334 OA
HETATM   12  C3  UNL     1     -33.337  14.867  -4.142  1.00 20.00     0.148 A 
ENDBRANCH   3   8
TORSDOF 1
ENDMDL
MODEL 3
REMARK VINA RESULT:      -4.6     10.542     11.406
REMARK  1 active torsions:
REMARK  status: ('A' for Active; 'I' for Inactive)
REMARK    1  A    between atoms: C4_4  and  C7_7 
ROOT
HETATM    1  C5  UNL     1     -33.519  14.764  -4.639  1.00 20.00     0.011 C 
HETATM    2  C6  UNL     1     -33.004  16.066  -5.265  1.00 20.00     0.021 C 
HETATM    3  C7  UNL     1     -34.727  15.134  -3.754  1.00 20.00     0.025 C 
HETATM    4  C8  UNL     1     -34.560  16.653  -3.494  1.00 20.00     0.008 C 
HETATM    5  C9  UNL     1     -33.988  17.148  -4.830  1.00 20.00     0.086 C 
HETATM    6  C10 UNL     1     -33.654  16.891  -2.281  1.00 20.00     0.012 C 
HETATM    7 CL12 UNL     1     -33.241  18.755  -4.780  1.00 20.00    -0.125 Cl
ENDROOT
BRANCH   3   8
HETATM    8  C4  UNL     1     -36.097  14.811  -4.330  1.00 20.00    -0.029 A 
HETATM    9  C1  UNL     1     -37.303  15.519  -4.111  1.00 20.00     0.034 A 
HETATM   10  C2  UNL     1     -38.270  14.859  -4.833  1.00 20.00     0.142 A 
HETATM   11  O11 UNL     1     -37.737  13.792  -5.482  1.00 20.00    -0.334 OA
HETATM   12  C3  UNL     1     -36.414  13.770  -5.171  1.00 20.00     0.148 A 
ENDBRANCH   3   8
TORSDOF 1
ENDMDL
MODEL 4
REMARK VINA RESULT:      -4.5     10.108     11.197
REMARK  1 active torsions:
REMARK  status: ('A' for Active; 'I' for Inactive)
REMARK    1  A    between atoms: C4_4  and  C7_7 
ROOT
HETATM    1  C5  UNL     1     -36.166  16.750  -3.199  1.00 20.00     0.011 C 
HETATM    2  C6  UNL     1     -35.755  17.130  -4.627  1.00 20.00     0.021 C 
HETATM    3  C7  UNL     1     -34.899  16.231  -2.487  1.00 20.00     0.025 C 
HETATM    4  C8  UNL     1     -33.940  15.851  -3.643  1.00 20.00     0.008 C 
HETATM    5  C9  UNL     1     -34.243  16.938  -4.685  1.00 20.00     0.086 C 
HETATM    6  C10 UNL     1     -34.210  14.418  -4.115  1.00 20.00     0.012 C 
HETATM    7 CL12 UNL     1     -33.672  16.588  -6.326  1.00 20.00    -0.125 Cl
ENDROOT
BRANCH   3   8
HETATM    8  C4  UNL     1     -34.246  17.192  -1.507  1.00 20.00    -0.029 A 
HETATM    9  C1  UNL     1     -32.951  17.756  -1.602  1.00 20.00     0.034 A 
HETATM   10  C2  UNL     1     -32.802  18.558  -0.493  1.00 20.00     0.142 A 
HETATM   11  O11 UNL     1     -33.921  18.523   0.275  1.00 20.00    -0.334 OA
HETATM   12  C3  UNL     1     -34.795  17.689  -0.348  1.00 20.00     0.148 A 
ENDBRANCH   3   8
TORSDOF 1
ENDMDL
MODEL 5
REMARK VINA RESULT:      -4.4     10.106     11.339
REMARK  1 active torsions:
REMARK  status: ('A' for Active; 'I' for Inactive)
REMARK    1  A    between atoms: C4_4  and  C7_7 
ROOT
HETATM    1  C5  UNL     1     -33.683  17.152  -5.275  1.00 20.00     0.011 C 
HETATM    2  C6  UNL     1     -34.802  18.119  -4.870  1.00 20.00     0.021 C 
HETATM    3  C7  UNL     1     -33.879  15.862  -4.452  1.00 20.00     0.025 C 
HETATM    4  C8  UNL     1     -34.766  16.301  -3.260  1.00 20.00     0.008 C 
HETATM    5  C9  UNL     1     -35.694  17.336  -3.912  1.00 20.00     0.086 C 
HETATM    6  C10 UNL     1     -33.899  16.846  -2.119  1.00 20.00     0.012 C 
HETATM    7 CL12 UNL     1     -36.556  18.394  -2.780  1.00 20.00    -0.125 Cl
ENDROOT
BRANCH   3   8
HETATM    8  C4  UNL     1     -34.483  14.683  -5.198  1.00 20.00    -0.029 A 
HETATM    9  C1  UNL     1     -34.316  14.364  -6.567  1.00 20.00     0.034 A 
HETATM   10  C2  UNL     1     -35.047  13.219  -6.784  1.00 20.00     0.142 A 
HETATM   11  O11 UNL     1     -35.652  12.814  -5.637  1.00 20.00    -0.334 OA
HETATM   12  C3  UNL     1     -35.304  13.711  -4.677  1.00 20.00     0.148 A 
ENDBRANCH   3   8
TORSDOF 1
ENDMDL
MODEL 6
REMARK VINA RESULT:      -4.4     10.290     11.309
REMARK  1 active torsions:
REMARK  status: ('A' for Active; 'I' for Inactive)
REMARK    1  A    between atoms: C4_4  and  C7_7 
ROOT
HETATM    1  C5  UNL     1     -36.565  16.209  -3.662  1.00 20.00     0.011 C 
HETATM    2  C6  UNL     1     -35.638  16.377  -2.452  1.00 20.00     0.021 C 
HETATM    3  C7  UNL     1     -35.676  16.250  -4.922  1.00 20.00     0.025 C 
HETATM    4  C8  UNL     1     -34.371  16.936  -4.447  1.00 20.00     0.008 C 
HETATM    5  C9  UNL     1     -34.221  16.393  -3.018  1.00 20.00     0.086 C 
HETATM    6  C10 UNL     1     -34.501  18.460  -4.543  1.00 20.00     0.012 C 
HETATM    7 CL12 UNL     1     -33.094  17.289  -1.985  1.00 20.00    -0.125 Cl
ENDROOT
BRANCH   3   8
HETATM    8  C4  UNL     1     -35.398  14.909  -5.582  1.00 20.00    -0.029 A 
HETATM    9  C1  UNL     1     -34.667  14.681  -6.773  1.00 20.00     0.034 A 
HETATM   10  C2  UNL     1     -34.682  13.320  -6.975  1.00 20.00     0.142 A 
HETATM   11  O11 UNL     1     -35.375  12.698  -5.986  1.00 20.00    -0.334 OA
HETATM   12  C3  UNL     1     -35.807  13.672  -5.143  1.00 20.00     0.148 A 
ENDBRANCH   3   8
TORSDOF 1
ENDMDL
MODEL 7
REMARK VINA RESULT:      -4.4      9.978     11.135
REMARK  1 active torsions:
REMARK  status: ('A' for Active; 'I' for Inactive)
REMARK    1  A    between atoms: C4_4  and  C7_7 
ROOT
HETATM    1  C5  UNL     1     -34.352  14.382  -3.969  1.00 20.00     0.011 C 
HETATM    2  C6  UNL     1     -35.583  14.395  -4.882  1.00 20.00     0.021 C 
HETATM    3  C7  UNL     1     -33.849  15.837  -3.865  1.00 20.00     0.025 C 
HETATM    4  C8  UNL     1     -34.473  16.545  -5.094  1.00 20.00     0.008 C 
HETATM    5  C9  UNL     1     -35.846  15.865  -5.196  1.00 20.00     0.086 C 
HETATM    6  C10 UNL     1     -33.576  16.369  -6.325  1.00 20.00     0.012 C 
HETATM    7 CL12 UNL     1     -36.680  16.082  -6.745  1.00 20.00    -0.125 Cl
ENDROOT
BRANCH   3   8
HETATM    8  C4  UNL     1     -34.179  16.563  -2.571  1.00 20.00    -0.029 A 
HETATM    9  C1  UNL     1     -35.418  16.564  -1.886  1.00 20.00     0.034 A 
HETATM   10  C2  UNL     1     -35.240  17.355  -0.774  1.00 20.00     0.142 A 
HETATM   11  O11 UNL     1     -33.971  17.839  -0.731  1.00 20.00    -0.334 OA
HETATM   12  C3  UNL     1     -33.333  17.353  -1.828  1.00 20.00     0.148 A 
ENDBRANCH   3   8
TORSDOF 1
ENDMDL
MODEL 8
REMARK VINA RESULT:      -4.4      9.793     10.801
REMARK  1 active torsions:
REMARK  status: ('A' for Active; 'I' for Inactive)
REMARK    1  A    between atoms: C4_4  and  C7_7 
ROOT
HETATM    1  C5  UNL     1     -33.296  15.171  -4.104  1.00 20.00     0.011 C 
HETATM    2  C6  UNL     1     -34.352  14.106  -4.426  1.00 20.00     0.021 C 
HETATM    3  C7  UNL     1     -34.045  16.504  -3.899  1.00 20.00     0.025 C 
HETATM    4  C8  UNL     1     -35.412  16.285  -4.595  1.00 20.00     0.008 C 
HETATM    5  C9  UNL     1     -35.699  14.809  -4.285  1.00 20.00     0.086 C 
HETATM    6  C10 UNL     1     -35.314  16.620  -6.087  1.00 20.00     0.012 C 
HETATM    7 CL12 UNL     1     -36.955  14.059  -5.287  1.00 20.00    -0.125 Cl
ENDROOT
BRANCH   3   8
HETATM    8  C4  UNL     1     -34.214  16.957  -2.458  1.00 20.00    -0.029 A 
HETATM    9  C1  UNL     1     -35.375  16.835  -1.657  1.00 20.00     0.034 A 
HETATM   10  C2  UNL     1     -35.055  17.381  -0.435  1.00 20.00     0.142 A 
HETATM   11  O11 UNL     1     -33.772  17.830  -0.434  1.00 20.00    -0.334 OA
HETATM   12  C3  UNL     1     -33.268  17.568  -1.668  1.00 20.00     0.148 A 
ENDBRANCH   3   8
TORSDOF 1
ENDMDL
MODEL 9
REMARK VINA RESULT:      -4.2     10.220     11.382
REMARK  1 active torsions:
REMARK  status: ('A' for Active; 'I' for Inactive)
REMARK    1  A    between atoms: C4_4  and  C7_7 
ROOT
HETATM    1  C5  UNL     1     -35.145  13.789  -4.545  1.00 20.00     0.011 C 
HETATM    2  C6  UNL     1     -36.447  13.940  -5.342  1.00 20.00     0.021 C 
HETATM    3  C7  UNL     1     -34.110  14.738  -5.186  1.00 20.00     0.025 C 
HETATM    4  C8  UNL     1     -34.671  15.013  -6.604  1.00 20.00     0.008 C 
HETATM    5  C9  UNL     1     -36.185  15.054  -6.351  1.00 20.00     0.086 C 
HETATM    6  C10 UNL     1     -34.213  13.924  -7.581  1.00 20.00     0.012 C 
HETATM    7 CL12 UNL     1     -37.195  14.900  -7.799  1.00 20.00    -0.125 Cl
ENDROOT
BRANCH   3   8
HETATM    8  C4  UNL     1     -33.835  16.028  -4.430  1.00 20.00    -0.029 A 
HETATM    9  C1  UNL     1     -33.886  16.224  -3.030  1.00 20.00     0.034 A 
HETATM   10  C2  UNL     1     -33.565  17.544  -2.816  1.00 20.00     0.142 A 
HETATM   11  O11 UNL     1     -33.318  18.172  -3.995  1.00 20.00    -0.334 OA
HETATM   12  C3  UNL     1     -33.485  17.243  -4.972  1.00 20.00     0.148 A 
ENDBRANCH   3   8
TORSDOF 1
ENDMDL
