MODEL 1
REMARK VINA RESULT:      -5.2      0.000      0.000
REMARK  3 active torsions:
REMARK  status: ('A' for Active; 'I' for Inactive)
REMARK    1  A    between atoms: C1_1  and  C4_4 
REMARK    2  A    between atoms: C1_1  and  C6_6 
REMARK    3  A    between atoms: N7_7  and  O8_8 
ROOT
HETATM    1  C1  UNL     1     -33.628   6.746   4.212  1.00 20.00     0.043 C 
HETATM    2  N7  UNL     1     -33.272   7.613   5.110  1.00 20.00    -0.145 NA
ENDROOT
BRANCH   1   3
HETATM    3  C4  UNL     1     -34.725   5.772   4.568  1.00 20.00     0.036 A 
HETATM    4  C2  UNL     1     -34.501   4.334   4.277  1.00 20.00     0.011 A 
HETATM    5  C3  UNL     1     -34.481   4.832   5.690  1.00 20.00     0.011 A 
ENDBRANCH   1   3
BRANCH   1   6
HETATM    6  C6  UNL     1     -33.002   6.611   2.836  1.00 20.00     0.053 C 
HETATM    7  C5  UNL     1     -32.265   7.881   2.456  1.00 20.00     0.011 C 
ENDBRANCH   1   6
BRANCH   2   8
HETATM    8  O8  UNL     1     -34.009   7.465   6.285  1.00 20.00    -0.266 OA
HETATM    9  H19 UNL     1     -33.314   7.238   6.925  1.00 20.00     0.247 HD
ENDBRANCH   2   8
TORSDOF 3
ENDMDL
MODEL 2
REMARK VINA RESULT:      -5.2      2.476      3.793
REMARK  3 active torsions:
REMARK  status: ('A' for Active; 'I' for Inactive)
REMARK    1  A    between atoms: C1_1  and  C4_4 
REMARK    2  A    between atoms: C1_1  and  C6_6 
REMARK    3  A    between atoms: N7_7  and  O8_8 
ROOT
HETATM    1  C1  UNL     1     -33.476   6.495   3.540  1.00 20.00     0.043 C 
HETATM    2  N7  UNL     1     -33.773   5.241   3.387  1.00 20.00    -0.145 NA
ENDROOT
BRANCH   1   3
HETATM    3  C4  UNL     1     -32.336   7.055   2.724  1.00 20.00     0.036 A 
HETATM    4  C2  UNL     1     -32.518   8.388   2.096  1.00 20.00     0.011 A 
HETATM    5  C3  UNL     1     -31.601   8.223   3.270  1.00 20.00     0.011 A 
ENDBRANCH   1   3
BRANCH   1   6
HETATM    6  C6  UNL     1     -34.167   7.442   4.505  1.00 20.00     0.053 C 
HETATM    7  C5  UNL     1     -33.887   7.039   5.941  1.00 20.00     0.011 C 
ENDBRANCH   1   6
BRANCH   2   8
HETATM    8  O8  UNL     1     -32.936   4.628   2.453  1.00 20.00    -0.266 OA
HETATM    9  H19 UNL     1     -33.568   4.087   1.951  1.00 20.00     0.247 HD
ENDBRANCH   2   8
TORSDOF 3
ENDMDL
MODEL 3
REMARK VINA RESULT:      -5.0      0.906      2.971
REMARK  3 active torsions:
REMARK  status: ('A' for Active; 'I' for Inactive)
REMARK    1  A    between atoms: C1_1  and  C4_4 
REMARK    2  A    between atoms: C1_1  and  C6_6 
REMARK    3  A    between atoms: N7_7  and  O8_8 
ROOT
HETATM    1  C1  UNL     1     -33.894   6.718   4.738  1.00 20.00     0.043 C 
HETATM    2  N7  UNL     1     -33.926   7.082   5.984  1.00 20.00    -0.145 NA
ENDROOT
BRANCH   1   3
HETATM    3  C4  UNL     1     -32.816   7.305   3.859  1.00 20.00     0.036 A 
HETATM    4  C2  UNL     1     -32.490   6.601   2.593  1.00 20.00     0.011 A 
HETATM    5  C3  UNL     1     -33.226   7.906   2.566  1.00 20.00     0.011 A 
ENDBRANCH   1   3
BRANCH   1   6
HETATM    6  C6  UNL     1     -34.882   5.770   4.082  1.00 20.00     0.053 C 
HETATM    7  C5  UNL     1     -34.605   4.338   4.497  1.00 20.00     0.011 C 
ENDBRANCH   1   6
BRANCH   2   8
HETATM    8  O8  UNL     1     -32.907   7.989   6.278  1.00 20.00    -0.266 OA
HETATM    9  H19 UNL     1     -32.273   7.424   6.750  1.00 20.00     0.247 HD
ENDBRANCH   2   8
TORSDOF 3
ENDMDL
MODEL 4
REMARK VINA RESULT:      -4.9      2.099      2.367
REMARK  3 active torsions:
REMARK  status: ('A' for Active; 'I' for Inactive)
REMARK    1  A    between atoms: C1_1  and  C4_4 
REMARK    2  A    between atoms: C1_1  and  C6_6 
REMARK    3  A    between atoms: N7_7  and  O8_8 
ROOT
HETATM    1  C1  UNL     1     -32.997   6.845   3.505  1.00 20.00     0.043 C 
HETATM    2  N7  UNL     1     -33.033   5.765   2.785  1.00 20.00    -0.145 NA
ENDROOT
BRANCH   1   3
HETATM    3  C4  UNL     1     -34.077   7.039   4.541  1.00 20.00     0.036 A 
HETATM    4  C2  UNL     1     -34.137   6.081   5.673  1.00 20.00     0.011 A 
HETATM    5  C3  UNL     1     -33.667   7.487   5.896  1.00 20.00     0.011 A 
ENDBRANCH   1   3
BRANCH   1   6
HETATM    6  C6  UNL     1     -31.967   7.952   3.364  1.00 20.00     0.053 C 
HETATM    7  C5  UNL     1     -31.950   8.487   1.944  1.00 20.00     0.011 C 
ENDBRANCH   1   6
BRANCH   2   8
HETATM    8  O8  UNL     1     -34.119   4.959   3.129  1.00 20.00    -0.266 OA
HETATM    9  H19 UNL     1     -34.822   5.329   2.569  1.00 20.00     0.247 HD
ENDBRANCH   2   8
TORSDOF 3
ENDMDL
MODEL 5
REMARK VINA RESULT:      -4.9      1.536      3.061
REMARK  3 active torsions:
REMARK  status: ('A' for Active; 'I' for Inactive)
REMARK    1  A    between atoms: C1_1  and  C4_4 
REMARK    2  A    between atoms: C1_1  and  C6_6 
REMARK    3  A    between atoms: N7_7  and  O8_8 
ROOT
HETATM    1  C1  UNL     1     -33.734   6.738   3.860  1.00 20.00     0.043 C 
HETATM    2  N7  UNL     1     -34.100   6.485   5.079  1.00 20.00    -0.145 NA
ENDROOT
BRANCH   1   3
HETATM    3  C4  UNL     1     -33.039   8.050   3.589  1.00 20.00     0.036 A 
HETATM    4  C2  UNL     1     -31.577   8.025   3.333  1.00 20.00     0.011 A 
HETATM    5  C3  UNL     1     -32.537   8.299   2.215  1.00 20.00     0.011 A 
ENDBRANCH   1   3
BRANCH   1   6
HETATM    6  C6  UNL     1     -33.982   5.828   2.670  1.00 20.00     0.053 C 
HETATM    7  C5  UNL     1     -33.036   4.642   2.698  1.00 20.00     0.011 C 
ENDBRANCH   1   6
BRANCH   2   8
HETATM    8  O8  UNL     1     -33.763   7.529   5.941  1.00 20.00    -0.266 OA
HETATM    9  H19 UNL     1     -34.229   7.271   6.753  1.00 20.00     0.247 HD
ENDBRANCH   2   8
TORSDOF 3
ENDMDL
MODEL 6
REMARK VINA RESULT:      -4.8      2.091      2.954
REMARK  3 active torsions:
REMARK  status: ('A' for Active; 'I' for Inactive)
REMARK    1  A    between atoms: C1_1  and  C4_4 
REMARK    2  A    between atoms: C1_1  and  C6_6 
REMARK    3  A    between atoms: N7_7  and  O8_8 
ROOT
HETATM    1  C1  UNL     1     -34.221   6.096   4.511  1.00 20.00     0.043 C 
HETATM    2  N7  UNL     1     -34.791   5.311   5.374  1.00 20.00    -0.145 NA
ENDROOT
BRANCH   1   3
HETATM    3  C4  UNL     1     -34.174   5.646   3.071  1.00 20.00     0.036 A 
HETATM    4  C2  UNL     1     -33.229   6.336   2.156  1.00 20.00     0.011 A 
HETATM    5  C3  UNL     1     -32.958   4.933   2.606  1.00 20.00     0.011 A 
ENDBRANCH   1   3
BRANCH   1   6
HETATM    6  C6  UNL     1     -33.561   7.422   4.844  1.00 20.00     0.053 C 
HETATM    7  C5  UNL     1     -33.564   7.659   6.343  1.00 20.00     0.011 C 
ENDBRANCH   1   6
BRANCH   2   8
HETATM    8  O8  UNL     1     -35.271   4.149   4.768  1.00 20.00    -0.266 OA
HETATM    9  H19 UNL     1     -34.549   3.524   4.944  1.00 20.00     0.247 HD
ENDBRANCH   2   8
TORSDOF 3
ENDMDL
MODEL 7
REMARK VINA RESULT:      -4.8      1.290      2.908
REMARK  3 active torsions:
REMARK  status: ('A' for Active; 'I' for Inactive)
REMARK    1  A    between atoms: C1_1  and  C4_4 
REMARK    2  A    between atoms: C1_1  and  C6_6 
REMARK    3  A    between atoms: N7_7  and  O8_8 
ROOT
HETATM    1  C1  UNL     1     -33.692   6.699   4.467  1.00 20.00     0.043 C 
HETATM    2  N7  UNL     1     -33.107   7.564   5.239  1.00 20.00    -0.145 NA
ENDROOT
BRANCH   1   3
HETATM    3  C4  UNL     1     -33.119   6.483   3.087  1.00 20.00     0.036 A 
HETATM    4  C2  UNL     1     -32.960   5.087   2.610  1.00 20.00     0.011 A 
HETATM    5  C3  UNL     1     -34.026   5.967   2.032  1.00 20.00     0.011 A 
ENDBRANCH   1   3
BRANCH   1   6
HETATM    6  C6  UNL     1     -34.936   5.909   4.831  1.00 20.00     0.053 C 
HETATM    7  C5  UNL     1     -34.598   4.801   5.810  1.00 20.00     0.011 C 
ENDBRANCH   1   6
BRANCH   2   8
HETATM    8  O8  UNL     1     -32.009   8.151   4.608  1.00 20.00    -0.266 OA
HETATM    9  H19 UNL     1     -32.387   8.397   3.747  1.00 20.00     0.247 HD
ENDBRANCH   2   8
TORSDOF 3
ENDMDL
MODEL 8
REMARK VINA RESULT:      -4.7      1.335      1.683
REMARK  3 active torsions:
REMARK  status: ('A' for Active; 'I' for Inactive)
REMARK    1  A    between atoms: C1_1  and  C4_4 
REMARK    2  A    between atoms: C1_1  and  C6_6 
REMARK    3  A    between atoms: N7_7  and  O8_8 
ROOT
HETATM    1  C1  UNL     1     -33.496   7.149   4.065  1.00 20.00     0.043 C 
HETATM    2  N7  UNL     1     -33.563   7.414   5.334  1.00 20.00    -0.145 NA
ENDROOT
BRANCH   1   3
HETATM    3  C4  UNL     1     -34.115   5.860   3.580  1.00 20.00     0.036 A 
HETATM    4  C2  UNL     1     -34.228   5.650   2.115  1.00 20.00     0.011 A 
HETATM    5  C3  UNL     1     -33.229   4.872   2.916  1.00 20.00     0.011 A 
ENDBRANCH   1   3
BRANCH   1   6
HETATM    6  C6  UNL     1     -32.810   8.020   3.028  1.00 20.00     0.053 C 
HETATM    7  C5  UNL     1     -31.365   8.277   3.417  1.00 20.00     0.011 C 
ENDBRANCH   1   6
BRANCH   2   8
HETATM    8  O8  UNL     1     -34.226   6.405   6.033  1.00 20.00    -0.266 OA
HETATM    9  H19 UNL     1     -33.621   5.654   5.913  1.00 20.00     0.247 HD
ENDBRANCH   2   8
TORSDOF 3
ENDMDL
MODEL 9
REMARK VINA RESULT:      -4.6      2.227      2.277
REMARK  3 active torsions:
REMARK  status: ('A' for Active; 'I' for Inactive)
REMARK    1  A    between atoms: C1_1  and  C4_4 
REMARK    2  A    between atoms: C1_1  and  C6_6 
REMARK    3  A    between atoms: N7_7  and  O8_8 
ROOT
HETATM    1  C1  UNL     1     -33.365   6.295   3.590  1.00 20.00     0.043 C 
HETATM    2  N7  UNL     1     -32.821   5.614   2.628  1.00 20.00    -0.145 NA
ENDROOT
BRANCH   1   3
HETATM    3  C4  UNL     1     -34.579   5.709   4.270  1.00 20.00     0.036 A 
HETATM    4  C2  UNL     1     -34.377   4.561   5.189  1.00 20.00     0.011 A 
HETATM    5  C3  UNL     1     -34.722   5.914   5.733  1.00 20.00     0.011 A 
ENDBRANCH   1   3
BRANCH   1   6
HETATM    6  C6  UNL     1     -32.897   7.658   4.066  1.00 20.00     0.053 C 
HETATM    7  C5  UNL     1     -31.733   8.147   3.224  1.00 20.00     0.011 C 
ENDBRANCH   1   6
BRANCH   2   8
HETATM    8  O8  UNL     1     -33.500   4.416   2.402  1.00 20.00    -0.266 OA
HETATM    9  H19 UNL     1     -33.557   4.051   3.300  1.00 20.00     0.247 HD
ENDBRANCH   2   8
TORSDOF 3
ENDMDL
