MODEL 1
REMARK VINA RESULT:      -5.2      0.000      0.000
REMARK  3 active torsions:
REMARK  status: ('A' for Active; 'I' for Inactive)
REMARK    1  A    between atoms: C1_1  and  C2_2 
REMARK    2  A    between atoms: C1_1  and  C3_3 
REMARK    3  A    between atoms: C2_2  and  C4_4 
ROOT
HETATM    1  C2  UNL     1     -34.138   7.075   3.782  1.00 20.00     0.196 C 
ENDROOT
BRANCH   1   2
HETATM    2  C1  UNL     1     -33.999   6.652   5.236  1.00 20.00     0.148 C 
HETATM    3  O5  UNL     1     -33.404   7.343   6.061  1.00 20.00    -0.296 OA
BRANCH   2   4
HETATM    4  C3  UNL     1     -34.652   5.331   5.585  1.00 20.00     0.193 C 
HETATM    5 CL9  UNL     1     -34.289   4.107   4.358  1.00 20.00    -0.123 Cl
ENDBRANCH   2   4
ENDBRANCH   1   2
BRANCH   1   6
HETATM    6  C4  UNL     1     -32.818   7.129   3.049  1.00 20.00     0.394 C 
HETATM    7  F6  UNL     1     -31.879   7.781   3.766  1.00 20.00    -0.171 F 
HETATM    8  F7  UNL     1     -32.960   7.782   1.873  1.00 20.00    -0.171 F 
HETATM    9  F8  UNL     1     -32.355   5.892   2.772  1.00 20.00    -0.171 F 
ENDBRANCH   1   6
TORSDOF 3
ENDMDL
MODEL 2
REMARK VINA RESULT:      -5.1      1.996      2.383
REMARK  3 active torsions:
REMARK  status: ('A' for Active; 'I' for Inactive)
REMARK    1  A    between atoms: C1_1  and  C2_2 
REMARK    2  A    between atoms: C1_1  and  C3_3 
REMARK    3  A    between atoms: C2_2  and  C4_4 
ROOT
HETATM    1  C2  UNL     1     -34.549   6.131   3.510  1.00 20.00     0.196 C 
ENDROOT
BRANCH   1   2
HETATM    2  C1  UNL     1     -34.513   5.021   4.548  1.00 20.00     0.148 C 
HETATM    3  O5  UNL     1     -34.460   3.834   4.230  1.00 20.00    -0.296 OA
BRANCH   2   4
HETATM    4  C3  UNL     1     -34.539   5.488   5.989  1.00 20.00     0.193 C 
HETATM    5 CL9  UNL     1     -34.018   7.175   6.112  1.00 20.00    -0.123 Cl
ENDBRANCH   2   4
ENDBRANCH   1   2
BRANCH   1   6
HETATM    6  C4  UNL     1     -33.216   6.361   2.838  1.00 20.00     0.394 C 
HETATM    7  F6  UNL     1     -33.351   7.073   1.699  1.00 20.00    -0.171 F 
HETATM    8  F7  UNL     1     -32.642   5.180   2.515  1.00 20.00    -0.171 F 
HETATM    9  F8  UNL     1     -32.360   7.020   3.648  1.00 20.00    -0.171 F 
ENDBRANCH   1   6
TORSDOF 3
ENDMDL
MODEL 3
REMARK VINA RESULT:      -5.1      3.196      3.909
REMARK  3 active torsions:
REMARK  status: ('A' for Active; 'I' for Inactive)
REMARK    1  A    between atoms: C1_1  and  C2_2 
REMARK    2  A    between atoms: C1_1  and  C3_3 
REMARK    3  A    between atoms: C2_2  and  C4_4 
ROOT
HETATM    1  C2  UNL     1     -33.824   6.790   4.645  1.00 20.00     0.196 C 
ENDROOT
BRANCH   1   2
HETATM    2  C1  UNL     1     -33.169   6.956   3.282  1.00 20.00     0.148 C 
HETATM    3  O5  UNL     1     -33.574   6.357   2.288  1.00 20.00    -0.296 OA
BRANCH   2   4
HETATM    4  C3  UNL     1     -31.997   7.915   3.247  1.00 20.00     0.193 C 
HETATM    5 CL9  UNL     1     -31.801   8.608   1.629  1.00 20.00    -0.123 Cl
ENDBRANCH   2   4
ENDBRANCH   1   2
BRANCH   1   6
HETATM    6  C4  UNL     1     -34.702   5.564   4.737  1.00 20.00     0.394 C 
HETATM    7  F6  UNL     1     -35.836   5.711   4.020  1.00 20.00    -0.171 F 
HETATM    8  F7  UNL     1     -35.059   5.338   6.022  1.00 20.00    -0.171 F 
HETATM    9  F8  UNL     1     -34.062   4.462   4.293  1.00 20.00    -0.171 F 
ENDBRANCH   1   6
TORSDOF 3
ENDMDL
MODEL 4
REMARK VINA RESULT:      -4.9      1.392      1.553
REMARK  3 active torsions:
REMARK  status: ('A' for Active; 'I' for Inactive)
REMARK    1  A    between atoms: C1_1  and  C2_2 
REMARK    2  A    between atoms: C1_1  and  C3_3 
REMARK    3  A    between atoms: C2_2  and  C4_4 
ROOT
HETATM    1  C2  UNL     1     -32.668   6.755   2.859  1.00 20.00     0.196 C 
ENDROOT
BRANCH   1   2
HETATM    2  C1  UNL     1     -33.655   6.772   4.016  1.00 20.00     0.148 C 
HETATM    3  O5  UNL     1     -33.478   7.473   5.011  1.00 20.00    -0.296 OA
BRANCH   2   4
HETATM    4  C3  UNL     1     -34.862   5.874   3.844  1.00 20.00     0.193 C 
HETATM    5 CL9  UNL     1     -34.589   4.300   4.607  1.00 20.00    -0.123 Cl
ENDBRANCH   2   4
ENDBRANCH   1   2
BRANCH   1   6
HETATM    6  C4  UNL     1     -32.161   8.129   2.489  1.00 20.00     0.394 C 
HETATM    7  F6  UNL     1     -31.367   8.641   3.454  1.00 20.00    -0.171 F 
HETATM    8  F7  UNL     1     -33.196   8.982   2.318  1.00 20.00    -0.171 F 
HETATM    9  F8  UNL     1     -31.460   8.104   1.336  1.00 20.00    -0.171 F 
ENDBRANCH   1   6
TORSDOF 3
ENDMDL
MODEL 5
REMARK VINA RESULT:      -4.8      2.479      2.910
REMARK  3 active torsions:
REMARK  status: ('A' for Active; 'I' for Inactive)
REMARK    1  A    between atoms: C1_1  and  C2_2 
REMARK    2  A    between atoms: C1_1  and  C3_3 
REMARK    3  A    between atoms: C2_2  and  C4_4 
ROOT
HETATM    1  C2  UNL     1     -31.899   8.055   2.990  1.00 20.00     0.196 C 
ENDROOT
BRANCH   1   2
HETATM    2  C1  UNL     1     -32.868   6.904   3.208  1.00 20.00     0.148 C 
HETATM    3  O5  UNL     1     -32.694   5.801   2.693  1.00 20.00    -0.296 OA
BRANCH   2   4
HETATM    4  C3  UNL     1     -34.047   7.218   4.106  1.00 20.00     0.193 C 
HETATM    5 CL9  UNL     1     -33.534   7.341   5.796  1.00 20.00    -0.123 Cl
ENDBRANCH   2   4
ENDBRANCH   1   2
BRANCH   1   6
HETATM    6  C4  UNL     1     -32.073   8.735   1.652  1.00 20.00     0.394 C 
HETATM    7  F6  UNL     1     -31.054   8.449   0.815  1.00 20.00    -0.171 F 
HETATM    8  F7  UNL     1     -32.108  10.078   1.809  1.00 20.00    -0.171 F 
HETATM    9  F8  UNL     1     -33.226   8.366   1.056  1.00 20.00    -0.171 F 
ENDBRANCH   1   6
TORSDOF 3
ENDMDL
MODEL 6
REMARK VINA RESULT:      -4.8      3.023      3.732
REMARK  3 active torsions:
REMARK  status: ('A' for Active; 'I' for Inactive)
REMARK    1  A    between atoms: C1_1  and  C2_2 
REMARK    2  A    between atoms: C1_1  and  C3_3 
REMARK    3  A    between atoms: C2_2  and  C4_4 
ROOT
HETATM    1  C2  UNL     1     -31.819   8.634   1.130  1.00 20.00     0.196 C 
ENDROOT
BRANCH   1   2
HETATM    2  C1  UNL     1     -32.034   8.139   2.552  1.00 20.00     0.148 C 
HETATM    3  O5  UNL     1     -31.406   8.601   3.503  1.00 20.00    -0.296 OA
BRANCH   2   4
HETATM    4  C3  UNL     1     -33.076   7.051   2.703  1.00 20.00     0.193 C 
HETATM    5 CL9  UNL     1     -33.832   7.121   4.302  1.00 20.00    -0.123 Cl
ENDBRANCH   2   4
ENDBRANCH   1   2
BRANCH   1   6
HETATM    6  C4  UNL     1     -32.718   9.790   0.760  1.00 20.00     0.394 C 
HETATM    7  F6  UNL     1     -32.017  10.931   0.599  1.00 20.00    -0.171 F 
HETATM    8  F7  UNL     1     -33.631  10.006   1.734  1.00 20.00    -0.171 F 
HETATM    9  F8  UNL     1     -33.394   9.545  -0.383  1.00 20.00    -0.171 F 
ENDBRANCH   1   6
TORSDOF 3
ENDMDL
MODEL 7
REMARK VINA RESULT:      -4.8      3.047      3.772
REMARK  3 active torsions:
REMARK  status: ('A' for Active; 'I' for Inactive)
REMARK    1  A    between atoms: C1_1  and  C2_2 
REMARK    2  A    between atoms: C1_1  and  C3_3 
REMARK    3  A    between atoms: C2_2  and  C4_4 
ROOT
HETATM    1  C2  UNL     1     -33.153   6.257   2.944  1.00 20.00     0.196 C 
ENDROOT
BRANCH   1   2
HETATM    2  C1  UNL     1     -32.474   7.618   2.957  1.00 20.00     0.148 C 
HETATM    3  O5  UNL     1     -31.676   7.937   3.836  1.00 20.00    -0.296 OA
BRANCH   2   4
HETATM    4  C3  UNL     1     -32.847   8.533   1.810  1.00 20.00     0.193 C 
HETATM    5 CL9  UNL     1     -31.461   8.796   0.740  1.00 20.00    -0.123 Cl
ENDBRANCH   2   4
ENDBRANCH   1   2
BRANCH   1   6
HETATM    6  C4  UNL     1     -34.262   6.135   3.963  1.00 20.00     0.394 C 
HETATM    7  F6  UNL     1     -34.240   7.157   4.844  1.00 20.00    -0.171 F 
HETATM    8  F7  UNL     1     -34.129   4.988   4.666  1.00 20.00    -0.171 F 
HETATM    9  F8  UNL     1     -35.476   6.112   3.373  1.00 20.00    -0.171 F 
ENDBRANCH   1   6
TORSDOF 3
ENDMDL
MODEL 8
REMARK VINA RESULT:      -4.8      3.047      3.769
REMARK  3 active torsions:
REMARK  status: ('A' for Active; 'I' for Inactive)
REMARK    1  A    between atoms: C1_1  and  C2_2 
REMARK    2  A    between atoms: C1_1  and  C3_3 
REMARK    3  A    between atoms: C2_2  and  C4_4 
ROOT
HETATM    1  C2  UNL     1     -33.130   6.218   2.967  1.00 20.00     0.196 C 
ENDROOT
BRANCH   1   2
HETATM    2  C1  UNL     1     -32.476   7.591   2.969  1.00 20.00     0.148 C 
HETATM    3  O5  UNL     1     -31.692   7.936   3.851  1.00 20.00    -0.296 OA
BRANCH   2   4
HETATM    4  C3  UNL     1     -32.858   8.485   1.808  1.00 20.00     0.193 C 
HETATM    5 CL9  UNL     1     -31.462   8.785   0.762  1.00 20.00    -0.123 Cl
ENDBRANCH   2   4
ENDBRANCH   1   2
BRANCH   1   6
HETATM    6  C4  UNL     1     -34.239   6.085   3.984  1.00 20.00     0.394 C 
HETATM    7  F6  UNL     1     -34.148   4.926   4.669  1.00 20.00    -0.171 F 
HETATM    8  F7  UNL     1     -35.444   6.101   3.370  1.00 20.00    -0.171 F 
HETATM    9  F8  UNL     1     -34.222   7.102   4.871  1.00 20.00    -0.171 F 
ENDBRANCH   1   6
TORSDOF 3
ENDMDL
MODEL 9
REMARK VINA RESULT:      -4.7      1.364      1.364
REMARK  3 active torsions:
REMARK  status: ('A' for Active; 'I' for Inactive)
REMARK    1  A    between atoms: C1_1  and  C2_2 
REMARK    2  A    between atoms: C1_1  and  C3_3 
REMARK    3  A    between atoms: C2_2  and  C4_4 
ROOT
HETATM    1  C2  UNL     1     -33.673   7.251   4.553  1.00 20.00     0.196 C 
ENDROOT
BRANCH   1   2
HETATM    2  C1  UNL     1     -34.672   6.121   4.356  1.00 20.00     0.148 C 
HETATM    3  O5  UNL     1     -35.539   6.164   3.486  1.00 20.00    -0.296 OA
BRANCH   2   4
HETATM    4  C3  UNL     1     -34.509   4.949   5.300  1.00 20.00     0.193 C 
HETATM    5 CL9  UNL     1     -33.872   3.536   4.444  1.00 20.00    -0.123 Cl
ENDBRANCH   2   4
ENDBRANCH   1   2
BRANCH   1   6
HETATM    6  C4  UNL     1     -32.704   7.397   3.403  1.00 20.00     0.394 C 
HETATM    7  F6  UNL     1     -31.530   7.925   3.807  1.00 20.00    -0.171 F 
HETATM    8  F7  UNL     1     -33.216   8.217   2.458  1.00 20.00    -0.171 F 
HETATM    9  F8  UNL     1     -32.452   6.208   2.815  1.00 20.00    -0.171 F 
ENDBRANCH   1   6
TORSDOF 3
ENDMDL
