MODEL 1
REMARK VINA RESULT:      -5.3      0.000      0.000
REMARK  1 active torsions:
REMARK  status: ('A' for Active; 'I' for Inactive)
REMARK    1  A    between atoms: C1_1  and  N8_8 
ROOT
HETATM    1  C2  UNL     1     -34.116   4.378   4.798  1.00 20.00     0.008 C 
HETATM    2  C3  UNL     1     -33.606   4.593   3.357  1.00 20.00     0.026 C 
HETATM    3  C4  UNL     1     -35.458   6.027   3.734  1.00 20.00     0.031 C 
HETATM    4  C5  UNL     1     -33.819   6.827   5.250  1.00 20.00     0.130 C 
HETATM    5  C6  UNL     1     -34.855   5.698   5.107  1.00 20.00     0.006 C 
HETATM    6  C7  UNL     1     -34.098   6.014   3.037  1.00 20.00     0.087 C 
HETATM    7  N8  UNL     1     -33.331   6.932   3.882  1.00 20.00    -0.354 N 
ENDROOT
BRANCH   7   8
HETATM    8  C1  UNL     1     -32.282   7.711   3.472  1.00 20.00     0.351 C 
HETATM    9  O9  UNL     1     -32.184   8.321   2.414  1.00 20.00    -0.284 OA
ENDBRANCH   7   8
TORSDOF 1
ENDMDL
MODEL 2
REMARK VINA RESULT:      -4.2      1.449      1.625
REMARK  1 active torsions:
REMARK  status: ('A' for Active; 'I' for Inactive)
REMARK    1  A    between atoms: C1_1  and  N8_8 
ROOT
HETATM    1  C2  UNL     1     -33.737   4.324   3.590  1.00 20.00     0.008 C 
HETATM    2  C3  UNL     1     -33.277   5.680   3.012  1.00 20.00     0.026 C 
HETATM    3  C4  UNL     1     -35.546   5.864   3.684  1.00 20.00     0.031 C 
HETATM    4  C5  UNL     1     -34.394   5.474   5.720  1.00 20.00     0.130 C 
HETATM    5  C6  UNL     1     -34.927   4.715   4.492  1.00 20.00     0.006 C 
HETATM    6  C7  UNL     1     -34.247   6.671   3.675  1.00 20.00     0.087 C 
HETATM    7  N8  UNL     1     -33.917   6.704   5.101  1.00 20.00    -0.354 N 
ENDROOT
BRANCH   7   8
HETATM    8  C1  UNL     1     -33.216   7.692   5.739  1.00 20.00     0.351 C 
HETATM    9  O9  UNL     1     -32.300   8.362   5.279  1.00 20.00    -0.284 OA
ENDBRANCH   7   8
TORSDOF 1
ENDMDL
MODEL 3
REMARK VINA RESULT:      -4.0     11.761     12.766
REMARK  1 active torsions:
REMARK  status: ('A' for Active; 'I' for Inactive)
REMARK    1  A    between atoms: C1_1  and  N8_8 
ROOT
HETATM    1  C2  UNL     1     -33.252  16.453  -5.083  1.00 20.00     0.008 C 
HETATM    2  C3  UNL     1     -33.138  14.969  -4.673  1.00 20.00     0.026 C 
HETATM    3  C4  UNL     1     -34.511  16.093  -3.098  1.00 20.00     0.031 C 
HETATM    4  C5  UNL     1     -35.750  16.233  -5.116  1.00 20.00     0.130 C 
HETATM    5  C6  UNL     1     -34.563  16.902  -4.402  1.00 20.00     0.006 C 
HETATM    6  C7  UNL     1     -34.406  14.755  -3.832  1.00 20.00     0.087 C 
HETATM    7  N8  UNL     1     -35.546  14.838  -4.748  1.00 20.00    -0.354 N 
ENDROOT
BRANCH   7   8
HETATM    8  C1  UNL     1     -36.260  13.776  -5.237  1.00 20.00     0.351 C 
HETATM    9  O9  UNL     1     -35.898  12.608  -5.293  1.00 20.00    -0.284 OA
ENDBRANCH   7   8
TORSDOF 1
ENDMDL
MODEL 4
REMARK VINA RESULT:      -3.9     11.805     12.636
REMARK  1 active torsions:
REMARK  status: ('A' for Active; 'I' for Inactive)
REMARK    1  A    between atoms: C1_1  and  N8_8 
ROOT
HETATM    1  C2  UNL     1     -34.639  16.398  -2.495  1.00 20.00     0.008 C 
HETATM    2  C3  UNL     1     -35.996  16.543  -3.217  1.00 20.00     0.026 C 
HETATM    3  C4  UNL     1     -34.253  16.861  -4.795  1.00 20.00     0.031 C 
HETATM    4  C5  UNL     1     -33.987  14.603  -4.121  1.00 20.00     0.130 C 
HETATM    5  C6  UNL     1     -33.673  16.031  -3.642  1.00 20.00     0.006 C 
HETATM    6  C7  UNL     1     -35.636  16.218  -4.675  1.00 20.00     0.087 C 
HETATM    7  N8  UNL     1     -35.298  14.794  -4.726  1.00 20.00    -0.354 N 
ENDROOT
BRANCH   7   8
HETATM    8  C1  UNL     1     -36.107  13.795  -5.198  1.00 20.00     0.351 C 
HETATM    9  O9  UNL     1     -35.859  12.596  -5.224  1.00 20.00    -0.284 OA
ENDBRANCH   7   8
TORSDOF 1
ENDMDL
MODEL 5
REMARK VINA RESULT:      -3.8     12.008     12.803
REMARK  1 active torsions:
REMARK  status: ('A' for Active; 'I' for Inactive)
REMARK    1  A    between atoms: C1_1  and  N8_8 
ROOT
HETATM    1  C2  UNL     1     -33.589  16.665  -5.174  1.00 20.00     0.008 C 
HETATM    2  C3  UNL     1     -33.745  15.647  -6.324  1.00 20.00     0.026 C 
HETATM    3  C4  UNL     1     -33.027  14.496  -4.377  1.00 20.00     0.031 C 
HETATM    4  C5  UNL     1     -35.175  15.309  -3.782  1.00 20.00     0.130 C 
HETATM    5  C6  UNL     1     -33.717  15.786  -3.911  1.00 20.00     0.006 C 
HETATM    6  C7  UNL     1     -33.965  14.324  -5.572  1.00 20.00     0.087 C 
HETATM    7  N8  UNL     1     -35.276  14.413  -4.926  1.00 20.00    -0.354 N 
ENDROOT
BRANCH   7   8
HETATM    8  C1  UNL     1     -36.426  13.811  -5.362  1.00 20.00     0.351 C 
HETATM    9  O9  UNL     1     -37.538  13.889  -4.854  1.00 20.00    -0.284 OA
ENDBRANCH   7   8
TORSDOF 1
ENDMDL
MODEL 6
REMARK VINA RESULT:      -3.8      8.973     10.151
REMARK  1 active torsions:
REMARK  status: ('A' for Active; 'I' for Inactive)
REMARK    1  A    between atoms: C1_1  and  N8_8 
ROOT
HETATM    1  C2  UNL     1     -41.166   7.559  -0.420  1.00 20.00     0.008 C 
HETATM    2  C3  UNL     1     -40.716   6.106  -0.151  1.00 20.00     0.026 C 
HETATM    3  C4  UNL     1     -42.672   6.548   1.117  1.00 20.00     0.031 C 
HETATM    4  C5  UNL     1     -43.417   6.710  -1.129  1.00 20.00     0.130 C 
HETATM    5  C6  UNL     1     -42.668   7.529  -0.063  1.00 20.00     0.006 C 
HETATM    6  C7  UNL     1     -42.020   5.431   0.302  1.00 20.00     0.087 C 
HETATM    7  N8  UNL     1     -42.900   5.374  -0.867  1.00 20.00    -0.354 N 
ENDROOT
BRANCH   7   8
HETATM    8  C1  UNL     1     -43.145   4.265  -1.633  1.00 20.00     0.351 C 
HETATM    9  O9  UNL     1     -42.401   3.765  -2.467  1.00 20.00    -0.284 OA
ENDBRANCH   7   8
TORSDOF 1
ENDMDL
MODEL 7
REMARK VINA RESULT:      -3.7      2.168      3.452
REMARK  1 active torsions:
REMARK  status: ('A' for Active; 'I' for Inactive)
REMARK    1  A    between atoms: C1_1  and  N8_8 
ROOT
HETATM    1  C2  UNL     1     -31.907   7.693   3.832  1.00 20.00     0.008 C 
HETATM    2  C3  UNL     1     -32.987   7.698   4.936  1.00 20.00     0.026 C 
HETATM    3  C4  UNL     1     -34.053   7.872   2.823  1.00 20.00     0.031 C 
HETATM    4  C5  UNL     1     -33.039   5.728   2.759  1.00 20.00     0.130 C 
HETATM    5  C6  UNL     1     -32.685   7.216   2.586  1.00 20.00     0.006 C 
HETATM    6  C7  UNL     1     -34.234   7.203   4.185  1.00 20.00     0.087 C 
HETATM    7  N8  UNL     1     -34.001   5.796   3.850  1.00 20.00    -0.354 N 
ENDROOT
BRANCH   7   8
HETATM    8  C1  UNL     1     -34.542   4.718   4.498  1.00 20.00     0.351 C 
HETATM    9  O9  UNL     1     -34.148   3.559   4.458  1.00 20.00    -0.284 OA
ENDBRANCH   7   8
TORSDOF 1
ENDMDL
MODEL 8
REMARK VINA RESULT:      -3.5      1.853      2.560
REMARK  1 active torsions:
REMARK  status: ('A' for Active; 'I' for Inactive)
REMARK    1  A    between atoms: C1_1  and  N8_8 
ROOT
HETATM    1  C2  UNL     1     -34.046   6.704   5.688  1.00 20.00     0.008 C 
HETATM    2  C3  UNL     1     -34.328   5.187   5.615  1.00 20.00     0.026 C 
HETATM    3  C4  UNL     1     -35.506   6.269   3.862  1.00 20.00     0.031 C 
HETATM    4  C5  UNL     1     -33.228   6.648   3.317  1.00 20.00     0.130 C 
HETATM    5  C6  UNL     1     -34.332   7.181   4.248  1.00 20.00     0.006 C 
HETATM    6  C7  UNL     1     -34.715   4.990   4.140  1.00 20.00     0.087 C 
HETATM    7  N8  UNL     1     -33.506   5.219   3.346  1.00 20.00    -0.354 N 
ENDROOT
BRANCH   7   8
HETATM    8  C1  UNL     1     -32.723   4.247   2.781  1.00 20.00     0.351 C 
HETATM    9  O9  UNL     1     -32.750   3.863   1.618  1.00 20.00    -0.284 OA
ENDBRANCH   7   8
TORSDOF 1
ENDMDL
MODEL 9
REMARK VINA RESULT:      -3.4     12.207     13.218
REMARK  1 active torsions:
REMARK  status: ('A' for Active; 'I' for Inactive)
REMARK    1  A    between atoms: C1_1  and  N8_8 
ROOT
HETATM    1  C2  UNL     1     -34.681  15.680  -3.483  1.00 20.00     0.008 C 
HETATM    2  C3  UNL     1     -33.657  16.582  -4.206  1.00 20.00     0.026 C 
HETATM    3  C4  UNL     1     -32.924  14.329  -4.344  1.00 20.00     0.031 C 
HETATM    4  C5  UNL     1     -34.949  14.332  -5.580  1.00 20.00     0.130 C 
HETATM    5  C6  UNL     1     -34.444  14.298  -4.127  1.00 20.00     0.006 C 
HETATM    6  C7  UNL     1     -32.985  15.605  -5.185  1.00 20.00     0.087 C 
HETATM    7  N8  UNL     1     -33.990  15.244  -6.187  1.00 20.00    -0.354 N 
ENDROOT
BRANCH   7   8
HETATM    8  C1  UNL     1     -34.061  15.735  -7.463  1.00 20.00     0.351 C 
HETATM    9  O9  UNL     1     -34.896  16.511  -7.910  1.00 20.00    -0.284 OA
ENDBRANCH   7   8
TORSDOF 1
ENDMDL
