MODEL 1
REMARK VINA RESULT:      -4.8      0.000      0.000
REMARK  1 active torsions:
REMARK  status: ('A' for Active; 'I' for Inactive)
REMARK    1  A    between atoms: C1_1  and  N8_8 
ROOT
HETATM    1  C2  UNL     1     -34.039   7.160   6.109  1.00 20.00     0.022 C 
HETATM    2  C3  UNL     1     -34.332   5.728   5.671  1.00 20.00     0.032 C 
HETATM    3  C4  UNL     1     -32.991   7.607   5.107  1.00 20.00     0.126 C 
HETATM    4  C5  UNL     1     -34.270   5.792   4.128  1.00 20.00     0.027 C 
HETATM    5  C6  UNL     1     -33.743   4.465   3.570  1.00 20.00     0.038 C 
HETATM    6  C7  UNL     1     -35.653   6.099   3.538  1.00 20.00     0.038 C 
HETATM    7  N8  UNL     1     -33.341   6.910   3.879  1.00 20.00    -0.351 N 
ENDROOT
BRANCH   7   8
HETATM    8  C1  UNL     1     -32.871   7.304   2.647  1.00 20.00     0.351 C 
HETATM    9  O9  UNL     1     -31.955   8.088   2.423  1.00 20.00    -0.284 OA
ENDBRANCH   7   8
TORSDOF 1
ENDMDL
MODEL 2
REMARK VINA RESULT:      -4.0     11.655     12.460
REMARK  1 active torsions:
REMARK  status: ('A' for Active; 'I' for Inactive)
REMARK    1  A    between atoms: C1_1  and  N8_8 
ROOT
HETATM    1  C2  UNL     1     -34.820  16.246  -2.782  1.00 20.00     0.022 C 
HETATM    2  C3  UNL     1     -33.684  16.520  -3.763  1.00 20.00     0.032 C 
HETATM    3  C4  UNL     1     -35.893  15.646  -3.672  1.00 20.00     0.126 C 
HETATM    4  C5  UNL     1     -33.735  15.317  -4.733  1.00 20.00     0.027 C 
HETATM    5  C6  UNL     1     -33.300  15.757  -6.136  1.00 20.00     0.038 C 
HETATM    6  C7  UNL     1     -32.835  14.177  -4.236  1.00 20.00     0.038 C 
HETATM    7  N8  UNL     1     -35.153  14.915  -4.689  1.00 20.00    -0.351 N 
ENDROOT
BRANCH   7   8
HETATM    8  C1  UNL     1     -35.736  13.941  -5.469  1.00 20.00     0.351 C 
HETATM    9  O9  UNL     1     -35.878  12.757  -5.187  1.00 20.00    -0.284 OA
ENDBRANCH   7   8
TORSDOF 1
ENDMDL
MODEL 3
REMARK VINA RESULT:      -3.9      1.998      3.053
REMARK  1 active torsions:
REMARK  status: ('A' for Active; 'I' for Inactive)
REMARK    1  A    between atoms: C1_1  and  N8_8 
ROOT
HETATM    1  C2  UNL     1     -32.011   7.910   3.732  1.00 20.00     0.022 C 
HETATM    2  C3  UNL     1     -32.930   7.489   2.589  1.00 20.00     0.032 C 
HETATM    3  C4  UNL     1     -32.896   7.740   4.953  1.00 20.00     0.126 C 
HETATM    4  C5  UNL     1     -33.742   6.314   3.180  1.00 20.00     0.027 C 
HETATM    5  C6  UNL     1     -35.152   6.297   2.578  1.00 20.00     0.038 C 
HETATM    6  C7  UNL     1     -33.039   4.976   2.912  1.00 20.00     0.038 C 
HETATM    7  N8  UNL     1     -33.754   6.612   4.624  1.00 20.00    -0.351 N 
ENDROOT
BRANCH   7   8
HETATM    8  C1  UNL     1     -34.447   5.908   5.583  1.00 20.00     0.351 C 
HETATM    9  O9  UNL     1     -34.493   4.690   5.716  1.00 20.00    -0.284 OA
ENDBRANCH   7   8
TORSDOF 1
ENDMDL
MODEL 4
REMARK VINA RESULT:      -3.8     11.696     12.986
REMARK  1 active torsions:
REMARK  status: ('A' for Active; 'I' for Inactive)
REMARK    1  A    between atoms: C1_1  and  N8_8 
ROOT
HETATM    1  C2  UNL     1     -34.438  16.790  -6.414  1.00 20.00     0.022 C 
HETATM    2  C3  UNL     1     -33.271  16.332  -5.544  1.00 20.00     0.032 C 
HETATM    3  C4  UNL     1     -35.245  15.517  -6.586  1.00 20.00     0.126 C 
HETATM    4  C5  UNL     1     -33.912  15.319  -4.568  1.00 20.00     0.027 C 
HETATM    5  C6  UNL     1     -32.901  14.223  -4.212  1.00 20.00     0.038 C 
HETATM    6  C7  UNL     1     -34.397  16.022  -3.292  1.00 20.00     0.038 C 
HETATM    7  N8  UNL     1     -35.056  14.796  -5.337  1.00 20.00    -0.351 N 
ENDROOT
BRANCH   7   8
HETATM    8  C1  UNL     1     -35.893  13.777  -4.939  1.00 20.00     0.351 C 
HETATM    9  O9  UNL     1     -35.880  12.616  -5.332  1.00 20.00    -0.284 OA
ENDBRANCH   7   8
TORSDOF 1
ENDMDL
MODEL 5
REMARK VINA RESULT:      -3.8     12.229     13.528
REMARK  1 active torsions:
REMARK  status: ('A' for Active; 'I' for Inactive)
REMARK    1  A    between atoms: C1_1  and  N8_8 
ROOT
HETATM    1  C2  UNL     1     -32.941  15.722  -5.195  1.00 20.00     0.022 C 
HETATM    2  C3  UNL     1     -33.559  16.333  -6.449  1.00 20.00     0.032 C 
HETATM    3  C4  UNL     1     -34.145  15.131  -4.484  1.00 20.00     0.126 C 
HETATM    4  C5  UNL     1     -34.662  15.326  -6.847  1.00 20.00     0.027 C 
HETATM    5  C6  UNL     1     -35.838  16.067  -7.494  1.00 20.00     0.038 C 
HETATM    6  C7  UNL     1     -34.112  14.267  -7.812  1.00 20.00     0.038 C 
HETATM    7  N8  UNL     1     -35.030  14.712  -5.558  1.00 20.00    -0.351 N 
ENDROOT
BRANCH   7   8
HETATM    8  C1  UNL     1     -36.055  13.813  -5.361  1.00 20.00     0.351 C 
HETATM    9  O9  UNL     1     -35.956  12.599  -5.220  1.00 20.00    -0.284 OA
ENDBRANCH   7   8
TORSDOF 1
ENDMDL
MODEL 6
REMARK VINA RESULT:      -3.7     12.058     13.357
REMARK  1 active torsions:
REMARK  status: ('A' for Active; 'I' for Inactive)
REMARK    1  A    between atoms: C1_1  and  N8_8 
ROOT
HETATM    1  C2  UNL     1     -33.685  16.012  -7.054  1.00 20.00     0.022 C 
HETATM    2  C3  UNL     1     -33.523  16.531  -5.629  1.00 20.00     0.032 C 
HETATM    3  C4  UNL     1     -34.255  14.621  -6.840  1.00 20.00     0.126 C 
HETATM    4  C5  UNL     1     -34.760  15.972  -4.888  1.00 20.00     0.027 C 
HETATM    5  C6  UNL     1     -34.406  15.680  -3.425  1.00 20.00     0.038 C 
HETATM    6  C7  UNL     1     -35.932  16.961  -4.959  1.00 20.00     0.038 C 
HETATM    7  N8  UNL     1     -35.071  14.745  -5.643  1.00 20.00    -0.351 N 
ENDROOT
BRANCH   7   8
HETATM    8  C1  UNL     1     -36.039  13.822  -5.312  1.00 20.00     0.351 C 
HETATM    9  O9  UNL     1     -35.894  12.610  -5.197  1.00 20.00    -0.284 OA
ENDBRANCH   7   8
TORSDOF 1
ENDMDL
MODEL 7
REMARK VINA RESULT:      -3.7      1.465      1.474
REMARK  1 active torsions:
REMARK  status: ('A' for Active; 'I' for Inactive)
REMARK    1  A    between atoms: C1_1  and  N8_8 
ROOT
HETATM    1  C2  UNL     1     -33.688   7.791   5.489  1.00 20.00     0.022 C 
HETATM    2  C3  UNL     1     -34.322   6.459   5.876  1.00 20.00     0.032 C 
HETATM    3  C4  UNL     1     -32.680   7.384   4.430  1.00 20.00     0.126 C 
HETATM    4  C5  UNL     1     -34.411   5.687   4.540  1.00 20.00     0.027 C 
HETATM    5  C6  UNL     1     -34.240   4.184   4.791  1.00 20.00     0.038 C 
HETATM    6  C7  UNL     1     -35.752   5.955   3.842  1.00 20.00     0.038 C 
HETATM    7  N8  UNL     1     -33.297   6.252   3.757  1.00 20.00    -0.351 N 
ENDROOT
BRANCH   7   8
HETATM    8  C1  UNL     1     -32.886   5.818   2.516  1.00 20.00     0.351 C 
HETATM    9  O9  UNL     1     -32.855   4.661   2.113  1.00 20.00    -0.284 OA
ENDBRANCH   7   8
TORSDOF 1
ENDMDL
MODEL 8
REMARK VINA RESULT:      -3.6     12.014     12.650
REMARK  1 active torsions:
REMARK  status: ('A' for Active; 'I' for Inactive)
REMARK    1  A    between atoms: C1_1  and  N8_8 
ROOT
HETATM    1  C2  UNL     1     -33.659  15.675  -3.734  1.00 20.00     0.022 C 
HETATM    2  C3  UNL     1     -35.163  15.848  -3.543  1.00 20.00     0.032 C 
HETATM    3  C4  UNL     1     -33.572  14.406  -4.563  1.00 20.00     0.126 C 
HETATM    4  C5  UNL     1     -35.763  15.397  -4.894  1.00 20.00     0.027 C 
HETATM    5  C6  UNL     1     -37.133  14.747  -4.668  1.00 20.00     0.038 C 
HETATM    6  C7  UNL     1     -35.896  16.586  -5.856  1.00 20.00     0.038 C 
HETATM    7  N8  UNL     1     -34.765  14.435  -5.395  1.00 20.00    -0.351 N 
ENDROOT
BRANCH   7   8
HETATM    8  C1  UNL     1     -34.889  13.667  -6.532  1.00 20.00     0.351 C 
HETATM    9  O9  UNL     1     -35.063  12.455  -6.588  1.00 20.00    -0.284 OA
ENDBRANCH   7   8
TORSDOF 1
ENDMDL
MODEL 9
REMARK VINA RESULT:      -3.5     11.983     12.980
REMARK  1 active torsions:
REMARK  status: ('A' for Active; 'I' for Inactive)
REMARK    1  A    between atoms: C1_1  and  N8_8 
ROOT
HETATM    1  C2  UNL     1     -36.718  15.083  -4.370  1.00 20.00     0.022 C 
HETATM    2  C3  UNL     1     -35.521  16.008  -4.565  1.00 20.00     0.032 C 
HETATM    3  C4  UNL     1     -36.772  14.326  -5.685  1.00 20.00     0.126 C 
HETATM    4  C5  UNL     1     -34.512  15.147  -5.358  1.00 20.00     0.027 C 
HETATM    5  C6  UNL     1     -33.689  16.036  -6.297  1.00 20.00     0.038 C 
HETATM    6  C7  UNL     1     -33.581  14.383  -4.407  1.00 20.00     0.038 C 
HETATM    7  N8  UNL     1     -35.381  14.211  -6.094  1.00 20.00    -0.351 N 
ENDROOT
BRANCH   7   8
HETATM    8  C1  UNL     1     -34.962  13.295  -7.033  1.00 20.00     0.351 C 
HETATM    9  O9  UNL     1     -35.023  12.073  -6.950  1.00 20.00    -0.284 OA
ENDBRANCH   7   8
TORSDOF 1
ENDMDL
