MODEL 1
REMARK VINA RESULT:      -5.0      0.000      0.000
REMARK  2 active torsions:
REMARK  status: ('A' for Active; 'I' for Inactive)
REMARK    1  A    between atoms: C1_1  and  N11_11 
REMARK    2  A    between atoms: C7_7  and  C10_10 
ROOT
HETATM    1  C2  UNL     1     -33.363  16.161  -6.139  1.00 20.00     0.020 C 
HETATM    2  C3  UNL     1     -33.390  16.703  -4.709  1.00 20.00     0.006 C 
HETATM    3  C4  UNL     1     -34.707  14.664  -3.824  1.00 20.00     0.025 C 
HETATM    4  C5  UNL     1     -34.712  15.756  -6.717  1.00 20.00     0.125 C 
HETATM    5  C6  UNL     1     -35.657  14.251  -4.950  1.00 20.00     0.125 C 
HETATM    6  C7  UNL     1     -34.480  16.182  -3.755  1.00 20.00    -0.010 C 
HETATM    7  N11 UNL     1     -35.086  14.415  -6.279  1.00 20.00    -0.359 N 
ENDROOT
BRANCH   6   8
HETATM    8  C10 UNL     1     -34.121  16.594  -2.321  1.00 20.00    -0.019 C 
HETATM    9  C8  UNL     1     -33.216  17.821  -2.331  1.00 20.00     0.010 C 
HETATM   10  C9  UNL     1     -35.386  16.860  -1.512  1.00 20.00     0.010 C 
ENDBRANCH   6   8
BRANCH   7  11
HETATM   11  C1  UNL     1     -34.815  13.311  -7.079  1.00 20.00     0.350 C 
HETATM   12  O12 UNL     1     -35.076  12.137  -6.839  1.00 20.00    -0.284 OA
ENDBRANCH   7  11
TORSDOF 2
ENDMDL
MODEL 2
REMARK VINA RESULT:      -4.9      1.333      1.861
REMARK  2 active torsions:
REMARK  status: ('A' for Active; 'I' for Inactive)
REMARK    1  A    between atoms: C1_1  and  N11_11 
REMARK    2  A    between atoms: C7_7  and  C10_10 
ROOT
HETATM    1  C2  UNL     1     -33.395  14.938  -4.366  1.00 20.00     0.020 C 
HETATM    2  C3  UNL     1     -33.382  16.043  -3.309  1.00 20.00     0.006 C 
HETATM    3  C4  UNL     1     -35.961  16.186  -3.242  1.00 20.00     0.025 C 
HETATM    4  C5  UNL     1     -34.221  15.226  -5.612  1.00 20.00     0.125 C 
HETATM    5  C6  UNL     1     -36.438  15.924  -4.672  1.00 20.00     0.125 C 
HETATM    6  C7  UNL     1     -34.625  16.943  -3.183  1.00 20.00    -0.010 C 
HETATM    7  N11 UNL     1     -35.633  14.937  -5.379  1.00 20.00    -0.359 N 
ENDROOT
BRANCH   6   8
HETATM    8  C10 UNL     1     -34.530  17.739  -1.874  1.00 20.00    -0.019 C 
HETATM    9  C8  UNL     1     -35.395  17.093  -0.797  1.00 20.00     0.010 C 
HETATM   10  C9  UNL     1     -33.080  17.839  -1.417  1.00 20.00     0.010 C 
ENDBRANCH   6   8
BRANCH   7  11
HETATM   11  C1  UNL     1     -36.171  13.708  -5.742  1.00 20.00     0.350 C 
HETATM   12  O12 UNL     1     -35.908  12.610  -5.265  1.00 20.00    -0.284 OA
ENDBRANCH   7  11
TORSDOF 2
ENDMDL
MODEL 3
REMARK VINA RESULT:      -4.8      1.236      2.280
REMARK  2 active torsions:
REMARK  status: ('A' for Active; 'I' for Inactive)
REMARK    1  A    between atoms: C1_1  and  N11_11 
REMARK    2  A    between atoms: C7_7  and  C10_10 
ROOT
HETATM    1  C2  UNL     1     -36.475  15.311  -4.461  1.00 20.00     0.020 C 
HETATM    2  C3  UNL     1     -36.149  16.230  -3.283  1.00 20.00     0.006 C 
HETATM    3  C4  UNL     1     -33.629  16.278  -3.851  1.00 20.00     0.025 C 
HETATM    4  C5  UNL     1     -35.644  14.040  -4.557  1.00 20.00     0.125 C 
HETATM    5  C6  UNL     1     -33.290  14.889  -4.396  1.00 20.00     0.125 C 
HETATM    6  C7  UNL     1     -34.704  16.248  -2.753  1.00 20.00    -0.010 C 
HETATM    7  N11 UNL     1     -34.358  14.304  -5.196  1.00 20.00    -0.359 N 
ENDROOT
BRANCH   6   8
HETATM    8  C10 UNL     1     -34.533  17.453  -1.819  1.00 20.00    -0.019 C 
HETATM    9  C8  UNL     1     -35.328  17.246  -0.535  1.00 20.00     0.010 C 
HETATM   10  C9  UNL     1     -33.057  17.682  -1.512  1.00 20.00     0.010 C 
ENDBRANCH   6   8
BRANCH   7  11
HETATM   11  C1  UNL     1     -34.190  14.089  -6.559  1.00 20.00     0.350 C 
HETATM   12  O12 UNL     1     -34.405  13.055  -7.180  1.00 20.00    -0.284 OA
ENDBRANCH   7  11
TORSDOF 2
ENDMDL
MODEL 4
REMARK VINA RESULT:      -4.6     11.038     12.166
REMARK  2 active torsions:
REMARK  status: ('A' for Active; 'I' for Inactive)
REMARK    1  A    between atoms: C1_1  and  N11_11 
REMARK    2  A    between atoms: C7_7  and  C10_10 
ROOT
HETATM    1  C2  UNL     1     -33.855   5.679   2.523  1.00 20.00     0.020 C 
HETATM    2  C3  UNL     1     -33.136   6.852   1.854  1.00 20.00     0.006 C 
HETATM    3  C4  UNL     1     -32.526   7.937   4.118  1.00 20.00     0.025 C 
HETATM    4  C5  UNL     1     -34.913   6.053   3.551  1.00 20.00     0.125 C 
HETATM    5  C6  UNL     1     -33.700   7.650   5.056  1.00 20.00     0.125 C 
HETATM    6  C7  UNL     1     -32.960   8.152   2.659  1.00 20.00    -0.010 C 
HETATM    7  N11 UNL     1     -34.303   6.341   4.846  1.00 20.00    -0.359 N 
ENDROOT
BRANCH   6   8
HETATM    8  C10 UNL     1     -31.946   9.050   1.937  1.00 20.00    -0.019 C 
HETATM    9  C8  UNL     1     -31.366   8.328   0.726  1.00 20.00     0.010 C 
HETATM   10  C9  UNL     1     -32.599  10.364   1.524  1.00 20.00     0.010 C 
ENDBRANCH   6   8
BRANCH   7  11
HETATM   11  C1  UNL     1     -34.218   5.354   5.821  1.00 20.00     0.350 C 
HETATM   12  O12 UNL     1     -34.432   4.155   5.686  1.00 20.00    -0.284 OA
ENDBRANCH   7  11
TORSDOF 2
ENDMDL
MODEL 5
REMARK VINA RESULT:      -4.4      4.273      6.321
REMARK  2 active torsions:
REMARK  status: ('A' for Active; 'I' for Inactive)
REMARK    1  A    between atoms: C1_1  and  N11_11 
REMARK    2  A    between atoms: C7_7  and  C10_10 
ROOT
HETATM    1  C2  UNL     1     -35.102  17.770   0.444  1.00 20.00     0.020 C 
HETATM    2  C3  UNL     1     -35.646  17.040  -0.785  1.00 20.00     0.006 C 
HETATM    3  C4  UNL     1     -33.381  17.162  -2.021  1.00 20.00     0.025 C 
HETATM    4  C5  UNL     1     -34.401  19.093   0.169  1.00 20.00     0.125 C 
HETATM    5  C6  UNL     1     -32.751  18.498  -1.623  1.00 20.00     0.125 C 
HETATM    6  C7  UNL     1     -34.913  17.227  -2.125  1.00 20.00    -0.010 C 
HETATM    7  N11 UNL     1     -33.016  18.874  -0.241  1.00 20.00    -0.359 N 
ENDROOT
BRANCH   6   8
HETATM    8  C10 UNL     1     -35.416  16.169  -3.117  1.00 20.00    -0.019 C 
HETATM    9  C8  UNL     1     -36.226  16.826  -4.228  1.00 20.00     0.010 C 
HETATM   10  C9  UNL     1     -34.245  15.380  -3.692  1.00 20.00     0.010 C 
ENDBRANCH   6   8
BRANCH   7  11
HETATM   11  C1  UNL     1     -31.987  18.933   0.691  1.00 20.00     0.350 C 
HETATM   12  O12 UNL     1     -30.836  18.536   0.553  1.00 20.00    -0.284 OA
ENDBRANCH   7  11
TORSDOF 2
ENDMDL
MODEL 6
REMARK VINA RESULT:      -4.0      3.069      5.110
REMARK  2 active torsions:
REMARK  status: ('A' for Active; 'I' for Inactive)
REMARK    1  A    between atoms: C1_1  and  N11_11 
REMARK    2  A    between atoms: C7_7  and  C10_10 
ROOT
HETATM    1  C2  UNL     1     -35.040  16.279  -2.702  1.00 20.00     0.020 C 
HETATM    2  C3  UNL     1     -35.073  15.206  -3.791  1.00 20.00     0.006 C 
HETATM    3  C4  UNL     1     -33.343  16.452  -5.250  1.00 20.00     0.025 C 
HETATM    4  C5  UNL     1     -35.261  17.708  -3.176  1.00 20.00     0.125 C 
HETATM    5  C6  UNL     1     -33.616  17.944  -5.053  1.00 20.00     0.125 C 
HETATM    6  C7  UNL     1     -34.619  15.596  -5.209  1.00 20.00    -0.010 C 
HETATM    7  N11 UNL     1     -34.024  18.283  -3.696  1.00 20.00    -0.359 N 
ENDROOT
BRANCH   6   8
HETATM    8  C10 UNL     1     -34.420  14.318  -6.035  1.00 20.00    -0.019 C 
HETATM    9  C8  UNL     1     -35.683  13.464  -6.004  1.00 20.00     0.010 C 
HETATM   10  C9  UNL     1     -34.036  14.666  -7.468  1.00 20.00     0.010 C 
ENDBRANCH   6   8
BRANCH   7  11
HETATM   11  C1  UNL     1     -33.210  19.060  -2.881  1.00 20.00     0.350 C 
HETATM   12  O12 UNL     1     -32.459  18.672  -1.992  1.00 20.00    -0.284 OA
ENDBRANCH   7  11
TORSDOF 2
ENDMDL
MODEL 7
REMARK VINA RESULT:      -4.0      1.603      2.114
REMARK  2 active torsions:
REMARK  status: ('A' for Active; 'I' for Inactive)
REMARK    1  A    between atoms: C1_1  and  N11_11 
REMARK    2  A    between atoms: C7_7  and  C10_10 
ROOT
HETATM    1  C2  UNL     1     -33.848  15.211  -4.018  1.00 20.00     0.020 C 
HETATM    2  C3  UNL     1     -34.268  16.405  -3.161  1.00 20.00     0.006 C 
HETATM    3  C4  UNL     1     -36.719  16.289  -3.970  1.00 20.00     0.025 C 
HETATM    4  C5  UNL     1     -34.218  15.293  -5.493  1.00 20.00     0.125 C 
HETATM    5  C6  UNL     1     -36.663  15.846  -5.433  1.00 20.00     0.125 C 
HETATM    6  C7  UNL     1     -35.535  17.181  -3.565  1.00 20.00    -0.010 C 
HETATM    7  N11 UNL     1     -35.604  14.884  -5.707  1.00 20.00    -0.359 N 
ENDROOT
BRANCH   6   8
HETATM    8  C10 UNL     1     -35.943  18.102  -2.408  1.00 20.00    -0.019 C 
HETATM    9  C8  UNL     1     -37.410  18.496  -2.535  1.00 20.00     0.010 C 
HETATM   10  C9  UNL     1     -35.679  17.422  -1.069  1.00 20.00     0.010 C 
ENDBRANCH   6   8
BRANCH   7  11
HETATM   11  C1  UNL     1     -35.905  13.579  -6.073  1.00 20.00     0.350 C 
HETATM   12  O12 UNL     1     -35.766  12.565  -5.398  1.00 20.00    -0.284 OA
ENDBRANCH   7  11
TORSDOF 2
ENDMDL
MODEL 8
REMARK VINA RESULT:      -3.9      2.530      3.535
REMARK  2 active torsions:
REMARK  status: ('A' for Active; 'I' for Inactive)
REMARK    1  A    between atoms: C1_1  and  N11_11 
REMARK    2  A    between atoms: C7_7  and  C10_10 
ROOT
HETATM    1  C2  UNL     1     -33.638  16.284  -3.222  1.00 20.00     0.020 C 
HETATM    2  C3  UNL     1     -33.341  17.226  -2.055  1.00 20.00     0.006 C 
HETATM    3  C4  UNL     1     -35.833  17.403  -1.395  1.00 20.00     0.025 C 
HETATM    4  C5  UNL     1     -34.702  16.760  -4.201  1.00 20.00     0.125 C 
HETATM    5  C6  UNL     1     -36.624  17.355  -2.704  1.00 20.00     0.125 C 
HETATM    6  C7  UNL     1     -34.481  18.120  -1.535  1.00 20.00    -0.010 C 
HETATM    7  N11 UNL     1     -36.042  16.465  -3.699  1.00 20.00    -0.359 N 
ENDROOT
BRANCH   6   8
HETATM    8  C10 UNL     1     -34.063  18.720  -0.185  1.00 20.00    -0.019 C 
HETATM    9  C8  UNL     1     -34.810  18.035   0.954  1.00 20.00     0.010 C 
HETATM   10  C9  UNL     1     -32.556  18.601   0.007  1.00 20.00     0.010 C 
ENDBRANCH   6   8
BRANCH   7  11
HETATM   11  C1  UNL     1     -36.705  15.310  -4.096  1.00 20.00     0.350 C 
HETATM   12  O12 UNL     1     -37.905  15.177  -4.309  1.00 20.00    -0.284 OA
ENDBRANCH   7  11
TORSDOF 2
ENDMDL
MODEL 9
REMARK VINA RESULT:      -3.9      1.865      2.959
REMARK  2 active torsions:
REMARK  status: ('A' for Active; 'I' for Inactive)
REMARK    1  A    between atoms: C1_1  and  N11_11 
REMARK    2  A    between atoms: C7_7  and  C10_10 
ROOT
HETATM    1  C2  UNL     1     -33.053  16.617  -3.368  1.00 20.00     0.020 C 
HETATM    2  C3  UNL     1     -33.219  17.555  -2.172  1.00 20.00     0.006 C 
HETATM    3  C4  UNL     1     -35.614  16.719  -1.684  1.00 20.00     0.025 C 
HETATM    4  C5  UNL     1     -34.159  16.677  -4.413  1.00 20.00     0.125 C 
HETATM    5  C6  UNL     1     -36.244  16.417  -3.046  1.00 20.00     0.125 C 
HETATM    6  C7  UNL     1     -34.646  17.912  -1.721  1.00 20.00    -0.010 C 
HETATM    7  N11 UNL     1     -35.302  15.864  -4.009  1.00 20.00    -0.359 N 
ENDROOT
BRANCH   6   8
HETATM    8  C10 UNL     1     -34.578  18.574  -0.338  1.00 20.00    -0.019 C 
HETATM    9  C8  UNL     1     -35.406  17.784   0.670  1.00 20.00     0.010 C 
HETATM   10  C9  UNL     1     -33.131  18.693   0.124  1.00 20.00     0.010 C 
ENDBRANCH   6   8
BRANCH   7  11
HETATM   11  C1  UNL     1     -35.435  14.558  -4.465  1.00 20.00     0.350 C 
HETATM   12  O12 UNL     1     -34.658  13.626  -4.290  1.00 20.00    -0.284 OA
ENDBRANCH   7  11
TORSDOF 2
ENDMDL
