MODEL 1
REMARK VINA RESULT:      -5.3      0.000      0.000
REMARK  1 active torsions:
REMARK  status: ('A' for Active; 'I' for Inactive)
REMARK    1  A    between atoms: C6_6  and  C7_7 
ROOT
HETATM    1  C1  UNL     1     -32.393   9.531   1.396  1.00 20.00     0.065 C 
HETATM    2  C7  UNL     1     -31.791   8.225   1.705  1.00 20.00     0.186 C 
HETATM    3  N8  UNL     1     -32.867  10.561   1.150  1.00 20.00    -0.197 NA
ENDROOT
BRANCH   2   4
HETATM    4  C6  UNL     1     -32.582   7.519   2.757  1.00 20.00     0.085 A 
HETATM    5  C4  UNL     1     -32.398   7.855   4.088  1.00 20.00     0.143 A 
HETATM    6  C2  UNL     1     -33.151   7.176   5.041  1.00 20.00     0.069 A 
HETATM    7  F10 UNL     1     -31.527   8.802   4.457  1.00 20.00    -0.204 F 
HETATM    8  C5  UNL     1     -34.050   6.196   4.637  1.00 20.00     0.054 A 
HETATM    9  C3  UNL     1     -34.161   5.934   3.281  1.00 20.00     0.141 A 
HETATM   10 CL11 UNL     1     -34.996   5.339   5.782  1.00 20.00    -0.083 Cl
HETATM   11  N9  UNL     1     -33.446   6.573   2.327  1.00 20.00    -0.260 NA
ENDBRANCH   2   4
TORSDOF 1
ENDMDL
MODEL 2
REMARK VINA RESULT:      -4.9      1.672      2.041
REMARK  1 active torsions:
REMARK  status: ('A' for Active; 'I' for Inactive)
REMARK    1  A    between atoms: C6_6  and  C7_7 
ROOT
HETATM    1  C1  UNL     1     -32.526   9.377   1.493  1.00 20.00     0.065 C 
HETATM    2  C7  UNL     1     -31.891   8.129   1.941  1.00 20.00     0.186 C 
HETATM    3  N8  UNL     1     -33.026  10.362   1.139  1.00 20.00    -0.197 NA
ENDROOT
BRANCH   2   4
HETATM    4  C6  UNL     1     -32.695   7.490   3.024  1.00 20.00     0.085 A 
HETATM    5  C4  UNL     1     -33.622   6.513   2.699  1.00 20.00     0.143 A 
HETATM    6  C2  UNL     1     -34.353   5.940   3.735  1.00 20.00     0.069 A 
HETATM    7  F10 UNL     1     -33.814   6.125   1.433  1.00 20.00    -0.204 F 
HETATM    8  C5  UNL     1     -34.137   6.356   5.043  1.00 20.00     0.054 A 
HETATM    9  C3  UNL     1     -33.186   7.340   5.264  1.00 20.00     0.141 A 
HETATM   10 CL11 UNL     1     -35.019   5.672   6.345  1.00 20.00    -0.083 Cl
HETATM   11  N9  UNL     1     -32.457   7.920   4.284  1.00 20.00    -0.260 NA
ENDBRANCH   2   4
TORSDOF 1
ENDMDL
MODEL 3
REMARK VINA RESULT:      -4.7      3.112      4.728
REMARK  1 active torsions:
REMARK  status: ('A' for Active; 'I' for Inactive)
REMARK    1  A    between atoms: C6_6  and  C7_7 
ROOT
HETATM    1  C1  UNL     1     -34.422   5.380   5.583  1.00 20.00     0.065 C 
HETATM    2  C7  UNL     1     -34.058   6.801   5.680  1.00 20.00     0.186 C 
HETATM    3  N8  UNL     1     -34.711   4.259   5.507  1.00 20.00    -0.197 NA
ENDROOT
BRANCH   2   4
HETATM    4  C6  UNL     1     -33.375   7.255   4.433  1.00 20.00     0.085 A 
HETATM    5  C4  UNL     1     -33.907   6.910   3.201  1.00 20.00     0.143 A 
HETATM    6  C2  UNL     1     -33.244   7.350   2.060  1.00 20.00     0.069 A 
HETATM    7  F10 UNL     1     -35.023   6.179   3.101  1.00 20.00    -0.204 F 
HETATM    8  C5  UNL     1     -32.086   8.110   2.186  1.00 20.00     0.054 A 
HETATM    9  C3  UNL     1     -31.636   8.402   3.463  1.00 20.00     0.141 A 
HETATM   10 CL11 UNL     1     -31.242   8.670   0.802  1.00 20.00    -0.083 Cl
HETATM   11  N9  UNL     1     -32.253   7.992   4.595  1.00 20.00    -0.260 NA
ENDBRANCH   2   4
TORSDOF 1
ENDMDL
MODEL 4
REMARK VINA RESULT:      -4.6      2.716      4.334
REMARK  1 active torsions:
REMARK  status: ('A' for Active; 'I' for Inactive)
REMARK    1  A    between atoms: C6_6  and  C7_7 
ROOT
HETATM    1  C1  UNL     1     -34.470   4.705   4.777  1.00 20.00     0.065 C 
HETATM    2  C7  UNL     1     -34.427   6.150   5.043  1.00 20.00     0.186 C 
HETATM    3  N8  UNL     1     -34.506   3.564   4.568  1.00 20.00    -0.197 NA
ENDROOT
BRANCH   2   4
HETATM    4  C6  UNL     1     -33.604   6.849   4.012  1.00 20.00     0.085 A 
HETATM    5  C4  UNL     1     -32.668   7.790   4.411  1.00 20.00     0.143 A 
HETATM    6  C2  UNL     1     -31.919   8.421   3.423  1.00 20.00     0.069 A 
HETATM    7  F10 UNL     1     -32.481   8.087   5.702  1.00 20.00    -0.204 F 
HETATM    8  C5  UNL     1     -32.128   8.098   2.087  1.00 20.00     0.054 A 
HETATM    9  C3  UNL     1     -33.088   7.143   1.792  1.00 20.00     0.141 A 
HETATM   10 CL11 UNL     1     -31.224   8.856   0.843  1.00 20.00    -0.083 Cl
HETATM   11  N9  UNL     1     -33.835   6.508   2.724  1.00 20.00    -0.260 NA
ENDBRANCH   2   4
TORSDOF 1
ENDMDL
MODEL 5
REMARK VINA RESULT:      -4.4     11.023     11.425
REMARK  1 active torsions:
REMARK  status: ('A' for Active; 'I' for Inactive)
REMARK    1  A    between atoms: C6_6  and  C7_7 
ROOT
HETATM    1  C1  UNL     1     -35.742  13.966  -5.322  1.00 20.00     0.065 C 
HETATM    2  C7  UNL     1     -35.614  15.426  -5.438  1.00 20.00     0.186 C 
HETATM    3  N8  UNL     1     -35.843  12.813  -5.231  1.00 20.00    -0.197 NA
ENDROOT
BRANCH   2   4
HETATM    4  C6  UNL     1     -35.211  16.024  -4.131  1.00 20.00     0.085 A 
HETATM    5  C4  UNL     1     -33.867  16.209  -3.852  1.00 20.00     0.143 A 
HETATM    6  C2  UNL     1     -33.529  16.769  -2.624  1.00 20.00     0.069 A 
HETATM    7  F10 UNL     1     -32.916  15.867  -4.729  1.00 20.00    -0.204 F 
HETATM    8  C5  UNL     1     -34.531  17.119  -1.727  1.00 20.00     0.054 A 
HETATM    9  C3  UNL     1     -35.846  16.893  -2.101  1.00 20.00     0.141 A 
HETATM   10 CL11 UNL     1     -34.152  17.811  -0.204  1.00 20.00    -0.083 Cl
HETATM   11  N9  UNL     1     -36.213  16.352  -3.285  1.00 20.00    -0.260 NA
ENDBRANCH   2   4
TORSDOF 1
ENDMDL
MODEL 6
REMARK VINA RESULT:      -4.4     11.137     11.616
REMARK  1 active torsions:
REMARK  status: ('A' for Active; 'I' for Inactive)
REMARK    1  A    between atoms: C6_6  and  C7_7 
ROOT
HETATM    1  C1  UNL     1     -34.972  13.612  -6.717  1.00 20.00     0.065 C 
HETATM    2  C7  UNL     1     -34.831  15.074  -6.660  1.00 20.00     0.186 C 
HETATM    3  N8  UNL     1     -35.082  12.458  -6.763  1.00 20.00    -0.197 NA
ENDROOT
BRANCH   2   4
HETATM    4  C6  UNL     1     -34.870  15.552  -5.246  1.00 20.00     0.085 A 
HETATM    5  C4  UNL     1     -33.682  15.772  -4.569  1.00 20.00     0.143 A 
HETATM    6  C2  UNL     1     -33.757  16.216  -3.253  1.00 20.00     0.069 A 
HETATM    7  F10 UNL     1     -32.496  15.568  -5.153  1.00 20.00    -0.204 F 
HETATM    8  C5  UNL     1     -34.999  16.422  -2.664  1.00 20.00     0.054 A 
HETATM    9  C3  UNL     1     -36.129  16.173  -3.427  1.00 20.00     0.141 A 
HETATM   10 CL11 UNL     1     -35.130  16.969  -1.044  1.00 20.00    -0.083 Cl
HETATM   11  N9  UNL     1     -36.096  15.741  -4.708  1.00 20.00    -0.260 NA
ENDBRANCH   2   4
TORSDOF 1
ENDMDL
MODEL 7
REMARK VINA RESULT:      -4.2     11.099     11.502
REMARK  1 active torsions:
REMARK  status: ('A' for Active; 'I' for Inactive)
REMARK    1  A    between atoms: C6_6  and  C7_7 
ROOT
HETATM    1  C1  UNL     1     -35.634  13.920  -5.340  1.00 20.00     0.065 C 
HETATM    2  C7  UNL     1     -35.363  15.357  -5.491  1.00 20.00     0.186 C 
HETATM    3  N8  UNL     1     -35.847  12.786  -5.222  1.00 20.00    -0.197 NA
ENDROOT
BRANCH   2   4
HETATM    4  C6  UNL     1     -35.086  15.982  -4.163  1.00 20.00     0.085 A 
HETATM    5  C4  UNL     1     -36.144  16.315  -3.333  1.00 20.00     0.143 A 
HETATM    6  C2  UNL     1     -35.849  16.895  -2.104  1.00 20.00     0.069 A 
HETATM    7  F10 UNL     1     -37.413  16.088  -3.692  1.00 20.00    -0.204 F 
HETATM    8  C5  UNL     1     -34.524  17.122  -1.750  1.00 20.00     0.054 A 
HETATM    9  C3  UNL     1     -33.538  16.752  -2.651  1.00 20.00     0.141 A 
HETATM   10 CL11 UNL     1     -34.122  17.834  -0.243  1.00 20.00    -0.083 Cl
HETATM   11  N9  UNL     1     -33.786  16.186  -3.853  1.00 20.00    -0.260 NA
ENDBRANCH   2   4
TORSDOF 1
ENDMDL
MODEL 8
REMARK VINA RESULT:      -4.1     11.033     11.458
REMARK  1 active torsions:
REMARK  status: ('A' for Active; 'I' for Inactive)
REMARK    1  A    between atoms: C6_6  and  C7_7 
ROOT
HETATM    1  C1  UNL     1     -31.729  19.006   1.207  1.00 20.00     0.065 C 
HETATM    2  C7  UNL     1     -33.178  19.176   1.028  1.00 20.00     0.186 C 
HETATM    3  N8  UNL     1     -30.585  18.873   1.350  1.00 20.00    -0.197 NA
ENDROOT
BRANCH   2   4
HETATM    4  C6  UNL     1     -33.673  18.317  -0.089  1.00 20.00     0.085 A 
HETATM    5  C4  UNL     1     -34.929  17.740   0.001  1.00 20.00     0.143 A 
HETATM    6  C2  UNL     1     -35.357  16.946  -1.058  1.00 20.00     0.069 A 
HETATM    7  F10 UNL     1     -35.714  17.935   1.067  1.00 20.00    -0.204 F 
HETATM    8  C5  UNL     1     -34.527  16.756  -2.157  1.00 20.00     0.054 A 
HETATM    9  C3  UNL     1     -33.288  17.378  -2.150  1.00 20.00     0.141 A 
HETATM   10 CL11 UNL     1     -35.021  15.784  -3.480  1.00 20.00    -0.083 Cl
HETATM   11  N9  UNL     1     -32.838  18.156  -1.140  1.00 20.00    -0.260 NA
ENDBRANCH   2   4
TORSDOF 1
ENDMDL
MODEL 9
REMARK VINA RESULT:      -4.1     11.180     11.578
REMARK  1 active torsions:
REMARK  status: ('A' for Active; 'I' for Inactive)
REMARK    1  A    between atoms: C6_6  and  C7_7 
ROOT
HETATM    1  C1  UNL     1     -33.504  17.649  -1.954  1.00 20.00     0.065 C 
HETATM    2  C7  UNL     1     -34.621  16.695  -2.014  1.00 20.00     0.186 C 
HETATM    3  N8  UNL     1     -32.623  18.403  -1.905  1.00 20.00    -0.197 NA
ENDROOT
BRANCH   2   4
HETATM    4  C6  UNL     1     -34.582  15.921  -3.290  1.00 20.00     0.085 A 
HETATM    5  C4  UNL     1     -35.769  15.570  -3.911  1.00 20.00     0.143 A 
HETATM    6  C2  UNL     1     -35.695  14.849  -5.098  1.00 20.00     0.069 A 
HETATM    7  F10 UNL     1     -36.956  15.911  -3.394  1.00 20.00    -0.204 F 
HETATM    8  C5  UNL     1     -34.453  14.505  -5.619  1.00 20.00     0.054 A 
HETATM    9  C3  UNL     1     -33.323  14.904  -4.921  1.00 20.00     0.141 A 
HETATM   10 CL11 UNL     1     -34.322  13.618  -7.080  1.00 20.00    -0.083 Cl
HETATM   11  N9  UNL     1     -33.356  15.605  -3.766  1.00 20.00    -0.260 NA
ENDBRANCH   2   4
TORSDOF 1
ENDMDL
