MODEL 1
REMARK VINA RESULT:      -5.2      0.000      0.000
REMARK  4 active torsions:
REMARK  status: ('A' for Active; 'I' for Inactive)
REMARK    1  A    between atoms: C3_3  and  C5_5 
REMARK    2  A    between atoms: C5_5  and  N8_8 
REMARK    3  A    between atoms: C6_6  and  C7_7 
REMARK    4  A    between atoms: C7_7  and  N8_8 
ROOT
HETATM    1  N8  UNL     1     -32.057   7.830   3.420  1.00 20.00     0.089 N 
HETATM    2  H23 UNL     1     -32.023   8.670   4.001  1.00 20.00     0.316 HD
ENDROOT
BRANCH   1   3
HETATM    3  C5  UNL     1     -31.791   8.205   2.034  1.00 20.00     0.274 C 
BRANCH   3   4
HETATM    4  C3  UNL     1     -32.855   9.106   1.507  1.00 20.00     0.014 A 
HETATM    5  C1  UNL     1     -32.520  10.512   1.093  1.00 20.00     0.007 A 
HETATM    6  C2  UNL     1     -32.872   9.486   0.053  1.00 20.00     0.007 A 
ENDBRANCH   3   4
ENDBRANCH   1   3
BRANCH   1   7
HETATM    7  C7  UNL     1     -33.352   7.195   3.554  1.00 20.00     0.230 C 
HETATM    8  C4  UNL     1     -33.318   5.826   2.882  1.00 20.00     0.043 C 
BRANCH   7   9
HETATM    9  C6  UNL     1     -33.763   7.147   5.026  1.00 20.00     0.149 C 
HETATM   10 CL9  UNL     1     -34.571   5.626   5.485  1.00 20.00    -0.128 Cl
ENDBRANCH   7   9
ENDBRANCH   1   7
TORSDOF 4
ENDMDL
MODEL 2
REMARK VINA RESULT:      -5.1      1.334      1.848
REMARK  4 active torsions:
REMARK  status: ('A' for Active; 'I' for Inactive)
REMARK    1  A    between atoms: C3_3  and  C5_5 
REMARK    2  A    between atoms: C5_5  and  N8_8 
REMARK    3  A    between atoms: C6_6  and  C7_7 
REMARK    4  A    between atoms: C7_7  and  N8_8 
ROOT
HETATM    1  N8  UNL     1     -33.675   7.714   3.475  1.00 20.00     0.089 N 
HETATM    2  H23 UNL     1     -34.581   7.731   3.002  1.00 20.00     0.316 HD
ENDROOT
BRANCH   1   3
HETATM    3  C5  UNL     1     -32.631   7.467   2.486  1.00 20.00     0.274 C 
BRANCH   3   4
HETATM    4  C3  UNL     1     -31.970   8.737   2.071  1.00 20.00     0.014 A 
HETATM    5  C1  UNL     1     -31.637   8.982   0.625  1.00 20.00     0.007 A 
HETATM    6  C2  UNL     1     -32.735   9.767   1.287  1.00 20.00     0.007 A 
ENDBRANCH   3   4
ENDBRANCH   1   3
BRANCH   1   7
HETATM    7  C7  UNL     1     -33.679   6.692   4.501  1.00 20.00     0.230 C 
HETATM    8  C4  UNL     1     -33.725   7.351   5.875  1.00 20.00     0.043 C 
BRANCH   7   9
HETATM    9  C6  UNL     1     -34.822   5.705   4.253  1.00 20.00     0.149 C 
HETATM   10 CL9  UNL     1     -34.321   3.998   4.372  1.00 20.00    -0.128 Cl
ENDBRANCH   7   9
ENDBRANCH   1   7
TORSDOF 4
ENDMDL
MODEL 3
REMARK VINA RESULT:      -5.1      1.254      1.424
REMARK  4 active torsions:
REMARK  status: ('A' for Active; 'I' for Inactive)
REMARK    1  A    between atoms: C3_3  and  C5_5 
REMARK    2  A    between atoms: C5_5  and  N8_8 
REMARK    3  A    between atoms: C6_6  and  C7_7 
REMARK    4  A    between atoms: C7_7  and  N8_8 
ROOT
HETATM    1  N8  UNL     1     -33.649   7.510   3.320  1.00 20.00     0.089 N 
HETATM    2  H23 UNL     1     -34.265   8.081   2.738  1.00 20.00     0.316 HD
ENDROOT
BRANCH   1   3
HETATM    3  C5  UNL     1     -32.345   7.413   2.672  1.00 20.00     0.274 C 
BRANCH   3   4
HETATM    4  C3  UNL     1     -31.896   8.741   2.164  1.00 20.00     0.014 A 
HETATM    5  C1  UNL     1     -31.558   8.923   0.710  1.00 20.00     0.007 A 
HETATM    6  C2  UNL     1     -32.797   9.556   1.279  1.00 20.00     0.007 A 
ENDBRANCH   3   4
ENDBRANCH   1   3
BRANCH   1   7
HETATM    7  C7  UNL     1     -34.237   6.200   3.514  1.00 20.00     0.230 C 
HETATM    8  C4  UNL     1     -33.356   5.145   2.853  1.00 20.00     0.043 C 
BRANCH   7   9
HETATM    9  C6  UNL     1     -34.483   5.951   5.003  1.00 20.00     0.149 C 
HETATM   10 CL9  UNL     1     -33.820   7.231   6.052  1.00 20.00    -0.128 Cl
ENDBRANCH   7   9
ENDBRANCH   1   7
TORSDOF 4
ENDMDL
MODEL 4
REMARK VINA RESULT:      -5.0      2.761      4.826
REMARK  4 active torsions:
REMARK  status: ('A' for Active; 'I' for Inactive)
REMARK    1  A    between atoms: C3_3  and  C5_5 
REMARK    2  A    between atoms: C5_5  and  N8_8 
REMARK    3  A    between atoms: C6_6  and  C7_7 
REMARK    4  A    between atoms: C7_7  and  N8_8 
ROOT
HETATM    1  N8  UNL     1     -33.305   7.255   2.193  1.00 20.00     0.089 N 
HETATM    2  H23 UNL     1     -34.294   7.506   2.133  1.00 20.00     0.316 HD
ENDROOT
BRANCH   1   3
HETATM    3  C5  UNL     1     -33.115   6.351   3.324  1.00 20.00     0.274 C 
BRANCH   3   4
HETATM    4  C3  UNL     1     -34.412   6.042   3.990  1.00 20.00     0.014 A 
HETATM    5  C1  UNL     1     -34.634   4.700   4.631  1.00 20.00     0.007 A 
HETATM    6  C2  UNL     1     -34.484   5.926   5.487  1.00 20.00     0.007 A 
ENDBRANCH   3   4
ENDBRANCH   1   3
BRANCH   1   7
HETATM    7  C7  UNL     1     -32.505   8.453   2.338  1.00 20.00     0.230 C 
HETATM    8  C4  UNL     1     -31.495   8.256   3.464  1.00 20.00     0.043 C 
BRANCH   7   9
HETATM    9  C6  UNL     1     -31.867   8.824   0.998  1.00 20.00     0.149 C 
HETATM   10 CL9  UNL     1     -33.005   9.599  -0.136  1.00 20.00    -0.128 Cl
ENDBRANCH   7   9
ENDBRANCH   1   7
TORSDOF 4
ENDMDL
MODEL 5
REMARK VINA RESULT:      -4.5      1.883      4.364
REMARK  4 active torsions:
REMARK  status: ('A' for Active; 'I' for Inactive)
REMARK    1  A    between atoms: C3_3  and  C5_5 
REMARK    2  A    between atoms: C5_5  and  N8_8 
REMARK    3  A    between atoms: C6_6  and  C7_7 
REMARK    4  A    between atoms: C7_7  and  N8_8 
ROOT
HETATM    1  N8  UNL     1     -33.568   7.437   2.859  1.00 20.00     0.089 N 
HETATM    2  H23 UNL     1     -33.741   7.815   3.792  1.00 20.00     0.316 HD
ENDROOT
BRANCH   1   3
HETATM    3  C5  UNL     1     -33.682   5.982   2.910  1.00 20.00     0.274 C 
BRANCH   3   4
HETATM    4  C3  UNL     1     -34.743   5.559   3.869  1.00 20.00     0.014 A 
HETATM    5  C1  UNL     1     -34.535   4.356   4.746  1.00 20.00     0.007 A 
HETATM    6  C2  UNL     1     -34.538   5.733   5.348  1.00 20.00     0.007 A 
ENDBRANCH   3   4
ENDBRANCH   1   3
BRANCH   1   7
HETATM    7  C7  UNL     1     -32.255   7.845   2.403  1.00 20.00     0.230 C 
HETATM    8  C4  UNL     1     -32.401   8.927   1.338  1.00 20.00     0.043 C 
BRANCH   7   9
HETATM    9  C6  UNL     1     -31.394   8.267   3.595  1.00 20.00     0.149 C 
HETATM   10 CL9  UNL     1     -32.303   8.359   5.126  1.00 20.00    -0.128 Cl
ENDBRANCH   7   9
ENDBRANCH   1   7
TORSDOF 4
ENDMDL
MODEL 6
REMARK VINA RESULT:      -4.5      2.687      4.720
REMARK  4 active torsions:
REMARK  status: ('A' for Active; 'I' for Inactive)
REMARK    1  A    between atoms: C3_3  and  C5_5 
REMARK    2  A    between atoms: C5_5  and  N8_8 
REMARK    3  A    between atoms: C6_6  and  C7_7 
REMARK    4  A    between atoms: C7_7  and  N8_8 
ROOT
HETATM    1  N8  UNL     1     -33.072   7.876   2.168  1.00 20.00     0.089 N 
HETATM    2  H23 UNL     1     -34.042   8.199   2.181  1.00 20.00     0.316 HD
ENDROOT
BRANCH   1   3
HETATM    3  C5  UNL     1     -32.733   7.349   3.486  1.00 20.00     0.274 C 
BRANCH   3   4
HETATM    4  C3  UNL     1     -33.927   7.323   4.379  1.00 20.00     0.014 A 
HETATM    5  C1  UNL     1     -34.300   6.061   5.108  1.00 20.00     0.007 A 
HETATM    6  C2  UNL     1     -33.755   7.236   5.870  1.00 20.00     0.007 A 
ENDBRANCH   3   4
ENDBRANCH   1   3
BRANCH   1   7
HETATM    7  C7  UNL     1     -32.198   8.970   1.798  1.00 20.00     0.230 C 
HETATM    8  C4  UNL     1     -31.057   8.440   0.937  1.00 20.00     0.043 C 
BRANCH   7   9
HETATM    9  C6  UNL     1     -33.007  10.084   1.130  1.00 20.00     0.149 C 
HETATM   10 CL9  UNL     1     -33.391   9.751  -0.578  1.00 20.00    -0.128 Cl
ENDBRANCH   7   9
ENDBRANCH   1   7
TORSDOF 4
ENDMDL
MODEL 7
REMARK VINA RESULT:      -4.2      2.707      4.696
REMARK  4 active torsions:
REMARK  status: ('A' for Active; 'I' for Inactive)
REMARK    1  A    between atoms: C3_3  and  C5_5 
REMARK    2  A    between atoms: C5_5  and  N8_8 
REMARK    3  A    between atoms: C6_6  and  C7_7 
REMARK    4  A    between atoms: C7_7  and  N8_8 
ROOT
HETATM    1  N8  UNL     1     -31.794   8.587   2.831  1.00 20.00     0.089 N 
HETATM    2  H23 UNL     1     -30.806   8.472   2.594  1.00 20.00     0.316 HD
ENDROOT
BRANCH   1   3
HETATM    3  C5  UNL     1     -32.342   7.288   3.210  1.00 20.00     0.274 C 
BRANCH   3   4
HETATM    4  C3  UNL     1     -33.630   7.441   3.945  1.00 20.00     0.014 A 
HETATM    5  C1  UNL     1     -34.357   6.229   4.460  1.00 20.00     0.007 A 
HETATM    6  C2  UNL     1     -33.694   7.174   5.423  1.00 20.00     0.007 A 
ENDBRANCH   3   4
ENDBRANCH   1   3
BRANCH   1   7
HETATM    7  C7  UNL     1     -32.505   9.148   1.701  1.00 20.00     0.230 C 
HETATM    8  C4  UNL     1     -32.644  10.655   1.885  1.00 20.00     0.043 C 
BRANCH   7   9
HETATM    9  C6  UNL     1     -31.813   8.749   0.396  1.00 20.00     0.149 C 
HETATM   10 CL9  UNL     1     -32.826   9.007  -1.049  1.00 20.00    -0.128 Cl
ENDBRANCH   7   9
ENDBRANCH   1   7
TORSDOF 4
ENDMDL
MODEL 8
REMARK VINA RESULT:      -3.7     10.300     10.880
REMARK  4 active torsions:
REMARK  status: ('A' for Active; 'I' for Inactive)
REMARK    1  A    between atoms: C3_3  and  C5_5 
REMARK    2  A    between atoms: C5_5  and  N8_8 
REMARK    3  A    between atoms: C6_6  and  C7_7 
REMARK    4  A    between atoms: C7_7  and  N8_8 
ROOT
HETATM    1  N8  UNL     1     -33.573  14.139  -5.344  1.00 20.00     0.089 N 
HETATM    2  H23 UNL     1     -33.685  13.488  -4.564  1.00 20.00     0.316 HD
ENDROOT
BRANCH   1   3
HETATM    3  C5  UNL     1     -33.273  15.465  -4.812  1.00 20.00     0.274 C 
BRANCH   3   4
HETATM    4  C3  UNL     1     -33.667  15.572  -3.379  1.00 20.00     0.014 A 
HETATM    5  C1  UNL     1     -33.656  16.907  -2.687  1.00 20.00     0.007 A 
HETATM    6  C2  UNL     1     -34.963  16.233  -2.998  1.00 20.00     0.007 A 
ENDBRANCH   3   4
ENDBRANCH   1   3
BRANCH   1   7
HETATM    7  C7  UNL     1     -34.781  14.155  -6.144  1.00 20.00     0.230 C 
HETATM    8  C4  UNL     1     -34.461  13.677  -7.556  1.00 20.00     0.043 C 
BRANCH   7   9
HETATM    9  C6  UNL     1     -35.878  13.343  -5.453  1.00 20.00     0.149 C 
HETATM   10 CL9  UNL     1     -37.314  14.312  -5.031  1.00 20.00    -0.128 Cl
ENDBRANCH   7   9
ENDBRANCH   1   7
TORSDOF 4
ENDMDL
MODEL 9
REMARK VINA RESULT:      -3.6     10.233     10.902
REMARK  4 active torsions:
REMARK  status: ('A' for Active; 'I' for Inactive)
REMARK    1  A    between atoms: C3_3  and  C5_5 
REMARK    2  A    between atoms: C5_5  and  N8_8 
REMARK    3  A    between atoms: C6_6  and  C7_7 
REMARK    4  A    between atoms: C7_7  and  N8_8 
ROOT
HETATM    1  N8  UNL     1     -34.118  13.908  -4.408  1.00 20.00     0.089 N 
HETATM    2  H23 UNL     1     -33.612  13.505  -5.199  1.00 20.00     0.316 HD
ENDROOT
BRANCH   1   3
HETATM    3  C5  UNL     1     -35.525  14.051  -4.771  1.00 20.00     0.274 C 
BRANCH   3   4
HETATM    4  C3  UNL     1     -35.836  13.304  -6.023  1.00 20.00     0.014 A 
HETATM    5  C1  UNL     1     -36.185  14.048  -7.282  1.00 20.00     0.007 A 
HETATM    6  C2  UNL     1     -34.871  13.326  -7.176  1.00 20.00     0.007 A 
ENDBRANCH   3   4
ENDBRANCH   1   3
BRANCH   1   7
HETATM    7  C7  UNL     1     -33.534  15.187  -4.056  1.00 20.00     0.230 C 
HETATM    8  C4  UNL     1     -33.111  15.918  -5.326  1.00 20.00     0.043 C 
BRANCH   7   9
HETATM    9  C6  UNL     1     -34.505  15.984  -3.183  1.00 20.00     0.149 C 
HETATM   10 CL9  UNL     1     -33.690  16.993  -1.960  1.00 20.00    -0.128 Cl
ENDBRANCH   7   9
ENDBRANCH   1   7
TORSDOF 4
ENDMDL
