MODEL 1
REMARK VINA RESULT:      -4.3      0.000      0.000
REMARK  3 active torsions:
REMARK  status: ('A' for Active; 'I' for Inactive)
REMARK    1  A    between atoms: C5_5  and  C7_7 
REMARK    2  A    between atoms: C5_5  and  C8_8 
REMARK    3  A    between atoms: C8_8  and  O9_9 
ROOT
HETATM    1  C1  UNL     1     -34.696   6.182   3.826  1.00 20.00     0.001 C 
HETATM    2  C2  UNL     1     -33.862   5.321   2.878  1.00 20.00     0.001 C 
HETATM    3  C3  UNL     1     -33.785   7.323   4.276  1.00 20.00     0.011 C 
HETATM    4  C4  UNL     1     -32.488   5.982   2.799  1.00 20.00     0.011 C 
HETATM    5  C5  UNL     1     -32.730   7.453   3.169  1.00 20.00    -0.019 C 
ENDROOT
BRANCH   5   6
HETATM    6  C7  UNL     1     -33.273   8.248   1.970  1.00 20.00     0.007 C 
HETATM    7  C6  UNL     1     -32.244   9.179   1.419  1.00 20.00     0.006 C 
ENDBRANCH   5   6
BRANCH   5   8
HETATM    8  C8  UNL     1     -31.454   8.122   3.683  1.00 20.00     0.173 C 
BRANCH   8   9
HETATM    9  O9  UNL     1     -31.705   8.598   4.989  1.00 20.00    -0.400 OA
HETATM   10  H25 UNL     1     -31.288   7.974   5.609  1.00 20.00     0.209 HD
ENDBRANCH   8   9
ENDBRANCH   5   8
TORSDOF 3
ENDMDL
MODEL 2
REMARK VINA RESULT:      -4.2      1.613      2.756
REMARK  3 active torsions:
REMARK  status: ('A' for Active; 'I' for Inactive)
REMARK    1  A    between atoms: C5_5  and  C7_7 
REMARK    2  A    between atoms: C5_5  and  C8_8 
REMARK    3  A    between atoms: C8_8  and  O9_9 
ROOT
HETATM    1  C1  UNL     1     -35.102   5.385   4.859  1.00 20.00     0.001 C 
HETATM    2  C2  UNL     1     -34.161   6.127   5.809  1.00 20.00     0.001 C 
HETATM    3  C3  UNL     1     -34.999   6.101   3.514  1.00 20.00     0.011 C 
HETATM    4  C4  UNL     1     -33.534   7.255   4.992  1.00 20.00     0.011 C 
HETATM    5  C5  UNL     1     -33.628   6.790   3.532  1.00 20.00    -0.019 C 
ENDROOT
BRANCH   5   6
HETATM    6  C7  UNL     1     -32.501   5.803   3.187  1.00 20.00     0.007 C 
HETATM    7  C6  UNL     1     -33.008   4.650   2.385  1.00 20.00     0.006 C 
ENDBRANCH   5   6
BRANCH   5   8
HETATM    8  C8  UNL     1     -33.579   7.971   2.561  1.00 20.00     0.173 C 
BRANCH   8   9
HETATM    9  O9  UNL     1     -32.249   8.113   2.109  1.00 20.00    -0.400 OA
HETATM   10  H25 UNL     1     -32.282   8.226   1.143  1.00 20.00     0.209 HD
ENDBRANCH   8   9
ENDBRANCH   5   8
TORSDOF 3
ENDMDL
MODEL 3
REMARK VINA RESULT:      -4.1      1.594      2.885
REMARK  3 active torsions:
REMARK  status: ('A' for Active; 'I' for Inactive)
REMARK    1  A    between atoms: C5_5  and  C7_7 
REMARK    2  A    between atoms: C5_5  and  C8_8 
REMARK    3  A    between atoms: C8_8  and  O9_9 
ROOT
HETATM    1  C1  UNL     1     -33.671   4.179   3.885  1.00 20.00     0.001 C 
HETATM    2  C2  UNL     1     -34.968   4.769   4.439  1.00 20.00     0.001 C 
HETATM    3  C3  UNL     1     -33.074   5.247   2.972  1.00 20.00     0.011 C 
HETATM    4  C4  UNL     1     -35.093   6.165   3.835  1.00 20.00     0.011 C 
HETATM    5  C5  UNL     1     -33.657   6.574   3.475  1.00 20.00    -0.019 C 
ENDROOT
BRANCH   5   6
HETATM    6  C7  UNL     1     -32.897   7.087   4.709  1.00 20.00     0.007 C 
HETATM    7  C6  UNL     1     -33.820   7.346   5.853  1.00 20.00     0.006 C 
ENDBRANCH   5   6
BRANCH   5   8
HETATM    8  C8  UNL     1     -33.634   7.648   2.386  1.00 20.00     0.173 C 
BRANCH   8   9
HETATM    9  O9  UNL     1     -32.290   8.029   2.174  1.00 20.00    -0.400 OA
HETATM   10  H25 UNL     1     -31.781   7.737   2.952  1.00 20.00     0.209 HD
ENDBRANCH   8   9
ENDBRANCH   5   8
TORSDOF 3
ENDMDL
MODEL 4
REMARK VINA RESULT:      -4.0      0.964      3.141
REMARK  3 active torsions:
REMARK  status: ('A' for Active; 'I' for Inactive)
REMARK    1  A    between atoms: C5_5  and  C7_7 
REMARK    2  A    between atoms: C5_5  and  C8_8 
REMARK    3  A    between atoms: C8_8  and  O9_9 
ROOT
HETATM    1  C1  UNL     1     -31.364   8.481   2.279  1.00 20.00     0.001 C 
HETATM    2  C2  UNL     1     -32.686   8.661   1.532  1.00 20.00     0.001 C 
HETATM    3  C3  UNL     1     -31.724   7.908   3.648  1.00 20.00     0.011 C 
HETATM    4  C4  UNL     1     -33.781   8.187   2.484  1.00 20.00     0.011 C 
HETATM    5  C5  UNL     1     -33.081   7.219   3.449  1.00 20.00    -0.019 C 
ENDROOT
BRANCH   5   6
HETATM    6  C7  UNL     1     -32.914   5.827   2.818  1.00 20.00     0.007 C 
HETATM    7  C6  UNL     1     -33.789   4.816   3.482  1.00 20.00     0.006 C 
ENDBRANCH   5   6
BRANCH   5   8
HETATM    8  C8  UNL     1     -33.845   7.087   4.768  1.00 20.00     0.173 C 
BRANCH   8   9
HETATM    9  O9  UNL     1     -33.019   7.579   5.803  1.00 20.00    -0.400 OA
HETATM   10  H25 UNL     1     -32.103   7.328   5.586  1.00 20.00     0.209 HD
ENDBRANCH   8   9
ENDBRANCH   5   8
TORSDOF 3
ENDMDL
MODEL 5
REMARK VINA RESULT:      -4.0     10.887     12.211
REMARK  3 active torsions:
REMARK  status: ('A' for Active; 'I' for Inactive)
REMARK    1  A    between atoms: C5_5  and  C7_7 
REMARK    2  A    between atoms: C5_5  and  C8_8 
REMARK    3  A    between atoms: C8_8  and  O9_9 
ROOT
HETATM    1  C1  UNL     1     -34.094  16.135  -7.438  1.00 20.00     0.001 C 
HETATM    2  C2  UNL     1     -33.707  14.736  -7.918  1.00 20.00     0.001 C 
HETATM    3  C3  UNL     1     -35.162  15.936  -6.365  1.00 20.00     0.011 C 
HETATM    4  C4  UNL     1     -34.559  13.759  -7.112  1.00 20.00     0.011 C 
HETATM    5  C5  UNL     1     -34.931  14.517  -5.830  1.00 20.00    -0.019 C 
ENDROOT
BRANCH   5   6
HETATM    6  C7  UNL     1     -33.782  14.484  -4.809  1.00 20.00     0.007 C 
HETATM    7  C6  UNL     1     -33.973  15.504  -3.736  1.00 20.00     0.006 C 
ENDBRANCH   5   6
BRANCH   5   8
HETATM    8  C8  UNL     1     -36.196  13.946  -5.185  1.00 20.00     0.173 C 
BRANCH   8   9
HETATM    9  O9  UNL     1     -35.981  12.572  -4.941  1.00 20.00    -0.400 OA
HETATM   10  H25 UNL     1     -35.721  12.165  -5.787  1.00 20.00     0.209 HD
ENDBRANCH   8   9
ENDBRANCH   5   8
TORSDOF 3
ENDMDL
MODEL 6
REMARK VINA RESULT:      -4.0      2.128      3.561
REMARK  3 active torsions:
REMARK  status: ('A' for Active; 'I' for Inactive)
REMARK    1  A    between atoms: C5_5  and  C7_7 
REMARK    2  A    between atoms: C5_5  and  C8_8 
REMARK    3  A    between atoms: C8_8  and  O9_9 
ROOT
HETATM    1  C1  UNL     1     -32.764   8.013   2.804  1.00 20.00     0.001 C 
HETATM    2  C2  UNL     1     -32.100   6.663   2.529  1.00 20.00     0.001 C 
HETATM    3  C3  UNL     1     -34.157   7.698   3.345  1.00 20.00     0.011 C 
HETATM    4  C4  UNL     1     -33.123   5.598   2.916  1.00 20.00     0.011 C 
HETATM    5  C5  UNL     1     -34.049   6.284   3.931  1.00 20.00    -0.019 C 
ENDROOT
BRANCH   5   6
HETATM    6  C7  UNL     1     -33.419   6.307   5.334  1.00 20.00     0.007 C 
HETATM    7  C6  UNL     1     -33.903   7.471   6.133  1.00 20.00     0.006 C 
ENDBRANCH   5   6
BRANCH   5   8
HETATM    8  C8  UNL     1     -35.414   5.598   4.002  1.00 20.00     0.173 C 
BRANCH   8   9
HETATM    9  O9  UNL     1     -35.259   4.385   4.709  1.00 20.00    -0.400 OA
HETATM   10  H25 UNL     1     -34.310   4.168   4.706  1.00 20.00     0.209 HD
ENDBRANCH   8   9
ENDBRANCH   5   8
TORSDOF 3
ENDMDL
MODEL 7
REMARK VINA RESULT:      -3.9      2.034      3.487
REMARK  3 active torsions:
REMARK  status: ('A' for Active; 'I' for Inactive)
REMARK    1  A    between atoms: C5_5  and  C7_7 
REMARK    2  A    between atoms: C5_5  and  C8_8 
REMARK    3  A    between atoms: C8_8  and  O9_9 
ROOT
HETATM    1  C1  UNL     1     -32.160   7.977   4.038  1.00 20.00     0.001 C 
HETATM    2  C2  UNL     1     -32.385   7.884   2.528  1.00 20.00     0.001 C 
HETATM    3  C3  UNL     1     -33.338   7.255   4.688  1.00 20.00     0.011 C 
HETATM    4  C4  UNL     1     -33.687   7.110   2.338  1.00 20.00     0.011 C 
HETATM    5  C5  UNL     1     -33.848   6.279   3.619  1.00 20.00    -0.019 C 
ENDROOT
BRANCH   5   6
HETATM    6  C7  UNL     1     -32.988   5.005   3.568  1.00 20.00     0.007 C 
HETATM    7  C6  UNL     1     -32.979   4.404   2.202  1.00 20.00     0.006 C 
ENDBRANCH   5   6
BRANCH   5   8
HETATM    8  C8  UNL     1     -35.309   5.892   3.860  1.00 20.00     0.173 C 
BRANCH   8   9
HETATM    9  O9  UNL     1     -35.330   4.784   4.736  1.00 20.00    -0.400 OA
HETATM   10  H25 UNL     1     -34.511   4.280   4.583  1.00 20.00     0.209 HD
ENDBRANCH   8   9
ENDBRANCH   5   8
TORSDOF 3
ENDMDL
MODEL 8
REMARK VINA RESULT:      -3.9     10.528     11.778
REMARK  3 active torsions:
REMARK  status: ('A' for Active; 'I' for Inactive)
REMARK    1  A    between atoms: C5_5  and  C7_7 
REMARK    2  A    between atoms: C5_5  and  C8_8 
REMARK    3  A    between atoms: C8_8  and  O9_9 
ROOT
HETATM    1  C1  UNL     1     -33.148  15.572  -6.032  1.00 20.00     0.001 C 
HETATM    2  C2  UNL     1     -32.969  15.154  -4.573  1.00 20.00     0.001 C 
HETATM    3  C3  UNL     1     -34.521  15.056  -6.457  1.00 20.00     0.011 C 
HETATM    4  C4  UNL     1     -34.242  14.406  -4.185  1.00 20.00     0.011 C 
HETATM    5  C5  UNL     1     -35.318  14.920  -5.152  1.00 20.00    -0.019 C 
ENDROOT
BRANCH   5   6
HETATM    6  C7  UNL     1     -35.878  16.277  -4.694  1.00 20.00     0.007 C 
HETATM    7  C6  UNL     1     -36.199  16.273  -3.236  1.00 20.00     0.006 C 
ENDBRANCH   5   6
BRANCH   5   8
HETATM    8  C8  UNL     1     -36.469  13.922  -5.297  1.00 20.00     0.173 C 
BRANCH   8   9
HETATM    9  O9  UNL     1     -35.962  12.629  -5.040  1.00 20.00    -0.400 OA
HETATM   10  H25 UNL     1     -35.017  12.726  -4.827  1.00 20.00     0.209 HD
ENDBRANCH   8   9
ENDBRANCH   5   8
TORSDOF 3
ENDMDL
MODEL 9
REMARK VINA RESULT:      -3.9     10.659     11.706
REMARK  3 active torsions:
REMARK  status: ('A' for Active; 'I' for Inactive)
REMARK    1  A    between atoms: C5_5  and  C7_7 
REMARK    2  A    between atoms: C5_5  and  C8_8 
REMARK    3  A    between atoms: C8_8  and  O9_9 
ROOT
HETATM    1  C1  UNL     1     -33.856  15.597  -3.397  1.00 20.00     0.001 C 
HETATM    2  C2  UNL     1     -35.150  16.368  -3.133  1.00 20.00     0.001 C 
HETATM    3  C3  UNL     1     -34.222  14.472  -4.362  1.00 20.00     0.011 C 
HETATM    4  C4  UNL     1     -36.235  15.672  -3.951  1.00 20.00     0.011 C 
HETATM    5  C5  UNL     1     -35.485  14.959  -5.085  1.00 20.00    -0.019 C 
ENDROOT
BRANCH   5   6
HETATM    6  C7  UNL     1     -35.137  15.934  -6.222  1.00 20.00     0.007 C 
HETATM    7  C6  UNL     1     -34.129  15.349  -7.155  1.00 20.00     0.006 C 
ENDBRANCH   5   6
BRANCH   5   8
HETATM    8  C8  UNL     1     -36.297  13.792  -5.650  1.00 20.00     0.173 C 
BRANCH   8   9
HETATM    9  O9  UNL     1     -35.902  12.616  -4.975  1.00 20.00    -0.400 OA
HETATM   10  H25 UNL     1     -35.904  11.893  -5.627  1.00 20.00     0.209 HD
ENDBRANCH   8   9
ENDBRANCH   5   8
TORSDOF 3
ENDMDL
