MODEL 1
REMARK VINA RESULT:      -5.1      0.000      0.000
REMARK  2 active torsions:
REMARK  status: ('A' for Active; 'I' for Inactive)
REMARK    1  A    between atoms: C1_1  and  C3_3 
REMARK    2  A    between atoms: C2_2  and  C5_5 
ROOT
HETATM    1  C1  UNL     1     -32.892   6.806   3.363  1.00 20.00     0.004 C 
HETATM    2  C2  UNL     1     -33.921   5.956   3.249  1.00 20.00     0.049 C 
ENDROOT
BRANCH   1   3
HETATM    3  C3  UNL     1     -32.430   7.625   2.265  1.00 20.00     0.007 C 
HETATM    4  C4  UNL     1     -32.929   8.837   2.003  1.00 20.00     0.056 C 
HETATM    5 BR8  UNL     1     -32.363   9.917   0.604  1.00 20.00    -0.064 Br
ENDBRANCH   1   3
BRANCH   2   6
HETATM    6  C5  UNL     1     -34.359   5.136   4.413  1.00 20.00     0.145 C 
HETATM    7  C6  UNL     1     -34.528   5.860   5.722  1.00 20.00     0.096 C 
HETATM    8  O7  UNL     1     -34.549   3.926   4.326  1.00 20.00    -0.294 OA
ENDBRANCH   2   6
TORSDOF 2
ENDMDL
MODEL 2
REMARK VINA RESULT:      -5.1      1.521      1.578
REMARK  2 active torsions:
REMARK  status: ('A' for Active; 'I' for Inactive)
REMARK    1  A    between atoms: C1_1  and  C3_3 
REMARK    2  A    between atoms: C2_2  and  C5_5 
ROOT
HETATM    1  C1  UNL     1     -32.790   7.335   3.526  1.00 20.00     0.004 C 
HETATM    2  C2  UNL     1     -33.973   6.842   3.917  1.00 20.00     0.049 C 
ENDROOT
BRANCH   1   3
HETATM    3  C3  UNL     1     -32.537   7.781   2.174  1.00 20.00     0.007 C 
HETATM    4  C4  UNL     1     -32.636   9.061   1.801  1.00 20.00     0.056 C 
HETATM    5 BR8  UNL     1     -32.322   9.672   0.078  1.00 20.00    -0.064 Br
ENDBRANCH   1   3
BRANCH   2   6
HETATM    6  C5  UNL     1     -34.181   6.397   5.323  1.00 20.00     0.145 C 
HETATM    7  C6  UNL     1     -34.599   4.965   5.522  1.00 20.00     0.096 C 
HETATM    8  O7  UNL     1     -34.047   7.159   6.277  1.00 20.00    -0.294 OA
ENDBRANCH   2   6
TORSDOF 2
ENDMDL
MODEL 3
REMARK VINA RESULT:      -4.9      3.756      5.154
REMARK  2 active torsions:
REMARK  status: ('A' for Active; 'I' for Inactive)
REMARK    1  A    between atoms: C1_1  and  C3_3 
REMARK    2  A    between atoms: C2_2  and  C5_5 
ROOT
HETATM    1  C1  UNL     1     -33.109   7.500   2.575  1.00 20.00     0.004 C 
HETATM    2  C2  UNL     1     -32.067   8.327   2.415  1.00 20.00     0.049 C 
ENDROOT
BRANCH   1   3
HETATM    3  C3  UNL     1     -33.314   6.726   3.779  1.00 20.00     0.007 C 
HETATM    4  C4  UNL     1     -34.374   5.932   3.960  1.00 20.00     0.056 C 
HETATM    5 BR8  UNL     1     -34.672   4.924   5.489  1.00 20.00    -0.064 Br
ENDBRANCH   1   3
BRANCH   2   6
HETATM    6  C5  UNL     1     -31.904   9.104   1.154  1.00 20.00     0.145 C 
HETATM    7  C6  UNL     1     -32.730  10.356   1.022  1.00 20.00     0.096 C 
HETATM    8  O7  UNL     1     -31.157   8.737   0.251  1.00 20.00    -0.294 OA
ENDBRANCH   2   6
TORSDOF 2
ENDMDL
MODEL 4
REMARK VINA RESULT:      -4.0     11.120     11.484
REMARK  2 active torsions:
REMARK  status: ('A' for Active; 'I' for Inactive)
REMARK    1  A    between atoms: C1_1  and  C3_3 
REMARK    2  A    between atoms: C2_2  and  C5_5 
ROOT
HETATM    1  C1  UNL     1     -34.913  15.642  -3.674  1.00 20.00     0.004 C 
HETATM    2  C2  UNL     1     -34.745  14.431  -4.222  1.00 20.00     0.049 C 
ENDROOT
BRANCH   1   3
HETATM    3  C3  UNL     1     -33.848  16.347  -2.997  1.00 20.00     0.007 C 
HETATM    4  C4  UNL     1     -34.068  17.214  -2.004  1.00 20.00     0.056 C 
HETATM    5 BR8  UNL     1     -32.729  18.138  -1.111  1.00 20.00    -0.064 Br
ENDBRANCH   1   3
BRANCH   2   6
HETATM    6  C5  UNL     1     -35.876  13.748  -4.911  1.00 20.00     0.145 C 
HETATM    7  C6  UNL     1     -37.165  14.519  -5.016  1.00 20.00     0.096 C 
HETATM    8  O7  UNL     1     -35.781  12.605  -5.349  1.00 20.00    -0.294 OA
ENDBRANCH   2   6
TORSDOF 2
ENDMDL
MODEL 5
REMARK VINA RESULT:      -3.9     11.064     11.697
REMARK  2 active torsions:
REMARK  status: ('A' for Active; 'I' for Inactive)
REMARK    1  A    between atoms: C1_1  and  C3_3 
REMARK    2  A    between atoms: C2_2  and  C5_5 
ROOT
HETATM    1  C1  UNL     1     -35.104  15.655  -3.723  1.00 20.00     0.004 C 
HETATM    2  C2  UNL     1     -34.663  14.447  -4.102  1.00 20.00     0.049 C 
ENDROOT
BRANCH   1   3
HETATM    3  C3  UNL     1     -34.565  16.359  -2.581  1.00 20.00     0.007 C 
HETATM    4  C4  UNL     1     -33.570  17.246  -2.678  1.00 20.00     0.056 C 
HETATM    5 BR8  UNL     1     -32.852  18.169  -1.237  1.00 20.00    -0.064 Br
ENDBRANCH   1   3
BRANCH   2   6
HETATM    6  C5  UNL     1     -35.251  13.765  -5.288  1.00 20.00     0.145 C 
HETATM    7  C6  UNL     1     -34.996  14.402  -6.628  1.00 20.00     0.096 C 
HETATM    8  O7  UNL     1     -35.934  12.749  -5.187  1.00 20.00    -0.294 OA
ENDBRANCH   2   6
TORSDOF 2
ENDMDL
MODEL 6
REMARK VINA RESULT:      -3.7     11.656     12.263
REMARK  2 active torsions:
REMARK  status: ('A' for Active; 'I' for Inactive)
REMARK    1  A    between atoms: C1_1  and  C3_3 
REMARK    2  A    between atoms: C2_2  and  C5_5 
ROOT
HETATM    1  C1  UNL     1     -34.161  17.077  -1.479  1.00 20.00     0.004 C 
HETATM    2  C2  UNL     1     -33.149  17.927  -1.694  1.00 20.00     0.049 C 
ENDROOT
BRANCH   1   3
HETATM    3  C3  UNL     1     -34.976  16.546  -2.549  1.00 20.00     0.007 C 
HETATM    4  C4  UNL     1     -34.559  15.571  -3.364  1.00 20.00     0.056 C 
HETATM    5 BR8  UNL     1     -35.573  14.864  -4.748  1.00 20.00    -0.064 Br
ENDBRANCH   1   3
BRANCH   2   6
HETATM    6  C5  UNL     1     -32.339  18.444  -0.555  1.00 20.00     0.145 C 
HETATM    7  C6  UNL     1     -33.071  19.261   0.476  1.00 20.00     0.096 C 
HETATM    8  O7  UNL     1     -31.131  18.243  -0.466  1.00 20.00    -0.294 OA
ENDBRANCH   2   6
TORSDOF 2
ENDMDL
MODEL 7
REMARK VINA RESULT:      -3.7     11.392     11.927
REMARK  2 active torsions:
REMARK  status: ('A' for Active; 'I' for Inactive)
REMARK    1  A    between atoms: C1_1  and  C3_3 
REMARK    2  A    between atoms: C2_2  and  C5_5 
ROOT
HETATM    1  C1  UNL     1     -33.632  16.546  -2.925  1.00 20.00     0.004 C 
HETATM    2  C2  UNL     1     -34.291  15.522  -3.484  1.00 20.00     0.049 C 
ENDROOT
BRANCH   1   3
HETATM    3  C3  UNL     1     -34.010  17.116  -1.651  1.00 20.00     0.007 C 
HETATM    4  C4  UNL     1     -35.241  17.003  -1.142  1.00 20.00     0.056 C 
HETATM    5 BR8  UNL     1     -35.764  17.719   0.488  1.00 20.00    -0.064 Br
ENDBRANCH   1   3
BRANCH   2   6
HETATM    6  C5  UNL     1     -33.859  14.972  -4.800  1.00 20.00     0.145 C 
HETATM    7  C6  UNL     1     -33.251  15.947  -5.771  1.00 20.00     0.096 C 
HETATM    8  O7  UNL     1     -34.012  13.790  -5.096  1.00 20.00    -0.294 OA
ENDBRANCH   2   6
TORSDOF 2
ENDMDL
MODEL 8
REMARK VINA RESULT:      -3.5     11.832     12.111
REMARK  2 active torsions:
REMARK  status: ('A' for Active; 'I' for Inactive)
REMARK    1  A    between atoms: C1_1  and  C3_3 
REMARK    2  A    between atoms: C2_2  and  C5_5 
ROOT
HETATM    1  C1  UNL     1     -34.688  15.909  -3.094  1.00 20.00     0.004 C 
HETATM    2  C2  UNL     1     -33.558  16.613  -2.946  1.00 20.00     0.049 C 
ENDROOT
BRANCH   1   3
HETATM    3  C3  UNL     1     -34.894  14.983  -4.186  1.00 20.00     0.007 C 
HETATM    4  C4  UNL     1     -34.289  15.112  -5.371  1.00 20.00     0.056 C 
HETATM    5 BR8  UNL     1     -34.528  13.946  -6.795  1.00 20.00    -0.064 Br
ENDBRANCH   1   3
BRANCH   2   6
HETATM    6  C5  UNL     1     -33.396  17.553  -1.802  1.00 20.00     0.145 C 
HETATM    7  C6  UNL     1     -34.477  17.533  -0.755  1.00 20.00     0.096 C 
HETATM    8  O7  UNL     1     -32.447  18.329  -1.721  1.00 20.00    -0.294 OA
ENDBRANCH   2   6
TORSDOF 2
ENDMDL
MODEL 9
REMARK VINA RESULT:      -3.4     11.380     11.879
REMARK  2 active torsions:
REMARK  status: ('A' for Active; 'I' for Inactive)
REMARK    1  A    between atoms: C1_1  and  C3_3 
REMARK    2  A    between atoms: C2_2  and  C5_5 
ROOT
HETATM    1  C1  UNL     1     -34.221  16.650  -2.347  1.00 20.00     0.004 C 
HETATM    2  C2  UNL     1     -34.686  17.194  -1.214  1.00 20.00     0.049 C 
ENDROOT
BRANCH   1   3
HETATM    3  C3  UNL     1     -35.047  15.854  -3.227  1.00 20.00     0.007 C 
HETATM    4  C4  UNL     1     -34.569  14.834  -3.946  1.00 20.00     0.056 C 
HETATM    5 BR8  UNL     1     -35.596  13.791  -5.087  1.00 20.00    -0.064 Br
ENDBRANCH   1   3
BRANCH   2   6
HETATM    6  C5  UNL     1     -33.793  18.007  -0.342  1.00 20.00     0.145 C 
HETATM    7  C6  UNL     1     -32.469  18.418  -0.929  1.00 20.00     0.096 C 
HETATM    8  O7  UNL     1     -34.099  18.308   0.809  1.00 20.00    -0.294 OA
ENDBRANCH   2   6
TORSDOF 2
ENDMDL
