MODEL 1
REMARK VINA RESULT:      -5.4      0.000      0.000
REMARK  4 active torsions:
REMARK  status: ('A' for Active; 'I' for Inactive)
REMARK    1  A    between atoms: C3_3  and  C7_7 
REMARK    2  A    between atoms: C6_6  and  C7_7 
REMARK    3  A    between atoms: C6_6  and  N9_9 
REMARK    4  A    between atoms: C8_8  and  N9_9 
ROOT
HETATM    1  C6  UNL     1     -33.221   7.006   2.282  1.00 20.00     0.290 C 
ENDROOT
BRANCH   1   2
HETATM    2  C7  UNL     1     -32.584   8.388   2.441  1.00 20.00     0.114 C 
HETATM    3 CL10 UNL     1     -31.245   8.327   3.627  1.00 20.00    -0.123 Cl
BRANCH   2   4
HETATM    4  C3  UNL     1     -32.080   8.973   1.127  1.00 20.00     0.006 A 
HETATM    5  C1  UNL     1     -33.035   9.223  -0.007  1.00 20.00     0.006 A 
HETATM    6  C2  UNL     1     -32.434  10.381   0.739  1.00 20.00     0.006 A 
ENDBRANCH   2   4
ENDBRANCH   1   2
BRANCH   1   7
HETATM    7  N9  UNL     1     -33.062   6.198   3.469  1.00 20.00     0.088 N 
HETATM    8  H26 UNL     1     -32.265   6.536   4.016  1.00 20.00     0.316 HD
BRANCH   7   9
HETATM    9  C8  UNL     1     -34.256   6.241   4.309  1.00 20.00     0.212 C 
HETATM   10  C4  UNL     1     -33.935   6.993   5.594  1.00 20.00     0.042 C 
HETATM   11  C5  UNL     1     -34.714   4.818   4.590  1.00 20.00     0.042 C 
ENDBRANCH   7   9
ENDBRANCH   1   7
TORSDOF 4
ENDMDL
MODEL 2
REMARK VINA RESULT:      -5.1      1.667      4.795
REMARK  4 active torsions:
REMARK  status: ('A' for Active; 'I' for Inactive)
REMARK    1  A    between atoms: C3_3  and  C7_7 
REMARK    2  A    between atoms: C6_6  and  C7_7 
REMARK    3  A    between atoms: C6_6  and  N9_9 
REMARK    4  A    between atoms: C8_8  and  N9_9 
ROOT
HETATM    1  C6  UNL     1     -32.102   7.935   2.962  1.00 20.00     0.290 C 
ENDROOT
BRANCH   1   2
HETATM    2  C7  UNL     1     -33.340   7.035   2.954  1.00 20.00     0.114 C 
HETATM    3 CL10 UNL     1     -32.865   5.320   2.764  1.00 20.00    -0.123 Cl
BRANCH   2   4
HETATM    4  C3  UNL     1     -34.207   7.194   4.198  1.00 20.00     0.006 A 
HETATM    5  C1  UNL     1     -34.419   6.031   5.126  1.00 20.00     0.006 A 
HETATM    6  C2  UNL     1     -33.579   7.198   5.564  1.00 20.00     0.006 A 
ENDBRANCH   2   4
ENDBRANCH   1   2
BRANCH   1   7
HETATM    7  N9  UNL     1     -31.774   8.414   1.639  1.00 20.00     0.088 N 
HETATM    8  H26 UNL     1     -31.645   7.621   1.004  1.00 20.00     0.316 HD
BRANCH   7   9
HETATM    9  C8  UNL     1     -32.829   9.272   1.105  1.00 20.00     0.212 C 
HETATM   10  C4  UNL     1     -32.893   9.101  -0.407  1.00 20.00     0.042 C 
HETATM   11  C5  UNL     1     -32.539  10.713   1.496  1.00 20.00     0.042 C 
ENDBRANCH   7   9
ENDBRANCH   1   7
TORSDOF 4
ENDMDL
MODEL 3
REMARK VINA RESULT:      -5.1      1.326      4.590
REMARK  4 active torsions:
REMARK  status: ('A' for Active; 'I' for Inactive)
REMARK    1  A    between atoms: C3_3  and  C7_7 
REMARK    2  A    between atoms: C6_6  and  C7_7 
REMARK    3  A    between atoms: C6_6  and  N9_9 
REMARK    4  A    between atoms: C8_8  and  N9_9 
ROOT
HETATM    1  C6  UNL     1     -32.904   7.764   1.908  1.00 20.00     0.290 C 
ENDROOT
BRANCH   1   2
HETATM    2  C7  UNL     1     -32.732   7.297   3.355  1.00 20.00     0.114 C 
HETATM    3 CL10 UNL     1     -31.620   8.389   4.236  1.00 20.00    -0.123 Cl
BRANCH   2   4
HETATM    4  C3  UNL     1     -34.050   7.186   4.113  1.00 20.00     0.006 A 
HETATM    5  C1  UNL     1     -34.838   5.907   4.078  1.00 20.00     0.006 A 
HETATM    6  C2  UNL     1     -34.146   6.329   5.344  1.00 20.00     0.006 A 
ENDBRANCH   2   4
ENDBRANCH   1   2
BRANCH   1   7
HETATM    7  N9  UNL     1     -31.744   8.479   1.429  1.00 20.00     0.088 N 
HETATM    8  H26 UNL     1     -31.159   7.855   0.866  1.00 20.00     0.316 HD
BRANCH   7   9
HETATM    9  C8  UNL     1     -32.125   9.627   0.610  1.00 20.00     0.212 C 
HETATM   10  C4  UNL     1     -32.768  10.682   1.498  1.00 20.00     0.042 C 
HETATM   11  C5  UNL     1     -33.072   9.160  -0.485  1.00 20.00     0.042 C 
ENDBRANCH   7   9
ENDBRANCH   1   7
TORSDOF 4
ENDMDL
MODEL 4
REMARK VINA RESULT:      -5.0      1.422      5.006
REMARK  4 active torsions:
REMARK  status: ('A' for Active; 'I' for Inactive)
REMARK    1  A    between atoms: C3_3  and  C7_7 
REMARK    2  A    between atoms: C6_6  and  C7_7 
REMARK    3  A    between atoms: C6_6  and  N9_9 
REMARK    4  A    between atoms: C8_8  and  N9_9 
ROOT
HETATM    1  C6  UNL     1     -33.188   7.121   2.667  1.00 20.00     0.290 C 
ENDROOT
BRANCH   1   2
HETATM    2  C7  UNL     1     -33.244   6.583   4.098  1.00 20.00     0.114 C 
HETATM    3 CL10 UNL     1     -33.088   7.922   5.277  1.00 20.00    -0.123 Cl
BRANCH   2   4
HETATM    4  C3  UNL     1     -34.509   5.785   4.392  1.00 20.00     0.006 A 
HETATM    5  C1  UNL     1     -34.469   4.283   4.415  1.00 20.00     0.006 A 
HETATM    6  C2  UNL     1     -34.655   5.049   5.695  1.00 20.00     0.006 A 
ENDBRANCH   2   4
ENDBRANCH   1   2
BRANCH   1   7
HETATM    7  N9  UNL     1     -32.459   8.365   2.586  1.00 20.00     0.088 N 
HETATM    8  H26 UNL     1     -31.473   8.207   2.812  1.00 20.00     0.316 HD
BRANCH   7   9
HETATM    9  C8  UNL     1     -32.543   8.948   1.248  1.00 20.00     0.212 C 
HETATM   10  C4  UNL     1     -31.251   8.661   0.497  1.00 20.00     0.042 C 
HETATM   11  C5  UNL     1     -32.801  10.441   1.376  1.00 20.00     0.042 C 
ENDBRANCH   7   9
ENDBRANCH   1   7
TORSDOF 4
ENDMDL
MODEL 5
REMARK VINA RESULT:      -5.0      1.785      4.910
REMARK  4 active torsions:
REMARK  status: ('A' for Active; 'I' for Inactive)
REMARK    1  A    between atoms: C3_3  and  C7_7 
REMARK    2  A    between atoms: C6_6  and  C7_7 
REMARK    3  A    between atoms: C6_6  and  N9_9 
REMARK    4  A    between atoms: C8_8  and  N9_9 
ROOT
HETATM    1  C6  UNL     1     -32.900   7.294   3.002  1.00 20.00     0.290 C 
ENDROOT
BRANCH   1   2
HETATM    2  C7  UNL     1     -33.841   6.092   2.899  1.00 20.00     0.114 C 
HETATM    3 CL10 UNL     1     -32.905   4.581   2.682  1.00 20.00    -0.123 Cl
BRANCH   2   4
HETATM    4  C3  UNL     1     -34.772   5.952   4.097  1.00 20.00     0.006 A 
HETATM    5  C1  UNL     1     -34.618   4.794   5.044  1.00 20.00     0.006 A 
HETATM    6  C2  UNL     1     -34.254   6.183   5.490  1.00 20.00     0.006 A 
ENDBRANCH   2   4
ENDBRANCH   1   2
BRANCH   1   7
HETATM    7  N9  UNL     1     -33.308   8.376   2.136  1.00 20.00     0.088 N 
HETATM    8  H26 UNL     1     -33.989   8.969   2.618  1.00 20.00     0.316 HD
BRANCH   7   9
HETATM    9  C8  UNL     1     -32.170   9.201   1.738  1.00 20.00     0.212 C 
HETATM   10  C4  UNL     1     -32.679  10.545   1.237  1.00 20.00     0.042 C 
HETATM   11  C5  UNL     1     -31.377   8.465   0.669  1.00 20.00     0.042 C 
ENDBRANCH   7   9
ENDBRANCH   1   7
TORSDOF 4
ENDMDL
MODEL 6
REMARK VINA RESULT:      -4.5      1.443      1.642
REMARK  4 active torsions:
REMARK  status: ('A' for Active; 'I' for Inactive)
REMARK    1  A    between atoms: C3_3  and  C7_7 
REMARK    2  A    between atoms: C6_6  and  C7_7 
REMARK    3  A    between atoms: C6_6  and  N9_9 
REMARK    4  A    between atoms: C8_8  and  N9_9 
ROOT
HETATM    1  C6  UNL     1     -33.611   6.277   3.092  1.00 20.00     0.290 C 
ENDROOT
BRANCH   1   2
HETATM    2  C7  UNL     1     -33.213   7.723   3.395  1.00 20.00     0.114 C 
HETATM    3 CL10 UNL     1     -32.776   7.903   5.122  1.00 20.00    -0.123 Cl
BRANCH   2   4
HETATM    4  C3  UNL     1     -32.071   8.229   2.521  1.00 20.00     0.006 A 
HETATM    5  C1  UNL     1     -32.200   8.213   1.023  1.00 20.00     0.006 A 
HETATM    6  C2  UNL     1     -32.212   9.520   1.765  1.00 20.00     0.006 A 
ENDBRANCH   2   4
ENDBRANCH   1   2
BRANCH   1   7
HETATM    7  N9  UNL     1     -34.925   5.960   3.603  1.00 20.00     0.088 N 
HETATM    8  H26 UNL     1     -35.565   5.777   2.825  1.00 20.00     0.316 HD
BRANCH   7   9
HETATM    9  C8  UNL     1     -34.892   4.783   4.467  1.00 20.00     0.212 C 
HETATM   10  C4  UNL     1     -34.646   5.226   5.903  1.00 20.00     0.042 C 
HETATM   11  C5  UNL     1     -33.806   3.839   3.975  1.00 20.00     0.042 C 
ENDBRANCH   7   9
ENDBRANCH   1   7
TORSDOF 4
ENDMDL
MODEL 7
REMARK VINA RESULT:      -4.0      1.332      1.838
REMARK  4 active torsions:
REMARK  status: ('A' for Active; 'I' for Inactive)
REMARK    1  A    between atoms: C3_3  and  C7_7 
REMARK    2  A    between atoms: C6_6  and  C7_7 
REMARK    3  A    between atoms: C6_6  and  N9_9 
REMARK    4  A    between atoms: C8_8  and  N9_9 
ROOT
HETATM    1  C6  UNL     1     -32.265   7.284   2.799  1.00 20.00     0.290 C 
ENDROOT
BRANCH   1   2
HETATM    2  C7  UNL     1     -31.820   8.527   2.025  1.00 20.00     0.114 C 
HETATM    3 CL10 UNL     1     -30.901   8.057   0.562  1.00 20.00    -0.123 Cl
BRANCH   2   4
HETATM    4  C3  UNL     1     -32.977   9.438   1.633  1.00 20.00     0.006 A 
HETATM    5  C1  UNL     1     -32.767  10.923   1.521  1.00 20.00     0.006 A 
HETATM    6  C2  UNL     1     -32.996  10.101   0.284  1.00 20.00     0.006 A 
ENDBRANCH   2   4
ENDBRANCH   1   2
BRANCH   1   7
HETATM    7  N9  UNL     1     -33.556   7.468   3.420  1.00 20.00     0.088 N 
HETATM    8  H26 UNL     1     -34.296   7.373   2.719  1.00 20.00     0.316 HD
BRANCH   7   9
HETATM    9  C8  UNL     1     -33.785   6.485   4.476  1.00 20.00     0.212 C 
HETATM   10  C4  UNL     1     -35.087   5.746   4.196  1.00 20.00     0.042 C 
HETATM   11  C5  UNL     1     -33.823   7.201   5.818  1.00 20.00     0.042 C 
ENDBRANCH   7   9
ENDBRANCH   1   7
TORSDOF 4
ENDMDL
MODEL 8
REMARK VINA RESULT:      -4.0     10.466     10.993
REMARK  4 active torsions:
REMARK  status: ('A' for Active; 'I' for Inactive)
REMARK    1  A    between atoms: C3_3  and  C7_7 
REMARK    2  A    between atoms: C6_6  and  C7_7 
REMARK    3  A    between atoms: C6_6  and  N9_9 
REMARK    4  A    between atoms: C8_8  and  N9_9 
ROOT
HETATM    1  C6  UNL     1     -35.100  14.916  -3.842  1.00 20.00     0.290 C 
ENDROOT
BRANCH   1   2
HETATM    2  C7  UNL     1     -33.838  15.768  -3.684  1.00 20.00     0.114 C 
HETATM    3 CL10 UNL     1     -33.114  16.118  -5.283  1.00 20.00    -0.123 Cl
BRANCH   2   4
HETATM    4  C3  UNL     1     -34.083  17.073  -2.934  1.00 20.00     0.006 A 
HETATM    5  C1  UNL     1     -34.677  17.053  -1.553  1.00 20.00     0.006 A 
HETATM    6  C2  UNL     1     -33.236  17.434  -1.746  1.00 20.00     0.006 A 
ENDBRANCH   2   4
ENDBRANCH   1   2
BRANCH   1   7
HETATM    7  N9  UNL     1     -34.821  13.654  -4.487  1.00 20.00     0.088 N 
HETATM    8  H26 UNL     1     -34.759  12.911  -3.785  1.00 20.00     0.316 HD
BRANCH   7   9
HETATM    9  C8  UNL     1     -35.865  13.303  -5.447  1.00 20.00     0.212 C 
HETATM   10  C4  UNL     1     -35.298  13.395  -6.857  1.00 20.00     0.042 C 
HETATM   11  C5  UNL     1     -37.048  14.239  -5.254  1.00 20.00     0.042 C 
ENDBRANCH   7   9
ENDBRANCH   1   7
TORSDOF 4
ENDMDL
MODEL 9
REMARK VINA RESULT:      -3.9      1.492      1.713
REMARK  4 active torsions:
REMARK  status: ('A' for Active; 'I' for Inactive)
REMARK    1  A    between atoms: C3_3  and  C7_7 
REMARK    2  A    between atoms: C6_6  and  C7_7 
REMARK    3  A    between atoms: C6_6  and  N9_9 
REMARK    4  A    between atoms: C8_8  and  N9_9 
ROOT
HETATM    1  C6  UNL     1     -33.476   7.308   4.085  1.00 20.00     0.290 C 
ENDROOT
BRANCH   1   2
HETATM    2  C7  UNL     1     -32.302   7.251   3.105  1.00 20.00     0.114 C 
HETATM    3 CL10 UNL     1     -32.585   5.992   1.863  1.00 20.00    -0.123 Cl
BRANCH   2   4
HETATM    4  C3  UNL     1     -32.017   8.586   2.427  1.00 20.00     0.006 A 
HETATM    5  C1  UNL     1     -31.435   8.623   1.042  1.00 20.00     0.006 A 
HETATM    6  C2  UNL     1     -32.860   9.042   1.269  1.00 20.00     0.006 A 
ENDBRANCH   2   4
ENDBRANCH   1   2
BRANCH   1   7
HETATM    7  N9  UNL     1     -34.567   6.457   3.671  1.00 20.00     0.088 N 
HETATM    8  H26 UNL     1     -34.309   5.949   2.820  1.00 20.00     0.316 HD
BRANCH   7   9
HETATM    9  C8  UNL     1     -34.909   5.486   4.708  1.00 20.00     0.212 C 
HETATM   10  C4  UNL     1     -34.440   6.011   6.058  1.00 20.00     0.042 C 
HETATM   11  C5  UNL     1     -34.264   4.152   4.368  1.00 20.00     0.042 C 
ENDBRANCH   7   9
ENDBRANCH   1   7
TORSDOF 4
ENDMDL
