MODEL 1
REMARK VINA RESULT:      -4.2      0.000      0.000
REMARK  0 active torsions:
REMARK  status: ('A' for Active; 'I' for Inactive)
ROOT
HETATM    1  C1  UNL     1     -32.150   8.028   2.327  1.00 20.00     0.102 C 
HETATM    2  C2  UNL     1     -32.913   8.113   4.657  1.00 20.00     0.075 A 
HETATM    3  C3  UNL     1     -32.809   7.447   3.456  1.00 20.00     0.075 A 
HETATM    4  C4  UNL     1     -33.425   6.163   3.501  1.00 20.00     0.084 A 
HETATM    5  C5  UNL     1     -33.973   5.895   4.737  1.00 20.00     0.097 A 
HETATM    6  N6  UNL     1     -31.615   8.500   1.412  1.00 20.00    -0.191 NA
HETATM    7  S7  UNL     1     -33.746   7.190   5.834  1.00 20.00    -0.086 SA
HETATM    8 CL8  UNL     1     -33.463   5.090   2.160  1.00 20.00    -0.080 Cl
HETATM    9 CL9  UNL     1     -34.810   4.490   5.262  1.00 20.00    -0.074 Cl
ENDROOT
TORSDOF 0
ENDMDL
MODEL 2
REMARK VINA RESULT:      -4.0     11.608     11.930
REMARK  0 active torsions:
REMARK  status: ('A' for Active; 'I' for Inactive)
ROOT
HETATM    1  C1  UNL     1     -35.559  13.574  -5.456  1.00 20.00     0.102 C 
HETATM    2  C2  UNL     1     -36.567  15.402  -4.169  1.00 20.00     0.075 A 
HETATM    3  C3  UNL     1     -35.464  14.664  -4.535  1.00 20.00     0.075 A 
HETATM    4  C4  UNL     1     -34.276  15.123  -3.895  1.00 20.00     0.084 A 
HETATM    5  C5  UNL     1     -34.518  16.196  -3.065  1.00 20.00     0.097 A 
HETATM    6  N6  UNL     1     -35.636  12.689  -6.202  1.00 20.00    -0.191 NA
HETATM    7  S7  UNL     1     -36.171  16.644  -3.059  1.00 20.00    -0.086 SA
HETATM    8 CL8  UNL     1     -32.735  14.408  -4.147  1.00 20.00    -0.080 Cl
HETATM    9 CL9  UNL     1     -33.409  17.078  -2.093  1.00 20.00    -0.074 Cl
ENDROOT
TORSDOF 0
ENDMDL
MODEL 3
REMARK VINA RESULT:      -3.8      2.045      2.337
REMARK  0 active torsions:
REMARK  status: ('A' for Active; 'I' for Inactive)
ROOT
HETATM    1  C1  UNL     1     -32.491   7.993   2.578  1.00 20.00     0.102 C 
HETATM    2  C2  UNL     1     -33.231   5.656   2.480  1.00 20.00     0.075 A 
HETATM    3  C3  UNL     1     -33.090   6.838   3.173  1.00 20.00     0.075 A 
HETATM    4  C4  UNL     1     -33.601   6.744   4.500  1.00 20.00     0.084 A 
HETATM    5  C5  UNL     1     -34.115   5.494   4.769  1.00 20.00     0.097 A 
HETATM    6  N6  UNL     1     -32.005   8.930   2.097  1.00 20.00    -0.191 NA
HETATM    7  S7  UNL     1     -33.979   4.441   3.426  1.00 20.00    -0.086 SA
HETATM    8 CL8  UNL     1     -33.571   8.051   5.614  1.00 20.00    -0.080 Cl
HETATM    9 CL9  UNL     1     -34.832   4.914   6.218  1.00 20.00    -0.074 Cl
ENDROOT
TORSDOF 0
ENDMDL
MODEL 4
REMARK VINA RESULT:      -3.7     11.653     11.866
REMARK  0 active torsions:
REMARK  status: ('A' for Active; 'I' for Inactive)
ROOT
HETATM    1  C1  UNL     1     -33.841  16.859  -2.374  1.00 20.00     0.102 C 
HETATM    2  C2  UNL     1     -36.129  16.482  -3.173  1.00 20.00     0.075 A 
HETATM    3  C3  UNL     1     -34.795  16.141  -3.162  1.00 20.00     0.075 A 
HETATM    4  C4  UNL     1     -34.521  15.028  -4.008  1.00 20.00     0.084 A 
HETATM    5  C5  UNL     1     -35.656  14.560  -4.632  1.00 20.00     0.097 A 
HETATM    6  N6  UNL     1     -33.067  17.440  -1.735  1.00 20.00    -0.191 NA
HETATM    7  S7  UNL     1     -37.046  15.462  -4.198  1.00 20.00    -0.086 SA
HETATM    8 CL8  UNL     1     -32.949  14.364  -4.209  1.00 20.00    -0.080 Cl
HETATM    9 CL9  UNL     1     -35.819  13.250  -5.731  1.00 20.00    -0.074 Cl
ENDROOT
TORSDOF 0
ENDMDL
MODEL 5
REMARK VINA RESULT:      -3.6     12.122     12.379
REMARK  0 active torsions:
REMARK  status: ('A' for Active; 'I' for Inactive)
ROOT
HETATM    1  C1  UNL     1     -37.154  14.424  -4.811  1.00 20.00     0.102 C 
HETATM    2  C2  UNL     1     -34.715  14.196  -4.927  1.00 20.00     0.075 A 
HETATM    3  C3  UNL     1     -35.834  14.844  -4.454  1.00 20.00     0.075 A 
HETATM    4  C4  UNL     1     -35.499  15.938  -3.604  1.00 20.00     0.084 A 
HETATM    5  C5  UNL     1     -34.137  16.081  -3.458  1.00 20.00     0.097 A 
HETATM    6  N6  UNL     1     -38.225  14.084  -5.099  1.00 20.00    -0.191 NA
HETATM    7  S7  UNL     1     -33.268  14.903  -4.345  1.00 20.00    -0.086 SA
HETATM    8 CL8  UNL     1     -36.676  16.942  -2.857  1.00 20.00    -0.080 Cl
HETATM    9 CL9  UNL     1     -33.269  17.245  -2.539  1.00 20.00    -0.074 Cl
ENDROOT
TORSDOF 0
ENDMDL
MODEL 6
REMARK VINA RESULT:      -3.6     12.389     13.517
REMARK  0 active torsions:
REMARK  status: ('A' for Active; 'I' for Inactive)
ROOT
HETATM    1  C1  UNL     1     -35.440  13.867  -5.476  1.00 20.00     0.102 C 
HETATM    2  C2  UNL     1     -34.697  15.596  -7.050  1.00 20.00     0.075 A 
HETATM    3  C3  UNL     1     -34.872  15.150  -5.759  1.00 20.00     0.075 A 
HETATM    4  C4  UNL     1     -34.429  16.105  -4.798  1.00 20.00     0.084 A 
HETATM    5  C5  UNL     1     -33.930  17.243  -5.393  1.00 20.00     0.097 A 
HETATM    6  N6  UNL     1     -35.900  12.828  -5.246  1.00 20.00    -0.191 NA
HETATM    7  S7  UNL     1     -33.999  17.158  -7.102  1.00 20.00    -0.086 SA
HETATM    8 CL8  UNL     1     -34.515  15.842  -3.103  1.00 20.00    -0.080 Cl
HETATM    9 CL9  UNL     1     -33.288  18.652  -4.650  1.00 20.00    -0.074 Cl
ENDROOT
TORSDOF 0
ENDMDL
MODEL 7
REMARK VINA RESULT:      -3.5     12.231     12.355
REMARK  0 active torsions:
REMARK  status: ('A' for Active; 'I' for Inactive)
ROOT
HETATM    1  C1  UNL     1     -32.779  18.640  -0.559  1.00 20.00     0.102 C 
HETATM    2  C2  UNL     1     -34.606  18.818   1.068  1.00 20.00     0.075 A 
HETATM    3  C3  UNL     1     -33.262  18.716   0.785  1.00 20.00     0.075 A 
HETATM    4  C4  UNL     1     -32.466  18.696   1.967  1.00 20.00     0.084 A 
HETATM    5  C5  UNL     1     -33.233  18.787   3.108  1.00 20.00     0.097 A 
HETATM    6  N6  UNL     1     -32.387  18.578  -1.649  1.00 20.00    -0.191 NA
HETATM    7  S7  UNL     1     -34.905  18.893   2.752  1.00 20.00    -0.086 SA
HETATM    8 CL8  UNL     1     -30.753  18.576   1.946  1.00 20.00    -0.080 Cl
HETATM    9 CL9  UNL     1     -32.725  18.802   4.749  1.00 20.00    -0.074 Cl
ENDROOT
TORSDOF 0
ENDMDL
MODEL 8
REMARK VINA RESULT:      -3.5     11.937     12.480
REMARK  0 active torsions:
REMARK  status: ('A' for Active; 'I' for Inactive)
ROOT
HETATM    1  C1  UNL     1     -37.504  14.799  -4.612  1.00 20.00     0.102 C 
HETATM    2  C2  UNL     1     -37.253  16.990  -3.537  1.00 20.00     0.075 A 
HETATM    3  C3  UNL     1     -36.720  15.783  -3.930  1.00 20.00     0.075 A 
HETATM    4  C4  UNL     1     -35.345  15.665  -3.576  1.00 20.00     0.084 A 
HETATM    5  C5  UNL     1     -34.880  16.788  -2.928  1.00 20.00     0.097 A 
HETATM    6  N6  UNL     1     -38.140  14.001  -5.164  1.00 20.00    -0.191 NA
HETATM    7  S7  UNL     1     -36.099  17.976  -2.746  1.00 20.00    -0.086 SA
HETATM    8 CL8  UNL     1     -34.398  14.276  -3.931  1.00 20.00    -0.080 Cl
HETATM    9 CL9  UNL     1     -33.306  17.104  -2.317  1.00 20.00    -0.074 Cl
ENDROOT
TORSDOF 0
ENDMDL
MODEL 9
REMARK VINA RESULT:      -3.5     11.882     12.239
REMARK  0 active torsions:
REMARK  status: ('A' for Active; 'I' for Inactive)
ROOT
HETATM    1  C1  UNL     1     -35.478  13.763  -5.017  1.00 20.00     0.102 C 
HETATM    2  C2  UNL     1     -34.238  15.369  -3.638  1.00 20.00     0.075 A 
HETATM    3  C3  UNL     1     -35.421  14.925  -4.185  1.00 20.00     0.075 A 
HETATM    4  C4  UNL     1     -36.523  15.752  -3.819  1.00 20.00     0.084 A 
HETATM    5  C5  UNL     1     -36.138  16.795  -3.005  1.00 20.00     0.097 A 
HETATM    6  N6  UNL     1     -35.524  12.821  -5.692  1.00 20.00    -0.191 NA
HETATM    7  S7  UNL     1     -34.456  16.775  -2.686  1.00 20.00    -0.086 SA
HETATM    8 CL8  UNL     1     -38.133  15.460  -4.343  1.00 20.00    -0.080 Cl
HETATM    9 CL9  UNL     1     -37.105  18.038  -2.319  1.00 20.00    -0.074 Cl
ENDROOT
TORSDOF 0
ENDMDL
