MODEL 1
REMARK VINA RESULT:      -6.5      0.000      0.000
REMARK  0 active torsions:
REMARK  status: ('A' for Active; 'I' for Inactive)
ROOT
HETATM    1  C1  UNL     1     -33.331   6.920   3.797  1.00 20.00    -0.074 C 
HETATM    2  C2  UNL     1     -32.422   7.795   3.360  1.00 20.00    -0.085 C 
HETATM    3  C3  UNL     1     -33.742   6.705   5.232  1.00 20.00     0.039 C 
HETATM    4  C4  UNL     1     -33.669   4.564   3.176  1.00 20.00     0.009 C 
HETATM    5  C5  UNL     1     -34.089   4.279   4.631  1.00 20.00     0.005 C 
HETATM    6  C6  UNL     1     -35.475   6.003   3.750  1.00 20.00     0.014 C 
HETATM    7  C7  UNL     1     -34.175   5.997   2.945  1.00 20.00     0.015 C 
HETATM    8  C8  UNL     1     -34.790   5.587   5.054  1.00 20.00    -0.010 C 
HETATM    9  C9  UNL     1     -32.081   7.932   1.902  1.00 20.00     0.043 C 
HETATM   10  C10 UNL     1     -31.672   8.702   4.294  1.00 20.00     0.043 C 
ENDROOT
TORSDOF 0
ENDMDL
MODEL 2
REMARK VINA RESULT:      -4.7     11.538     12.289
REMARK  0 active torsions:
REMARK  status: ('A' for Active; 'I' for Inactive)
ROOT
HETATM    1  C1  UNL     1     -34.605  16.537  -2.823  1.00 20.00    -0.074 C 
HETATM    2  C2  UNL     1     -34.308  17.168  -1.684  1.00 20.00    -0.085 C 
HETATM    3  C3  UNL     1     -35.928  15.904  -3.172  1.00 20.00     0.039 C 
HETATM    4  C4  UNL     1     -33.295  14.888  -4.092  1.00 20.00     0.009 C 
HETATM    5  C5  UNL     1     -34.614  14.189  -4.474  1.00 20.00     0.005 C 
HETATM    6  C6  UNL     1     -34.722  16.469  -5.152  1.00 20.00     0.014 C 
HETATM    7  C7  UNL     1     -33.697  16.369  -4.022  1.00 20.00     0.015 C 
HETATM    8  C8  UNL     1     -35.611  15.361  -4.581  1.00 20.00    -0.010 C 
HETATM    9  C9  UNL     1     -32.953  17.767  -1.431  1.00 20.00     0.043 C 
HETATM   10  C10 UNL     1     -35.307  17.320  -0.571  1.00 20.00     0.043 C 
ENDROOT
TORSDOF 0
ENDMDL
MODEL 3
REMARK VINA RESULT:      -4.6      1.079      3.858
REMARK  0 active torsions:
REMARK  status: ('A' for Active; 'I' for Inactive)
ROOT
HETATM    1  C1  UNL     1     -33.653   6.278   3.886  1.00 20.00    -0.074 C 
HETATM    2  C2  UNL     1     -34.192   5.339   4.669  1.00 20.00    -0.085 C 
HETATM    3  C3  UNL     1     -32.982   6.050   2.555  1.00 20.00     0.039 C 
HETATM    4  C4  UNL     1     -32.203   8.174   4.479  1.00 20.00     0.009 C 
HETATM    5  C5  UNL     1     -31.470   7.985   3.138  1.00 20.00     0.005 C 
HETATM    6  C6  UNL     1     -33.793   8.289   2.713  1.00 20.00     0.014 C 
HETATM    7  C7  UNL     1     -33.647   7.769   4.143  1.00 20.00     0.015 C 
HETATM    8  C8  UNL     1     -32.589   7.498   2.194  1.00 20.00    -0.010 C 
HETATM    9  C9  UNL     1     -34.840   5.669   5.983  1.00 20.00     0.043 C 
HETATM   10  C10 UNL     1     -34.185   3.884   4.291  1.00 20.00     0.043 C 
ENDROOT
TORSDOF 0
ENDMDL
MODEL 4
REMARK VINA RESULT:      -4.6     11.450     12.476
REMARK  0 active torsions:
REMARK  status: ('A' for Active; 'I' for Inactive)
ROOT
HETATM    1  C1  UNL     1     -34.383  16.128  -3.231  1.00 20.00    -0.074 C 
HETATM    2  C2  UNL     1     -34.313  16.856  -2.114  1.00 20.00    -0.085 C 
HETATM    3  C3  UNL     1     -33.281  15.943  -4.245  1.00 20.00     0.039 C 
HETATM    4  C4  UNL     1     -36.174  15.999  -4.912  1.00 20.00     0.009 C 
HETATM    5  C5  UNL     1     -35.093  15.817  -5.995  1.00 20.00     0.005 C 
HETATM    6  C6  UNL     1     -34.823  14.124  -4.343  1.00 20.00     0.014 C 
HETATM    7  C7  UNL     1     -35.560  15.295  -3.691  1.00 20.00     0.015 C 
HETATM    8  C8  UNL     1     -33.992  15.025  -5.261  1.00 20.00    -0.010 C 
HETATM    9  C9  UNL     1     -35.472  16.977  -1.165  1.00 20.00     0.043 C 
HETATM   10  C10 UNL     1     -33.070  17.608  -1.727  1.00 20.00     0.043 C 
ENDROOT
TORSDOF 0
ENDMDL
MODEL 5
REMARK VINA RESULT:      -4.4     11.500     12.622
REMARK  0 active torsions:
REMARK  status: ('A' for Active; 'I' for Inactive)
ROOT
HETATM    1  C1  UNL     1     -34.640  15.873  -3.294  1.00 20.00    -0.074 C 
HETATM    2  C2  UNL     1     -34.342  14.811  -4.047  1.00 20.00    -0.085 C 
HETATM    3  C3  UNL     1     -36.025  16.382  -2.980  1.00 20.00     0.039 C 
HETATM    4  C4  UNL     1     -33.634  18.117  -3.274  1.00 20.00     0.009 C 
HETATM    5  C5  UNL     1     -35.026  18.698  -2.963  1.00 20.00     0.005 C 
HETATM    6  C6  UNL     1     -34.477  17.080  -1.305  1.00 20.00     0.014 C 
HETATM    7  C7  UNL     1     -33.660  16.758  -2.557  1.00 20.00     0.015 C 
HETATM    8  C8  UNL     1     -35.679  17.599  -2.099  1.00 20.00    -0.010 C 
HETATM    9  C9  UNL     1     -32.924  14.385  -4.301  1.00 20.00     0.043 C 
HETATM   10  C10 UNL     1     -35.404  13.969  -4.697  1.00 20.00     0.043 C 
ENDROOT
TORSDOF 0
ENDMDL
MODEL 6
REMARK VINA RESULT:      -4.2     11.761     12.787
REMARK  0 active torsions:
REMARK  status: ('A' for Active; 'I' for Inactive)
ROOT
HETATM    1  C1  UNL     1     -34.405  17.510  -1.306  1.00 20.00    -0.074 C 
HETATM    2  C2  UNL     1     -34.530  17.857  -0.023  1.00 20.00    -0.085 C 
HETATM    3  C3  UNL     1     -33.205  17.763  -2.184  1.00 20.00     0.039 C 
HETATM    4  C4  UNL     1     -36.010  17.728  -3.157  1.00 20.00     0.009 C 
HETATM    5  C5  UNL     1     -34.825  18.005  -4.102  1.00 20.00     0.005 C 
HETATM    6  C6  UNL     1     -34.472  15.918  -3.010  1.00 20.00     0.014 C 
HETATM    7  C7  UNL     1     -35.414  16.747  -2.136  1.00 20.00     0.015 C 
HETATM    8  C8  UNL     1     -33.694  17.140  -3.507  1.00 20.00    -0.010 C 
HETATM    9  C9  UNL     1     -35.773  17.558   0.768  1.00 20.00     0.043 C 
HETATM   10  C10 UNL     1     -33.439  18.575   0.722  1.00 20.00     0.043 C 
ENDROOT
TORSDOF 0
ENDMDL
MODEL 7
REMARK VINA RESULT:      -4.2      0.908      2.306
REMARK  0 active torsions:
REMARK  status: ('A' for Active; 'I' for Inactive)
ROOT
HETATM    1  C1  UNL     1     -33.007   7.120   2.750  1.00 20.00    -0.074 C 
HETATM    2  C2  UNL     1     -32.212   8.162   2.496  1.00 20.00    -0.085 C 
HETATM    3  C3  UNL     1     -34.103   6.596   1.856  1.00 20.00     0.039 C 
HETATM    4  C4  UNL     1     -34.183   6.510   4.823  1.00 20.00     0.009 C 
HETATM    5  C5  UNL     1     -35.341   5.968   3.963  1.00 20.00     0.005 C 
HETATM    6  C6  UNL     1     -33.324   4.879   3.318  1.00 20.00     0.014 C 
HETATM    7  C7  UNL     1     -32.946   6.214   3.961  1.00 20.00     0.015 C 
HETATM    8  C8  UNL     1     -34.621   5.422   2.712  1.00 20.00    -0.010 C 
HETATM    9  C9  UNL     1     -31.145   8.606   3.457  1.00 20.00     0.043 C 
HETATM   10  C10 UNL     1     -32.329   8.967   1.232  1.00 20.00     0.043 C 
ENDROOT
TORSDOF 0
ENDMDL
MODEL 8
REMARK VINA RESULT:      -4.2      1.182      3.846
REMARK  0 active torsions:
REMARK  status: ('A' for Active; 'I' for Inactive)
ROOT
HETATM    1  C1  UNL     1     -33.105   7.402   3.728  1.00 20.00    -0.074 C 
HETATM    2  C2  UNL     1     -33.990   6.773   4.505  1.00 20.00    -0.085 C 
HETATM    3  C3  UNL     1     -32.021   8.343   4.193  1.00 20.00     0.039 C 
HETATM    4  C4  UNL     1     -33.444   8.585   1.598  1.00 20.00     0.009 C 
HETATM    5  C5  UNL     1     -32.352   9.586   2.023  1.00 20.00     0.005 C 
HETATM    6  C6  UNL     1     -31.449   7.384   2.085  1.00 20.00     0.014 C 
HETATM    7  C7  UNL     1     -32.967   7.267   2.227  1.00 20.00     0.015 C 
HETATM    8  C8  UNL     1     -31.378   8.713   2.841  1.00 20.00    -0.010 C 
HETATM    9  C9  UNL     1     -35.035   5.852   3.941  1.00 20.00     0.043 C 
HETATM   10  C10 UNL     1     -34.006   6.944   5.998  1.00 20.00     0.043 C 
ENDROOT
TORSDOF 0
ENDMDL
MODEL 9
REMARK VINA RESULT:      -4.2     11.598     12.723
REMARK  0 active torsions:
REMARK  status: ('A' for Active; 'I' for Inactive)
ROOT
HETATM    1  C1  UNL     1     -35.365  15.852  -3.762  1.00 20.00    -0.074 C 
HETATM    2  C2  UNL     1     -36.137  14.929  -4.342  1.00 20.00    -0.085 C 
HETATM    3  C3  UNL     1     -33.867  15.786  -3.601  1.00 20.00     0.039 C 
HETATM    4  C4  UNL     1     -35.702  17.089  -1.664  1.00 20.00     0.009 C 
HETATM    5  C5  UNL     1     -34.179  17.045  -1.436  1.00 20.00     0.005 C 
HETATM    6  C6  UNL     1     -34.616  18.051  -3.550  1.00 20.00     0.014 C 
HETATM    7  C7  UNL     1     -35.820  17.178  -3.193  1.00 20.00     0.015 C 
HETATM    8  C8  UNL     1     -33.610  17.120  -2.869  1.00 20.00    -0.010 C 
HETATM    9  C9  UNL     1     -37.627  15.090  -4.453  1.00 20.00     0.043 C 
HETATM   10  C10 UNL     1     -35.571  13.663  -4.921  1.00 20.00     0.043 C 
ENDROOT
TORSDOF 0
ENDMDL
