MODEL 1
REMARK VINA RESULT:      -5.8      0.000      0.000
REMARK  5 active torsions:
REMARK  status: ('A' for Active; 'I' for Inactive)
REMARK    1  A    between atoms: C2_2  and  C9_9 
REMARK    2  A    between atoms: C3_3  and  C8_8 
REMARK    3  A    between atoms: C4_4  and  C10_10 
REMARK    4  A    between atoms: C8_8  and  C9_9 
REMARK    5  A    between atoms: C10_10  and  O11_11 
ROOT
HETATM    1  C3  UNL     1     -32.913   5.776   2.560  1.00 20.00    -0.027 C 
HETATM    2  C4  UNL     1     -33.516   5.009   3.482  1.00 20.00     0.006 C 
ENDROOT
BRANCH   1   3
HETATM    3  C8  UNL     1     -33.239   7.229   2.343  1.00 20.00     0.035 C 
BRANCH   3   4
HETATM    4  C9  UNL     1     -31.977   8.107   2.232  1.00 20.00     0.006 C 
HETATM    5  C5  UNL     1     -31.396   8.367   3.625  1.00 20.00     0.014 C 
BRANCH   4   6
HETATM    6  C2  UNL     1     -32.281   9.427   1.564  1.00 20.00    -0.032 C 
HETATM    7  C1  UNL     1     -32.698   9.546   0.298  1.00 20.00     0.007 C 
ENDBRANCH   4   6
ENDBRANCH   3   4
ENDBRANCH   1   3
BRANCH   2   8
HETATM    8  C10 UNL     1     -34.602   5.427   4.449  1.00 20.00     0.068 C 
HETATM    9  C6  UNL     1     -34.157   6.352   5.588  1.00 20.00     0.050 C 
HETATM   10  C7  UNL     1     -35.744   6.086   3.671  1.00 20.00     0.050 C 
BRANCH   8  11
HETATM   11  O11 UNL     1     -35.135   4.237   5.044  1.00 20.00    -0.387 OA
HETATM   12  H29 UNL     1     -34.381   3.769   5.430  1.00 20.00     0.211 HD
ENDBRANCH   8  11
ENDBRANCH   2   8
TORSDOF 5
ENDMDL
MODEL 2
REMARK VINA RESULT:      -5.5      1.067      1.747
REMARK  5 active torsions:
REMARK  status: ('A' for Active; 'I' for Inactive)
REMARK    1  A    between atoms: C2_2  and  C9_9 
REMARK    2  A    between atoms: C3_3  and  C8_8 
REMARK    3  A    between atoms: C4_4  and  C10_10 
REMARK    4  A    between atoms: C8_8  and  C9_9 
REMARK    5  A    between atoms: C10_10  and  O11_11 
ROOT
HETATM    1  C3  UNL     1     -33.459   7.795   4.102  1.00 20.00    -0.027 C 
HETATM    2  C4  UNL     1     -33.938   6.799   4.865  1.00 20.00     0.006 C 
ENDROOT
BRANCH   1   3
HETATM    3  C8  UNL     1     -33.372   7.726   2.602  1.00 20.00     0.035 C 
BRANCH   3   4
HETATM    4  C9  UNL     1     -31.963   8.062   2.076  1.00 20.00     0.006 C 
HETATM    5  C5  UNL     1     -31.071   8.531   3.229  1.00 20.00     0.014 C 
BRANCH   4   6
HETATM    6  C2  UNL     1     -32.011   9.134   1.014  1.00 20.00    -0.032 C 
HETATM    7  C1  UNL     1     -32.779  10.227   1.089  1.00 20.00     0.007 C 
ENDBRANCH   4   6
ENDBRANCH   3   4
ENDBRANCH   1   3
BRANCH   2   8
HETATM    8  C10 UNL     1     -34.464   5.461   4.395  1.00 20.00     0.068 C 
HETATM    9  C6  UNL     1     -33.647   4.775   3.294  1.00 20.00     0.050 C 
HETATM   10  C7  UNL     1     -34.596   4.521   5.597  1.00 20.00     0.050 C 
BRANCH   8  11
HETATM   11  O11 UNL     1     -35.786   5.670   3.884  1.00 20.00    -0.387 OA
HETATM   12  H29 UNL     1     -36.375   5.667   4.652  1.00 20.00     0.211 HD
ENDBRANCH   8  11
ENDBRANCH   2   8
TORSDOF 5
ENDMDL
MODEL 3
REMARK VINA RESULT:      -5.4      2.045      4.874
REMARK  5 active torsions:
REMARK  status: ('A' for Active; 'I' for Inactive)
REMARK    1  A    between atoms: C2_2  and  C9_9 
REMARK    2  A    between atoms: C3_3  and  C8_8 
REMARK    3  A    between atoms: C4_4  and  C10_10 
REMARK    4  A    between atoms: C8_8  and  C9_9 
REMARK    5  A    between atoms: C10_10  and  O11_11 
ROOT
HETATM    1  C3  UNL     1     -32.253   7.630   3.708  1.00 20.00    -0.027 C 
HETATM    2  C4  UNL     1     -31.715   8.503   2.841  1.00 20.00     0.006 C 
ENDROOT
BRANCH   1   3
HETATM    3  C8  UNL     1     -33.530   6.879   3.449  1.00 20.00     0.035 C 
BRANCH   3   4
HETATM    4  C9  UNL     1     -34.397   6.733   4.716  1.00 20.00     0.006 C 
HETATM    5  C5  UNL     1     -33.656   7.308   5.926  1.00 20.00     0.014 C 
BRANCH   4   6
HETATM    6  C2  UNL     1     -34.745   5.288   4.983  1.00 20.00    -0.032 C 
HETATM    7  C1  UNL     1     -34.235   4.257   4.299  1.00 20.00     0.007 C 
ENDBRANCH   4   6
ENDBRANCH   3   4
ENDBRANCH   1   3
BRANCH   2   8
HETATM    8  C10 UNL     1     -32.260   8.896   1.485  1.00 20.00     0.068 C 
HETATM    9  C6  UNL     1     -32.831  10.315   1.384  1.00 20.00     0.050 C 
HETATM   10  C7  UNL     1     -31.167   8.708   0.430  1.00 20.00     0.050 C 
BRANCH   8  11
HETATM   11  O11 UNL     1     -33.314   7.982   1.161  1.00 20.00    -0.387 OA
HETATM   12  H29 UNL     1     -34.060   8.220   1.729  1.00 20.00     0.211 HD
ENDBRANCH   8  11
ENDBRANCH   2   8
TORSDOF 5
ENDMDL
MODEL 4
REMARK VINA RESULT:      -5.3      1.271      1.829
REMARK  5 active torsions:
REMARK  status: ('A' for Active; 'I' for Inactive)
REMARK    1  A    between atoms: C2_2  and  C9_9 
REMARK    2  A    between atoms: C3_3  and  C8_8 
REMARK    3  A    between atoms: C4_4  and  C10_10 
REMARK    4  A    between atoms: C8_8  and  C9_9 
REMARK    5  A    between atoms: C10_10  and  O11_11 
ROOT
HETATM    1  C3  UNL     1     -32.594   6.874   2.365  1.00 20.00    -0.027 C 
HETATM    2  C4  UNL     1     -33.156   5.824   2.985  1.00 20.00     0.006 C 
ENDROOT
BRANCH   1   3
HETATM    3  C8  UNL     1     -32.968   8.305   2.645  1.00 20.00     0.035 C 
BRANCH   3   4
HETATM    4  C9  UNL     1     -32.210   9.300   1.745  1.00 20.00     0.006 C 
HETATM    5  C5  UNL     1     -32.890  10.671   1.792  1.00 20.00     0.014 C 
BRANCH   4   6
HETATM    6  C2  UNL     1     -32.155   8.819   0.314  1.00 20.00    -0.032 C 
HETATM    7  C1  UNL     1     -33.036   9.174  -0.629  1.00 20.00     0.007 C 
ENDBRANCH   4   6
ENDBRANCH   3   4
ENDBRANCH   1   3
BRANCH   2   8
HETATM    8  C10 UNL     1     -34.234   5.860   4.046  1.00 20.00     0.068 C 
HETATM    9  C6  UNL     1     -34.486   4.539   4.782  1.00 20.00     0.050 C 
HETATM   10  C7  UNL     1     -33.905   6.958   5.062  1.00 20.00     0.050 C 
BRANCH   8  11
HETATM   11  O11 UNL     1     -35.459   6.239   3.407  1.00 20.00    -0.387 OA
HETATM   12  H29 UNL     1     -36.118   5.584   3.681  1.00 20.00     0.211 HD
ENDBRANCH   8  11
ENDBRANCH   2   8
TORSDOF 5
ENDMDL
MODEL 5
REMARK VINA RESULT:      -5.2      2.532      4.953
REMARK  5 active torsions:
REMARK  status: ('A' for Active; 'I' for Inactive)
REMARK    1  A    between atoms: C2_2  and  C9_9 
REMARK    2  A    between atoms: C3_3  and  C8_8 
REMARK    3  A    between atoms: C4_4  and  C10_10 
REMARK    4  A    between atoms: C8_8  and  C9_9 
REMARK    5  A    between atoms: C10_10  and  O11_11 
ROOT
HETATM    1  C3  UNL     1     -32.245   7.663   3.626  1.00 20.00    -0.027 C 
HETATM    2  C4  UNL     1     -31.710   8.531   2.751  1.00 20.00     0.006 C 
ENDROOT
BRANCH   1   3
HETATM    3  C8  UNL     1     -33.505   6.886   3.362  1.00 20.00     0.035 C 
BRANCH   3   4
HETATM    4  C9  UNL     1     -34.381   6.736   4.622  1.00 20.00     0.006 C 
HETATM    5  C5  UNL     1     -33.653   7.314   5.838  1.00 20.00     0.014 C 
BRANCH   4   6
HETATM    6  C2  UNL     1     -34.725   5.289   4.886  1.00 20.00    -0.032 C 
HETATM    7  C1  UNL     1     -34.179   4.259   4.230  1.00 20.00     0.007 C 
ENDBRANCH   4   6
ENDBRANCH   3   4
ENDBRANCH   1   3
BRANCH   2   8
HETATM    8  C10 UNL     1     -32.241   8.890   1.381  1.00 20.00     0.068 C 
HETATM    9  C6  UNL     1     -33.391   8.018   0.865  1.00 20.00     0.050 C 
HETATM   10  C7  UNL     1     -32.670  10.360   1.376  1.00 20.00     0.050 C 
BRANCH   8  11
HETATM   11  O11 UNL     1     -31.157   8.769   0.451  1.00 20.00    -0.387 OA
HETATM   12  H29 UNL     1     -31.392   8.040  -0.140  1.00 20.00     0.211 HD
ENDBRANCH   8  11
ENDBRANCH   2   8
TORSDOF 5
ENDMDL
MODEL 6
REMARK VINA RESULT:      -5.2      0.985      1.393
REMARK  5 active torsions:
REMARK  status: ('A' for Active; 'I' for Inactive)
REMARK    1  A    between atoms: C2_2  and  C9_9 
REMARK    2  A    between atoms: C3_3  and  C8_8 
REMARK    3  A    between atoms: C4_4  and  C10_10 
REMARK    4  A    between atoms: C8_8  and  C9_9 
REMARK    5  A    between atoms: C10_10  and  O11_11 
ROOT
HETATM    1  C3  UNL     1     -32.778   5.906   2.452  1.00 20.00    -0.027 C 
HETATM    2  C4  UNL     1     -33.332   5.206   3.456  1.00 20.00     0.006 C 
ENDROOT
BRANCH   1   3
HETATM    3  C8  UNL     1     -33.169   7.317   2.107  1.00 20.00     0.035 C 
BRANCH   3   4
HETATM    4  C9  UNL     1     -31.953   8.260   2.014  1.00 20.00     0.006 C 
HETATM    5  C5  UNL     1     -31.346   8.471   3.404  1.00 20.00     0.014 C 
BRANCH   4   6
HETATM    6  C2  UNL     1     -32.336   9.599   1.428  1.00 20.00    -0.032 C 
HETATM    7  C1  UNL     1     -32.810   9.763   0.188  1.00 20.00     0.007 C 
ENDBRANCH   4   6
ENDBRANCH   3   4
ENDBRANCH   1   3
BRANCH   2   8
HETATM    8  C10 UNL     1     -34.415   5.671   4.404  1.00 20.00     0.068 C 
HETATM    9  C6  UNL     1     -35.748   6.057   3.753  1.00 20.00     0.050 C 
HETATM   10  C7  UNL     1     -34.655   4.591   5.463  1.00 20.00     0.050 C 
BRANCH   8  11
HETATM   11  O11 UNL     1     -33.921   6.826   5.093  1.00 20.00    -0.387 OA
HETATM   12  H29 UNL     1     -34.682   7.413   5.213  1.00 20.00     0.211 HD
ENDBRANCH   8  11
ENDBRANCH   2   8
TORSDOF 5
ENDMDL
MODEL 7
REMARK VINA RESULT:      -5.1      0.911      1.405
REMARK  5 active torsions:
REMARK  status: ('A' for Active; 'I' for Inactive)
REMARK    1  A    between atoms: C2_2  and  C9_9 
REMARK    2  A    between atoms: C3_3  and  C8_8 
REMARK    3  A    between atoms: C4_4  and  C10_10 
REMARK    4  A    between atoms: C8_8  and  C9_9 
REMARK    5  A    between atoms: C10_10  and  O11_11 
ROOT
HETATM    1  C3  UNL     1     -32.561   6.904   2.422  1.00 20.00    -0.027 C 
HETATM    2  C4  UNL     1     -33.120   5.867   3.066  1.00 20.00     0.006 C 
ENDROOT
BRANCH   1   3
HETATM    3  C8  UNL     1     -32.921   8.341   2.686  1.00 20.00     0.035 C 
BRANCH   3   4
HETATM    4  C9  UNL     1     -32.206   9.315   1.728  1.00 20.00     0.006 C 
HETATM    5  C5  UNL     1     -32.863  10.696   1.798  1.00 20.00     0.014 C 
BRANCH   4   6
HETATM    6  C2  UNL     1     -32.244   8.815   0.303  1.00 20.00    -0.032 C 
HETATM    7  C1  UNL     1     -33.096   9.265  -0.625  1.00 20.00     0.007 C 
ENDBRANCH   4   6
ENDBRANCH   3   4
ENDBRANCH   1   3
BRANCH   2   8
HETATM    8  C10 UNL     1     -34.182   5.926   4.142  1.00 20.00     0.068 C 
HETATM    9  C6  UNL     1     -33.911   6.907   5.289  1.00 20.00     0.050 C 
HETATM   10  C7  UNL     1     -35.533   6.250   3.499  1.00 20.00     0.050 C 
BRANCH   8  11
HETATM   11  O11 UNL     1     -34.294   4.616   4.712  1.00 20.00    -0.387 OA
HETATM   12  H29 UNL     1     -34.032   3.997   4.016  1.00 20.00     0.211 HD
ENDBRANCH   8  11
ENDBRANCH   2   8
TORSDOF 5
ENDMDL
MODEL 8
REMARK VINA RESULT:      -4.7      2.813      5.182
REMARK  5 active torsions:
REMARK  status: ('A' for Active; 'I' for Inactive)
REMARK    1  A    between atoms: C2_2  and  C9_9 
REMARK    2  A    between atoms: C3_3  and  C8_8 
REMARK    3  A    between atoms: C4_4  and  C10_10 
REMARK    4  A    between atoms: C8_8  and  C9_9 
REMARK    5  A    between atoms: C10_10  and  O11_11 
ROOT
HETATM    1  C3  UNL     1     -31.971   7.764   2.397  1.00 20.00    -0.027 C 
HETATM    2  C4  UNL     1     -31.628   8.848   1.682  1.00 20.00     0.006 C 
ENDROOT
BRANCH   1   3
HETATM    3  C8  UNL     1     -33.353   7.171   2.398  1.00 20.00     0.035 C 
BRANCH   3   4
HETATM    4  C9  UNL     1     -33.687   6.455   3.722  1.00 20.00     0.006 C 
HETATM    5  C5  UNL     1     -35.126   5.933   3.686  1.00 20.00     0.014 C 
BRANCH   4   6
HETATM    6  C2  UNL     1     -33.520   7.378   4.906  1.00 20.00    -0.032 C 
HETATM    7  C1  UNL     1     -33.922   7.082   6.147  1.00 20.00     0.007 C 
ENDBRANCH   4   6
ENDBRANCH   3   4
ENDBRANCH   1   3
BRANCH   2   8
HETATM    8  C10 UNL     1     -32.521   9.662   0.772  1.00 20.00     0.068 C 
HETATM    9  C6  UNL     1     -33.069   8.924  -0.455  1.00 20.00     0.050 C 
HETATM   10  C7  UNL     1     -33.684  10.234   1.588  1.00 20.00     0.050 C 
BRANCH   8  11
HETATM   11  O11 UNL     1     -31.757  10.777   0.298  1.00 20.00    -0.387 OA
HETATM   12  H29 UNL     1     -31.670  11.382   1.049  1.00 20.00     0.211 HD
ENDBRANCH   8  11
ENDBRANCH   2   8
TORSDOF 5
ENDMDL
MODEL 9
REMARK VINA RESULT:      -4.6     10.705     11.608
REMARK  5 active torsions:
REMARK  status: ('A' for Active; 'I' for Inactive)
REMARK    1  A    between atoms: C2_2  and  C9_9 
REMARK    2  A    between atoms: C3_3  and  C8_8 
REMARK    3  A    between atoms: C4_4  and  C10_10 
REMARK    4  A    between atoms: C8_8  and  C9_9 
REMARK    5  A    between atoms: C10_10  and  O11_11 
ROOT
HETATM    1  C3  UNL     1     -33.783  15.332  -3.689  1.00 20.00    -0.027 C 
HETATM    2  C4  UNL     1     -34.339  14.212  -4.180  1.00 20.00     0.006 C 
ENDROOT
BRANCH   1   3
HETATM    3  C8  UNL     1     -34.363  16.706  -3.888  1.00 20.00     0.035 C 
BRANCH   3   4
HETATM    4  C9  UNL     1     -34.451  17.506  -2.573  1.00 20.00     0.006 C 
HETATM    5  C5  UNL     1     -33.050  17.715  -1.991  1.00 20.00     0.014 C 
BRANCH   4   6
HETATM    6  C2  UNL     1     -35.315  16.800  -1.554  1.00 20.00    -0.032 C 
HETATM    7  C1  UNL     1     -35.641  17.317  -0.364  1.00 20.00     0.007 C 
ENDBRANCH   4   6
ENDBRANCH   3   4
ENDBRANCH   1   3
BRANCH   2   8
HETATM    8  C10 UNL     1     -35.605  14.106  -5.001  1.00 20.00     0.068 C 
HETATM    9  C6  UNL     1     -36.806  14.900  -4.475  1.00 20.00     0.050 C 
HETATM   10  C7  UNL     1     -35.308  14.523  -6.444  1.00 20.00     0.050 C 
BRANCH   8  11
HETATM   11  O11 UNL     1     -35.984  12.725  -5.036  1.00 20.00    -0.387 OA
HETATM   12  H29 UNL     1     -35.421  12.275  -4.390  1.00 20.00     0.211 HD
ENDBRANCH   8  11
ENDBRANCH   2   8
TORSDOF 5
ENDMDL
