MODEL 1
REMARK VINA RESULT:      -4.4      0.000      0.000
REMARK  1 active torsions:
REMARK  status: ('A' for Active; 'I' for Inactive)
REMARK    1  A    between atoms: C1_1  and  C4_4 
ROOT
HETATM    1  C2  UNL     1     -35.626   6.101   3.588  1.00 20.00     0.042 C 
HETATM    2  C3  UNL     1     -34.467   4.707   5.349  1.00 20.00     0.042 C 
HETATM    3  C4  UNL     1     -34.288   5.734   4.231  1.00 20.00     0.105 C 
HETATM    4 CL7  UNL     1     -33.263   4.972   2.953  1.00 20.00    -0.110 Cl
ENDROOT
BRANCH   3   5
HETATM    5  C1  UNL     1     -33.544   6.986   4.732  1.00 20.00     0.241 C 
HETATM    6  O5  UNL     1     -33.728   7.472   5.845  1.00 20.00    -0.278 OA
HETATM    7 CL6  UNL     1     -32.417   7.643   3.564  1.00 20.00    -0.042 Cl
ENDBRANCH   3   5
TORSDOF 1
ENDMDL
MODEL 2
REMARK VINA RESULT:      -4.4      1.423      1.423
REMARK  1 active torsions:
REMARK  status: ('A' for Active; 'I' for Inactive)
REMARK    1  A    between atoms: C1_1  and  C4_4 
ROOT
HETATM    1  C2  UNL     1     -35.572   6.110   3.412  1.00 20.00     0.042 C 
HETATM    2  C3  UNL     1     -34.442   4.768   5.232  1.00 20.00     0.042 C 
HETATM    3  C4  UNL     1     -34.239   5.720   4.053  1.00 20.00     0.105 C 
HETATM    4 CL7  UNL     1     -33.275   4.839   2.805  1.00 20.00    -0.110 Cl
ENDROOT
BRANCH   3   5
HETATM    5  C1  UNL     1     -33.430   6.963   4.466  1.00 20.00     0.241 C 
HETATM    6  O5  UNL     1     -32.658   7.542   3.705  1.00 20.00    -0.278 OA
HETATM    7 CL6  UNL     1     -33.717   7.466   6.117  1.00 20.00    -0.042 Cl
ENDBRANCH   3   5
TORSDOF 1
ENDMDL
MODEL 3
REMARK VINA RESULT:      -4.3      1.882      2.242
REMARK  1 active torsions:
REMARK  status: ('A' for Active; 'I' for Inactive)
REMARK    1  A    between atoms: C1_1  and  C4_4 
ROOT
HETATM    1  C2  UNL     1     -33.395   4.942   2.958  1.00 20.00     0.042 C 
HETATM    2  C3  UNL     1     -35.569   6.122   3.475  1.00 20.00     0.042 C 
HETATM    3  C4  UNL     1     -34.180   5.749   3.993  1.00 20.00     0.105 C 
HETATM    4 CL7  UNL     1     -34.407   4.696   5.443  1.00 20.00    -0.110 Cl
ENDROOT
BRANCH   3   5
HETATM    5  C1  UNL     1     -33.396   6.994   4.446  1.00 20.00     0.241 C 
HETATM    6  O5  UNL     1     -32.618   7.599   3.711  1.00 20.00    -0.278 OA
HETATM    7 CL6  UNL     1     -33.720   7.460   6.102  1.00 20.00    -0.042 Cl
ENDBRANCH   3   5
TORSDOF 1
ENDMDL
MODEL 4
REMARK VINA RESULT:      -4.3      2.026      2.603
REMARK  1 active torsions:
REMARK  status: ('A' for Active; 'I' for Inactive)
REMARK    1  A    between atoms: C1_1  and  C4_4 
ROOT
HETATM    1  C2  UNL     1     -34.403   4.385   4.915  1.00 20.00     0.042 C 
HETATM    2  C3  UNL     1     -35.673   6.146   3.619  1.00 20.00     0.042 C 
HETATM    3  C4  UNL     1     -34.320   5.736   4.203  1.00 20.00     0.105 C 
HETATM    4 CL7  UNL     1     -33.866   6.973   5.439  1.00 20.00    -0.110 Cl
ENDROOT
BRANCH   3   5
HETATM    5  C1  UNL     1     -33.220   5.737   3.126  1.00 20.00     0.241 C 
HETATM    6  O5  UNL     1     -32.867   4.722   2.530  1.00 20.00    -0.278 OA
HETATM    7 CL6  UNL     1     -32.526   7.318   2.837  1.00 20.00    -0.042 Cl
ENDBRANCH   3   5
TORSDOF 1
ENDMDL
MODEL 5
REMARK VINA RESULT:      -4.3      2.110      2.349
REMARK  1 active torsions:
REMARK  status: ('A' for Active; 'I' for Inactive)
REMARK    1  A    between atoms: C1_1  and  C4_4 
ROOT
HETATM    1  C2  UNL     1     -33.990   6.821   5.356  1.00 20.00     0.042 C 
HETATM    2  C3  UNL     1     -34.426   4.368   4.929  1.00 20.00     0.042 C 
HETATM    3  C4  UNL     1     -34.285   5.755   4.300  1.00 20.00     0.105 C 
HETATM    4 CL7  UNL     1     -35.871   6.169   3.540  1.00 20.00    -0.110 Cl
ENDROOT
BRANCH   3   5
HETATM    5  C1  UNL     1     -33.225   5.760   3.184  1.00 20.00     0.241 C 
HETATM    6  O5  UNL     1     -32.916   4.754   2.550  1.00 20.00    -0.278 OA
HETATM    7 CL6  UNL     1     -32.506   7.333   2.911  1.00 20.00    -0.042 Cl
ENDBRANCH   3   5
TORSDOF 1
ENDMDL
MODEL 6
REMARK VINA RESULT:      -4.3      2.021      2.221
REMARK  1 active torsions:
REMARK  status: ('A' for Active; 'I' for Inactive)
REMARK    1  A    between atoms: C1_1  and  C4_4 
ROOT
HETATM    1  C2  UNL     1     -35.652   6.139   3.620  1.00 20.00     0.042 C 
HETATM    2  C3  UNL     1     -33.922   6.880   5.306  1.00 20.00     0.042 C 
HETATM    3  C4  UNL     1     -34.272   5.864   4.218  1.00 20.00     0.105 C 
HETATM    4 CL7  UNL     1     -34.333   4.235   4.996  1.00 20.00    -0.110 Cl
ENDROOT
BRANCH   3   5
HETATM    5  C1  UNL     1     -33.187   5.813   3.127  1.00 20.00     0.241 C 
HETATM    6  O5  UNL     1     -32.881   4.779   2.537  1.00 20.00    -0.278 OA
HETATM    7 CL6  UNL     1     -32.438   7.363   2.813  1.00 20.00    -0.042 Cl
ENDBRANCH   3   5
TORSDOF 1
ENDMDL
MODEL 7
REMARK VINA RESULT:      -4.2      1.258      1.746
REMARK  1 active torsions:
REMARK  status: ('A' for Active; 'I' for Inactive)
REMARK    1  A    between atoms: C1_1  and  C4_4 
ROOT
HETATM    1  C2  UNL     1     -34.470   4.668   5.251  1.00 20.00     0.042 C 
HETATM    2  C3  UNL     1     -33.412   5.104   2.997  1.00 20.00     0.042 C 
HETATM    3  C4  UNL     1     -34.230   5.696   4.145  1.00 20.00     0.105 C 
HETATM    4 CL7  UNL     1     -35.843   6.161   3.477  1.00 20.00    -0.110 Cl
ENDROOT
BRANCH   3   5
HETATM    5  C1  UNL     1     -33.576   6.975   4.699  1.00 20.00     0.241 C 
HETATM    6  O5  UNL     1     -33.857   7.447   5.799  1.00 20.00    -0.278 OA
HETATM    7 CL6  UNL     1     -32.400   7.685   3.615  1.00 20.00    -0.042 Cl
ENDBRANCH   3   5
TORSDOF 1
ENDMDL
MODEL 8
REMARK VINA RESULT:      -3.9      1.669      2.200
REMARK  1 active torsions:
REMARK  status: ('A' for Active; 'I' for Inactive)
REMARK    1  A    between atoms: C1_1  and  C4_4 
ROOT
HETATM    1  C2  UNL     1     -33.147   7.371   3.327  1.00 20.00     0.042 C 
HETATM    2  C3  UNL     1     -35.412   6.286   3.037  1.00 20.00     0.042 C 
HETATM    3  C4  UNL     1     -34.031   6.175   3.684  1.00 20.00     0.105 C 
HETATM    4 CL7  UNL     1     -33.237   4.696   3.018  1.00 20.00    -0.110 Cl
ENDROOT
BRANCH   3   5
HETATM    5  C1  UNL     1     -34.138   5.992   5.209  1.00 20.00     0.241 C 
HETATM    6  O5  UNL     1     -34.527   4.950   5.732  1.00 20.00    -0.278 OA
HETATM    7 CL6  UNL     1     -33.654   7.407   6.119  1.00 20.00    -0.042 Cl
ENDBRANCH   3   5
TORSDOF 1
ENDMDL
MODEL 9
REMARK VINA RESULT:      -3.9      2.204      2.727
REMARK  1 active torsions:
REMARK  status: ('A' for Active; 'I' for Inactive)
REMARK    1  A    between atoms: C1_1  and  C4_4 
ROOT
HETATM    1  C2  UNL     1     -33.340   7.114   3.725  1.00 20.00     0.042 C 
HETATM    2  C3  UNL     1     -34.417   6.132   5.790  1.00 20.00     0.042 C 
HETATM    3  C4  UNL     1     -34.283   6.041   4.269  1.00 20.00     0.105 C 
HETATM    4 CL7  UNL     1     -35.917   6.345   3.562  1.00 20.00    -0.110 Cl
ENDROOT
BRANCH   3   5
HETATM    5  C1  UNL     1     -33.845   4.632   3.827  1.00 20.00     0.241 C 
HETATM    6  O5  UNL     1     -34.188   3.610   4.417  1.00 20.00    -0.278 OA
HETATM    7 CL6  UNL     1     -32.818   4.632   2.410  1.00 20.00    -0.042 Cl
ENDBRANCH   3   5
TORSDOF 1
ENDMDL
