MODEL 1
REMARK VINA RESULT:      -4.2      0.000      0.000
REMARK  1 active torsions:
REMARK  status: ('A' for Active; 'I' for Inactive)
REMARK    1  A    between atoms: C2_2  and  C3_3 
ROOT
HETATM    1  C1  UNL     1     -32.959   7.419   3.815  1.00 20.00     0.112 C 
HETATM    2  C2  UNL     1     -33.821   6.831   4.651  1.00 20.00     0.090 C 
HETATM    3 CL6  UNL     1     -32.759   7.025   2.154  1.00 20.00    -0.095 Cl
HETATM    4 CL7  UNL     1     -33.958   7.289   6.316  1.00 20.00    -0.080 Cl
ENDROOT
BRANCH   2   5
HETATM    5  C3  UNL     1     -34.730   5.728   4.204  1.00 20.00     0.167 C 
HETATM    6  C4  UNL     1     -34.387   4.301   4.551  1.00 20.00     0.097 C 
HETATM    7  O5  UNL     1     -35.750   5.979   3.561  1.00 20.00    -0.292 OA
ENDBRANCH   2   5
TORSDOF 1
ENDMDL
MODEL 2
REMARK VINA RESULT:      -4.1      1.233      2.616
REMARK  1 active torsions:
REMARK  status: ('A' for Active; 'I' for Inactive)
REMARK    1  A    between atoms: C2_2  and  C3_3 
ROOT
HETATM    1  C1  UNL     1     -33.108   7.676   4.840  1.00 20.00     0.112 C 
HETATM    2  C2  UNL     1     -33.087   7.213   3.586  1.00 20.00     0.090 C 
HETATM    3 CL6  UNL     1     -33.970   6.968   6.148  1.00 20.00    -0.095 Cl
HETATM    4 CL7  UNL     1     -32.191   7.990   2.324  1.00 20.00    -0.080 Cl
ENDROOT
BRANCH   2   5
HETATM    5  C3  UNL     1     -33.845   5.984   3.183  1.00 20.00     0.167 C 
HETATM    6  C4  UNL     1     -33.088   4.793   2.650  1.00 20.00     0.097 C 
HETATM    7  O5  UNL     1     -35.071   5.942   3.287  1.00 20.00    -0.292 OA
ENDBRANCH   2   5
TORSDOF 1
ENDMDL
MODEL 3
REMARK VINA RESULT:      -3.9      1.480      1.549
REMARK  1 active torsions:
REMARK  status: ('A' for Active; 'I' for Inactive)
REMARK    1  A    between atoms: C2_2  and  C3_3 
ROOT
HETATM    1  C1  UNL     1     -32.321   8.072   3.637  1.00 20.00     0.112 C 
HETATM    2  C2  UNL     1     -33.142   7.220   4.260  1.00 20.00     0.090 C 
HETATM    3 CL6  UNL     1     -31.911   8.020   1.970  1.00 20.00    -0.095 Cl
HETATM    4 CL7  UNL     1     -33.502   7.344   5.950  1.00 20.00    -0.080 Cl
ENDROOT
BRANCH   2   5
HETATM    5  C3  UNL     1     -33.810   6.092   3.534  1.00 20.00     0.167 C 
HETATM    6  C4  UNL     1     -35.290   5.869   3.721  1.00 20.00     0.097 C 
HETATM    7  O5  UNL     1     -33.162   5.354   2.792  1.00 20.00    -0.292 OA
ENDBRANCH   2   5
TORSDOF 1
ENDMDL
MODEL 4
REMARK VINA RESULT:      -3.7      1.903      2.698
REMARK  1 active torsions:
REMARK  status: ('A' for Active; 'I' for Inactive)
REMARK    1  A    between atoms: C2_2  and  C3_3 
ROOT
HETATM    1  C1  UNL     1     -34.316   5.222   5.334  1.00 20.00     0.112 C 
HETATM    2  C2  UNL     1     -33.901   6.437   4.962  1.00 20.00     0.090 C 
HETATM    3 CL6  UNL     1     -34.408   3.846   4.309  1.00 20.00    -0.095 Cl
HETATM    4 CL7  UNL     1     -33.839   7.774   6.062  1.00 20.00    -0.080 Cl
ENDROOT
BRANCH   2   5
HETATM    5  C3  UNL     1     -33.461   6.729   3.560  1.00 20.00     0.167 C 
HETATM    6  C4  UNL     1     -32.278   7.636   3.332  1.00 20.00     0.097 C 
HETATM    7  O5  UNL     1     -34.055   6.234   2.602  1.00 20.00    -0.292 OA
ENDBRANCH   2   5
TORSDOF 1
ENDMDL
MODEL 5
REMARK VINA RESULT:      -3.7      2.202      3.825
REMARK  1 active torsions:
REMARK  status: ('A' for Active; 'I' for Inactive)
REMARK    1  A    between atoms: C2_2  and  C3_3 
ROOT
HETATM    1  C1  UNL     1     -33.879   6.512   4.656  1.00 20.00     0.112 C 
HETATM    2  C2  UNL     1     -33.250   6.608   3.480  1.00 20.00     0.090 C 
HETATM    3 CL6  UNL     1     -33.771   7.651   5.938  1.00 20.00    -0.095 Cl
HETATM    4 CL7  UNL     1     -33.413   5.411   2.239  1.00 20.00    -0.080 Cl
ENDROOT
BRANCH   2   5
HETATM    5  C3  UNL     1     -32.353   7.764   3.154  1.00 20.00     0.167 C 
HETATM    6  C4  UNL     1     -32.523   8.481   1.838  1.00 20.00     0.097 C 
HETATM    7  O5  UNL     1     -31.488   8.129   3.950  1.00 20.00    -0.292 OA
ENDBRANCH   2   5
TORSDOF 1
ENDMDL
MODEL 6
REMARK VINA RESULT:      -3.6      2.341      2.419
REMARK  1 active torsions:
REMARK  status: ('A' for Active; 'I' for Inactive)
REMARK    1  A    between atoms: C2_2  and  C3_3 
ROOT
HETATM    1  C1  UNL     1     -32.943   7.460   3.138  1.00 20.00     0.112 C 
HETATM    2  C2  UNL     1     -33.920   6.833   3.801  1.00 20.00     0.090 C 
HETATM    3 CL6  UNL     1     -31.564   8.192   3.855  1.00 20.00    -0.095 Cl
HETATM    4 CL7  UNL     1     -35.279   6.121   2.998  1.00 20.00    -0.080 Cl
ENDROOT
BRANCH   2   5
HETATM    5  C3  UNL     1     -33.906   6.703   5.293  1.00 20.00     0.167 C 
HETATM    6  C4  UNL     1     -34.468   5.457   5.931  1.00 20.00     0.097 C 
HETATM    7  O5  UNL     1     -33.439   7.600   5.996  1.00 20.00    -0.292 OA
ENDBRANCH   2   5
TORSDOF 1
ENDMDL
MODEL 7
REMARK VINA RESULT:      -3.5      1.926      2.362
REMARK  1 active torsions:
REMARK  status: ('A' for Active; 'I' for Inactive)
REMARK    1  A    between atoms: C2_2  and  C3_3 
ROOT
HETATM    1  C1  UNL     1     -32.618   7.010   2.482  1.00 20.00     0.112 C 
HETATM    2  C2  UNL     1     -33.281   6.003   3.060  1.00 20.00     0.090 C 
HETATM    3 CL6  UNL     1     -32.887   8.680   2.781  1.00 20.00    -0.095 Cl
HETATM    4 CL7  UNL     1     -32.947   4.343   2.700  1.00 20.00    -0.080 Cl
ENDROOT
BRANCH   2   5
HETATM    5  C3  UNL     1     -34.367   6.245   4.064  1.00 20.00     0.167 C 
HETATM    6  C4  UNL     1     -34.005   6.777   5.428  1.00 20.00     0.097 C 
HETATM    7  O5  UNL     1     -35.543   6.015   3.782  1.00 20.00    -0.292 OA
ENDBRANCH   2   5
TORSDOF 1
ENDMDL
MODEL 8
REMARK VINA RESULT:      -3.5      1.494      2.660
REMARK  1 active torsions:
REMARK  status: ('A' for Active; 'I' for Inactive)
REMARK    1  A    between atoms: C2_2  and  C3_3 
ROOT
HETATM    1  C1  UNL     1     -33.607   7.190   4.295  1.00 20.00     0.112 C 
HETATM    2  C2  UNL     1     -33.997   6.034   3.748  1.00 20.00     0.090 C 
HETATM    3 CL6  UNL     1     -33.453   7.492   5.979  1.00 20.00    -0.095 Cl
HETATM    4 CL7  UNL     1     -34.127   5.814   2.035  1.00 20.00    -0.080 Cl
ENDROOT
BRANCH   2   5
HETATM    5  C3  UNL     1     -34.353   4.843   4.585  1.00 20.00     0.167 C 
HETATM    6  C4  UNL     1     -34.781   5.049   6.017  1.00 20.00     0.097 C 
HETATM    7  O5  UNL     1     -34.299   3.708   4.113  1.00 20.00    -0.292 OA
ENDBRANCH   2   5
TORSDOF 1
ENDMDL
MODEL 9
REMARK VINA RESULT:      -3.5      1.893      2.890
REMARK  1 active torsions:
REMARK  status: ('A' for Active; 'I' for Inactive)
REMARK    1  A    between atoms: C2_2  and  C3_3 
ROOT
HETATM    1  C1  UNL     1     -33.662   5.406   3.736  1.00 20.00     0.112 C 
HETATM    2  C2  UNL     1     -33.443   6.683   4.065  1.00 20.00     0.090 C 
HETATM    3 CL6  UNL     1     -33.120   4.643   2.295  1.00 20.00    -0.095 Cl
HETATM    4 CL7  UNL     1     -34.027   7.376   5.541  1.00 20.00    -0.080 Cl
ENDROOT
BRANCH   2   5
HETATM    5  C3  UNL     1     -32.674   7.609   3.173  1.00 20.00     0.167 C 
HETATM    6  C4  UNL     1     -31.389   8.220   3.675  1.00 20.00     0.097 C 
HETATM    7  O5  UNL     1     -33.081   7.870   2.040  1.00 20.00    -0.292 OA
ENDBRANCH   2   5
TORSDOF 1
ENDMDL
