MODEL 1
REMARK VINA RESULT:      -4.5      0.000      0.000
REMARK  1 active torsions:
REMARK  status: ('A' for Active; 'I' for Inactive)
REMARK    1  A    between atoms: C5_5  and  C8_8 
ROOT
HETATM    1  C1  UNL     1     -34.312  14.138  -4.152  1.00 20.00     0.047 C 
HETATM    2  C2  UNL     1     -33.918  15.391  -3.892  1.00 20.00    -0.009 C 
HETATM    3  C3  UNL     1     -35.552  13.888  -4.927  1.00 20.00     0.149 C 
HETATM    4  C6  UNL     1     -36.390  15.074  -5.348  1.00 20.00     0.084 C 
HETATM    5  C7  UNL     1     -35.517  16.300  -5.594  1.00 20.00     0.025 C 
HETATM    6  C8  UNL     1     -34.620  16.641  -4.381  1.00 20.00    -0.003 C 
HETATM    7  C11 UNL     1     -33.573  17.679  -4.821  1.00 20.00     0.024 C 
HETATM    8  O12 UNL     1     -35.904  12.733  -5.158  1.00 20.00    -0.293 OA
ENDROOT
BRANCH   6   9
HETATM    9  C5  UNL     1     -35.437  17.241  -3.264  1.00 20.00    -0.076 C 
HETATM   10  C4  UNL     1     -36.317  18.234  -3.499  1.00 20.00    -0.027 C 
HETATM   11  C9  UNL     1     -36.630  18.875  -4.791  1.00 20.00     0.036 C 
HETATM   12  C10 UNL     1     -35.188  16.650  -1.905  1.00 20.00     0.044 C 
ENDBRANCH   6   9
TORSDOF 1
ENDMDL
MODEL 2
REMARK VINA RESULT:      -4.5      1.395      2.438
REMARK  1 active torsions:
REMARK  status: ('A' for Active; 'I' for Inactive)
REMARK    1  A    between atoms: C5_5  and  C8_8 
ROOT
HETATM    1  C1  UNL     1     -34.379  14.208  -7.088  1.00 20.00     0.047 C 
HETATM    2  C2  UNL     1     -34.287  15.395  -6.476  1.00 20.00    -0.009 C 
HETATM    3  C3  UNL     1     -35.245  13.142  -6.529  1.00 20.00     0.149 C 
HETATM    4  C6  UNL     1     -35.959  13.403  -5.223  1.00 20.00     0.084 C 
HETATM    5  C7  UNL     1     -36.300  14.882  -5.073  1.00 20.00     0.025 C 
HETATM    6  C8  UNL     1     -35.062  15.795  -5.236  1.00 20.00    -0.003 C 
HETATM    7  C11 UNL     1     -35.539  17.251  -5.378  1.00 20.00     0.024 C 
HETATM    8  O12 UNL     1     -35.319  12.055  -7.100  1.00 20.00    -0.293 OA
ENDROOT
BRANCH   6   9
HETATM    9  C5  UNL     1     -34.170  15.708  -4.023  1.00 20.00    -0.076 C 
HETATM   10  C4  UNL     1     -34.580  16.160  -2.822  1.00 20.00    -0.027 C 
HETATM   11  C9  UNL     1     -35.877  16.779  -2.486  1.00 20.00     0.036 C 
HETATM   12  C10 UNL     1     -32.822  15.089  -4.267  1.00 20.00     0.044 C 
ENDBRANCH   6   9
TORSDOF 1
ENDMDL
MODEL 3
REMARK VINA RESULT:      -4.4      1.523      2.446
REMARK  1 active torsions:
REMARK  status: ('A' for Active; 'I' for Inactive)
REMARK    1  A    between atoms: C5_5  and  C8_8 
ROOT
HETATM    1  C1  UNL     1     -36.122  14.252  -6.067  1.00 20.00     0.047 C 
HETATM    2  C2  UNL     1     -35.013  15.001  -6.075  1.00 20.00    -0.009 C 
HETATM    3  C3  UNL     1     -37.180  14.490  -5.055  1.00 20.00     0.149 C 
HETATM    4  C6  UNL     1     -36.941  15.544  -3.998  1.00 20.00     0.084 C 
HETATM    5  C7  UNL     1     -36.072  16.674  -4.539  1.00 20.00     0.025 C 
HETATM    6  C8  UNL     1     -34.742  16.162  -5.140  1.00 20.00    -0.003 C 
HETATM    7  C11 UNL     1     -34.083  17.309  -5.924  1.00 20.00     0.024 C 
HETATM    8  O12 UNL     1     -38.193  13.794  -5.057  1.00 20.00    -0.293 OA
ENDROOT
BRANCH   6   9
HETATM    9  C5  UNL     1     -33.793  15.731  -4.049  1.00 20.00    -0.076 C 
HETATM   10  C4  UNL     1     -33.600  16.490  -2.953  1.00 20.00    -0.027 C 
HETATM   11  C9  UNL     1     -34.228  17.785  -2.631  1.00 20.00     0.036 C 
HETATM   12  C10 UNL     1     -33.103  14.418  -4.288  1.00 20.00     0.044 C 
ENDBRANCH   6   9
TORSDOF 1
ENDMDL
MODEL 4
REMARK VINA RESULT:      -4.3     11.688     13.420
REMARK  1 active torsions:
REMARK  status: ('A' for Active; 'I' for Inactive)
REMARK    1  A    between atoms: C5_5  and  C8_8 
ROOT
HETATM    1  C1  UNL     1     -32.927   7.866   5.047  1.00 20.00     0.047 C 
HETATM    2  C2  UNL     1     -33.951   7.023   4.865  1.00 20.00    -0.009 C 
HETATM    3  C3  UNL     1     -31.965   8.124   3.948  1.00 20.00     0.149 C 
HETATM    4  C6  UNL     1     -32.128   7.362   2.653  1.00 20.00     0.084 C 
HETATM    5  C7  UNL     1     -33.596   7.049   2.384  1.00 20.00     0.025 C 
HETATM    6  C8  UNL     1     -34.272   6.314   3.565  1.00 20.00    -0.003 C 
HETATM    7  C11 UNL     1     -35.793   6.316   3.341  1.00 20.00     0.024 C 
HETATM    8  O12 UNL     1     -31.027   8.899   4.128  1.00 20.00    -0.293 OA
ENDROOT
BRANCH   6   9
HETATM    9  C5  UNL     1     -33.808   4.880   3.636  1.00 20.00    -0.076 C 
HETATM   10  C4  UNL     1     -34.044   4.124   4.726  1.00 20.00    -0.027 C 
HETATM   11  C9  UNL     1     -34.745   4.519   5.963  1.00 20.00     0.036 C 
HETATM   12  C10 UNL     1     -33.081   4.384   2.418  1.00 20.00     0.044 C 
ENDBRANCH   6   9
TORSDOF 1
ENDMDL
MODEL 5
REMARK VINA RESULT:      -4.3      1.069      2.565
REMARK  1 active torsions:
REMARK  status: ('A' for Active; 'I' for Inactive)
REMARK    1  A    between atoms: C5_5  and  C8_8 
ROOT
HETATM    1  C1  UNL     1     -36.791  14.406  -4.764  1.00 20.00     0.047 C 
HETATM    2  C2  UNL     1     -36.809  15.558  -4.082  1.00 20.00    -0.009 C 
HETATM    3  C3  UNL     1     -35.502  13.779  -5.143  1.00 20.00     0.149 C 
HETATM    4  C6  UNL     1     -34.221  14.507  -4.807  1.00 20.00     0.084 C 
HETATM    5  C7  UNL     1     -34.376  15.326  -3.529  1.00 20.00     0.025 C 
HETATM    6  C8  UNL     1     -35.580  16.295  -3.589  1.00 20.00    -0.003 C 
HETATM    7  C11 UNL     1     -35.843  16.841  -2.175  1.00 20.00     0.024 C 
HETATM    8  O12 UNL     1     -35.499  12.722  -5.770  1.00 20.00    -0.293 OA
ENDROOT
BRANCH   6   9
HETATM    9  C5  UNL     1     -35.283  17.461  -4.498  1.00 20.00    -0.076 C 
HETATM   10  C4  UNL     1     -34.244  18.285  -4.257  1.00 20.00    -0.027 C 
HETATM   11  C9  UNL     1     -33.273  18.213  -3.149  1.00 20.00     0.036 C 
HETATM   12  C10 UNL     1     -36.221  17.618  -5.661  1.00 20.00     0.044 C 
ENDBRANCH   6   9
TORSDOF 1
ENDMDL
MODEL 6
REMARK VINA RESULT:      -4.3      2.078      2.688
REMARK  1 active torsions:
REMARK  status: ('A' for Active; 'I' for Inactive)
REMARK    1  A    between atoms: C5_5  and  C8_8 
ROOT
HETATM    1  C1  UNL     1     -36.025  13.421  -5.859  1.00 20.00     0.047 C 
HETATM    2  C2  UNL     1     -34.877  13.946  -6.306  1.00 20.00    -0.009 C 
HETATM    3  C3  UNL     1     -37.102  14.302  -5.344  1.00 20.00     0.149 C 
HETATM    4  C6  UNL     1     -36.842  15.788  -5.270  1.00 20.00     0.084 C 
HETATM    5  C7  UNL     1     -35.895  16.234  -6.380  1.00 20.00     0.025 C 
HETATM    6  C8  UNL     1     -34.576  15.428  -6.392  1.00 20.00    -0.003 C 
HETATM    7  C11 UNL     1     -33.830  15.724  -7.704  1.00 20.00     0.024 C 
HETATM    8  O12 UNL     1     -38.150  13.807  -4.935  1.00 20.00    -0.293 OA
ENDROOT
BRANCH   6   9
HETATM    9  C5  UNL     1     -33.688  15.838  -5.243  1.00 20.00    -0.076 C 
HETATM   10  C4  UNL     1     -33.450  17.137  -4.976  1.00 20.00    -0.027 C 
HETATM   11  C9  UNL     1     -33.968  18.316  -5.696  1.00 20.00     0.036 C 
HETATM   12  C10 UNL     1     -33.111  14.702  -4.447  1.00 20.00     0.044 C 
ENDBRANCH   6   9
TORSDOF 1
ENDMDL
MODEL 7
REMARK VINA RESULT:      -4.2      2.644      4.102
REMARK  1 active torsions:
REMARK  status: ('A' for Active; 'I' for Inactive)
REMARK    1  A    between atoms: C5_5  and  C8_8 
ROOT
HETATM    1  C1  UNL     1     -33.683  17.174  -2.244  1.00 20.00     0.047 C 
HETATM    2  C2  UNL     1     -34.385  16.149  -2.743  1.00 20.00    -0.009 C 
HETATM    3  C3  UNL     1     -33.293  18.309  -3.114  1.00 20.00     0.149 C 
HETATM    4  C6  UNL     1     -33.642  18.244  -4.583  1.00 20.00     0.084 C 
HETATM    5  C7  UNL     1     -34.934  17.464  -4.804  1.00 20.00     0.025 C 
HETATM    6  C8  UNL     1     -34.892  16.055  -4.168  1.00 20.00    -0.003 C 
HETATM    7  C11 UNL     1     -36.315  15.472  -4.169  1.00 20.00     0.024 C 
HETATM    8  O12 UNL     1     -32.647  19.244  -2.644  1.00 20.00    -0.293 OA
ENDROOT
BRANCH   6   9
HETATM    9  C5  UNL     1     -34.004  15.134  -4.968  1.00 20.00    -0.076 C 
HETATM   10  C4  UNL     1     -34.152  15.008  -6.301  1.00 20.00    -0.027 C 
HETATM   11  C9  UNL     1     -35.131  15.691  -7.169  1.00 20.00     0.036 C 
HETATM   12  C10 UNL     1     -32.971  14.392  -4.168  1.00 20.00     0.044 C 
ENDBRANCH   6   9
TORSDOF 1
ENDMDL
MODEL 8
REMARK VINA RESULT:      -4.2      1.951      3.496
REMARK  1 active torsions:
REMARK  status: ('A' for Active; 'I' for Inactive)
REMARK    1  A    between atoms: C5_5  and  C8_8 
ROOT
HETATM    1  C1  UNL     1     -36.482  15.774  -3.647  1.00 20.00     0.047 C 
HETATM    2  C2  UNL     1     -35.173  15.795  -3.930  1.00 20.00    -0.009 C 
HETATM    3  C3  UNL     1     -37.418  14.988  -4.488  1.00 20.00     0.149 C 
HETATM    4  C6  UNL     1     -36.870  14.277  -5.703  1.00 20.00     0.084 C 
HETATM    5  C7  UNL     1     -35.426  13.841  -5.478  1.00 20.00     0.025 C 
HETATM    6  C8  UNL     1     -34.514  15.012  -5.047  1.00 20.00    -0.003 C 
HETATM    7  C11 UNL     1     -33.176  14.437  -4.551  1.00 20.00     0.024 C 
HETATM    8  O12 UNL     1     -38.617  14.979  -4.218  1.00 20.00    -0.293 OA
ENDROOT
BRANCH   6   9
HETATM    9  C5  UNL     1     -34.230  15.925  -6.214  1.00 20.00    -0.076 C 
HETATM   10  C4  UNL     1     -33.989  15.430  -7.444  1.00 20.00    -0.027 C 
HETATM   11  C9  UNL     1     -33.959  14.014  -7.856  1.00 20.00     0.036 C 
HETATM   12  C10 UNL     1     -34.239  17.393  -5.892  1.00 20.00     0.044 C 
ENDBRANCH   6   9
TORSDOF 1
ENDMDL
MODEL 9
REMARK VINA RESULT:      -4.2      1.399      2.562
REMARK  1 active torsions:
REMARK  status: ('A' for Active; 'I' for Inactive)
REMARK    1  A    between atoms: C5_5  and  C8_8 
ROOT
HETATM    1  C1  UNL     1     -37.117  15.794  -4.128  1.00 20.00     0.047 C 
HETATM    2  C2  UNL     1     -36.031  16.508  -3.806  1.00 20.00    -0.009 C 
HETATM    3  C3  UNL     1     -36.977  14.446  -4.729  1.00 20.00     0.149 C 
HETATM    4  C6  UNL     1     -35.588  13.934  -5.033  1.00 20.00     0.084 C 
HETATM    5  C7  UNL     1     -34.572  14.484  -4.038  1.00 20.00     0.025 C 
HETATM    6  C8  UNL     1     -34.601  16.028  -3.953  1.00 20.00    -0.003 C 
HETATM    7  C11 UNL     1     -33.783  16.469  -2.728  1.00 20.00     0.024 C 
HETATM    8  O12 UNL     1     -37.982  13.801  -5.021  1.00 20.00    -0.293 OA
ENDROOT
BRANCH   6   9
HETATM    9  C5  UNL     1     -33.978  16.642  -5.182  1.00 20.00    -0.076 C 
HETATM   10  C4  UNL     1     -34.174  17.940  -5.487  1.00 20.00    -0.027 C 
HETATM   11  C9  UNL     1     -34.970  18.933  -4.741  1.00 20.00     0.036 C 
HETATM   12  C10 UNL     1     -33.145  15.705  -6.010  1.00 20.00     0.044 C 
ENDBRANCH   6   9
TORSDOF 1
ENDMDL
