MODEL 1
REMARK VINA RESULT:      -4.1      0.000      0.000
REMARK  0 active torsions:
REMARK  status: ('A' for Active; 'I' for Inactive)
ROOT
HETATM    1  C1  UNL     1     -34.021   5.551   3.699  1.00 20.00     0.001 C 
HETATM    2  C2  UNL     1     -33.497   6.750   4.001  1.00 20.00     0.076 C 
HETATM    3  C3  UNL     1     -34.725   4.603   4.617  1.00 20.00     0.038 C 
HETATM    4 CL4  UNL     1     -33.563   7.420   5.595  1.00 20.00    -0.076 Cl
HETATM    5 BR5  UNL     1     -32.648   7.798   2.702  1.00 20.00    -0.038 Br
ENDROOT
TORSDOF 0
ENDMDL
MODEL 2
REMARK VINA RESULT:      -4.1      2.097      2.813
REMARK  0 active torsions:
REMARK  status: ('A' for Active; 'I' for Inactive)
ROOT
HETATM    1  C1  UNL     1     -33.083   6.878   3.158  1.00 20.00     0.001 C 
HETATM    2  C2  UNL     1     -33.687   6.579   4.319  1.00 20.00     0.076 C 
HETATM    3  C3  UNL     1     -32.141   8.006   2.881  1.00 20.00     0.038 C 
HETATM    4 CL4  UNL     1     -33.448   7.508   5.760  1.00 20.00    -0.076 Cl
HETATM    5 BR5  UNL     1     -34.844   5.114   4.468  1.00 20.00    -0.038 Br
ENDROOT
TORSDOF 0
ENDMDL
MODEL 3
REMARK VINA RESULT:      -4.0      1.947      1.958
REMARK  0 active torsions:
REMARK  status: ('A' for Active; 'I' for Inactive)
ROOT
HETATM    1  C1  UNL     1     -34.030   6.543   4.441  1.00 20.00     0.001 C 
HETATM    2  C2  UNL     1     -33.293   6.407   3.327  1.00 20.00     0.076 C 
HETATM    3  C3  UNL     1     -34.697   5.464   5.234  1.00 20.00     0.038 C 
HETATM    4 CL4  UNL     1     -32.981   4.869   2.598  1.00 20.00    -0.076 Cl
HETATM    5 BR5  UNL     1     -32.536   7.892   2.471  1.00 20.00    -0.038 Br
ENDROOT
TORSDOF 0
ENDMDL
MODEL 4
REMARK VINA RESULT:      -3.9      2.755      3.391
REMARK  0 active torsions:
REMARK  status: ('A' for Active; 'I' for Inactive)
ROOT
HETATM    1  C1  UNL     1     -33.259   7.297   3.460  1.00 20.00     0.001 C 
HETATM    2  C2  UNL     1     -33.591   6.004   3.603  1.00 20.00     0.076 C 
HETATM    3  C3  UNL     1     -32.384   7.906   2.410  1.00 20.00     0.038 C 
HETATM    4 CL4  UNL     1     -33.023   4.772   2.527  1.00 20.00    -0.076 Cl
HETATM    5 BR5  UNL     1     -34.708   5.431   4.992  1.00 20.00    -0.038 Br
ENDROOT
TORSDOF 0
ENDMDL
MODEL 5
REMARK VINA RESULT:      -3.5      2.080      2.490
REMARK  0 active torsions:
REMARK  status: ('A' for Active; 'I' for Inactive)
ROOT
HETATM    1  C1  UNL     1     -33.680   7.107   4.750  1.00 20.00     0.001 C 
HETATM    2  C2  UNL     1     -33.982   5.951   4.136  1.00 20.00     0.076 C 
HETATM    3  C3  UNL     1     -33.851   7.445   6.197  1.00 20.00     0.038 C 
HETATM    4 CL4  UNL     1     -34.653   4.596   4.978  1.00 20.00    -0.076 Cl
HETATM    5 BR5  UNL     1     -33.693   5.718   2.300  1.00 20.00    -0.038 Br
ENDROOT
TORSDOF 0
ENDMDL
MODEL 6
REMARK VINA RESULT:      -3.4      3.096      3.990
REMARK  0 active torsions:
REMARK  status: ('A' for Active; 'I' for Inactive)
ROOT
HETATM    1  C1  UNL     1     -32.791   8.490   1.366  1.00 20.00     0.001 C 
HETATM    2  C2  UNL     1     -32.527   7.807   2.492  1.00 20.00     0.076 C 
HETATM    3  C3  UNL     1     -32.169   9.769   0.905  1.00 20.00     0.038 C 
HETATM    4 CL4  UNL     1     -31.355   8.338   3.649  1.00 20.00    -0.076 Cl
HETATM    5 BR5  UNL     1     -33.419   6.211   2.897  1.00 20.00    -0.038 Br
ENDROOT
TORSDOF 0
ENDMDL
MODEL 7
REMARK VINA RESULT:      -3.3      2.115      2.375
REMARK  0 active torsions:
REMARK  status: ('A' for Active; 'I' for Inactive)
ROOT
HETATM    1  C1  UNL     1     -33.338   7.038   2.382  1.00 20.00     0.001 C 
HETATM    2  C2  UNL     1     -32.423   8.020   2.412  1.00 20.00     0.076 C 
HETATM    3  C3  UNL     1     -33.642   6.037   3.451  1.00 20.00     0.038 C 
HETATM    4 CL4  UNL     1     -31.396   8.294   3.778  1.00 20.00    -0.076 Cl
HETATM    5 BR5  UNL     1     -32.190   9.181   0.961  1.00 20.00    -0.038 Br
ENDROOT
TORSDOF 0
ENDMDL
MODEL 8
REMARK VINA RESULT:      -3.3      2.261      2.480
REMARK  0 active torsions:
REMARK  status: ('A' for Active; 'I' for Inactive)
ROOT
HETATM    1  C1  UNL     1     -33.493   6.315   3.371  1.00 20.00     0.001 C 
HETATM    2  C2  UNL     1     -33.916   6.108   4.629  1.00 20.00     0.076 C 
HETATM    3  C3  UNL     1     -33.557   5.366   2.217  1.00 20.00     0.038 C 
HETATM    4 CL4  UNL     1     -34.645   4.621   5.133  1.00 20.00    -0.076 Cl
HETATM    5 BR5  UNL     1     -33.748   7.430   5.945  1.00 20.00    -0.038 Br
ENDROOT
TORSDOF 0
ENDMDL
MODEL 9
REMARK VINA RESULT:      -3.3      4.200      4.451
REMARK  0 active torsions:
REMARK  status: ('A' for Active; 'I' for Inactive)
ROOT
HETATM    1  C1  UNL     1     -32.073   8.396   1.871  1.00 20.00     0.001 C 
HETATM    2  C2  UNL     1     -32.493   9.463   1.172  1.00 20.00     0.076 C 
HETATM    3  C3  UNL     1     -31.588   8.363   3.286  1.00 20.00     0.038 C 
HETATM    4 CL4  UNL     1     -32.543  11.057   1.844  1.00 20.00    -0.076 Cl
HETATM    5 BR5  UNL     1     -33.066   9.301  -0.604  1.00 20.00    -0.038 Br
ENDROOT
TORSDOF 0
ENDMDL
