MODEL 1
REMARK VINA RESULT:      -5.8      0.000      0.000
REMARK  3 active torsions:
REMARK  status: ('A' for Active; 'I' for Inactive)
REMARK    1  A    between atoms: C2_2  and  C8_8 
REMARK    2  A    between atoms: C4_4  and  C7_7 
REMARK    3  A    between atoms: C7_7  and  C8_8 
ROOT
HETATM    1  C7  UNL     1     -33.273   6.719   3.084  1.00 20.00     0.034 C 
ENDROOT
BRANCH   1   2
HETATM    2  C4  UNL     1     -32.100   7.635   3.306  1.00 20.00    -0.030 C 
HETATM    3  C3  UNL     1     -31.748   8.612   2.459  1.00 20.00    -0.035 C 
HETATM    4  C5  UNL     1     -32.473   8.915   1.190  1.00 20.00     0.035 C 
ENDBRANCH   1   2
BRANCH   1   5
HETATM    5  C8  UNL     1     -34.315   6.802   4.217  1.00 20.00     0.007 C 
HETATM    6  C6  UNL     1     -33.639   7.246   5.517  1.00 20.00     0.014 C 
BRANCH   5   7
HETATM    7  C2  UNL     1     -35.001   5.476   4.437  1.00 20.00    -0.032 C 
HETATM    8  C1  UNL     1     -34.364   4.299   4.455  1.00 20.00     0.007 C 
ENDBRANCH   5   7
ENDBRANCH   1   5
TORSDOF 3
ENDMDL
MODEL 2
REMARK VINA RESULT:      -5.8      1.181      3.984
REMARK  3 active torsions:
REMARK  status: ('A' for Active; 'I' for Inactive)
REMARK    1  A    between atoms: C2_2  and  C8_8 
REMARK    2  A    between atoms: C4_4  and  C7_7 
REMARK    3  A    between atoms: C7_7  and  C8_8 
ROOT
HETATM    1  C7  UNL     1     -34.896   6.147   3.421  1.00 20.00     0.034 C 
ENDROOT
BRANCH   1   2
HETATM    2  C4  UNL     1     -34.795   5.308   4.666  1.00 20.00    -0.030 C 
HETATM    3  C3  UNL     1     -34.360   5.774   5.845  1.00 20.00    -0.035 C 
HETATM    4  C5  UNL     1     -33.921   7.183   6.072  1.00 20.00     0.035 C 
ENDBRANCH   1   2
BRANCH   1   5
HETATM    5  C8  UNL     1     -33.645   6.035   2.527  1.00 20.00     0.007 C 
HETATM    6  C6  UNL     1     -33.018   4.646   2.676  1.00 20.00     0.014 C 
BRANCH   5   7
HETATM    7  C2  UNL     1     -32.620   7.087   2.875  1.00 20.00    -0.032 C 
HETATM    8  C1  UNL     1     -32.408   8.192   2.149  1.00 20.00     0.007 C 
ENDBRANCH   5   7
ENDBRANCH   1   5
TORSDOF 3
ENDMDL
MODEL 3
REMARK VINA RESULT:      -5.5      0.898      4.270
REMARK  3 active torsions:
REMARK  status: ('A' for Active; 'I' for Inactive)
REMARK    1  A    between atoms: C2_2  and  C8_8 
REMARK    2  A    between atoms: C4_4  and  C7_7 
REMARK    3  A    between atoms: C7_7  and  C8_8 
ROOT
HETATM    1  C7  UNL     1     -33.507   6.924   3.304  1.00 20.00     0.034 C 
ENDROOT
BRANCH   1   2
HETATM    2  C4  UNL     1     -33.680   7.281   4.755  1.00 20.00    -0.030 C 
HETATM    3  C3  UNL     1     -34.182   6.443   5.674  1.00 20.00    -0.035 C 
HETATM    4  C5  UNL     1     -34.633   5.052   5.373  1.00 20.00     0.035 C 
ENDBRANCH   1   2
BRANCH   1   5
HETATM    5  C8  UNL     1     -32.288   7.616   2.663  1.00 20.00     0.007 C 
HETATM    6  C6  UNL     1     -31.411   8.244   3.750  1.00 20.00     0.014 C 
BRANCH   5   7
HETATM    7  C2  UNL     1     -32.709   8.683   1.681  1.00 20.00    -0.032 C 
HETATM    8  C1  UNL     1     -31.927   9.144   0.698  1.00 20.00     0.007 C 
ENDBRANCH   5   7
ENDBRANCH   1   5
TORSDOF 3
ENDMDL
MODEL 4
REMARK VINA RESULT:      -5.4      1.214      2.182
REMARK  3 active torsions:
REMARK  status: ('A' for Active; 'I' for Inactive)
REMARK    1  A    between atoms: C2_2  and  C8_8 
REMARK    2  A    between atoms: C4_4  and  C7_7 
REMARK    3  A    between atoms: C7_7  and  C8_8 
ROOT
HETATM    1  C7  UNL     1     -33.200   7.901   2.414  1.00 20.00     0.034 C 
ENDROOT
BRANCH   1   2
HETATM    2  C4  UNL     1     -31.890   8.415   1.881  1.00 20.00    -0.030 C 
HETATM    3  C3  UNL     1     -31.771   9.108   0.740  1.00 20.00    -0.035 C 
HETATM    4  C5  UNL     1     -32.921   9.458  -0.145  1.00 20.00     0.035 C 
ENDBRANCH   1   2
BRANCH   1   5
HETATM    5  C8  UNL     1     -33.019   6.767   3.443  1.00 20.00     0.007 C 
HETATM    6  C6  UNL     1     -33.233   5.410   2.769  1.00 20.00     0.014 C 
BRANCH   5   7
HETATM    7  C2  UNL     1     -33.981   6.910   4.598  1.00 20.00    -0.032 C 
HETATM    8  C1  UNL     1     -33.627   7.331   5.818  1.00 20.00     0.007 C 
ENDBRANCH   5   7
ENDBRANCH   1   5
TORSDOF 3
ENDMDL
MODEL 5
REMARK VINA RESULT:      -5.3      1.106      4.341
REMARK  3 active torsions:
REMARK  status: ('A' for Active; 'I' for Inactive)
REMARK    1  A    between atoms: C2_2  and  C8_8 
REMARK    2  A    between atoms: C4_4  and  C7_7 
REMARK    3  A    between atoms: C7_7  and  C8_8 
ROOT
HETATM    1  C7  UNL     1     -33.668   7.149   3.366  1.00 20.00     0.034 C 
ENDROOT
BRANCH   1   2
HETATM    2  C4  UNL     1     -33.909   5.676   3.181  1.00 20.00    -0.030 C 
HETATM    3  C3  UNL     1     -34.332   4.861   4.158  1.00 20.00    -0.035 C 
HETATM    4  C5  UNL     1     -34.616   5.313   5.552  1.00 20.00     0.035 C 
ENDBRANCH   1   2
BRANCH   1   5
HETATM    5  C8  UNL     1     -32.375   7.631   2.678  1.00 20.00     0.007 C 
HETATM    6  C6  UNL     1     -31.413   8.209   3.720  1.00 20.00     0.014 C 
BRANCH   5   7
HETATM    7  C2  UNL     1     -32.663   8.676   1.628  1.00 20.00    -0.032 C 
HETATM    8  C1  UNL     1     -31.784   9.059   0.694  1.00 20.00     0.007 C 
ENDBRANCH   5   7
ENDBRANCH   1   5
TORSDOF 3
ENDMDL
MODEL 6
REMARK VINA RESULT:      -5.3      1.014      1.688
REMARK  3 active torsions:
REMARK  status: ('A' for Active; 'I' for Inactive)
REMARK    1  A    between atoms: C2_2  and  C8_8 
REMARK    2  A    between atoms: C4_4  and  C7_7 
REMARK    3  A    between atoms: C7_7  and  C8_8 
ROOT
HETATM    1  C7  UNL     1     -32.017   8.126   3.046  1.00 20.00     0.034 C 
ENDROOT
BRANCH   1   2
HETATM    2  C4  UNL     1     -31.737   8.204   1.570  1.00 20.00    -0.030 C 
HETATM    3  C3  UNL     1     -32.074   9.249   0.801  1.00 20.00    -0.035 C 
HETATM    4  C5  UNL     1     -32.769  10.468   1.313  1.00 20.00     0.035 C 
ENDBRANCH   1   2
BRANCH   1   5
HETATM    5  C8  UNL     1     -33.326   7.377   3.364  1.00 20.00     0.007 C 
HETATM    6  C6  UNL     1     -33.530   7.301   4.879  1.00 20.00     0.014 C 
BRANCH   5   7
HETATM    7  C2  UNL     1     -33.318   5.980   2.790  1.00 20.00    -0.032 C 
HETATM    8  C1  UNL     1     -33.766   4.902   3.443  1.00 20.00     0.007 C 
ENDBRANCH   5   7
ENDBRANCH   1   5
TORSDOF 3
ENDMDL
MODEL 7
REMARK VINA RESULT:      -5.2      1.006      1.860
REMARK  3 active torsions:
REMARK  status: ('A' for Active; 'I' for Inactive)
REMARK    1  A    between atoms: C2_2  and  C8_8 
REMARK    2  A    between atoms: C4_4  and  C7_7 
REMARK    3  A    between atoms: C7_7  and  C8_8 
ROOT
HETATM    1  C7  UNL     1     -33.238   7.025   2.404  1.00 20.00     0.034 C 
ENDROOT
BRANCH   1   2
HETATM    2  C4  UNL     1     -32.092   7.988   2.552  1.00 20.00    -0.030 C 
HETATM    3  C3  UNL     1     -31.864   9.010   1.714  1.00 20.00    -0.035 C 
HETATM    4  C5  UNL     1     -32.718   9.320   0.530  1.00 20.00     0.035 C 
ENDBRANCH   1   2
BRANCH   1   5
HETATM    5  C8  UNL     1     -33.649   6.380   3.742  1.00 20.00     0.007 C 
HETATM    6  C6  UNL     1     -35.090   5.868   3.655  1.00 20.00     0.014 C 
BRANCH   5   7
HETATM    7  C2  UNL     1     -33.533   7.357   4.887  1.00 20.00    -0.032 C 
HETATM    8  C1  UNL     1     -33.923   7.091   6.139  1.00 20.00     0.007 C 
ENDBRANCH   5   7
ENDBRANCH   1   5
TORSDOF 3
ENDMDL
MODEL 8
REMARK VINA RESULT:      -5.1      1.061      2.140
REMARK  3 active torsions:
REMARK  status: ('A' for Active; 'I' for Inactive)
REMARK    1  A    between atoms: C2_2  and  C8_8 
REMARK    2  A    between atoms: C4_4  and  C7_7 
REMARK    3  A    between atoms: C7_7  and  C8_8 
ROOT
HETATM    1  C7  UNL     1     -33.160   5.563   3.435  1.00 20.00     0.034 C 
ENDROOT
BRANCH   1   2
HETATM    2  C4  UNL     1     -33.325   6.663   2.422  1.00 20.00    -0.030 C 
HETATM    3  C3  UNL     1     -32.615   7.801   2.435  1.00 20.00    -0.035 C 
HETATM    4  C5  UNL     1     -31.573   8.119   3.454  1.00 20.00     0.035 C 
ENDBRANCH   1   2
BRANCH   1   5
HETATM    5  C8  UNL     1     -34.426   5.345   4.287  1.00 20.00     0.007 C 
HETATM    6  C6  UNL     1     -35.623   6.042   3.634  1.00 20.00     0.014 C 
BRANCH   5   7
HETATM    7  C2  UNL     1     -34.246   5.870   5.691  1.00 20.00    -0.032 C 
HETATM    8  C1  UNL     1     -33.929   7.138   5.979  1.00 20.00     0.007 C 
ENDBRANCH   5   7
ENDBRANCH   1   5
TORSDOF 3
ENDMDL
MODEL 9
REMARK VINA RESULT:      -5.1      1.142      3.614
REMARK  3 active torsions:
REMARK  status: ('A' for Active; 'I' for Inactive)
REMARK    1  A    between atoms: C2_2  and  C8_8 
REMARK    2  A    between atoms: C4_4  and  C7_7 
REMARK    3  A    between atoms: C7_7  and  C8_8 
ROOT
HETATM    1  C7  UNL     1     -33.890   7.531   4.018  1.00 20.00     0.034 C 
ENDROOT
BRANCH   1   2
HETATM    2  C4  UNL     1     -33.753   7.275   5.494  1.00 20.00    -0.030 C 
HETATM    3  C3  UNL     1     -34.180   6.158   6.099  1.00 20.00    -0.035 C 
HETATM    4  C5  UNL     1     -34.846   5.028   5.386  1.00 20.00     0.035 C 
ENDBRANCH   1   2
BRANCH   1   5
HETATM    5  C8  UNL     1     -32.657   7.064   3.217  1.00 20.00     0.007 C 
HETATM    6  C6  UNL     1     -32.066   8.241   2.436  1.00 20.00     0.014 C 
BRANCH   5   7
HETATM    7  C2  UNL     1     -33.009   5.953   2.258  1.00 20.00    -0.032 C 
HETATM    8  C1  UNL     1     -32.954   4.652   2.570  1.00 20.00     0.007 C 
ENDBRANCH   5   7
ENDBRANCH   1   5
TORSDOF 3
ENDMDL
