MODEL 1
REMARK VINA RESULT:      -4.9      0.000      0.000
REMARK  2 active torsions:
REMARK  status: ('A' for Active; 'I' for Inactive)
REMARK    1  A    between atoms: C1_1  and  C4_4 
REMARK    2  A    between atoms: C4_4  and  C6_6 
ROOT
HETATM    1  C2  UNL     1     -35.244   5.850   3.484  1.00 20.00     0.062 A 
HETATM    2  C3  UNL     1     -33.916   5.165   3.508  1.00 20.00     0.190 A 
HETATM    3  C4  UNL     1     -34.051   6.534   4.128  1.00 20.00     0.081 A 
HETATM    4  F9  UNL     1     -33.234   5.054   2.307  1.00 20.00    -0.248 F 
ENDROOT
BRANCH   3   5
HETATM    5  C1  UNL     1     -34.047   6.582   5.586  1.00 20.00     0.184 C 
HETATM    6  O7  UNL     1     -33.757   7.704   6.088  1.00 20.00    -0.647 OA
HETATM    7  O8  UNL     1     -34.334   5.490   6.152  1.00 20.00    -0.647 OA
ENDBRANCH   3   5
BRANCH   3   8
HETATM    8  C6  UNL     1     -33.444   7.699   3.391  1.00 20.00     0.019 C 
HETATM    9  C5  UNL     1     -31.943   7.663   3.399  1.00 20.00     0.006 C 
ENDBRANCH   3   8
TORSDOF 2
ENDMDL
MODEL 2
REMARK VINA RESULT:      -4.8      1.716      2.232
REMARK  2 active torsions:
REMARK  status: ('A' for Active; 'I' for Inactive)
REMARK    1  A    between atoms: C1_1  and  C4_4 
REMARK    2  A    between atoms: C4_4  and  C6_6 
ROOT
HETATM    1  C2  UNL     1     -34.443   5.933   2.495  1.00 20.00     0.062 A 
HETATM    2  C3  UNL     1     -33.031   5.852   2.979  1.00 20.00     0.190 A 
HETATM    3  C4  UNL     1     -34.152   5.949   3.985  1.00 20.00     0.081 A 
HETATM    4  F9  UNL     1     -32.226   6.961   2.785  1.00 20.00    -0.248 F 
ENDROOT
BRANCH   3   5
HETATM    5  C1  UNL     1     -34.467   4.727   4.715  1.00 20.00     0.184 C 
HETATM    6  O7  UNL     1     -34.168   3.652   4.124  1.00 20.00    -0.647 OA
HETATM    7  O8  UNL     1     -35.000   4.909   5.846  1.00 20.00    -0.647 OA
ENDBRANCH   3   5
BRANCH   3   8
HETATM    8  C6  UNL     1     -34.331   7.258   4.708  1.00 20.00     0.019 C 
HETATM    9  C5  UNL     1     -33.359   7.425   5.840  1.00 20.00     0.006 C 
ENDBRANCH   3   8
TORSDOF 2
ENDMDL
MODEL 3
REMARK VINA RESULT:      -4.8      2.178      3.067
REMARK  2 active torsions:
REMARK  status: ('A' for Active; 'I' for Inactive)
REMARK    1  A    between atoms: C1_1  and  C4_4 
REMARK    2  A    between atoms: C4_4  and  C6_6 
ROOT
HETATM    1  C2  UNL     1     -33.180   8.170   2.417  1.00 20.00     0.062 A 
HETATM    2  C3  UNL     1     -31.978   7.431   2.909  1.00 20.00     0.190 A 
HETATM    3  C4  UNL     1     -33.320   7.165   3.546  1.00 20.00     0.081 A 
HETATM    4  F9  UNL     1     -31.040   8.149   3.630  1.00 20.00    -0.248 F 
ENDROOT
BRANCH   3   5
HETATM    5  C1  UNL     1     -33.953   5.896   3.205  1.00 20.00     0.184 C 
HETATM    6  O7  UNL     1     -33.163   4.977   2.852  1.00 20.00    -0.647 OA
HETATM    7  O8  UNL     1     -35.212   5.888   3.308  1.00 20.00    -0.647 OA
ENDBRANCH   3   5
BRANCH   3   8
HETATM    8  C6  UNL     1     -33.557   7.711   4.929  1.00 20.00     0.019 C 
HETATM    9  C5  UNL     1     -33.962   6.644   5.906  1.00 20.00     0.006 C 
ENDBRANCH   3   8
TORSDOF 2
ENDMDL
MODEL 4
REMARK VINA RESULT:      -4.5      2.194      2.903
REMARK  2 active torsions:
REMARK  status: ('A' for Active; 'I' for Inactive)
REMARK    1  A    between atoms: C1_1  and  C4_4 
REMARK    2  A    between atoms: C4_4  and  C6_6 
ROOT
HETATM    1  C2  UNL     1     -33.459   5.343   2.844  1.00 20.00     0.062 A 
HETATM    2  C3  UNL     1     -34.632   6.262   2.961  1.00 20.00     0.190 A 
HETATM    3  C4  UNL     1     -33.359   6.593   3.699  1.00 20.00     0.081 A 
HETATM    4  F9  UNL     1     -35.719   5.817   3.694  1.00 20.00    -0.248 F 
ENDROOT
BRANCH   3   5
HETATM    5  C1  UNL     1     -32.564   7.686   3.151  1.00 20.00     0.184 C 
HETATM    6  O7  UNL     1     -31.476   7.915   3.750  1.00 20.00    -0.647 OA
HETATM    7  O8  UNL     1     -33.073   8.258   2.146  1.00 20.00    -0.647 OA
ENDBRANCH   3   5
BRANCH   3   8
HETATM    8  C6  UNL     1     -33.348   6.406   5.194  1.00 20.00     0.019 C 
HETATM    9  C5  UNL     1     -33.939   7.579   5.922  1.00 20.00     0.006 C 
ENDBRANCH   3   8
TORSDOF 2
ENDMDL
MODEL 5
REMARK VINA RESULT:      -4.4      2.610      3.534
REMARK  2 active torsions:
REMARK  status: ('A' for Active; 'I' for Inactive)
REMARK    1  A    between atoms: C1_1  and  C4_4 
REMARK    2  A    between atoms: C4_4  and  C6_6 
ROOT
HETATM    1  C2  UNL     1     -34.262   7.936   4.039  1.00 20.00     0.062 A 
HETATM    2  C3  UNL     1     -33.390   7.349   5.103  1.00 20.00     0.190 A 
HETATM    3  C4  UNL     1     -33.906   6.460   3.998  1.00 20.00     0.081 A 
HETATM    4  F9  UNL     1     -33.936   7.207   6.367  1.00 20.00    -0.248 F 
ENDROOT
BRANCH   3   5
HETATM    5  C1  UNL     1     -32.933   6.061   2.988  1.00 20.00     0.184 C 
HETATM    6  O7  UNL     1     -33.056   4.881   2.557  1.00 20.00    -0.647 OA
HETATM    7  O8  UNL     1     -32.094   6.953   2.679  1.00 20.00    -0.647 OA
ENDBRANCH   3   5
BRANCH   3   8
HETATM    8  C6  UNL     1     -34.996   5.479   4.341  1.00 20.00     0.019 C 
HETATM    9  C5  UNL     1     -34.568   4.489   5.386  1.00 20.00     0.006 C 
ENDBRANCH   3   8
TORSDOF 2
ENDMDL
MODEL 6
REMARK VINA RESULT:      -4.4      1.686      2.227
REMARK  2 active torsions:
REMARK  status: ('A' for Active; 'I' for Inactive)
REMARK    1  A    between atoms: C1_1  and  C4_4 
REMARK    2  A    between atoms: C4_4  and  C6_6 
ROOT
HETATM    1  C2  UNL     1     -35.477   6.105   4.031  1.00 20.00     0.062 A 
HETATM    2  C3  UNL     1     -34.576   5.142   4.733  1.00 20.00     0.190 A 
HETATM    3  C4  UNL     1     -33.990   6.103   3.729  1.00 20.00     0.081 A 
HETATM    4  F9  UNL     1     -34.674   3.806   4.383  1.00 20.00    -0.248 F 
ENDROOT
BRANCH   3   5
HETATM    5  C1  UNL     1     -33.220   7.215   4.276  1.00 20.00     0.184 C 
HETATM    6  O7  UNL     1     -32.527   7.856   3.438  1.00 20.00    -0.647 OA
HETATM    7  O8  UNL     1     -33.350   7.386   5.521  1.00 20.00    -0.647 OA
ENDBRANCH   3   5
BRANCH   3   8
HETATM    8  C6  UNL     1     -33.559   5.547   2.397  1.00 20.00     0.019 C 
HETATM    9  C5  UNL     1     -32.633   4.372   2.540  1.00 20.00     0.006 C 
ENDBRANCH   3   8
TORSDOF 2
ENDMDL
MODEL 7
REMARK VINA RESULT:      -4.4      2.344      3.150
REMARK  2 active torsions:
REMARK  status: ('A' for Active; 'I' for Inactive)
REMARK    1  A    between atoms: C1_1  and  C4_4 
REMARK    2  A    between atoms: C4_4  and  C6_6 
ROOT
HETATM    1  C2  UNL     1     -34.473   7.823   4.461  1.00 20.00     0.062 A 
HETATM    2  C3  UNL     1     -33.469   6.951   5.143  1.00 20.00     0.190 A 
HETATM    3  C4  UNL     1     -33.470   7.036   3.636  1.00 20.00     0.081 A 
HETATM    4  F9  UNL     1     -33.932   5.788   5.734  1.00 20.00    -0.248 F 
ENDROOT
BRANCH   3   5
HETATM    5  C1  UNL     1     -32.387   7.806   3.035  1.00 20.00     0.184 C 
HETATM    6  O7  UNL     1     -31.410   8.048   3.798  1.00 20.00    -0.647 OA
HETATM    7  O8  UNL     1     -32.573   8.128   1.828  1.00 20.00    -0.647 OA
ENDBRANCH   3   5
BRANCH   3   8
HETATM    8  C6  UNL     1     -33.989   5.849   2.869  1.00 20.00     0.019 C 
HETATM    9  C5  UNL     1     -32.949   4.779   2.697  1.00 20.00     0.006 C 
ENDBRANCH   3   8
TORSDOF 2
ENDMDL
MODEL 8
REMARK VINA RESULT:      -4.2     12.233     13.015
REMARK  2 active torsions:
REMARK  status: ('A' for Active; 'I' for Inactive)
REMARK    1  A    between atoms: C1_1  and  C4_4 
REMARK    2  A    between atoms: C4_4  and  C6_6 
ROOT
HETATM    1  C2  UNL     1     -35.652  15.191  -7.130  1.00 20.00     0.062 A 
HETATM    2  C3  UNL     1     -34.436  14.540  -6.554  1.00 20.00     0.190 A 
HETATM    3  C4  UNL     1     -35.608  14.844  -5.653  1.00 20.00     0.081 A 
HETATM    4  F9  UNL     1     -33.296  15.316  -6.431  1.00 20.00    -0.248 F 
ENDROOT
BRANCH   3   5
HETATM    5  C1  UNL     1     -36.411  13.699  -5.236  1.00 20.00     0.184 C 
HETATM    6  O7  UNL     1     -37.599  13.966  -4.904  1.00 20.00    -0.647 OA
HETATM    7  O8  UNL     1     -35.807  12.590  -5.265  1.00 20.00    -0.647 OA
ENDBRANCH   3   5
BRANCH   3   8
HETATM    8  C6  UNL     1     -35.466  15.985  -4.681  1.00 20.00     0.019 C 
HETATM    9  C5  UNL     1     -34.715  15.592  -3.441  1.00 20.00     0.006 C 
ENDBRANCH   3   8
TORSDOF 2
ENDMDL
MODEL 9
REMARK VINA RESULT:      -4.2      1.629      2.533
REMARK  2 active torsions:
REMARK  status: ('A' for Active; 'I' for Inactive)
REMARK    1  A    between atoms: C1_1  and  C4_4 
REMARK    2  A    between atoms: C4_4  and  C6_6 
ROOT
HETATM    1  C2  UNL     1     -32.929   5.289   2.896  1.00 20.00     0.062 A 
HETATM    2  C3  UNL     1     -33.743   6.334   2.203  1.00 20.00     0.190 A 
HETATM    3  C4  UNL     1     -33.752   6.270   3.711  1.00 20.00     0.081 A 
HETATM    4  F9  UNL     1     -34.873   5.913   1.522  1.00 20.00    -0.248 F 
ENDROOT
BRANCH   3   5
HETATM    5  C1  UNL     1     -33.008   7.316   4.403  1.00 20.00     0.184 C 
HETATM    6  O7  UNL     1     -32.141   7.913   3.705  1.00 20.00    -0.647 OA
HETATM    7  O8  UNL     1     -33.333   7.485   5.612  1.00 20.00    -0.647 OA
ENDBRANCH   3   5
BRANCH   3   8
HETATM    8  C6  UNL     1     -34.992   5.738   4.381  1.00 20.00     0.019 C 
HETATM    9  C5  UNL     1     -34.683   4.685   5.406  1.00 20.00     0.006 C 
ENDBRANCH   3   8
TORSDOF 2
ENDMDL
