MODEL 1
REMARK VINA RESULT:      -5.0      0.000      0.000
REMARK  1 active torsions:
REMARK  status: ('A' for Active; 'I' for Inactive)
REMARK    1  A    between atoms: C4_4  and  C9_9 
ROOT
HETATM    1  C5  UNL     1     -35.894  17.505  -0.525  1.00 20.00     0.002 C 
HETATM    2  C6  UNL     1     -35.655  17.150  -1.996  1.00 20.00     0.009 C 
HETATM    3  C7  UNL     1     -34.626  17.933   0.219  1.00 20.00     0.020 C 
HETATM    4  C8  UNL     1     -33.136  17.470  -1.778  1.00 20.00     0.029 C 
HETATM    5  C9  UNL     1     -34.273  16.516  -2.206  1.00 20.00     0.020 C 
HETATM    6  C10 UNL     1     -33.582  18.505  -0.736  1.00 20.00     0.083 C 
HETATM    7 CL12 UNL     1     -32.168  19.107   0.173  1.00 20.00    -0.125 Cl
ENDROOT
BRANCH   5   8
HETATM    8  C4  UNL     1     -34.070  16.006  -3.621  1.00 20.00    -0.047 A 
HETATM    9  C1  UNL     1     -34.422  14.694  -4.051  1.00 20.00     0.015 A 
HETATM   10  C2  UNL     1     -34.132  14.490  -5.382  1.00 20.00     0.050 A 
HETATM   11  S11 UNL     1     -33.437  15.876  -6.108  1.00 20.00    -0.113 SA
HETATM   12  C3  UNL     1     -33.523  16.755  -4.640  1.00 20.00     0.057 A 
ENDBRANCH   5   8
TORSDOF 1
ENDMDL
MODEL 2
REMARK VINA RESULT:      -5.0     11.073     11.616
REMARK  1 active torsions:
REMARK  status: ('A' for Active; 'I' for Inactive)
REMARK    1  A    between atoms: C4_4  and  C9_9 
ROOT
HETATM    1  C5  UNL     1     -33.720   7.316   5.981  1.00 20.00     0.002 C 
HETATM    2  C6  UNL     1     -32.926   7.935   4.827  1.00 20.00     0.009 C 
HETATM    3  C7  UNL     1     -34.391   5.986   5.623  1.00 20.00     0.020 C 
HETATM    4  C8  UNL     1     -33.656   6.112   3.202  1.00 20.00     0.029 C 
HETATM    5  C9  UNL     1     -33.575   7.632   3.469  1.00 20.00     0.020 C 
HETATM    6  C10 UNL     1     -33.659   5.276   4.489  1.00 20.00     0.083 C 
HETATM    7 CL12 UNL     1     -34.391   3.677   4.178  1.00 20.00    -0.125 Cl
ENDROOT
BRANCH   5   8
HETATM    8  C4  UNL     1     -32.905   8.366   2.322  1.00 20.00    -0.047 A 
HETATM    9  C1  UNL     1     -31.651   7.988   1.762  1.00 20.00     0.015 A 
HETATM   10  C2  UNL     1     -31.271   8.822   0.734  1.00 20.00     0.050 A 
HETATM   11  S11 UNL     1     -32.423  10.056   0.447  1.00 20.00    -0.113 SA
HETATM   12  C3  UNL     1     -33.435   9.475   1.701  1.00 20.00     0.057 A 
ENDBRANCH   5   8
TORSDOF 1
ENDMDL
MODEL 3
REMARK VINA RESULT:      -4.9      3.268      5.249
REMARK  1 active torsions:
REMARK  status: ('A' for Active; 'I' for Inactive)
REMARK    1  A    between atoms: C4_4  and  C9_9 
ROOT
HETATM    1  C5  UNL     1     -33.334  16.347  -5.893  1.00 20.00     0.002 C 
HETATM    2  C6  UNL     1     -33.691  17.124  -4.623  1.00 20.00     0.009 C 
HETATM    3  C7  UNL     1     -33.951  14.946  -5.952  1.00 20.00     0.020 C 
HETATM    4  C8  UNL     1     -34.947  15.141  -3.630  1.00 20.00     0.029 C 
HETATM    5  C9  UNL     1     -33.835  16.192  -3.412  1.00 20.00     0.020 C 
HETATM    6  C10 UNL     1     -35.222  14.858  -5.113  1.00 20.00     0.083 C 
HETATM    7 CL12 UNL     1     -35.984  13.254  -5.300  1.00 20.00    -0.125 Cl
ENDROOT
BRANCH   5   8
HETATM    8  C4  UNL     1     -34.028  16.946  -2.110  1.00 20.00    -0.047 A 
HETATM    9  C1  UNL     1     -35.216  16.886  -1.325  1.00 20.00     0.015 A 
HETATM   10  C2  UNL     1     -35.127  17.666  -0.193  1.00 20.00     0.050 A 
HETATM   11  S11 UNL     1     -33.618  18.466  -0.079  1.00 20.00    -0.113 SA
HETATM   12  C3  UNL     1     -33.078  17.770  -1.547  1.00 20.00     0.057 A 
ENDBRANCH   5   8
TORSDOF 1
ENDMDL
MODEL 4
REMARK VINA RESULT:      -4.9      3.287      5.349
REMARK  1 active torsions:
REMARK  status: ('A' for Active; 'I' for Inactive)
REMARK    1  A    between atoms: C4_4  and  C9_9 
ROOT
HETATM    1  C5  UNL     1     -33.324  16.295  -5.902  1.00 20.00     0.002 C 
HETATM    2  C6  UNL     1     -33.677  17.088  -4.640  1.00 20.00     0.009 C 
HETATM    3  C7  UNL     1     -33.967  14.905  -5.955  1.00 20.00     0.020 C 
HETATM    4  C8  UNL     1     -34.977  15.136  -3.643  1.00 20.00     0.029 C 
HETATM    5  C9  UNL     1     -33.847  16.167  -3.423  1.00 20.00     0.020 C 
HETATM    6  C10 UNL     1     -35.245  14.847  -5.126  1.00 20.00     0.083 C 
HETATM    7 CL12 UNL     1     -36.035  13.255  -5.307  1.00 20.00    -0.125 Cl
ENDROOT
BRANCH   5   8
HETATM    8  C4  UNL     1     -34.036  16.934  -2.128  1.00 20.00    -0.047 A 
HETATM    9  C1  UNL     1     -33.039  17.770  -1.548  1.00 20.00     0.015 A 
HETATM   10  C2  UNL     1     -33.469  18.347  -0.373  1.00 20.00     0.050 A 
HETATM   11  S11 UNL     1     -35.067  17.881   0.027  1.00 20.00    -0.113 SA
HETATM   12  C3  UNL     1     -35.189  16.904  -1.374  1.00 20.00     0.057 A 
ENDBRANCH   5   8
TORSDOF 1
ENDMDL
MODEL 5
REMARK VINA RESULT:      -4.9      0.617      1.172
REMARK  1 active torsions:
REMARK  status: ('A' for Active; 'I' for Inactive)
REMARK    1  A    between atoms: C4_4  and  C9_9 
ROOT
HETATM    1  C5  UNL     1     -35.883  17.506  -0.480  1.00 20.00     0.002 C 
HETATM    2  C6  UNL     1     -35.659  17.155  -1.954  1.00 20.00     0.009 C 
HETATM    3  C7  UNL     1     -34.608  17.934   0.252  1.00 20.00     0.020 C 
HETATM    4  C8  UNL     1     -33.138  17.476  -1.760  1.00 20.00     0.029 C 
HETATM    5  C9  UNL     1     -34.278  16.521  -2.180  1.00 20.00     0.020 C 
HETATM    6  C10 UNL     1     -33.574  18.508  -0.711  1.00 20.00     0.083 C 
HETATM    7 CL12 UNL     1     -32.151  19.109   0.185  1.00 20.00    -0.125 Cl
ENDROOT
BRANCH   5   8
HETATM    8  C4  UNL     1     -34.089  16.015  -3.597  1.00 20.00    -0.047 A 
HETATM    9  C1  UNL     1     -33.435  16.755  -4.624  1.00 20.00     0.015 A 
HETATM   10  C2  UNL     1     -33.401  16.065  -5.816  1.00 20.00     0.050 A 
HETATM   11  S11 UNL     1     -34.155  14.533  -5.695  1.00 20.00    -0.113 SA
HETATM   12  C3  UNL     1     -34.531  14.789  -4.044  1.00 20.00     0.057 A 
ENDBRANCH   5   8
TORSDOF 1
ENDMDL
MODEL 6
REMARK VINA RESULT:      -4.8      1.875      2.458
REMARK  1 active torsions:
REMARK  status: ('A' for Active; 'I' for Inactive)
REMARK    1  A    between atoms: C4_4  and  C9_9 
ROOT
HETATM    1  C5  UNL     1     -32.826  18.235  -1.496  1.00 20.00     0.002 C 
HETATM    2  C6  UNL     1     -33.293  17.014  -2.294  1.00 20.00     0.009 C 
HETATM    3  C7  UNL     1     -33.840  18.712  -0.452  1.00 20.00     0.020 C 
HETATM    4  C8  UNL     1     -35.578  17.013  -1.165  1.00 20.00     0.029 C 
HETATM    5  C9  UNL     1     -34.813  17.027  -2.508  1.00 20.00     0.020 C 
HETATM    6  C10 UNL     1     -34.756  17.580  -0.000  1.00 20.00     0.083 C 
HETATM    7 CL12 UNL     1     -35.843  18.137   1.303  1.00 20.00    -0.125 Cl
ENDROOT
BRANCH   5   8
HETATM    8  C4  UNL     1     -35.286  15.919  -3.431  1.00 20.00    -0.047 A 
HETATM    9  C1  UNL     1     -34.443  14.880  -3.920  1.00 20.00     0.015 A 
HETATM   10  C2  UNL     1     -35.123  14.006  -4.740  1.00 20.00     0.050 A 
HETATM   11  S11 UNL     1     -36.770  14.440  -4.918  1.00 20.00    -0.113 SA
HETATM   12  C3  UNL     1     -36.577  15.801  -3.896  1.00 20.00     0.057 A 
ENDBRANCH   5   8
TORSDOF 1
ENDMDL
MODEL 7
REMARK VINA RESULT:      -4.6      3.360      5.230
REMARK  1 active torsions:
REMARK  status: ('A' for Active; 'I' for Inactive)
REMARK    1  A    between atoms: C4_4  and  C9_9 
ROOT
HETATM    1  C5  UNL     1     -33.753  14.532  -4.722  1.00 20.00     0.002 C 
HETATM    2  C6  UNL     1     -33.522  15.817  -3.921  1.00 20.00     0.009 C 
HETATM    3  C7  UNL     1     -35.219  14.091  -4.770  1.00 20.00     0.020 C 
HETATM    4  C8  UNL     1     -35.969  15.948  -3.218  1.00 20.00     0.029 C 
HETATM    5  C9  UNL     1     -34.499  15.930  -2.742  1.00 20.00     0.020 C 
HETATM    6  C10 UNL     1     -36.166  15.271  -4.581  1.00 20.00     0.083 C 
HETATM    7 CL12 UNL     1     -37.863  14.746  -4.765  1.00 20.00    -0.125 Cl
ENDROOT
BRANCH   5   8
HETATM    8  C4  UNL     1     -34.192  17.108  -1.836  1.00 20.00    -0.047 A 
HETATM    9  C1  UNL     1     -33.047  17.944  -1.981  1.00 20.00     0.015 A 
HETATM   10  C2  UNL     1     -33.008  18.938  -1.027  1.00 20.00     0.050 A 
HETATM   11  S11 UNL     1     -34.347  18.861   0.037  1.00 20.00    -0.113 SA
HETATM   12  C3  UNL     1     -34.984  17.495  -0.777  1.00 20.00     0.057 A 
ENDBRANCH   5   8
TORSDOF 1
ENDMDL
MODEL 8
REMARK VINA RESULT:      -4.6      3.470      5.273
REMARK  1 active torsions:
REMARK  status: ('A' for Active; 'I' for Inactive)
REMARK    1  A    between atoms: C4_4  and  C9_9 
ROOT
HETATM    1  C5  UNL     1     -36.165  17.346  -1.619  1.00 20.00     0.002 C 
HETATM    2  C6  UNL     1     -35.212  17.492  -0.430  1.00 20.00     0.009 C 
HETATM    3  C7  UNL     1     -35.451  17.149  -2.960  1.00 20.00     0.020 C 
HETATM    4  C8  UNL     1     -33.153  17.433  -1.932  1.00 20.00     0.029 C 
HETATM    5  C9  UNL     1     -33.913  18.207  -0.831  1.00 20.00     0.020 C 
HETATM    6  C10 UNL     1     -34.069  16.534  -2.774  1.00 20.00     0.083 C 
HETATM    7 CL12 UNL     1     -33.313  16.204  -4.358  1.00 20.00    -0.125 Cl
ENDROOT
BRANCH   5   8
HETATM    8  C4  UNL     1     -33.019  18.511   0.356  1.00 20.00    -0.047 A 
HETATM    9  C1  UNL     1     -31.603  18.640   0.272  1.00 20.00     0.015 A 
HETATM   10  C2  UNL     1     -31.035  18.916   1.496  1.00 20.00     0.050 A 
HETATM   11  S11 UNL     1     -32.206  19.019   2.740  1.00 20.00    -0.113 SA
HETATM   12  C3  UNL     1     -33.480  18.693   1.642  1.00 20.00     0.057 A 
ENDBRANCH   5   8
TORSDOF 1
ENDMDL
MODEL 9
REMARK VINA RESULT:      -4.5      3.177      4.973
REMARK  1 active torsions:
REMARK  status: ('A' for Active; 'I' for Inactive)
REMARK    1  A    between atoms: C4_4  and  C9_9 
ROOT
HETATM    1  C5  UNL     1     -36.272  16.690  -2.663  1.00 20.00     0.002 C 
HETATM    2  C6  UNL     1     -35.497  16.983  -1.375  1.00 20.00     0.009 C 
HETATM    3  C7  UNL     1     -35.375  16.472  -3.885  1.00 20.00     0.020 C 
HETATM    4  C8  UNL     1     -33.260  17.001  -2.595  1.00 20.00     0.029 C 
HETATM    5  C9  UNL     1     -34.212  17.775  -1.657  1.00 20.00     0.020 C 
HETATM    6  C10 UNL     1     -33.988  15.982  -3.482  1.00 20.00     0.083 C 
HETATM    7 CL12 UNL     1     -33.008  15.620  -4.931  1.00 20.00    -0.125 Cl
ENDROOT
BRANCH   5   8
HETATM    8  C4  UNL     1     -33.507  18.221  -0.390  1.00 20.00    -0.047 A 
HETATM    9  C1  UNL     1     -34.152  18.354   0.873  1.00 20.00     0.015 A 
HETATM   10  C2  UNL     1     -33.284  18.775   1.856  1.00 20.00     0.050 A 
HETATM   11  S11 UNL     1     -31.698  19.009   1.256  1.00 20.00    -0.113 SA
HETATM   12  C3  UNL     1     -32.170  18.547  -0.324  1.00 20.00     0.057 A 
ENDBRANCH   5   8
TORSDOF 1
ENDMDL
