MODEL 1
REMARK VINA RESULT:      -7.0      0.000      0.000
REMARK  2 active torsions:
REMARK  status: ('A' for Active; 'I' for Inactive)
REMARK    1  A    between atoms: C7_7  and  C10_10 
REMARK    2  A    between atoms: C10_10  and  C11_11 
ROOT
HETATM    1  C1  UNL     1     -33.778   7.583   5.566  1.00 20.00     0.004 C 
HETATM    2  C2  UNL     1     -32.571   7.744   4.643  1.00 20.00     0.005 C 
HETATM    3  C3  UNL     1     -33.535   6.599   2.538  1.00 20.00     0.007 C 
HETATM    4  C4  UNL     1     -34.221   6.138   5.770  1.00 20.00     0.040 C 
HETATM    5  C5  UNL     1     -34.786   6.066   3.237  1.00 20.00     0.040 C 
HETATM    6  C6  UNL     1     -33.911   3.929   4.430  1.00 20.00     0.207 A 
HETATM    7  C7  UNL     1     -32.950   7.878   3.158  1.00 20.00    -0.014 C 
HETATM    8  C8  UNL     1     -34.448   5.347   4.512  1.00 20.00     0.082 A 
HETATM    9  O12 UNL     1     -35.281   4.192   4.739  1.00 20.00    -0.375 OA
ENDROOT
BRANCH   7  10
HETATM   10  C10 UNL     1     -31.720   8.313   2.352  1.00 20.00     0.004 C 
BRANCH  10  11
HETATM   11  C11 UNL     1     -32.128   8.915   1.014  1.00 20.00    -0.004 C 
HETATM   12  C9  UNL     1     -32.722  10.303   1.199  1.00 20.00     0.005 C 
ENDBRANCH  10  11
ENDBRANCH   7  10
TORSDOF 2
ENDMDL
MODEL 2
REMARK VINA RESULT:      -5.1     10.862     12.293
REMARK  2 active torsions:
REMARK  status: ('A' for Active; 'I' for Inactive)
REMARK    1  A    between atoms: C7_7  and  C10_10 
REMARK    2  A    between atoms: C10_10  and  C11_11 
ROOT
HETATM    1  C1  UNL     1     -33.315  15.644  -6.377  1.00 20.00     0.004 C 
HETATM    2  C2  UNL     1     -33.742  16.800  -5.474  1.00 20.00     0.005 C 
HETATM    3  C3  UNL     1     -34.418  15.436  -3.388  1.00 20.00     0.007 C 
HETATM    4  C4  UNL     1     -34.404  14.604  -6.618  1.00 20.00     0.040 C 
HETATM    5  C5  UNL     1     -34.313  14.076  -4.077  1.00 20.00     0.040 C 
HETATM    6  C6  UNL     1     -36.569  13.904  -5.355  1.00 20.00     0.207 A 
HETATM    7  C7  UNL     1     -33.509  16.527  -3.978  1.00 20.00    -0.014 C 
HETATM    8  C8  UNL     1     -35.059  14.054  -5.381  1.00 20.00     0.082 A 
HETATM    9  O12 UNL     1     -35.714  12.792  -5.628  1.00 20.00    -0.375 OA
ENDROOT
BRANCH   7  10
HETATM   10  C10 UNL     1     -33.697  17.825  -3.184  1.00 20.00     0.004 C 
BRANCH  10  11
HETATM   11  C11 UNL     1     -33.682  17.556  -1.685  1.00 20.00    -0.004 C 
HETATM   12  C9  UNL     1     -32.566  18.331  -1.002  1.00 20.00     0.005 C 
ENDBRANCH  10  11
ENDBRANCH   7  10
TORSDOF 2
ENDMDL
MODEL 3
REMARK VINA RESULT:      -4.7     11.207     12.535
REMARK  2 active torsions:
REMARK  status: ('A' for Active; 'I' for Inactive)
REMARK    1  A    between atoms: C7_7  and  C10_10 
REMARK    2  A    between atoms: C10_10  and  C11_11 
ROOT
HETATM    1  C1  UNL     1     -33.707  16.904  -5.909  1.00 20.00     0.004 C 
HETATM    2  C2  UNL     1     -34.687  17.153  -4.762  1.00 20.00     0.005 C 
HETATM    3  C3  UNL     1     -34.524  14.851  -3.603  1.00 20.00     0.007 C 
HETATM    4  C4  UNL     1     -34.069  15.715  -6.793  1.00 20.00     0.040 C 
HETATM    5  C5  UNL     1     -33.707  14.197  -4.718  1.00 20.00     0.040 C 
HETATM    6  C6  UNL     1     -35.520  13.579  -6.474  1.00 20.00     0.207 A 
HETATM    7  C7  UNL     1     -34.342  16.373  -3.482  1.00 20.00    -0.014 C 
HETATM    8  C8  UNL     1     -34.325  14.423  -6.068  1.00 20.00     0.082 A 
HETATM    9  O12 UNL     1     -34.202  13.279  -6.937  1.00 20.00    -0.375 OA
ENDROOT
BRANCH   7  10
HETATM   10  C10 UNL     1     -35.196  16.892  -2.319  1.00 20.00     0.004 C 
BRANCH  10  11
HETATM   11  C11 UNL     1     -34.327  17.257  -1.123  1.00 20.00    -0.004 C 
HETATM   12  C9  UNL     1     -33.000  17.850  -1.573  1.00 20.00     0.005 C 
ENDBRANCH  10  11
ENDBRANCH   7  10
TORSDOF 2
ENDMDL
MODEL 4
REMARK VINA RESULT:      -4.5      2.362      4.873
REMARK  2 active torsions:
REMARK  status: ('A' for Active; 'I' for Inactive)
REMARK    1  A    between atoms: C7_7  and  C10_10 
REMARK    2  A    between atoms: C10_10  and  C11_11 
ROOT
HETATM    1  C1  UNL     1     -31.509   8.113   4.044  1.00 20.00     0.004 C 
HETATM    2  C2  UNL     1     -32.926   7.809   4.529  1.00 20.00     0.005 C 
HETATM    3  C3  UNL     1     -33.895   6.864   2.330  1.00 20.00     0.007 C 
HETATM    4  C4  UNL     1     -31.445   9.066   2.855  1.00 20.00     0.040 C 
HETATM    5  C5  UNL     1     -32.690   7.254   1.473  1.00 20.00     0.040 C 
HETATM    6  C6  UNL     1     -33.118   9.772   0.992  1.00 20.00     0.207 A 
HETATM    7  C7  UNL     1     -33.574   6.612   3.812  1.00 20.00    -0.014 C 
HETATM    8  C8  UNL     1     -32.303   8.691   1.679  1.00 20.00     0.082 A 
HETATM    9  O12 UNL     1     -31.867   9.331   0.462  1.00 20.00    -0.375 OA
ENDROOT
BRANCH   7  10
HETATM   10  C10 UNL     1     -34.860   6.211   4.545  1.00 20.00     0.004 C 
BRANCH  10  11
HETATM   11  C11 UNL     1     -34.670   4.906   5.306  1.00 20.00    -0.004 C 
HETATM   12  C9  UNL     1     -34.054   3.838   4.415  1.00 20.00     0.005 C 
ENDBRANCH  10  11
ENDBRANCH   7  10
TORSDOF 2
ENDMDL
MODEL 5
REMARK VINA RESULT:      -4.4     11.451     12.448
REMARK  2 active torsions:
REMARK  status: ('A' for Active; 'I' for Inactive)
REMARK    1  A    between atoms: C7_7  and  C10_10 
REMARK    2  A    between atoms: C10_10  and  C11_11 
ROOT
HETATM    1  C1  UNL     1     -33.811  14.538  -4.265  1.00 20.00     0.004 C 
HETATM    2  C2  UNL     1     -33.704  15.879  -3.540  1.00 20.00     0.005 C 
HETATM    3  C3  UNL     1     -36.223  16.417  -3.345  1.00 20.00     0.007 C 
HETATM    4  C4  UNL     1     -34.556  14.602  -5.594  1.00 20.00     0.040 C 
HETATM    5  C5  UNL     1     -36.675  15.271  -4.250  1.00 20.00     0.040 C 
HETATM    6  C6  UNL     1     -36.294  16.236  -6.633  1.00 20.00     0.207 A 
HETATM    7  C7  UNL     1     -34.895  16.169  -2.610  1.00 20.00    -0.014 C 
HETATM    8  C8  UNL     1     -35.913  15.249  -5.544  1.00 20.00     0.082 A 
HETATM    9  O12 UNL     1     -36.734  14.877  -6.670  1.00 20.00    -0.375 OA
ENDROOT
BRANCH   7  10
HETATM   10  C10 UNL     1     -34.574  17.380  -1.727  1.00 20.00     0.004 C 
BRANCH  10  11
HETATM   11  C11 UNL     1     -33.095  17.737  -1.807  1.00 20.00    -0.004 C 
HETATM   12  C9  UNL     1     -32.638  18.457  -0.548  1.00 20.00     0.005 C 
ENDBRANCH  10  11
ENDBRANCH   7  10
TORSDOF 2
ENDMDL
MODEL 6
REMARK VINA RESULT:      -4.4     11.576     12.367
REMARK  2 active torsions:
REMARK  status: ('A' for Active; 'I' for Inactive)
REMARK    1  A    between atoms: C7_7  and  C10_10 
REMARK    2  A    between atoms: C10_10  and  C11_11 
ROOT
HETATM    1  C1  UNL     1     -36.061  17.366  -1.770  1.00 20.00     0.004 C 
HETATM    2  C2  UNL     1     -35.078  17.321  -0.601  1.00 20.00     0.005 C 
HETATM    3  C3  UNL     1     -32.946  18.064  -1.855  1.00 20.00     0.007 C 
HETATM    4  C4  UNL     1     -35.672  16.482  -2.950  1.00 20.00     0.040 C 
HETATM    5  C5  UNL     1     -33.575  17.985  -3.247  1.00 20.00     0.040 C 
HETATM    6  C6  UNL     1     -33.439  15.448  -3.796  1.00 20.00     0.207 A 
HETATM    7  C7  UNL     1     -33.940  18.349  -0.718  1.00 20.00    -0.014 C 
HETATM    8  C8  UNL     1     -34.273  16.673  -3.468  1.00 20.00     0.082 A 
HETATM    9  O12 UNL     1     -34.121  16.181  -4.815  1.00 20.00    -0.375 OA
ENDROOT
BRANCH   7  10
HETATM   10  C10 UNL     1     -33.178  18.424   0.611  1.00 20.00     0.004 C 
BRANCH  10  11
HETATM   11  C11 UNL     1     -31.710  18.758   0.381  1.00 20.00    -0.004 C 
HETATM   12  C9  UNL     1     -30.922  18.683   1.680  1.00 20.00     0.005 C 
ENDBRANCH  10  11
ENDBRANCH   7  10
TORSDOF 2
ENDMDL
MODEL 7
REMARK VINA RESULT:      -4.2     11.597     12.528
REMARK  2 active torsions:
REMARK  status: ('A' for Active; 'I' for Inactive)
REMARK    1  A    between atoms: C7_7  and  C10_10 
REMARK    2  A    between atoms: C10_10  and  C11_11 
ROOT
HETATM    1  C1  UNL     1     -33.304  14.812  -4.815  1.00 20.00     0.004 C 
HETATM    2  C2  UNL     1     -33.478  16.103  -4.016  1.00 20.00     0.005 C 
HETATM    3  C3  UNL     1     -36.018  15.951  -3.578  1.00 20.00     0.007 C 
HETATM    4  C4  UNL     1     -34.166  14.731  -6.070  1.00 20.00     0.040 C 
HETATM    5  C5  UNL     1     -36.245  14.765  -4.515  1.00 20.00     0.040 C 
HETATM    6  C6  UNL     1     -36.359  15.892  -6.853  1.00 20.00     0.207 A 
HETATM    7  C7  UNL     1     -34.607  16.031  -2.974  1.00 20.00    -0.014 C 
HETATM    8  C8  UNL     1     -35.632  14.997  -5.866  1.00 20.00     0.082 A 
HETATM    9  O12 UNL     1     -36.435  14.468  -6.942  1.00 20.00    -0.375 OA
ENDROOT
BRANCH   7  10
HETATM   10  C10 UNL     1     -34.525  17.247  -2.043  1.00 20.00     0.004 C 
BRANCH  10  11
HETATM   11  C11 UNL     1     -35.379  17.043  -0.800  1.00 20.00    -0.004 C 
HETATM   12  C9  UNL     1     -36.339  18.206  -0.599  1.00 20.00     0.005 C 
ENDBRANCH  10  11
ENDBRANCH   7  10
TORSDOF 2
ENDMDL
MODEL 8
REMARK VINA RESULT:      -4.1     11.482     12.332
REMARK  2 active torsions:
REMARK  status: ('A' for Active; 'I' for Inactive)
REMARK    1  A    between atoms: C7_7  and  C10_10 
REMARK    2  A    between atoms: C10_10  and  C11_11 
ROOT
HETATM    1  C1  UNL     1     -36.229  16.595  -3.166  1.00 20.00     0.004 C 
HETATM    2  C2  UNL     1     -35.523  16.682  -1.813  1.00 20.00     0.005 C 
HETATM    3  C3  UNL     1     -33.216  17.505  -2.631  1.00 20.00     0.007 C 
HETATM    4  C4  UNL     1     -35.543  15.678  -4.172  1.00 20.00     0.040 C 
HETATM    5  C5  UNL     1     -33.521  17.306  -4.116  1.00 20.00     0.040 C 
HETATM    6  C6  UNL     1     -33.124  14.759  -4.449  1.00 20.00     0.207 A 
HETATM    7  C7  UNL     1     -34.447  17.781  -1.754  1.00 20.00    -0.014 C 
HETATM    8  C8  UNL     1     -34.078  15.939  -4.392  1.00 20.00     0.082 A 
HETATM    9  O12 UNL     1     -33.608  15.385  -5.638  1.00 20.00    -0.375 OA
ENDROOT
BRANCH   7  10
HETATM   10  C10 UNL     1     -33.998  17.981  -0.302  1.00 20.00     0.004 C 
BRANCH  10  11
HETATM   11  C11 UNL     1     -35.158  17.775   0.662  1.00 20.00    -0.004 C 
HETATM   12  C9  UNL     1     -34.834  18.341   2.036  1.00 20.00     0.005 C 
ENDBRANCH  10  11
ENDBRANCH   7  10
TORSDOF 2
ENDMDL
MODEL 9
REMARK VINA RESULT:      -4.1     11.470     12.709
REMARK  2 active torsions:
REMARK  status: ('A' for Active; 'I' for Inactive)
REMARK    1  A    between atoms: C7_7  and  C10_10 
REMARK    2  A    between atoms: C10_10  and  C11_11 
ROOT
HETATM    1  C1  UNL     1     -35.910  15.386  -7.448  1.00 20.00     0.004 C 
HETATM    2  C2  UNL     1     -34.910  15.979  -6.455  1.00 20.00     0.005 C 
HETATM    3  C3  UNL     1     -35.156  14.235  -4.567  1.00 20.00     0.007 C 
HETATM    4  C4  UNL     1     -37.323  15.235  -6.897  1.00 20.00     0.040 C 
HETATM    5  C5  UNL     1     -36.361  13.530  -5.190  1.00 20.00     0.040 C 
HETATM    6  C6  UNL     1     -38.342  15.068  -4.508  1.00 20.00     0.207 A 
HETATM    7  C7  UNL     1     -34.221  14.921  -5.575  1.00 20.00    -0.014 C 
HETATM    8  C8  UNL     1     -37.433  14.506  -5.586  1.00 20.00     0.082 A 
HETATM    9  O12 UNL     1     -38.763  13.998  -5.355  1.00 20.00    -0.375 OA
ENDROOT
BRANCH   7  10
HETATM   10  C10 UNL     1     -33.051  15.565  -4.821  1.00 20.00     0.004 C 
BRANCH  10  11
HETATM   11  C11 UNL     1     -33.456  16.907  -4.227  1.00 20.00    -0.004 C 
HETATM   12  C9  UNL     1     -33.582  16.820  -2.714  1.00 20.00     0.005 C 
ENDBRANCH  10  11
ENDBRANCH   7  10
TORSDOF 2
ENDMDL
