MODEL 1
REMARK VINA RESULT:      -5.7      0.000      0.000
REMARK  3 active torsions:
REMARK  status: ('A' for Active; 'I' for Inactive)
REMARK    1  A    between atoms: C4_4  and  C9_9 
REMARK    2  A    between atoms: C8_8  and  C9_9 
REMARK    3  A    between atoms: C9_9  and  O10_10 
ROOT
HETATM    1  C9  UNL     1     -32.361   8.397   3.314  1.00 20.00     0.155 C 
ENDROOT
BRANCH   1   2
HETATM    2  C4  UNL     1     -33.208   7.321   3.957  1.00 20.00    -0.022 A 
HETATM    3  C1  UNL     1     -33.565   7.311   5.337  1.00 20.00     0.017 A 
HETATM    4  C2  UNL     1     -34.341   6.219   5.661  1.00 20.00     0.050 A 
HETATM    5  S11 UNL     1     -34.634   5.213   4.308  1.00 20.00    -0.113 SA
HETATM    6  C3  UNL     1     -33.723   6.237   3.281  1.00 20.00     0.059 A 
ENDBRANCH   1   2
BRANCH   1   7
HETATM    7  C8  UNL     1     -32.674   8.584   1.843  1.00 20.00     0.019 C 
HETATM    8  C6  UNL     1     -31.465   8.604   0.872  1.00 20.00     0.007 C 
HETATM    9  C5  UNL     1     -32.223   9.680   0.068  1.00 20.00     0.001 C 
HETATM   10  C7  UNL     1     -32.963  10.034   1.375  1.00 20.00     0.007 C 
ENDBRANCH   1   7
BRANCH   1  11
HETATM   11  O10 UNL     1     -30.989   8.025   3.457  1.00 20.00    -0.391 OA
HETATM   12  H23 UNL     1     -30.494   8.553   2.813  1.00 20.00     0.210 HD
ENDBRANCH   1  11
TORSDOF 3
ENDMDL
MODEL 2
REMARK VINA RESULT:      -5.1      2.122      4.574
REMARK  3 active torsions:
REMARK  status: ('A' for Active; 'I' for Inactive)
REMARK    1  A    between atoms: C4_4  and  C9_9 
REMARK    2  A    between atoms: C8_8  and  C9_9 
REMARK    3  A    between atoms: C9_9  and  O10_10 
ROOT
HETATM    1  C9  UNL     1     -32.375   7.573   3.271  1.00 20.00     0.155 C 
ENDROOT
BRANCH   1   2
HETATM    2  C4  UNL     1     -32.514   8.493   2.078  1.00 20.00    -0.022 A 
HETATM    3  C1  UNL     1     -32.317   9.903   2.135  1.00 20.00     0.017 A 
HETATM    4  C2  UNL     1     -32.506  10.502   0.909  1.00 20.00     0.050 A 
HETATM    5  S11 UNL     1     -32.920   9.367  -0.304  1.00 20.00    -0.113 SA
HETATM    6  C3  UNL     1     -32.847   8.069   0.811  1.00 20.00     0.059 A 
ENDBRANCH   1   2
BRANCH   1   7
HETATM    7  C8  UNL     1     -33.714   7.145   3.836  1.00 20.00     0.019 C 
HETATM    8  C6  UNL     1     -33.785   6.933   5.370  1.00 20.00     0.007 C 
HETATM    9  C5  UNL     1     -34.738   5.753   5.089  1.00 20.00     0.001 C 
HETATM   10  C7  UNL     1     -34.078   5.643   3.699  1.00 20.00     0.007 C 
ENDBRANCH   1   7
BRANCH   1  11
HETATM   11  O10 UNL     1     -31.639   8.264   4.281  1.00 20.00    -0.391 OA
HETATM   12  H23 UNL     1     -31.836   7.817   5.117  1.00 20.00     0.210 HD
ENDBRANCH   1  11
TORSDOF 3
ENDMDL
MODEL 3
REMARK VINA RESULT:      -5.0      2.427      4.671
REMARK  3 active torsions:
REMARK  status: ('A' for Active; 'I' for Inactive)
REMARK    1  A    between atoms: C4_4  and  C9_9 
REMARK    2  A    between atoms: C8_8  and  C9_9 
REMARK    3  A    between atoms: C9_9  and  O10_10 
ROOT
HETATM    1  C9  UNL     1     -33.794   5.876   2.636  1.00 20.00     0.155 C 
ENDROOT
BRANCH   1   2
HETATM    2  C4  UNL     1     -33.034   7.172   2.456  1.00 20.00    -0.022 A 
HETATM    3  C1  UNL     1     -31.926   7.562   3.263  1.00 20.00     0.017 A 
HETATM    4  C2  UNL     1     -31.420   8.788   2.888  1.00 20.00     0.050 A 
HETATM    5  S11 UNL     1     -32.279   9.463   1.570  1.00 20.00    -0.113 SA
HETATM    6  C3  UNL     1     -33.333   8.115   1.497  1.00 20.00     0.059 A 
ENDBRANCH   1   2
BRANCH   1   7
HETATM    7  C8  UNL     1     -34.647   5.870   3.888  1.00 20.00     0.019 C 
HETATM    8  C6  UNL     1     -34.076   6.617   5.122  1.00 20.00     0.007 C 
HETATM    9  C5  UNL     1     -34.695   5.502   5.990  1.00 20.00     0.001 C 
HETATM   10  C7  UNL     1     -34.600   4.584   4.754  1.00 20.00     0.007 C 
ENDBRANCH   1   7
BRANCH   1  11
HETATM   11  O10 UNL     1     -32.844   4.812   2.711  1.00 20.00    -0.391 OA
HETATM   12  H23 UNL     1     -33.220   4.075   2.208  1.00 20.00     0.210 HD
ENDBRANCH   1  11
TORSDOF 3
ENDMDL
MODEL 4
REMARK VINA RESULT:      -4.4     10.856     11.270
REMARK  3 active torsions:
REMARK  status: ('A' for Active; 'I' for Inactive)
REMARK    1  A    between atoms: C4_4  and  C9_9 
REMARK    2  A    between atoms: C8_8  and  C9_9 
REMARK    3  A    between atoms: C9_9  and  O10_10 
ROOT
HETATM    1  C9  UNL     1     -33.448  18.646  -0.928  1.00 20.00     0.155 C 
ENDROOT
BRANCH   1   2
HETATM    2  C4  UNL     1     -32.817  18.684   0.447  1.00 20.00    -0.022 A 
HETATM    3  C1  UNL     1     -31.411  18.654   0.677  1.00 20.00     0.017 A 
HETATM    4  C2  UNL     1     -31.106  18.699   2.020  1.00 20.00     0.050 A 
HETATM    5  S11 UNL     1     -32.510  18.775   2.996  1.00 20.00    -0.113 SA
HETATM    6  C3  UNL     1     -33.532  18.748   1.622  1.00 20.00     0.059 A 
ENDBRANCH   1   2
BRANCH   1   7
HETATM    7  C8  UNL     1     -33.908  17.257  -1.319  1.00 20.00     0.019 C 
HETATM    8  C6  UNL     1     -33.636  16.822  -2.783  1.00 20.00     0.007 C 
HETATM    9  C5  UNL     1     -34.994  16.092  -2.741  1.00 20.00     0.001 C 
HETATM   10  C7  UNL     1     -35.416  17.090  -1.642  1.00 20.00     0.007 C 
ENDBRANCH   1   7
BRANCH   1  11
HETATM   11  O10 UNL     1     -32.480  19.103  -1.873  1.00 20.00    -0.391 OA
HETATM   12  H23 UNL     1     -32.783  19.971  -2.176  1.00 20.00     0.210 HD
ENDBRANCH   1  11
TORSDOF 3
ENDMDL
MODEL 5
REMARK VINA RESULT:      -4.4      1.427      1.712
REMARK  3 active torsions:
REMARK  status: ('A' for Active; 'I' for Inactive)
REMARK    1  A    between atoms: C4_4  and  C9_9 
REMARK    2  A    between atoms: C8_8  and  C9_9 
REMARK    3  A    between atoms: C9_9  and  O10_10 
ROOT
HETATM    1  C9  UNL     1     -32.794   7.049   2.335  1.00 20.00     0.155 C 
ENDROOT
BRANCH   1   2
HETATM    2  C4  UNL     1     -33.366   6.805   3.714  1.00 20.00    -0.022 A 
HETATM    3  C1  UNL     1     -33.117   7.647   4.837  1.00 20.00     0.017 A 
HETATM    4  C2  UNL     1     -33.757   7.197   5.972  1.00 20.00     0.050 A 
HETATM    5  S11 UNL     1     -34.651   5.766   5.682  1.00 20.00    -0.113 SA
HETATM    6  C3  UNL     1     -34.184   5.745   4.034  1.00 20.00     0.059 A 
ENDBRANCH   1   2
BRANCH   1   7
HETATM    7  C8  UNL     1     -32.340   8.481   2.137  1.00 20.00     0.019 C 
HETATM    8  C6  UNL     1     -33.385   9.466   1.550  1.00 20.00     0.007 C 
HETATM    9  C5  UNL     1     -32.222  10.124   0.779  1.00 20.00     0.001 C 
HETATM   10  C7  UNL     1     -31.487   8.770   0.874  1.00 20.00     0.007 C 
ENDBRANCH   1   7
BRANCH   1  11
HETATM   11  O10 UNL     1     -33.805   6.741   1.375  1.00 20.00    -0.391 OA
HETATM   12  H23 UNL     1     -33.528   7.154   0.544  1.00 20.00     0.210 HD
ENDBRANCH   1  11
TORSDOF 3
ENDMDL
MODEL 6
REMARK VINA RESULT:      -4.3     10.561     11.126
REMARK  3 active torsions:
REMARK  status: ('A' for Active; 'I' for Inactive)
REMARK    1  A    between atoms: C4_4  and  C9_9 
REMARK    2  A    between atoms: C8_8  and  C9_9 
REMARK    3  A    between atoms: C9_9  and  O10_10 
ROOT
HETATM    1  C9  UNL     1     -35.221  17.139  -2.586  1.00 20.00     0.155 C 
ENDROOT
BRANCH   1   2
HETATM    2  C4  UNL     1     -35.138  15.940  -3.506  1.00 20.00    -0.022 A 
HETATM    3  C1  UNL     1     -33.918  15.298  -3.865  1.00 20.00     0.017 A 
HETATM    4  C2  UNL     1     -34.125  14.234  -4.716  1.00 20.00     0.050 A 
HETATM    5  S11 UNL     1     -35.783  14.013  -5.078  1.00 20.00    -0.113 SA
HETATM    6  C3  UNL     1     -36.230  15.343  -4.095  1.00 20.00     0.059 A 
ENDBRANCH   1   2
BRANCH   1   7
HETATM    7  C8  UNL     1     -34.111  17.161  -1.556  1.00 20.00     0.019 C 
HETATM    8  C6  UNL     1     -34.412  17.899  -0.226  1.00 20.00     0.007 C 
HETATM    9  C5  UNL     1     -32.944  18.374  -0.243  1.00 20.00     0.001 C 
HETATM   10  C7  UNL     1     -32.980  18.200  -1.776  1.00 20.00     0.007 C 
ENDBRANCH   1   7
BRANCH   1  11
HETATM   11  O10 UNL     1     -36.482  17.098  -1.916  1.00 20.00    -0.391 OA
HETATM   12  H23 UNL     1     -36.754  18.019  -1.791  1.00 20.00     0.210 HD
ENDBRANCH   1  11
TORSDOF 3
ENDMDL
MODEL 7
REMARK VINA RESULT:      -4.2     10.755     11.438
REMARK  3 active torsions:
REMARK  status: ('A' for Active; 'I' for Inactive)
REMARK    1  A    between atoms: C4_4  and  C9_9 
REMARK    2  A    between atoms: C8_8  and  C9_9 
REMARK    3  A    between atoms: C9_9  and  O10_10 
ROOT
HETATM    1  C9  UNL     1     -33.952  16.462  -4.163  1.00 20.00     0.155 C 
ENDROOT
BRANCH   1   2
HETATM    2  C4  UNL     1     -34.956  15.492  -4.746  1.00 20.00    -0.022 A 
HETATM    3  C1  UNL     1     -34.926  14.086  -4.519  1.00 20.00     0.017 A 
HETATM    4  C2  UNL     1     -35.953  13.435  -5.168  1.00 20.00     0.050 A 
HETATM    5  S11 UNL     1     -36.946  14.517  -6.047  1.00 20.00    -0.113 SA
HETATM    6  C3  UNL     1     -36.003  15.862  -5.561  1.00 20.00     0.059 A 
ENDBRANCH   1   2
BRANCH   1   7
HETATM    7  C8  UNL     1     -33.918  16.425  -2.649  1.00 20.00     0.019 C 
HETATM    8  C6  UNL     1     -35.241  16.765  -1.915  1.00 20.00     0.007 C 
HETATM    9  C5  UNL     1     -34.380  17.470  -0.846  1.00 20.00     0.001 C 
HETATM   10  C7  UNL     1     -33.306  17.660  -1.937  1.00 20.00     0.007 C 
ENDBRANCH   1   7
BRANCH   1  11
HETATM   11  O10 UNL     1     -34.306  17.778  -4.591  1.00 20.00    -0.391 OA
HETATM   12  H23 UNL     1     -35.075  17.678  -5.171  1.00 20.00     0.210 HD
ENDBRANCH   1  11
TORSDOF 3
ENDMDL
MODEL 8
REMARK VINA RESULT:      -4.2     10.897     11.492
REMARK  3 active torsions:
REMARK  status: ('A' for Active; 'I' for Inactive)
REMARK    1  A    between atoms: C4_4  and  C9_9 
REMARK    2  A    between atoms: C8_8  and  C9_9 
REMARK    3  A    between atoms: C9_9  and  O10_10 
ROOT
HETATM    1  C9  UNL     1     -35.861  16.278  -3.827  1.00 20.00     0.155 C 
ENDROOT
BRANCH   1   2
HETATM    2  C4  UNL     1     -35.531  15.275  -4.911  1.00 20.00    -0.022 A 
HETATM    3  C1  UNL     1     -36.096  13.968  -4.982  1.00 20.00     0.017 A 
HETATM    4  C2  UNL     1     -35.625  13.260  -6.066  1.00 20.00     0.050 A 
HETATM    5  S11 UNL     1     -34.507  14.168  -6.991  1.00 20.00    -0.113 SA
HETATM    6  C3  UNL     1     -34.650  15.514  -5.942  1.00 20.00     0.059 A 
ENDBRANCH   1   2
BRANCH   1   7
HETATM    7  C8  UNL     1     -34.870  16.245  -2.682  1.00 20.00     0.019 C 
HETATM    8  C6  UNL     1     -35.309  16.935  -1.364  1.00 20.00     0.007 C 
HETATM    9  C5  UNL     1     -33.844  17.390  -1.201  1.00 20.00     0.001 C 
HETATM   10  C7  UNL     1     -33.712  17.276  -2.735  1.00 20.00     0.007 C 
ENDBRANCH   1   7
BRANCH   1  11
HETATM   11  O10 UNL     1     -37.165  15.979  -3.329  1.00 20.00    -0.391 OA
HETATM   12  H23 UNL     1     -37.580  15.396  -3.981  1.00 20.00     0.210 HD
ENDBRANCH   1  11
TORSDOF 3
ENDMDL
MODEL 9
REMARK VINA RESULT:      -4.1     10.606     11.097
REMARK  3 active torsions:
REMARK  status: ('A' for Active; 'I' for Inactive)
REMARK    1  A    between atoms: C4_4  and  C9_9 
REMARK    2  A    between atoms: C8_8  and  C9_9 
REMARK    3  A    between atoms: C9_9  and  O10_10 
ROOT
HETATM    1  C9  UNL     1     -34.894  16.276  -2.607  1.00 20.00     0.155 C 
ENDROOT
BRANCH   1   2
HETATM    2  C4  UNL     1     -34.584  17.134  -1.401  1.00 20.00    -0.022 A 
HETATM    3  C1  UNL     1     -33.346  17.813  -1.206  1.00 20.00     0.017 A 
HETATM    4  C2  UNL     1     -33.326  18.522  -0.025  1.00 20.00     0.050 A 
HETATM    5  S11 UNL     1     -34.793  18.368   0.843  1.00 20.00    -0.113 SA
HETATM    6  C3  UNL     1     -35.461  17.349  -0.361  1.00 20.00     0.059 A 
ENDBRANCH   1   2
BRANCH   1   7
HETATM    7  C8  UNL     1     -33.684  16.057  -3.493  1.00 20.00     0.019 C 
HETATM    8  C6  UNL     1     -33.666  16.818  -4.844  1.00 20.00     0.007 C 
HETATM    9  C5  UNL     1     -32.997  15.569  -5.454  1.00 20.00     0.001 C 
HETATM   10  C7  UNL     1     -33.663  14.750  -4.328  1.00 20.00     0.007 C 
ENDBRANCH   1   7
BRANCH   1  11
HETATM   11  O10 UNL     1     -35.917  16.925  -3.363  1.00 20.00    -0.391 OA
HETATM   12  H23 UNL     1     -36.451  16.222  -3.760  1.00 20.00     0.210 HD
ENDBRANCH   1  11
TORSDOF 3
ENDMDL
