MODEL 1
REMARK VINA RESULT:      -5.0      0.000      0.000
REMARK  1 active torsions:
REMARK  status: ('A' for Active; 'I' for Inactive)
REMARK    1  A    between atoms: C4_4  and  C10_10 
ROOT
HETATM    1  C5  UNL     1     -35.326  13.886  -5.318  1.00 20.00     0.135 C 
HETATM    2  C6  UNL     1     -35.342  14.557  -6.672  1.00 20.00     0.079 C 
HETATM    3  C7  UNL     1     -33.920  14.843  -7.126  1.00 20.00     0.007 C 
HETATM    4  C8  UNL     1     -33.154  15.649  -6.082  1.00 20.00     0.001 C 
HETATM    5  C9  UNL     1     -33.158  14.945  -4.722  1.00 20.00     0.017 C 
HETATM    6  C10 UNL     1     -34.566  14.596  -4.201  1.00 20.00     0.088 C 
HETATM    7  O11 UNL     1     -35.959  12.851  -5.112  1.00 20.00    -0.297 OA
ENDROOT
BRANCH   6   8
HETATM    8  C4  UNL     1     -35.399  15.714  -3.587  1.00 20.00    -0.040 A 
HETATM    9  C1  UNL     1     -35.034  16.420  -2.405  1.00 20.00     0.015 A 
HETATM   10  C2  UNL     1     -35.962  17.380  -2.069  1.00 20.00     0.050 A 
HETATM   11  S12 UNL     1     -37.268  17.427  -3.175  1.00 20.00    -0.113 SA
HETATM   12  C3  UNL     1     -36.593  16.161  -4.109  1.00 20.00     0.057 A 
ENDBRANCH   6   8
TORSDOF 1
ENDMDL
MODEL 2
REMARK VINA RESULT:      -4.9      4.585      6.284
REMARK  1 active torsions:
REMARK  status: ('A' for Active; 'I' for Inactive)
REMARK    1  A    between atoms: C4_4  and  C10_10 
ROOT
HETATM    1  C5  UNL     1     -33.279  18.545  -1.987  1.00 20.00     0.135 C 
HETATM    2  C6  UNL     1     -33.421  17.051  -2.164  1.00 20.00     0.079 C 
HETATM    3  C7  UNL     1     -34.886  16.656  -2.077  1.00 20.00     0.007 C 
HETATM    4  C8  UNL     1     -35.521  17.155  -0.785  1.00 20.00     0.001 C 
HETATM    5  C9  UNL     1     -35.360  18.670  -0.633  1.00 20.00     0.017 C 
HETATM    6  C10 UNL     1     -33.901  19.157  -0.733  1.00 20.00     0.088 C 
HETATM    7  O11 UNL     1     -32.628  19.223  -2.782  1.00 20.00    -0.297 OA
ENDROOT
BRANCH   6   8
HETATM    8  C4  UNL     1     -32.999  18.973   0.479  1.00 20.00    -0.040 A 
HETATM    9  C1  UNL     1     -31.585  18.814   0.402  1.00 20.00     0.015 A 
HETATM   10  C2  UNL     1     -31.012  18.667   1.645  1.00 20.00     0.050 A 
HETATM   11  S12 UNL     1     -32.177  18.718   2.900  1.00 20.00    -0.113 SA
HETATM   12  C3  UNL     1     -33.453  18.940   1.779  1.00 20.00     0.057 A 
ENDBRANCH   6   8
TORSDOF 1
ENDMDL
MODEL 3
REMARK VINA RESULT:      -4.9      0.639      1.173
REMARK  1 active torsions:
REMARK  status: ('A' for Active; 'I' for Inactive)
REMARK    1  A    between atoms: C4_4  and  C10_10 
ROOT
HETATM    1  C5  UNL     1     -35.305  13.899  -5.274  1.00 20.00     0.135 C 
HETATM    2  C6  UNL     1     -35.331  14.580  -6.623  1.00 20.00     0.079 C 
HETATM    3  C7  UNL     1     -33.912  14.861  -7.089  1.00 20.00     0.007 C 
HETATM    4  C8  UNL     1     -33.131  15.654  -6.047  1.00 20.00     0.001 C 
HETATM    5  C9  UNL     1     -33.125  14.940  -4.693  1.00 20.00     0.017 C 
HETATM    6  C10 UNL     1     -34.530  14.597  -4.159  1.00 20.00     0.088 C 
HETATM    7  O11 UNL     1     -35.943  12.866  -5.069  1.00 20.00    -0.297 OA
ENDROOT
BRANCH   6   8
HETATM    8  C4  UNL     1     -35.350  15.714  -3.529  1.00 20.00    -0.040 A 
HETATM    9  C1  UNL     1     -36.630  16.125  -4.002  1.00 20.00     0.015 A 
HETATM   10  C2  UNL     1     -37.152  17.155  -3.253  1.00 20.00     0.050 A 
HETATM   11  S12 UNL     1     -36.101  17.625  -1.985  1.00 20.00    -0.113 SA
HETATM   12  C3  UNL     1     -34.942  16.448  -2.437  1.00 20.00     0.057 A 
ENDBRANCH   6   8
TORSDOF 1
ENDMDL
MODEL 4
REMARK VINA RESULT:      -4.8      1.552      2.221
REMARK  1 active torsions:
REMARK  status: ('A' for Active; 'I' for Inactive)
REMARK    1  A    between atoms: C4_4  and  C10_10 
ROOT
HETATM    1  C5  UNL     1     -35.686  13.713  -5.748  1.00 20.00     0.135 C 
HETATM    2  C6  UNL     1     -36.849  14.429  -6.397  1.00 20.00     0.079 C 
HETATM    3  C7  UNL     1     -36.504  14.780  -7.835  1.00 20.00     0.007 C 
HETATM    4  C8  UNL     1     -35.207  15.576  -7.917  1.00 20.00     0.001 C 
HETATM    5  C9  UNL     1     -34.050  14.828  -7.251  1.00 20.00     0.017 C 
HETATM    6  C10 UNL     1     -34.330  14.412  -5.793  1.00 20.00     0.088 C 
HETATM    7  O11 UNL     1     -35.846  12.650  -5.149  1.00 20.00    -0.297 OA
ENDROOT
BRANCH   6   8
HETATM    8  C4  UNL     1     -34.219  15.478  -4.711  1.00 20.00    -0.040 A 
HETATM    9  C1  UNL     1     -34.832  15.375  -3.428  1.00 20.00     0.015 A 
HETATM   10  C2  UNL     1     -34.574  16.476  -2.642  1.00 20.00     0.050 A 
HETATM   11  S12 UNL     1     -33.597  17.628  -3.450  1.00 20.00    -0.113 SA
HETATM   12  C3  UNL     1     -33.516  16.653  -4.856  1.00 20.00     0.057 A 
ENDBRANCH   6   8
TORSDOF 1
ENDMDL
MODEL 5
REMARK VINA RESULT:      -4.7      1.894      2.385
REMARK  1 active torsions:
REMARK  status: ('A' for Active; 'I' for Inactive)
REMARK    1  A    between atoms: C4_4  and  C10_10 
ROOT
HETATM    1  C5  UNL     1     -34.524  14.743  -4.236  1.00 20.00     0.135 C 
HETATM    2  C6  UNL     1     -35.833  15.069  -4.918  1.00 20.00     0.079 C 
HETATM    3  C7  UNL     1     -35.575  15.888  -6.171  1.00 20.00     0.007 C 
HETATM    4  C8  UNL     1     -34.749  17.132  -5.862  1.00 20.00     0.001 C 
HETATM    5  C9  UNL     1     -33.432  16.771  -5.171  1.00 20.00     0.017 C 
HETATM    6  C10 UNL     1     -33.606  15.916  -3.899  1.00 20.00     0.088 C 
HETATM    7  O11 UNL     1     -34.248  13.591  -3.903  1.00 20.00    -0.297 OA
ENDROOT
BRANCH   6   8
HETATM    8  C4  UNL     1     -34.047  16.616  -2.621  1.00 20.00    -0.040 A 
HETATM    9  C1  UNL     1     -35.347  16.487  -2.052  1.00 20.00     0.015 A 
HETATM   10  C2  UNL     1     -35.481  17.224  -0.897  1.00 20.00     0.050 A 
HETATM   11  S12 UNL     1     -34.044  18.068  -0.502  1.00 20.00    -0.113 SA
HETATM   12  C3  UNL     1     -33.237  17.447  -1.879  1.00 20.00     0.057 A 
ENDBRANCH   6   8
TORSDOF 1
ENDMDL
MODEL 6
REMARK VINA RESULT:      -4.6      1.920      2.390
REMARK  1 active torsions:
REMARK  status: ('A' for Active; 'I' for Inactive)
REMARK    1  A    between atoms: C4_4  and  C10_10 
ROOT
HETATM    1  C5  UNL     1     -35.895  15.862  -4.214  1.00 20.00     0.135 C 
HETATM    2  C6  UNL     1     -35.709  16.906  -5.291  1.00 20.00     0.079 C 
HETATM    3  C7  UNL     1     -34.535  16.532  -6.180  1.00 20.00     0.007 C 
HETATM    4  C8  UNL     1     -33.269  16.303  -5.362  1.00 20.00     0.001 C 
HETATM    5  C9  UNL     1     -33.489  15.243  -4.279  1.00 20.00     0.017 C 
HETATM    6  C10 UNL     1     -34.681  15.536  -3.347  1.00 20.00     0.088 C 
HETATM    7  O11 UNL     1     -36.995  15.353  -4.002  1.00 20.00    -0.297 OA
ENDROOT
BRANCH   6   8
HETATM    8  C4  UNL     1     -34.492  16.572  -2.247  1.00 20.00    -0.040 A 
HETATM    9  C1  UNL     1     -33.282  17.295  -2.035  1.00 20.00     0.015 A 
HETATM   10  C2  UNL     1     -33.380  18.168  -0.976  1.00 20.00     0.050 A 
HETATM   11  S12 UNL     1     -34.926  18.115  -0.240  1.00 20.00    -0.113 SA
HETATM   12  C3  UNL     1     -35.468  16.921  -1.341  1.00 20.00     0.057 A 
ENDBRANCH   6   8
TORSDOF 1
ENDMDL
MODEL 7
REMARK VINA RESULT:      -4.5      1.313      1.633
REMARK  1 active torsions:
REMARK  status: ('A' for Active; 'I' for Inactive)
REMARK    1  A    between atoms: C4_4  and  C10_10 
ROOT
HETATM    1  C5  UNL     1     -35.135  13.985  -5.467  1.00 20.00     0.135 C 
HETATM    2  C6  UNL     1     -34.611  14.792  -6.632  1.00 20.00     0.079 C 
HETATM    3  C7  UNL     1     -33.330  15.506  -6.234  1.00 20.00     0.007 C 
HETATM    4  C8  UNL     1     -33.529  16.349  -4.980  1.00 20.00     0.001 C 
HETATM    5  C9  UNL     1     -34.062  15.505  -3.819  1.00 20.00     0.017 C 
HETATM    6  C10 UNL     1     -35.351  14.727  -4.150  1.00 20.00     0.088 C 
HETATM    7  O11 UNL     1     -35.441  12.800  -5.598  1.00 20.00    -0.297 OA
ENDROOT
BRANCH   6   8
HETATM    8  C4  UNL     1     -36.668  15.492  -4.155  1.00 20.00    -0.040 A 
HETATM    9  C1  UNL     1     -36.812  16.830  -3.688  1.00 20.00     0.015 A 
HETATM   10  C2  UNL     1     -38.106  17.283  -3.805  1.00 20.00     0.050 A 
HETATM   11  S12 UNL     1     -39.144  16.097  -4.475  1.00 20.00    -0.113 SA
HETATM   12  C3  UNL     1     -37.859  14.973  -4.611  1.00 20.00     0.057 A 
ENDBRANCH   6   8
TORSDOF 1
ENDMDL
MODEL 8
REMARK VINA RESULT:      -4.5      2.191      3.064
REMARK  1 active torsions:
REMARK  status: ('A' for Active; 'I' for Inactive)
REMARK    1  A    between atoms: C4_4  and  C10_10 
ROOT
HETATM    1  C5  UNL     1     -33.686  15.432  -4.687  1.00 20.00     0.135 C 
HETATM    2  C6  UNL     1     -34.202  14.076  -4.264  1.00 20.00     0.079 C 
HETATM    3  C7  UNL     1     -35.592  13.849  -4.835  1.00 20.00     0.007 C 
HETATM    4  C8  UNL     1     -36.541  14.980  -4.455  1.00 20.00     0.001 C 
HETATM    5  C9  UNL     1     -35.991  16.340  -4.893  1.00 20.00     0.017 C 
HETATM    6  C10 UNL     1     -34.570  16.638  -4.375  1.00 20.00     0.088 C 
HETATM    7  O11 UNL     1     -32.572  15.562  -5.193  1.00 20.00    -0.297 OA
ENDROOT
BRANCH   6   8
HETATM    8  C4  UNL     1     -34.414  17.079  -2.926  1.00 20.00    -0.040 A 
HETATM    9  C1  UNL     1     -35.357  16.785  -1.899  1.00 20.00     0.015 A 
HETATM   10  C2  UNL     1     -34.973  17.300  -0.682  1.00 20.00     0.050 A 
HETATM   11  S12 UNL     1     -33.482  18.137  -0.778  1.00 20.00    -0.113 SA
HETATM   12  C3  UNL     1     -33.346  17.810  -2.454  1.00 20.00     0.057 A 
ENDBRANCH   6   8
TORSDOF 1
ENDMDL
MODEL 9
REMARK VINA RESULT:      -4.5      2.618      4.644
REMARK  1 active torsions:
REMARK  status: ('A' for Active; 'I' for Inactive)
REMARK    1  A    between atoms: C4_4  and  C10_10 
ROOT
HETATM    1  C5  UNL     1     -35.809  17.699  -2.105  1.00 20.00     0.135 C 
HETATM    2  C6  UNL     1     -35.349  17.222  -0.747  1.00 20.00     0.079 C 
HETATM    3  C7  UNL     1     -34.082  17.956  -0.341  1.00 20.00     0.007 C 
HETATM    4  C8  UNL     1     -32.998  17.825  -1.405  1.00 20.00     0.001 C 
HETATM    5  C9  UNL     1     -33.493  18.314  -2.769  1.00 20.00     0.017 C 
HETATM    6  C10 UNL     1     -34.793  17.634  -3.244  1.00 20.00     0.088 C 
HETATM    7  O11 UNL     1     -36.971  18.055  -2.297  1.00 20.00    -0.297 OA
ENDROOT
BRANCH   6   8
HETATM    8  C4  UNL     1     -34.696  16.229  -3.820  1.00 20.00    -0.040 A 
HETATM    9  C1  UNL     1     -33.466  15.543  -4.042  1.00 20.00     0.015 A 
HETATM   10  C2  UNL     1     -33.662  14.287  -4.570  1.00 20.00     0.050 A 
HETATM   11  S12 UNL     1     -35.323  13.938  -4.798  1.00 20.00    -0.113 SA
HETATM   12  C3  UNL     1     -35.785  15.469  -4.188  1.00 20.00     0.057 A 
ENDBRANCH   6   8
TORSDOF 1
ENDMDL
