MODEL 1
REMARK VINA RESULT:      -3.9      0.000      0.000
REMARK  1 active torsions:
REMARK  status: ('A' for Active; 'I' for Inactive)
REMARK    1  A    between atoms: C6_6  and  S9_9 
ROOT
HETATM    1  C1  UNL     1     -35.627  13.901  -5.023  1.00 20.00     0.080 C 
HETATM    2  C2  UNL     1     -32.867  15.245  -4.869  1.00 20.00     0.003 C 
HETATM    3  C3  UNL     1     -33.439  15.695  -6.212  1.00 20.00     0.003 C 
HETATM    4  C4  UNL     1     -34.006  15.374  -3.854  1.00 20.00     0.036 C 
HETATM    5  C5  UNL     1     -34.895  16.086  -5.947  1.00 20.00     0.036 C 
HETATM    6  C6  UNL     1     -35.285  15.297  -4.693  1.00 20.00     0.096 C 
HETATM    7  N8  UNL     1     -35.896  12.803  -5.283  1.00 20.00    -0.196 NA
ENDROOT
BRANCH   6   8
HETATM    8  S9  UNL     1     -36.684  16.091  -3.832  1.00 20.00    -0.148 SA
HETATM    9  C7  UNL     1     -35.769  16.757  -2.424  1.00 20.00     0.091 C 
ENDBRANCH   6   8
TORSDOF 1
ENDMDL
MODEL 2
REMARK VINA RESULT:      -3.8      2.159      3.274
REMARK  1 active torsions:
REMARK  status: ('A' for Active; 'I' for Inactive)
REMARK    1  A    between atoms: C6_6  and  S9_9 
ROOT
HETATM    1  C1  UNL     1     -36.954  14.183  -5.255  1.00 20.00     0.080 C 
HETATM    2  C2  UNL     1     -35.068  16.521  -4.601  1.00 20.00     0.003 C 
HETATM    3  C3  UNL     1     -34.672  15.422  -3.617  1.00 20.00     0.003 C 
HETATM    4  C4  UNL     1     -35.241  15.837  -5.959  1.00 20.00     0.036 C 
HETATM    5  C5  UNL     1     -34.614  14.125  -4.427  1.00 20.00     0.036 C 
HETATM    6  C6  UNL     1     -35.538  14.372  -5.623  1.00 20.00     0.096 C 
HETATM    7  N8  UNL     1     -38.067  14.034  -4.964  1.00 20.00    -0.196 NA
ENDROOT
BRANCH   6   8
HETATM    8  S9  UNL     1     -35.108  13.277  -7.017  1.00 20.00    -0.148 SA
HETATM    9  C7  UNL     1     -34.040  14.422  -7.918  1.00 20.00     0.091 C 
ENDBRANCH   6   8
TORSDOF 1
ENDMDL
MODEL 3
REMARK VINA RESULT:      -3.7      1.577      3.112
REMARK  1 active torsions:
REMARK  status: ('A' for Active; 'I' for Inactive)
REMARK    1  A    between atoms: C6_6  and  S9_9 
ROOT
HETATM    1  C1  UNL     1     -34.554  14.807  -4.076  1.00 20.00     0.080 C 
HETATM    2  C2  UNL     1     -35.202  16.692  -1.736  1.00 20.00     0.003 C 
HETATM    3  C3  UNL     1     -33.735  16.972  -2.059  1.00 20.00     0.003 C 
HETATM    4  C4  UNL     1     -35.930  16.618  -3.080  1.00 20.00     0.036 C 
HETATM    5  C5  UNL     1     -33.645  17.064  -3.584  1.00 20.00     0.036 C 
HETATM    6  C6  UNL     1     -34.840  16.254  -4.093  1.00 20.00     0.096 C 
HETATM    7  N8  UNL     1     -34.328  13.669  -4.061  1.00 20.00    -0.196 NA
ENDROOT
BRANCH   6   8
HETATM    8  S9  UNL     1     -35.309  16.772  -5.779  1.00 20.00    -0.148 SA
HETATM    9  C7  UNL     1     -33.748  16.391  -6.604  1.00 20.00     0.091 C 
ENDBRANCH   6   8
TORSDOF 1
ENDMDL
MODEL 4
REMARK VINA RESULT:      -3.7      1.671      3.000
REMARK  1 active torsions:
REMARK  status: ('A' for Active; 'I' for Inactive)
REMARK    1  A    between atoms: C6_6  and  S9_9 
ROOT
HETATM    1  C1  UNL     1     -35.504  13.965  -5.385  1.00 20.00     0.080 C 
HETATM    2  C2  UNL     1     -35.297  16.250  -3.339  1.00 20.00     0.003 C 
HETATM    3  C3  UNL     1     -33.878  15.692  -3.437  1.00 20.00     0.003 C 
HETATM    4  C4  UNL     1     -35.816  16.351  -4.776  1.00 20.00     0.036 C 
HETATM    5  C5  UNL     1     -33.600  15.491  -4.928  1.00 20.00     0.036 C 
HETATM    6  C6  UNL     1     -34.985  15.333  -5.563  1.00 20.00     0.096 C 
HETATM    7  N8  UNL     1     -35.912  12.888  -5.244  1.00 20.00    -0.196 NA
ENDROOT
BRANCH   6   8
HETATM    8  S9  UNL     1     -34.941  15.753  -7.338  1.00 20.00    -0.148 SA
HETATM    9  C7  UNL     1     -34.034  14.302  -7.918  1.00 20.00     0.091 C 
ENDBRANCH   6   8
TORSDOF 1
ENDMDL
MODEL 5
REMARK VINA RESULT:      -3.7      1.738      2.974
REMARK  1 active torsions:
REMARK  status: ('A' for Active; 'I' for Inactive)
REMARK    1  A    between atoms: C6_6  and  S9_9 
ROOT
HETATM    1  C1  UNL     1     -35.373  13.917  -5.270  1.00 20.00     0.080 C 
HETATM    2  C2  UNL     1     -35.985  16.472  -3.674  1.00 20.00     0.003 C 
HETATM    3  C3  UNL     1     -34.723  15.906  -3.024  1.00 20.00     0.003 C 
HETATM    4  C4  UNL     1     -35.771  16.366  -5.186  1.00 20.00     0.036 C 
HETATM    5  C5  UNL     1     -33.800  15.493  -4.173  1.00 20.00     0.036 C 
HETATM    6  C6  UNL     1     -34.740  15.246  -5.356  1.00 20.00     0.096 C 
HETATM    7  N8  UNL     1     -35.870  12.871  -5.201  1.00 20.00    -0.196 NA
ENDROOT
BRANCH   6   8
HETATM    8  S9  UNL     1     -33.849  15.407  -6.941  1.00 20.00    -0.148 SA
HETATM    9  C7  UNL     1     -33.976  17.200  -7.120  1.00 20.00     0.091 C 
ENDBRANCH   6   8
TORSDOF 1
ENDMDL
MODEL 6
REMARK VINA RESULT:      -3.6     12.065     12.867
REMARK  1 active torsions:
REMARK  status: ('A' for Active; 'I' for Inactive)
REMARK    1  A    between atoms: C6_6  and  S9_9 
ROOT
HETATM    1  C1  UNL     1     -33.489   7.146   5.057  1.00 20.00     0.080 C 
HETATM    2  C2  UNL     1     -34.048   4.234   4.248  1.00 20.00     0.003 C 
HETATM    3  C3  UNL     1     -35.416   4.914   4.205  1.00 20.00     0.003 C 
HETATM    4  C4  UNL     1     -33.069   5.199   3.575  1.00 20.00     0.036 C 
HETATM    5  C5  UNL     1     -35.203   6.254   3.498  1.00 20.00     0.036 C 
HETATM    6  C6  UNL     1     -33.722   6.578   3.717  1.00 20.00     0.096 C 
HETATM    7  N8  UNL     1     -33.307   7.594   6.112  1.00 20.00    -0.196 NA
ENDROOT
BRANCH   6   8
HETATM    8  S9  UNL     1     -33.110   7.728   2.440  1.00 20.00    -0.148 SA
HETATM    9  C7  UNL     1     -31.557   8.189   3.239  1.00 20.00     0.091 C 
ENDBRANCH   6   8
TORSDOF 1
ENDMDL
MODEL 7
REMARK VINA RESULT:      -3.5      2.077      2.888
REMARK  1 active torsions:
REMARK  status: ('A' for Active; 'I' for Inactive)
REMARK    1  A    between atoms: C6_6  and  S9_9 
ROOT
HETATM    1  C1  UNL     1     -34.847  16.290  -2.722  1.00 20.00     0.080 C 
HETATM    2  C2  UNL     1     -33.068  15.851  -5.190  1.00 20.00     0.003 C 
HETATM    3  C3  UNL     1     -33.091  14.494  -4.487  1.00 20.00     0.003 C 
HETATM    4  C4  UNL     1     -34.511  16.362  -5.181  1.00 20.00     0.036 C 
HETATM    5  C5  UNL     1     -34.548  14.243  -4.093  1.00 20.00     0.036 C 
HETATM    6  C6  UNL     1     -35.173  15.638  -4.004  1.00 20.00     0.096 C 
HETATM    7  N8  UNL     1     -34.590  16.803  -1.714  1.00 20.00    -0.196 NA
ENDROOT
BRANCH   6   8
HETATM    8  S9  UNL     1     -36.983  15.558  -4.216  1.00 20.00    -0.148 SA
HETATM    9  C7  UNL     1     -37.047  14.109  -5.294  1.00 20.00     0.091 C 
ENDBRANCH   6   8
TORSDOF 1
ENDMDL
MODEL 8
REMARK VINA RESULT:      -3.4      2.960      4.306
REMARK  1 active torsions:
REMARK  status: ('A' for Active; 'I' for Inactive)
REMARK    1  A    between atoms: C6_6  and  S9_9 
ROOT
HETATM    1  C1  UNL     1     -34.708  18.278  -3.813  1.00 20.00     0.080 C 
HETATM    2  C2  UNL     1     -34.083  17.663  -0.867  1.00 20.00     0.003 C 
HETATM    3  C3  UNL     1     -35.448  17.023  -1.112  1.00 20.00     0.003 C 
HETATM    4  C4  UNL     1     -33.220  17.307  -2.079  1.00 20.00     0.036 C 
HETATM    5  C5  UNL     1     -35.345  16.300  -2.456  1.00 20.00     0.036 C 
HETATM    6  C6  UNL     1     -34.223  17.026  -3.203  1.00 20.00     0.096 C 
HETATM    7  N8  UNL     1     -35.090  19.263  -4.293  1.00 20.00    -0.196 NA
ENDROOT
BRANCH   6   8
HETATM    8  S9  UNL     1     -33.491  15.954  -4.485  1.00 20.00    -0.148 SA
HETATM    9  C7  UNL     1     -34.429  14.453  -4.124  1.00 20.00     0.091 C 
ENDBRANCH   6   8
TORSDOF 1
ENDMDL
MODEL 9
REMARK VINA RESULT:      -3.4      1.320      1.765
REMARK  1 active torsions:
REMARK  status: ('A' for Active; 'I' for Inactive)
REMARK    1  A    between atoms: C6_6  and  S9_9 
ROOT
HETATM    1  C1  UNL     1     -35.419  13.932  -5.189  1.00 20.00     0.080 C 
HETATM    2  C2  UNL     1     -33.860  15.470  -7.347  1.00 20.00     0.003 C 
HETATM    3  C3  UNL     1     -35.271  16.055  -7.401  1.00 20.00     0.003 C 
HETATM    4  C4  UNL     1     -33.501  15.358  -5.863  1.00 20.00     0.036 C 
HETATM    5  C5  UNL     1     -35.696  16.279  -5.949  1.00 20.00     0.036 C 
HETATM    6  C6  UNL     1     -34.850  15.292  -5.139  1.00 20.00     0.096 C 
HETATM    7  N8  UNL     1     -35.868  12.863  -5.228  1.00 20.00    -0.196 NA
ENDROOT
BRANCH   6   8
HETATM    8  S9  UNL     1     -34.693  15.836  -3.405  1.00 20.00    -0.148 SA
HETATM    9  C7  UNL     1     -33.668  17.296  -3.690  1.00 20.00     0.091 C 
ENDBRANCH   6   8
TORSDOF 1
ENDMDL
