MODEL 1
REMARK VINA RESULT:      -6.0      0.000      0.000
REMARK  2 active torsions:
REMARK  status: ('A' for Active; 'I' for Inactive)
REMARK    1  A    between atoms: C6_6  and  C9_9 
REMARK    2  A    between atoms: C9_9  and  C10_10 
ROOT
HETATM    1  C1  UNL     1     -33.995   5.777   2.592  1.00 20.00     0.002 C 
HETATM    2  C2  UNL     1     -32.575   6.241   2.905  1.00 20.00     0.005 C 
HETATM    3  C3  UNL     1     -33.153   7.963   4.777  1.00 20.00     0.006 C 
HETATM    4  C4  UNL     1     -35.070   6.118   3.622  1.00 20.00     0.020 C 
HETATM    5  C5  UNL     1     -33.485   6.724   5.609  1.00 20.00     0.020 C 
HETATM    6  C6  UNL     1     -32.412   7.667   3.455  1.00 20.00    -0.014 C 
HETATM    7  C7  UNL     1     -34.701   5.934   5.098  1.00 20.00     0.082 C 
HETATM    8 CL11 UNL     1     -34.499   4.196   5.484  1.00 20.00    -0.125 Cl
ENDROOT
BRANCH   6   9
HETATM    9  C9  UNL     1     -32.758   8.722   2.401  1.00 20.00     0.004 C 
BRANCH   9  10
HETATM   10  C10 UNL     1     -31.788   8.660   1.229  1.00 20.00    -0.004 C 
HETATM   11  C8  UNL     1     -32.382   9.320  -0.005  1.00 20.00     0.005 C 
ENDBRANCH   9  10
ENDBRANCH   6   9
TORSDOF 2
ENDMDL
MODEL 2
REMARK VINA RESULT:      -4.5     11.155     12.443
REMARK  2 active torsions:
REMARK  status: ('A' for Active; 'I' for Inactive)
REMARK    1  A    between atoms: C6_6  and  C9_9 
REMARK    2  A    between atoms: C9_9  and  C10_10 
ROOT
HETATM    1  C1  UNL     1     -34.459  14.321  -4.112  1.00 20.00     0.002 C 
HETATM    2  C2  UNL     1     -35.607  15.323  -4.022  1.00 20.00     0.005 C 
HETATM    3  C3  UNL     1     -34.199  17.512  -4.213  1.00 20.00     0.006 C 
HETATM    4  C4  UNL     1     -33.125  14.851  -4.632  1.00 20.00     0.020 C 
HETATM    5  C5  UNL     1     -34.003  17.084  -5.667  1.00 20.00     0.020 C 
HETATM    6  C6  UNL     1     -35.276  16.712  -3.449  1.00 20.00    -0.014 C 
HETATM    7  C7  UNL     1     -33.175  15.799  -5.835  1.00 20.00     0.082 C 
HETATM    8 CL11 UNL     1     -33.708  14.924  -7.304  1.00 20.00    -0.125 Cl
ENDROOT
BRANCH   6   9
HETATM    9  C9  UNL     1     -34.933  16.640  -1.959  1.00 20.00     0.004 C 
BRANCH   9  10
HETATM   10  C10 UNL     1     -33.600  17.318  -1.673  1.00 20.00    -0.004 C 
HETATM   11  C8  UNL     1     -33.678  18.162  -0.411  1.00 20.00     0.005 C 
ENDBRANCH   9  10
ENDBRANCH   6   9
TORSDOF 2
ENDMDL
MODEL 3
REMARK VINA RESULT:      -4.5     11.390     12.293
REMARK  2 active torsions:
REMARK  status: ('A' for Active; 'I' for Inactive)
REMARK    1  A    between atoms: C6_6  and  C9_9 
REMARK    2  A    between atoms: C9_9  and  C10_10 
ROOT
HETATM    1  C1  UNL     1     -33.189  15.975  -5.455  1.00 20.00     0.002 C 
HETATM    2  C2  UNL     1     -33.401  15.269  -4.118  1.00 20.00     0.005 C 
HETATM    3  C3  UNL     1     -36.011  15.263  -4.117  1.00 20.00     0.006 C 
HETATM    4  C4  UNL     1     -34.392  16.045  -6.393  1.00 20.00     0.020 C 
HETATM    5  C5  UNL     1     -35.862  14.225  -5.229  1.00 20.00     0.020 C 
HETATM    6  C6  UNL     1     -34.703  15.586  -3.363  1.00 20.00    -0.014 C 
HETATM    7  C7  UNL     1     -35.245  14.779  -6.524  1.00 20.00     0.082 C 
HETATM    8 CL11 UNL     1     -34.327  13.486  -7.359  1.00 20.00    -0.125 Cl
ENDROOT
BRANCH   6   9
HETATM    9  C9  UNL     1     -34.722  17.028  -2.852  1.00 20.00     0.004 C 
BRANCH   9  10
HETATM   10  C10 UNL     1     -34.105  17.124  -1.463  1.00 20.00    -0.004 C 
HETATM   11  C8  UNL     1     -32.880  18.024  -1.472  1.00 20.00     0.005 C 
ENDBRANCH   9  10
ENDBRANCH   6   9
TORSDOF 2
ENDMDL
MODEL 4
REMARK VINA RESULT:      -4.2     11.212     12.135
REMARK  2 active torsions:
REMARK  status: ('A' for Active; 'I' for Inactive)
REMARK    1  A    between atoms: C6_6  and  C9_9 
REMARK    2  A    between atoms: C9_9  and  C10_10 
ROOT
HETATM    1  C1  UNL     1     -36.189  16.467  -4.960  1.00 20.00     0.002 C 
HETATM    2  C2  UNL     1     -34.830  17.012  -5.392  1.00 20.00     0.005 C 
HETATM    3  C3  UNL     1     -33.330  15.476  -3.909  1.00 20.00     0.006 C 
HETATM    4  C4  UNL     1     -36.190  15.123  -4.235  1.00 20.00     0.020 C 
HETATM    5  C5  UNL     1     -33.769  14.370  -4.869  1.00 20.00     0.020 C 
HETATM    6  C6  UNL     1     -33.681  16.905  -4.375  1.00 20.00    -0.014 C 
HETATM    7  C7  UNL     1     -35.268  14.033  -4.791  1.00 20.00     0.082 C 
HETATM    8 CL11 UNL     1     -35.847  13.476  -6.393  1.00 20.00    -0.125 Cl
ENDROOT
BRANCH   6   9
HETATM    9  C9  UNL     1     -33.909  17.820  -3.169  1.00 20.00     0.004 C 
BRANCH   9  10
HETATM   10  C10 UNL     1     -33.886  17.026  -1.870  1.00 20.00    -0.004 C 
HETATM   11  C8  UNL     1     -35.245  17.054  -1.190  1.00 20.00     0.005 C 
ENDBRANCH   9  10
ENDBRANCH   6   9
TORSDOF 2
ENDMDL
MODEL 5
REMARK VINA RESULT:      -4.2     10.922     12.598
REMARK  2 active torsions:
REMARK  status: ('A' for Active; 'I' for Inactive)
REMARK    1  A    between atoms: C6_6  and  C9_9 
REMARK    2  A    between atoms: C9_9  and  C10_10 
ROOT
HETATM    1  C1  UNL     1     -34.326  14.565  -3.945  1.00 20.00     0.002 C 
HETATM    2  C2  UNL     1     -33.049  14.889  -4.715  1.00 20.00     0.005 C 
HETATM    3  C3  UNL     1     -33.797  17.176  -5.723  1.00 20.00     0.006 C 
HETATM    4  C4  UNL     1     -35.301  15.718  -3.717  1.00 20.00     0.020 C 
HETATM    5  C5  UNL     1     -33.674  17.682  -4.286  1.00 20.00     0.020 C 
HETATM    6  C6  UNL     1     -33.193  15.776  -5.963  1.00 20.00    -0.014 C 
HETATM    7  C7  UNL     1     -34.698  17.069  -3.316  1.00 20.00     0.082 C 
HETATM    8 CL11 UNL     1     -33.996  16.981  -1.671  1.00 20.00    -0.125 Cl
ENDROOT
BRANCH   6   9
HETATM    9  C9  UNL     1     -33.945  15.054  -7.084  1.00 20.00     0.004 C 
BRANCH   9  10
HETATM   10  C10 UNL     1     -35.240  15.778  -7.427  1.00 20.00    -0.004 C 
HETATM   11  C8  UNL     1     -36.443  14.871  -7.219  1.00 20.00     0.005 C 
ENDBRANCH   9  10
ENDBRANCH   6   9
TORSDOF 2
ENDMDL
MODEL 6
REMARK VINA RESULT:      -4.0     11.435     12.719
REMARK  2 active torsions:
REMARK  status: ('A' for Active; 'I' for Inactive)
REMARK    1  A    between atoms: C6_6  and  C9_9 
REMARK    2  A    between atoms: C9_9  and  C10_10 
ROOT
HETATM    1  C1  UNL     1     -36.128  16.491  -5.003  1.00 20.00     0.002 C 
HETATM    2  C2  UNL     1     -35.868  15.375  -3.995  1.00 20.00     0.005 C 
HETATM    3  C3  UNL     1     -33.744  14.355  -5.117  1.00 20.00     0.006 C 
HETATM    4  C4  UNL     1     -34.982  16.842  -5.949  1.00 20.00     0.020 C 
HETATM    5  C5  UNL     1     -33.061  15.639  -4.648  1.00 20.00     0.020 C 
HETATM    6  C6  UNL     1     -35.147  14.120  -4.516  1.00 20.00    -0.014 C 
HETATM    7  C7  UNL     1     -33.577  16.912  -5.341  1.00 20.00     0.082 C 
HETATM    8 CL11 UNL     1     -33.442  18.307  -4.225  1.00 20.00    -0.125 Cl
ENDROOT
BRANCH   6   9
HETATM    9  C9  UNL     1     -36.022  13.331  -5.493  1.00 20.00     0.004 C 
BRANCH   9  10
HETATM   10  C10 UNL     1     -35.365  13.243  -6.864  1.00 20.00    -0.004 C 
HETATM   11  C8  UNL     1     -36.205  13.946  -7.918  1.00 20.00     0.005 C 
ENDBRANCH   9  10
ENDBRANCH   6   9
TORSDOF 2
ENDMDL
MODEL 7
REMARK VINA RESULT:      -4.0      2.451      4.315
REMARK  2 active torsions:
REMARK  status: ('A' for Active; 'I' for Inactive)
REMARK    1  A    between atoms: C6_6  and  C9_9 
REMARK    2  A    between atoms: C9_9  and  C10_10 
ROOT
HETATM    1  C1  UNL     1     -33.770   6.363   2.682  1.00 20.00     0.002 C 
HETATM    2  C2  UNL     1     -34.646   7.107   3.686  1.00 20.00     0.005 C 
HETATM    3  C3  UNL     1     -32.790   7.709   5.419  1.00 20.00     0.006 C 
HETATM    4  C4  UNL     1     -32.261   6.564   2.807  1.00 20.00     0.020 C 
HETATM    5  C5  UNL     1     -32.306   8.679   4.341  1.00 20.00     0.020 C 
HETATM    6  C6  UNL     1     -34.184   7.101   5.153  1.00 20.00    -0.014 C 
HETATM    7  C7  UNL     1     -31.770   7.991   3.074  1.00 20.00     0.082 C 
HETATM    8 CL11 UNL     1     -32.064   9.035   1.648  1.00 20.00    -0.125 Cl
ENDROOT
BRANCH   6   9
HETATM    9  C9  UNL     1     -34.284   5.703   5.770  1.00 20.00     0.004 C 
BRANCH   9  10
HETATM   10  C10 UNL     1     -34.967   4.733   4.816  1.00 20.00    -0.004 C 
HETATM   11  C8  UNL     1     -34.009   3.637   4.375  1.00 20.00     0.005 C 
ENDBRANCH   9  10
ENDBRANCH   6   9
TORSDOF 2
ENDMDL
MODEL 8
REMARK VINA RESULT:      -3.9     11.200     12.170
REMARK  2 active torsions:
REMARK  status: ('A' for Active; 'I' for Inactive)
REMARK    1  A    between atoms: C6_6  and  C9_9 
REMARK    2  A    between atoms: C9_9  and  C10_10 
ROOT
HETATM    1  C1  UNL     1     -36.066  17.893  -1.316  1.00 20.00     0.002 C 
HETATM    2  C2  UNL     1     -35.109  16.723  -1.528  1.00 20.00     0.005 C 
HETATM    3  C3  UNL     1     -32.909  18.096  -1.821  1.00 20.00     0.006 C 
HETATM    4  C4  UNL     1     -35.436  19.242  -0.975  1.00 20.00     0.020 C 
HETATM    5  C5  UNL     1     -33.058  18.374  -0.325  1.00 20.00     0.020 C 
HETATM    6  C6  UNL     1     -33.848  16.997  -2.364  1.00 20.00    -0.014 C 
HETATM    7  C7  UNL     1     -34.282  19.234   0.033  1.00 20.00     0.082 C 
HETATM    8 CL11 UNL     1     -34.875  18.794   1.665  1.00 20.00    -0.125 Cl
ENDROOT
BRANCH   6   9
HETATM    9  C9  UNL     1     -34.192  17.266  -3.832  1.00 20.00     0.004 C 
BRANCH   9  10
HETATM   10  C10 UNL     1     -33.362  16.386  -4.756  1.00 20.00    -0.004 C 
HETATM   11  C8  UNL     1     -33.325  14.951  -4.255  1.00 20.00     0.005 C 
ENDBRANCH   9  10
ENDBRANCH   6   9
TORSDOF 2
ENDMDL
MODEL 9
REMARK VINA RESULT:      -3.8      1.095      2.056
REMARK  2 active torsions:
REMARK  status: ('A' for Active; 'I' for Inactive)
REMARK    1  A    between atoms: C6_6  and  C9_9 
REMARK    2  A    between atoms: C9_9  and  C10_10 
ROOT
HETATM    1  C1  UNL     1     -33.988   7.582   5.003  1.00 20.00     0.002 C 
HETATM    2  C2  UNL     1     -34.307   7.648   3.512  1.00 20.00     0.005 C 
HETATM    3  C3  UNL     1     -32.698   5.757   2.709  1.00 20.00     0.006 C 
HETATM    4  C4  UNL     1     -33.261   6.332   5.495  1.00 20.00     0.020 C 
HETATM    5  C5  UNL     1     -33.687   4.822   3.405  1.00 20.00     0.020 C 
HETATM    6  C6  UNL     1     -33.197   7.208   2.542  1.00 20.00    -0.014 C 
HETATM    7  C7  UNL     1     -33.735   4.987   4.933  1.00 20.00     0.082 C 
HETATM    8 CL11 UNL     1     -35.377   4.597   5.533  1.00 20.00    -0.125 Cl
ENDROOT
BRANCH   6   9
HETATM    9  C9  UNL     1     -32.017   8.183   2.556  1.00 20.00     0.004 C 
BRANCH   9  10
HETATM   10  C10 UNL     1     -31.850   8.857   1.200  1.00 20.00    -0.004 C 
HETATM   11  C8  UNL     1     -32.649  10.148   1.131  1.00 20.00     0.005 C 
ENDBRANCH   9  10
ENDBRANCH   6   9
TORSDOF 2
ENDMDL
