MODEL 1
REMARK VINA RESULT:      -6.2      0.000      0.000
REMARK  0 active torsions:
REMARK  status: ('A' for Active; 'I' for Inactive)
ROOT
HETATM    1  C1  UNL     1     -32.317   9.019   1.843  1.00 20.00     0.064 C 
HETATM    2  C2  UNL     1     -33.385   8.004   4.797  1.00 20.00     0.002 C 
HETATM    3  C3  UNL     1     -32.037   8.007   4.078  1.00 20.00     0.019 C 
HETATM    4  C4  UNL     1     -33.134   6.719   2.101  1.00 20.00     0.020 C 
HETATM    5  C5  UNL     1     -33.796   6.608   5.269  1.00 20.00     0.008 C 
HETATM    6  C6  UNL     1     -33.285   5.486   2.995  1.00 20.00     0.010 C 
HETATM    7  C7  UNL     1     -32.098   7.749   2.568  1.00 20.00     0.093 C 
HETATM    8  C8  UNL     1     -34.271   5.613   4.184  1.00 20.00    -0.048 C 
HETATM    9  C9  UNL     1     -35.687   5.996   3.703  1.00 20.00     0.015 C 
HETATM   10  C10 UNL     1     -34.380   4.220   4.848  1.00 20.00     0.015 C 
HETATM   11  N11 UNL     1     -32.487  10.017   1.276  1.00 20.00    -0.197 NA
ENDROOT
TORSDOF 0
ENDMDL
MODEL 2
REMARK VINA RESULT:      -4.8     11.205     11.919
REMARK  0 active torsions:
REMARK  status: ('A' for Active; 'I' for Inactive)
ROOT
HETATM    1  C1  UNL     1     -33.225  18.014  -2.440  1.00 20.00     0.064 C 
HETATM    2  C2  UNL     1     -36.228  16.913  -3.255  1.00 20.00     0.002 C 
HETATM    3  C3  UNL     1     -35.270  16.676  -2.088  1.00 20.00     0.019 C 
HETATM    4  C4  UNL     1     -33.432  15.976  -3.792  1.00 20.00     0.020 C 
HETATM    5  C5  UNL     1     -36.646  15.612  -3.945  1.00 20.00     0.008 C 
HETATM    6  C6  UNL     1     -34.229  14.711  -4.124  1.00 20.00     0.010 C 
HETATM    7  C7  UNL     1     -33.782  16.645  -2.458  1.00 20.00     0.093 C 
HETATM    8  C8  UNL     1     -35.589  14.921  -4.837  1.00 20.00    -0.048 C 
HETATM    9  C9  UNL     1     -35.420  15.705  -6.156  1.00 20.00     0.015 C 
HETATM   10  C10 UNL     1     -36.139  13.523  -5.208  1.00 20.00     0.015 C 
HETATM   11  N11 UNL     1     -32.789  19.089  -2.425  1.00 20.00    -0.197 NA
ENDROOT
TORSDOF 0
ENDMDL
MODEL 3
REMARK VINA RESULT:      -4.6     10.927     12.717
REMARK  0 active torsions:
REMARK  status: ('A' for Active; 'I' for Inactive)
ROOT
HETATM    1  C1  UNL     1     -35.173  13.711  -4.756  1.00 20.00     0.064 C 
HETATM    2  C2  UNL     1     -33.815  16.524  -5.823  1.00 20.00     0.002 C 
HETATM    3  C3  UNL     1     -33.281  15.235  -5.199  1.00 20.00     0.019 C 
HETATM    4  C4  UNL     1     -34.900  15.584  -3.192  1.00 20.00     0.020 C 
HETATM    5  C5  UNL     1     -33.394  17.772  -5.044  1.00 20.00     0.008 C 
HETATM    6  C6  UNL     1     -34.080  16.798  -2.749  1.00 20.00     0.010 C 
HETATM    7  C7  UNL     1     -34.178  14.606  -4.126  1.00 20.00     0.093 C 
HETATM    8  C8  UNL     1     -34.102  18.027  -3.694  1.00 20.00    -0.048 C 
HETATM    9  C9  UNL     1     -35.542  18.523  -3.941  1.00 20.00     0.015 C 
HETATM   10  C10 UNL     1     -33.343  19.173  -2.982  1.00 20.00     0.015 C 
HETATM   11  N11 UNL     1     -35.952  13.008  -5.250  1.00 20.00    -0.197 NA
ENDROOT
TORSDOF 0
ENDMDL
MODEL 4
REMARK VINA RESULT:      -4.4     11.161     12.485
REMARK  0 active torsions:
REMARK  status: ('A' for Active; 'I' for Inactive)
ROOT
HETATM    1  C1  UNL     1     -36.830  14.639  -4.923  1.00 20.00     0.064 C 
HETATM    2  C2  UNL     1     -36.362  17.753  -3.932  1.00 20.00     0.002 C 
HETATM    3  C3  UNL     1     -35.944  16.932  -5.152  1.00 20.00     0.019 C 
HETATM    4  C4  UNL     1     -34.865  15.183  -3.555  1.00 20.00     0.020 C 
HETATM    5  C5  UNL     1     -35.169  18.389  -3.216  1.00 20.00     0.008 C 
HETATM    6  C6  UNL     1     -33.788  16.202  -3.175  1.00 20.00     0.010 C 
HETATM    7  C7  UNL     1     -35.604  15.464  -4.869  1.00 20.00     0.093 C 
HETATM    8  C8  UNL     1     -34.266  17.448  -2.385  1.00 20.00    -0.048 C 
HETATM    9  C9  UNL     1     -34.986  17.046  -1.080  1.00 20.00     0.015 C 
HETATM   10  C10 UNL     1     -33.007  18.251  -1.979  1.00 20.00     0.015 C 
HETATM   11  N11 UNL     1     -37.793  13.992  -4.966  1.00 20.00    -0.197 NA
ENDROOT
TORSDOF 0
ENDMDL
MODEL 5
REMARK VINA RESULT:      -4.2     10.902     12.305
REMARK  0 active torsions:
REMARK  status: ('A' for Active; 'I' for Inactive)
ROOT
HETATM    1  C1  UNL     1     -32.838  18.248  -1.401  1.00 20.00     0.064 C 
HETATM    2  C2  UNL     1     -33.492  17.498  -4.548  1.00 20.00     0.002 C 
HETATM    3  C3  UNL     1     -33.977  18.566  -3.568  1.00 20.00     0.019 C 
HETATM    4  C4  UNL     1     -34.656  16.678  -1.911  1.00 20.00     0.020 C 
HETATM    5  C5  UNL     1     -34.641  16.686  -5.149  1.00 20.00     0.008 C 
HETATM    6  C6  UNL     1     -35.774  16.250  -2.865  1.00 20.00     0.010 C 
HETATM    7  C7  UNL     1     -34.125  18.102  -2.114  1.00 20.00     0.093 C 
HETATM    8  C8  UNL     1     -35.328  15.654  -4.225  1.00 20.00    -0.048 C 
HETATM    9  C9  UNL     1     -34.409  14.430  -4.030  1.00 20.00     0.015 C 
HETATM   10  C10 UNL     1     -36.600  15.155  -4.952  1.00 20.00     0.015 C 
HETATM   11  N11 UNL     1     -31.829  18.363  -0.841  1.00 20.00    -0.197 NA
ENDROOT
TORSDOF 0
ENDMDL
MODEL 6
REMARK VINA RESULT:      -4.1     10.752     12.090
REMARK  0 active torsions:
REMARK  status: ('A' for Active; 'I' for Inactive)
ROOT
HETATM    1  C1  UNL     1     -35.197  13.660  -6.363  1.00 20.00     0.064 C 
HETATM    2  C2  UNL     1     -33.579  15.364  -4.044  1.00 20.00     0.002 C 
HETATM    3  C3  UNL     1     -34.287  14.011  -4.094  1.00 20.00     0.019 C 
HETATM    4  C4  UNL     1     -36.441  15.213  -4.924  1.00 20.00     0.020 C 
HETATM    5  C5  UNL     1     -34.116  16.267  -2.931  1.00 20.00     0.008 C 
HETATM    6  C6  UNL     1     -36.596  15.871  -3.551  1.00 20.00     0.010 C 
HETATM    7  C7  UNL     1     -35.552  13.964  -4.960  1.00 20.00     0.093 C 
HETATM    8  C8  UNL     1     -35.508  16.902  -3.154  1.00 20.00    -0.048 C 
HETATM    9  C9  UNL     1     -35.406  18.041  -4.190  1.00 20.00     0.015 C 
HETATM   10  C10 UNL     1     -35.945  17.545  -1.816  1.00 20.00     0.015 C 
HETATM   11  N11 UNL     1     -34.917  13.421  -7.463  1.00 20.00    -0.197 NA
ENDROOT
TORSDOF 0
ENDMDL
MODEL 7
REMARK VINA RESULT:      -4.1     11.095     12.211
REMARK  0 active torsions:
REMARK  status: ('A' for Active; 'I' for Inactive)
ROOT
HETATM    1  C1  UNL     1     -36.676  14.481  -5.966  1.00 20.00     0.064 C 
HETATM    2  C2  UNL     1     -33.717  15.096  -4.638  1.00 20.00     0.002 C 
HETATM    3  C3  UNL     1     -34.815  14.061  -4.398  1.00 20.00     0.019 C 
HETATM    4  C4  UNL     1     -36.512  16.002  -4.046  1.00 20.00     0.020 C 
HETATM    5  C5  UNL     1     -33.348  15.867  -3.368  1.00 20.00     0.008 C 
HETATM    6  C6  UNL     1     -35.805  16.376  -2.741  1.00 20.00     0.010 C 
HETATM    7  C7  UNL     1     -36.250  14.579  -4.553  1.00 20.00     0.093 C 
HETATM    8  C8  UNL     1     -34.361  16.924  -2.872  1.00 20.00    -0.048 C 
HETATM    9  C9  UNL     1     -34.311  18.169  -3.783  1.00 20.00     0.015 C 
HETATM   10  C10 UNL     1     -33.907  17.375  -1.463  1.00 20.00     0.015 C 
HETATM   11  N11 UNL     1     -37.009  14.403  -7.075  1.00 20.00    -0.197 NA
ENDROOT
TORSDOF 0
ENDMDL
MODEL 8
REMARK VINA RESULT:      -4.1     11.443     12.615
REMARK  0 active torsions:
REMARK  status: ('A' for Active; 'I' for Inactive)
ROOT
HETATM    1  C1  UNL     1     -33.594  18.017  -4.423  1.00 20.00     0.064 C 
HETATM    2  C2  UNL     1     -35.118  15.121  -3.986  1.00 20.00     0.002 C 
HETATM    3  C3  UNL     1     -33.669  15.601  -3.918  1.00 20.00     0.019 C 
HETATM    4  C4  UNL     1     -33.900  16.517  -6.342  1.00 20.00     0.020 C 
HETATM    5  C5  UNL     1     -35.305  13.951  -4.954  1.00 20.00     0.008 C 
HETATM    6  C6  UNL     1     -33.987  15.083  -6.870  1.00 20.00     0.010 C 
HETATM    7  C7  UNL     1     -33.282  16.669  -4.947  1.00 20.00     0.093 C 
HETATM    8  C8  UNL     1     -35.246  14.275  -6.465  1.00 20.00    -0.048 C 
HETATM    9  C9  UNL     1     -36.541  14.993  -6.899  1.00 20.00     0.015 C 
HETATM   10  C10 UNL     1     -35.198  12.928  -7.226  1.00 20.00     0.015 C 
HETATM   11  N11 UNL     1     -33.838  19.073  -4.010  1.00 20.00    -0.197 NA
ENDROOT
TORSDOF 0
ENDMDL
MODEL 9
REMARK VINA RESULT:      -4.0     10.663     12.172
REMARK  0 active torsions:
REMARK  status: ('A' for Active; 'I' for Inactive)
ROOT
HETATM    1  C1  UNL     1     -33.648  16.999  -2.614  1.00 20.00     0.064 C 
HETATM    2  C2  UNL     1     -34.456  14.131  -4.034  1.00 20.00     0.002 C 
HETATM    3  C3  UNL     1     -33.385  15.194  -4.277  1.00 20.00     0.019 C 
HETATM    4  C4  UNL     1     -35.263  16.986  -4.462  1.00 20.00     0.020 C 
HETATM    5  C5  UNL     1     -35.302  13.852  -5.279  1.00 20.00     0.008 C 
HETATM    6  C6  UNL     1     -35.730  16.354  -5.776  1.00 20.00     0.010 C 
HETATM    7  C7  UNL     1     -33.831  16.641  -4.037  1.00 20.00     0.093 C 
HETATM    8  C8  UNL     1     -36.335  14.930  -5.680  1.00 20.00    -0.048 C 
HETATM    9  C9  UNL     1     -37.536  14.893  -4.712  1.00 20.00     0.015 C 
HETATM   10  C10 UNL     1     -36.872  14.559  -7.083  1.00 20.00     0.015 C 
HETATM   11  N11 UNL     1     -33.503  17.279  -1.497  1.00 20.00    -0.197 NA
ENDROOT
TORSDOF 0
ENDMDL
