MODEL 1
REMARK VINA RESULT:      -4.8      0.000      0.000
REMARK  1 active torsions:
REMARK  status: ('A' for Active; 'I' for Inactive)
REMARK    1  A    between atoms: C3_3  and  C8_8 
ROOT
HETATM    1  C1  UNL     1     -35.437  16.685  -1.737  1.00 20.00     0.022 A 
HETATM    2  C2  UNL     1     -33.488  17.033  -2.954  1.00 20.00     0.057 A 
HETATM    3  C3  UNL     1     -34.739  16.455  -2.957  1.00 20.00    -0.046 A 
HETATM    4  C4  UNL     1     -34.694  17.429  -0.848  1.00 20.00    -0.021 A 
HETATM    5  C10 UNL     1     -35.062  17.874   0.514  1.00 20.00     0.056 C 
HETATM    6  S11 UNL     1     -33.161  17.848  -1.484  1.00 20.00    -0.106 SA
ENDROOT
BRANCH   3   7
HETATM    7  C8  UNL     1     -35.306  15.668  -4.121  1.00 20.00     0.020 C 
HETATM    8  C5  UNL     1     -34.750  14.240  -4.241  1.00 20.00     0.010 C 
HETATM    9  C6  UNL     1     -35.768  13.450  -5.069  1.00 20.00     0.016 C 
HETATM   10  C9  UNL     1     -37.022  14.312  -5.142  1.00 20.00     0.058 C 
HETATM   11  C7  UNL     1     -36.822  15.416  -4.116  1.00 20.00     0.025 C 
HETATM   12 BR12 UNL     1     -37.211  15.081  -6.931  1.00 20.00    -0.091 Br
ENDBRANCH   3   7
TORSDOF 1
ENDMDL
MODEL 2
REMARK VINA RESULT:      -4.8      1.838      2.429
REMARK  1 active torsions:
REMARK  status: ('A' for Active; 'I' for Inactive)
REMARK    1  A    between atoms: C3_3  and  C8_8 
ROOT
HETATM    1  C1  UNL     1     -33.277  17.479  -1.910  1.00 20.00     0.022 A 
HETATM    2  C2  UNL     1     -35.499  16.885  -1.575  1.00 20.00     0.057 A 
HETATM    3  C3  UNL     1     -34.428  16.829  -2.441  1.00 20.00    -0.046 A 
HETATM    4  C4  UNL     1     -33.511  18.007  -0.660  1.00 20.00    -0.021 A 
HETATM    5  C10 UNL     1     -32.579  18.752   0.215  1.00 20.00     0.056 C 
HETATM    6  S11 UNL     1     -35.114  17.719  -0.130  1.00 20.00    -0.106 SA
ENDROOT
BRANCH   3   7
HETATM    7  C8  UNL     1     -34.468  16.154  -3.797  1.00 20.00     0.020 C 
HETATM    8  C5  UNL     1     -33.517  16.775  -4.833  1.00 20.00     0.010 C 
HETATM    9  C6  UNL     1     -33.285  15.702  -5.901  1.00 20.00     0.016 C 
HETATM   10  C9  UNL     1     -33.825  14.399  -5.325  1.00 20.00     0.058 C 
HETATM   11  C7  UNL     1     -34.065  14.672  -3.848  1.00 20.00     0.025 C 
HETATM   12 BR12 UNL     1     -35.505  13.916  -6.203  1.00 20.00    -0.091 Br
ENDBRANCH   3   7
TORSDOF 1
ENDMDL
MODEL 3
REMARK VINA RESULT:      -4.8      1.587      1.980
REMARK  1 active torsions:
REMARK  status: ('A' for Active; 'I' for Inactive)
REMARK    1  A    between atoms: C3_3  and  C8_8 
ROOT
HETATM    1  C1  UNL     1     -35.377  16.792  -1.515  1.00 20.00     0.022 A 
HETATM    2  C2  UNL     1     -33.290  17.637  -2.090  1.00 20.00     0.057 A 
HETATM    3  C3  UNL     1     -34.360  16.876  -2.509  1.00 20.00    -0.046 A 
HETATM    4  C4  UNL     1     -35.046  17.491  -0.375  1.00 20.00    -0.021 A 
HETATM    5  C10 UNL     1     -35.830  17.646   0.870  1.00 20.00     0.056 C 
HETATM    6  S11 UNL     1     -33.515  18.245  -0.505  1.00 20.00    -0.106 SA
ENDROOT
BRANCH   3   7
HETATM    7  C8  UNL     1     -34.446  16.208  -3.865  1.00 20.00     0.020 C 
HETATM    8  C5  UNL     1     -33.459  16.767  -4.903  1.00 20.00     0.010 C 
HETATM    9  C6  UNL     1     -33.298  15.683  -5.973  1.00 20.00     0.016 C 
HETATM   10  C9  UNL     1     -33.920  14.416  -5.397  1.00 20.00     0.058 C 
HETATM   11  C7  UNL     1     -34.140  14.702  -3.919  1.00 20.00     0.025 C 
HETATM   12 BR12 UNL     1     -35.629  14.044  -6.272  1.00 20.00    -0.091 Br
ENDBRANCH   3   7
TORSDOF 1
ENDMDL
MODEL 4
REMARK VINA RESULT:      -4.7      2.980      4.406
REMARK  1 active torsions:
REMARK  status: ('A' for Active; 'I' for Inactive)
REMARK    1  A    between atoms: C3_3  and  C8_8 
ROOT
HETATM    1  C1  UNL     1     -33.619  18.512   1.814  1.00 20.00     0.022 A 
HETATM    2  C2  UNL     1     -31.789  18.797   0.408  1.00 20.00     0.057 A 
HETATM    3  C3  UNL     1     -33.131  18.491   0.475  1.00 20.00    -0.046 A 
HETATM    4  C4  UNL     1     -32.631  18.833   2.719  1.00 20.00    -0.021 A 
HETATM    5  C10 UNL     1     -32.734  18.956   4.189  1.00 20.00     0.056 C 
HETATM    6  S11 UNL     1     -31.123  19.107   1.955  1.00 20.00    -0.106 SA
ENDROOT
BRANCH   3   7
HETATM    7  C8  UNL     1     -33.989  18.170  -0.732  1.00 20.00     0.020 C 
HETATM    8  C5  UNL     1     -33.253  17.391  -1.834  1.00 20.00     0.010 C 
HETATM    9  C6  UNL     1     -34.336  16.707  -2.674  1.00 20.00     0.016 C 
HETATM   10  C9  UNL     1     -35.632  16.827  -1.883  1.00 20.00     0.058 C 
HETATM   11  C7  UNL     1     -35.223  17.286  -0.492  1.00 20.00     0.025 C 
HETATM   12 BR12 UNL     1     -36.810  18.152  -2.710  1.00 20.00    -0.091 Br
ENDBRANCH   3   7
TORSDOF 1
ENDMDL
MODEL 5
REMARK VINA RESULT:      -4.6      3.446      5.642
REMARK  1 active torsions:
REMARK  status: ('A' for Active; 'I' for Inactive)
REMARK    1  A    between atoms: C3_3  and  C8_8 
ROOT
HETATM    1  C1  UNL     1     -33.993  15.771  -3.399  1.00 20.00     0.022 A 
HETATM    2  C2  UNL     1     -36.143  16.506  -2.908  1.00 20.00     0.057 A 
HETATM    3  C3  UNL     1     -34.823  16.515  -2.512  1.00 20.00    -0.046 A 
HETATM    4  C4  UNL     1     -34.710  15.220  -4.438  1.00 20.00    -0.021 A 
HETATM    5  C10 UNL     1     -34.218  14.386  -5.556  1.00 20.00     0.056 C 
HETATM    6  S11 UNL     1     -36.377  15.601  -4.343  1.00 20.00    -0.106 SA
ENDROOT
BRANCH   3   7
HETATM    7  C8  UNL     1     -34.313  17.234  -1.280  1.00 20.00     0.020 C 
HETATM    8  C5  UNL     1     -32.906  17.831  -1.441  1.00 20.00     0.010 C 
HETATM    9  C6  UNL     1     -32.778  18.926  -0.377  1.00 20.00     0.016 C 
HETATM   10  C9  UNL     1     -34.184  19.168   0.160  1.00 20.00     0.058 C 
HETATM   11  C7  UNL     1     -35.120  18.452  -0.802  1.00 20.00     0.025 C 
HETATM   12 BR12 UNL     1     -34.360  18.415   1.957  1.00 20.00    -0.091 Br
ENDBRANCH   3   7
TORSDOF 1
ENDMDL
MODEL 6
REMARK VINA RESULT:      -4.6      3.075      5.179
REMARK  1 active torsions:
REMARK  status: ('A' for Active; 'I' for Inactive)
REMARK    1  A    between atoms: C3_3  and  C8_8 
ROOT
HETATM    1  C1  UNL     1     -35.919  15.392  -3.915  1.00 20.00     0.022 A 
HETATM    2  C2  UNL     1     -33.598  15.452  -4.013  1.00 20.00     0.057 A 
HETATM    3  C3  UNL     1     -34.712  15.825  -3.294  1.00 20.00    -0.046 A 
HETATM    4  C4  UNL     1     -35.682  14.705  -5.084  1.00 20.00    -0.021 A 
HETATM    5  C10 UNL     1     -36.662  14.100  -6.013  1.00 20.00     0.056 C 
HETATM    6  S11 UNL     1     -34.009  14.583  -5.431  1.00 20.00    -0.106 SA
ENDROOT
BRANCH   3   7
HETATM    7  C8  UNL     1     -34.661  16.604  -1.996  1.00 20.00     0.020 C 
HETATM    8  C5  UNL     1     -33.362  17.400  -1.793  1.00 20.00     0.010 C 
HETATM    9  C6  UNL     1     -33.683  18.497  -0.773  1.00 20.00     0.016 C 
HETATM   10  C9  UNL     1     -35.201  18.529  -0.642  1.00 20.00     0.058 C 
HETATM   11  C7  UNL     1     -35.730  17.690  -1.794  1.00 20.00     0.025 C 
HETATM   12 BR12 UNL     1     -35.749  17.750   1.067  1.00 20.00    -0.091 Br
ENDBRANCH   3   7
TORSDOF 1
ENDMDL
MODEL 7
REMARK VINA RESULT:      -4.6      3.177      5.335
REMARK  1 active torsions:
REMARK  status: ('A' for Active; 'I' for Inactive)
REMARK    1  A    between atoms: C3_3  and  C8_8 
ROOT
HETATM    1  C1  UNL     1     -34.571  14.898  -4.815  1.00 20.00     0.022 A 
HETATM    2  C2  UNL     1     -36.816  15.230  -4.314  1.00 20.00     0.057 A 
HETATM    3  C3  UNL     1     -35.518  15.457  -3.910  1.00 20.00    -0.046 A 
HETATM    4  C4  UNL     1     -35.180  14.265  -5.876  1.00 20.00    -0.021 A 
HETATM    5  C10 UNL     1     -34.549  13.567  -7.017  1.00 20.00     0.056 C 
HETATM    6  S11 UNL     1     -36.887  14.346  -5.779  1.00 20.00    -0.106 SA
ENDROOT
BRANCH   3   7
HETATM    7  C8  UNL     1     -35.142  16.212  -2.651  1.00 20.00     0.020 C 
HETATM    8  C5  UNL     1     -33.669  16.650  -2.601  1.00 20.00     0.010 C 
HETATM    9  C6  UNL     1     -33.597  17.804  -1.596  1.00 20.00     0.016 C 
HETATM   10  C9  UNL     1     -35.036  18.227  -1.325  1.00 20.00     0.058 C 
HETATM   11  C7  UNL     1     -35.874  17.538  -2.392  1.00 20.00     0.025 C 
HETATM   12 BR12 UNL     1     -35.592  17.635   0.454  1.00 20.00    -0.091 Br
ENDBRANCH   3   7
TORSDOF 1
ENDMDL
MODEL 8
REMARK VINA RESULT:      -4.5      2.029      2.928
REMARK  1 active torsions:
REMARK  status: ('A' for Active; 'I' for Inactive)
REMARK    1  A    between atoms: C3_3  and  C8_8 
ROOT
HETATM    1  C1  UNL     1     -34.614  17.871   0.121  1.00 20.00     0.022 A 
HETATM    2  C2  UNL     1     -32.553  18.278  -0.874  1.00 20.00     0.057 A 
HETATM    3  C3  UNL     1     -33.759  17.621  -0.991  1.00 20.00    -0.046 A 
HETATM    4  C4  UNL     1     -34.030  18.709   1.045  1.00 20.00    -0.021 A 
HETATM    5  C10 UNL     1     -34.588  19.203   2.322  1.00 20.00     0.056 C 
HETATM    6  S11 UNL     1     -32.457  19.191   0.571  1.00 20.00    -0.106 SA
ENDROOT
BRANCH   3   7
HETATM    7  C8  UNL     1     -34.132  16.736  -2.163  1.00 20.00     0.020 C 
HETATM    8  C5  UNL     1     -35.647  16.596  -2.383  1.00 20.00     0.010 C 
HETATM    9  C6  UNL     1     -35.832  16.159  -3.840  1.00 20.00     0.016 C 
HETATM   10  C9  UNL     1     -34.484  16.359  -4.522  1.00 20.00     0.058 C 
HETATM   11  C7  UNL     1     -33.652  17.185  -3.553  1.00 20.00     0.025 C 
HETATM   12 BR12 UNL     1     -33.625  14.631  -4.843  1.00 20.00    -0.091 Br
ENDBRANCH   3   7
TORSDOF 1
ENDMDL
MODEL 9
REMARK VINA RESULT:      -4.4      3.271      5.478
REMARK  1 active torsions:
REMARK  status: ('A' for Active; 'I' for Inactive)
REMARK    1  A    between atoms: C3_3  and  C8_8 
ROOT
HETATM    1  C1  UNL     1     -34.234  15.496  -5.755  1.00 20.00     0.022 A 
HETATM    2  C2  UNL     1     -36.100  14.747  -4.589  1.00 20.00     0.057 A 
HETATM    3  C3  UNL     1     -35.046  15.635  -4.593  1.00 20.00    -0.046 A 
HETATM    4  C4  UNL     1     -34.698  14.508  -6.595  1.00 20.00    -0.021 A 
HETATM    5  C10 UNL     1     -34.138  14.062  -7.890  1.00 20.00     0.056 C 
HETATM    6  S11 UNL     1     -36.106  13.752  -5.983  1.00 20.00    -0.106 SA
ENDROOT
BRANCH   3   7
HETATM    7  C8  UNL     1     -34.781  16.641  -3.492  1.00 20.00     0.020 C 
HETATM    8  C5  UNL     1     -35.762  16.550  -2.312  1.00 20.00     0.010 C 
HETATM    9  C6  UNL     1     -35.063  17.210  -1.119  1.00 20.00     0.016 C 
HETATM   10  C9  UNL     1     -33.602  17.381  -1.519  1.00 20.00     0.058 C 
HETATM   11  C7  UNL     1     -33.422  16.550  -2.780  1.00 20.00     0.025 C 
HETATM   12 BR12 UNL     1     -33.219  19.263  -1.892  1.00 20.00    -0.091 Br
ENDBRANCH   3   7
TORSDOF 1
ENDMDL
