MODEL 1
REMARK VINA RESULT:      -4.9      0.000      0.000
REMARK  1 active torsions:
REMARK  status: ('A' for Active; 'I' for Inactive)
REMARK    1  A    between atoms: C3_3  and  C8_8 
ROOT
HETATM    1  C1  UNL     1     -33.292   7.622   1.519  1.00 20.00     0.022 A 
HETATM    2  C2  UNL     1     -31.709   8.285   3.086  1.00 20.00     0.057 A 
HETATM    3  C3  UNL     1     -32.665   7.344   2.768  1.00 20.00    -0.045 A 
HETATM    4  C4  UNL     1     -32.792   8.762   0.931  1.00 20.00    -0.021 A 
HETATM    5  C10 UNL     1     -33.178   9.379  -0.357  1.00 20.00     0.056 C 
HETATM    6  S11 UNL     1     -31.571   9.494   1.883  1.00 20.00    -0.106 SA
ENDROOT
BRANCH   3   7
HETATM    7  C8  UNL     1     -33.009   6.159   3.640  1.00 20.00     0.033 C 
HETATM    8  C6  UNL     1     -33.417   4.915   2.842  1.00 20.00     0.010 C 
HETATM    9  C5  UNL     1     -34.173   4.035   3.838  1.00 20.00     0.002 C 
HETATM   10  C7  UNL     1     -34.558   4.937   5.011  1.00 20.00     0.016 C 
HETATM   11  C9  UNL     1     -34.211   6.351   4.566  1.00 20.00     0.066 C 
HETATM   12 BR12 UNL     1     -33.770   7.468   6.091  1.00 20.00    -0.090 Br
ENDBRANCH   3   7
TORSDOF 1
ENDMDL
MODEL 2
REMARK VINA RESULT:      -4.7     10.663     11.515
REMARK  1 active torsions:
REMARK  status: ('A' for Active; 'I' for Inactive)
REMARK    1  A    between atoms: C3_3  and  C8_8 
ROOT
HETATM    1  C1  UNL     1     -33.523  17.135  -2.425  1.00 20.00     0.022 A 
HETATM    2  C2  UNL     1     -35.665  16.883  -1.561  1.00 20.00     0.057 A 
HETATM    3  C3  UNL     1     -34.832  16.612  -2.625  1.00 20.00    -0.045 A 
HETATM    4  C4  UNL     1     -33.404  17.785  -1.217  1.00 20.00    -0.021 A 
HETATM    5  C10 UNL     1     -32.216  18.456  -0.646  1.00 20.00     0.056 C 
HETATM    6  S11 UNL     1     -34.868  17.764  -0.329  1.00 20.00    -0.106 SA
ENDROOT
BRANCH   3   7
HETATM    7  C8  UNL     1     -35.258  15.850  -3.859  1.00 20.00     0.033 C 
HETATM    8  C6  UNL     1     -36.773  15.638  -3.951  1.00 20.00     0.010 C 
HETATM    9  C5  UNL     1     -36.952  14.482  -4.936  1.00 20.00     0.002 C 
HETATM   10  C7  UNL     1     -35.594  13.788  -5.046  1.00 20.00     0.016 C 
HETATM   11  C9  UNL     1     -34.728  14.420  -3.964  1.00 20.00     0.066 C 
HETATM   12 BR12 UNL     1     -32.854  14.383  -4.469  1.00 20.00    -0.090 Br
ENDBRANCH   3   7
TORSDOF 1
ENDMDL
MODEL 3
REMARK VINA RESULT:      -4.6     10.712     11.523
REMARK  1 active torsions:
REMARK  status: ('A' for Active; 'I' for Inactive)
REMARK    1  A    between atoms: C3_3  and  C8_8 
ROOT
HETATM    1  C1  UNL     1     -35.379  16.819  -1.442  1.00 20.00     0.022 A 
HETATM    2  C2  UNL     1     -33.485  17.410  -2.652  1.00 20.00     0.057 A 
HETATM    3  C3  UNL     1     -34.674  16.715  -2.676  1.00 20.00    -0.045 A 
HETATM    4  C4  UNL     1     -34.703  17.591  -0.524  1.00 20.00    -0.021 A 
HETATM    5  C10 UNL     1     -35.100  17.935   0.859  1.00 20.00     0.056 C 
HETATM    6  S11 UNL     1     -33.223  18.185  -1.148  1.00 20.00    -0.106 SA
ENDROOT
BRANCH   3   7
HETATM    7  C8  UNL     1     -35.173  15.931  -3.869  1.00 20.00     0.033 C 
HETATM    8  C6  UNL     1     -36.696  15.756  -3.888  1.00 20.00     0.010 C 
HETATM    9  C5  UNL     1     -36.947  14.579  -4.831  1.00 20.00     0.002 C 
HETATM   10  C7  UNL     1     -35.612  13.848  -4.981  1.00 20.00     0.016 C 
HETATM   11  C9  UNL     1     -34.684  14.485  -3.956  1.00 20.00     0.066 C 
HETATM   12 BR12 UNL     1     -32.836  14.386  -4.541  1.00 20.00    -0.090 Br
ENDBRANCH   3   7
TORSDOF 1
ENDMDL
MODEL 4
REMARK VINA RESULT:      -4.6     11.138     12.226
REMARK  1 active torsions:
REMARK  status: ('A' for Active; 'I' for Inactive)
REMARK    1  A    between atoms: C3_3  and  C8_8 
ROOT
HETATM    1  C1  UNL     1     -33.308  17.550  -1.880  1.00 20.00     0.022 A 
HETATM    2  C2  UNL     1     -35.524  16.923  -1.569  1.00 20.00     0.057 A 
HETATM    3  C3  UNL     1     -34.454  16.912  -2.437  1.00 20.00    -0.045 A 
HETATM    4  C4  UNL     1     -33.546  18.022  -0.608  1.00 20.00    -0.021 A 
HETATM    5  C10 UNL     1     -32.620  18.736   0.296  1.00 20.00     0.056 C 
HETATM    6  S11 UNL     1     -35.146  17.698  -0.091  1.00 20.00    -0.106 SA
ENDROOT
BRANCH   3   7
HETATM    7  C8  UNL     1     -34.490  16.298  -3.818  1.00 20.00     0.033 C 
HETATM    8  C6  UNL     1     -34.190  14.794  -3.823  1.00 20.00     0.010 C 
HETATM    9  C5  UNL     1     -33.792  14.475  -5.264  1.00 20.00     0.002 C 
HETATM   10  C7  UNL     1     -33.452  15.809  -5.929  1.00 20.00     0.016 C 
HETATM   11  C9  UNL     1     -33.450  16.834  -4.803  1.00 20.00     0.066 C 
HETATM   12 BR12 UNL     1     -33.930  18.593  -5.467  1.00 20.00    -0.090 Br
ENDBRANCH   3   7
TORSDOF 1
ENDMDL
MODEL 5
REMARK VINA RESULT:      -4.5     11.168     12.177
REMARK  1 active torsions:
REMARK  status: ('A' for Active; 'I' for Inactive)
REMARK    1  A    between atoms: C3_3  and  C8_8 
ROOT
HETATM    1  C1  UNL     1     -35.400  16.839  -1.509  1.00 20.00     0.022 A 
HETATM    2  C2  UNL     1     -33.289  17.655  -2.036  1.00 20.00     0.057 A 
HETATM    3  C3  UNL     1     -34.369  16.929  -2.488  1.00 20.00    -0.045 A 
HETATM    4  C4  UNL     1     -35.070  17.501  -0.348  1.00 20.00    -0.021 A 
HETATM    5  C10 UNL     1     -35.866  17.638   0.891  1.00 20.00     0.056 C 
HETATM    6  S11 UNL     1     -33.521  18.225  -0.439  1.00 20.00    -0.106 SA
ENDROOT
BRANCH   3   7
HETATM    7  C8  UNL     1     -34.451  16.300  -3.860  1.00 20.00     0.033 C 
HETATM    8  C6  UNL     1     -34.141  14.798  -3.860  1.00 20.00     0.010 C 
HETATM    9  C5  UNL     1     -33.794  14.466  -5.312  1.00 20.00     0.002 C 
HETATM   10  C7  UNL     1     -33.488  15.795  -6.003  1.00 20.00     0.016 C 
HETATM   11  C9  UNL     1     -33.452  16.832  -4.888  1.00 20.00     0.066 C 
HETATM   12 BR12 UNL     1     -33.968  18.581  -5.553  1.00 20.00    -0.090 Br
ENDBRANCH   3   7
TORSDOF 1
ENDMDL
MODEL 6
REMARK VINA RESULT:      -4.5     11.382     11.869
REMARK  1 active torsions:
REMARK  status: ('A' for Active; 'I' for Inactive)
REMARK    1  A    between atoms: C3_3  and  C8_8 
ROOT
HETATM    1  C1  UNL     1     -33.894  15.944  -3.476  1.00 20.00     0.022 A 
HETATM    2  C2  UNL     1     -33.865  18.267  -3.472  1.00 20.00     0.057 A 
HETATM    3  C3  UNL     1     -33.999  17.134  -2.700  1.00 20.00    -0.045 A 
HETATM    4  C4  UNL     1     -33.681  16.212  -4.809  1.00 20.00    -0.021 A 
HETATM    5  C10 UNL     1     -33.519  15.256  -5.926  1.00 20.00     0.056 C 
HETATM    6  S11 UNL     1     -33.612  17.894  -5.123  1.00 20.00    -0.106 SA
ENDROOT
BRANCH   3   7
HETATM    7  C8  UNL     1     -34.233  17.150  -1.207  1.00 20.00     0.033 C 
HETATM    8  C6  UNL     1     -35.716  17.098  -0.823  1.00 20.00     0.010 C 
HETATM    9  C5  UNL     1     -35.771  17.607   0.618  1.00 20.00     0.002 C 
HETATM   10  C7  UNL     1     -34.448  18.330   0.875  1.00 20.00     0.016 C 
HETATM   11  C9  UNL     1     -33.760  18.410  -0.481  1.00 20.00     0.066 C 
HETATM   12 BR12 UNL     1     -31.830  18.439  -0.277  1.00 20.00    -0.090 Br
ENDBRANCH   3   7
TORSDOF 1
ENDMDL
MODEL 7
REMARK VINA RESULT:      -4.5     10.922     11.972
REMARK  1 active torsions:
REMARK  status: ('A' for Active; 'I' for Inactive)
REMARK    1  A    between atoms: C3_3  and  C8_8 
ROOT
HETATM    1  C1  UNL     1     -34.145  16.229  -2.598  1.00 20.00     0.022 A 
HETATM    2  C2  UNL     1     -33.445  18.097  -3.790  1.00 20.00     0.057 A 
HETATM    3  C3  UNL     1     -33.750  17.596  -2.543  1.00 20.00    -0.045 A 
HETATM    4  C4  UNL     1     -34.127  15.736  -3.884  1.00 20.00    -0.021 A 
HETATM    5  C10 UNL     1     -34.468  14.376  -4.353  1.00 20.00     0.056 C 
HETATM    6  S11 UNL     1     -33.635  16.920  -5.019  1.00 20.00    -0.106 SA
ENDROOT
BRANCH   3   7
HETATM    7  C8  UNL     1     -33.676  18.402  -1.266  1.00 20.00     0.033 C 
HETATM    8  C6  UNL     1     -32.268  18.455  -0.661  1.00 20.00     0.010 C 
HETATM    9  C5  UNL     1     -32.478  18.857   0.798  1.00 20.00     0.002 C 
HETATM   10  C7  UNL     1     -33.954  18.604   1.112  1.00 20.00     0.016 C 
HETATM   11  C9  UNL     1     -34.504  17.863  -0.099  1.00 20.00     0.066 C 
HETATM   12 BR12 UNL     1     -36.396  18.227  -0.333  1.00 20.00    -0.090 Br
ENDBRANCH   3   7
TORSDOF 1
ENDMDL
MODEL 8
REMARK VINA RESULT:      -4.4     11.117     11.881
REMARK  1 active torsions:
REMARK  status: ('A' for Active; 'I' for Inactive)
REMARK    1  A    between atoms: C3_3  and  C8_8 
ROOT
HETATM    1  C1  UNL     1     -35.183  16.942  -1.127  1.00 20.00     0.022 A 
HETATM    2  C2  UNL     1     -33.321  17.317  -2.465  1.00 20.00     0.057 A 
HETATM    3  C3  UNL     1     -34.521  16.649  -2.354  1.00 20.00    -0.045 A 
HETATM    4  C4  UNL     1     -34.466  17.823  -0.349  1.00 20.00    -0.021 A 
HETATM    5  C10 UNL     1     -34.812  18.369   0.981  1.00 20.00     0.056 C 
HETATM    6  S11 UNL     1     -32.998  18.292  -1.097  1.00 20.00    -0.106 SA
ENDROOT
BRANCH   3   7
HETATM    7  C8  UNL     1     -35.070  15.713  -3.406  1.00 20.00     0.033 C 
HETATM    8  C6  UNL     1     -33.996  14.837  -4.062  1.00 20.00     0.010 C 
HETATM    9  C5  UNL     1     -34.622  14.356  -5.371  1.00 20.00     0.002 C 
HETATM   10  C7  UNL     1     -35.812  15.276  -5.650  1.00 20.00     0.016 C 
HETATM   11  C9  UNL     1     -35.711  16.391  -4.618  1.00 20.00     0.066 C 
HETATM   12 BR12 UNL     1     -37.467  17.104  -4.197  1.00 20.00    -0.090 Br
ENDBRANCH   3   7
TORSDOF 1
ENDMDL
MODEL 9
REMARK VINA RESULT:      -4.4     10.847     11.845
REMARK  1 active torsions:
REMARK  status: ('A' for Active; 'I' for Inactive)
REMARK    1  A    between atoms: C3_3  and  C8_8 
ROOT
HETATM    1  C1  UNL     1     -34.325  16.061  -2.857  1.00 20.00     0.022 A 
HETATM    2  C2  UNL     1     -36.247  17.367  -2.822  1.00 20.00     0.057 A 
HETATM    3  C3  UNL     1     -34.972  17.212  -2.322  1.00 20.00    -0.045 A 
HETATM    4  C4  UNL     1     -35.128  15.381  -3.744  1.00 20.00    -0.021 A 
HETATM    5  C10 UNL     1     -34.823  14.149  -4.504  1.00 20.00     0.056 C 
HETATM    6  S11 UNL     1     -36.657  16.129  -3.930  1.00 20.00    -0.106 SA
ENDROOT
BRANCH   3   7
HETATM    7  C8  UNL     1     -34.335  18.151  -1.324  1.00 20.00     0.033 C 
HETATM    8  C6  UNL     1     -32.806  18.206  -1.430  1.00 20.00     0.010 C 
HETATM    9  C5  UNL     1     -32.336  18.778  -0.092  1.00 20.00     0.002 C 
HETATM   10  C7  UNL     1     -33.507  18.630   0.881  1.00 20.00     0.016 C 
HETATM   11  C9  UNL     1     -34.539  17.784   0.147  1.00 20.00     0.066 C 
HETATM   12 BR12 UNL     1     -36.335  18.207   0.749  1.00 20.00    -0.090 Br
ENDBRANCH   3   7
TORSDOF 1
ENDMDL
