MODEL 1
REMARK VINA RESULT:      -5.3      0.000      0.000
REMARK  1 active torsions:
REMARK  status: ('A' for Active; 'I' for Inactive)
REMARK    1  A    between atoms: C8_8  and  C11_11 
ROOT
HETATM    1  C1  UNL     1     -32.192  18.571  -0.378  1.00 20.00     0.064 C 
HETATM    2  C2  UNL     1     -35.698  17.323  -1.106  1.00 20.00     0.002 C 
HETATM    3  C3  UNL     1     -34.496  17.677  -0.233  1.00 20.00     0.019 C 
HETATM    4  C4  UNL     1     -33.668  18.996  -2.324  1.00 20.00     0.019 C 
HETATM    5  C5  UNL     1     -35.379  16.490  -2.356  1.00 20.00     0.005 C 
HETATM    6  C6  UNL     1     -33.326  17.798  -3.211  1.00 20.00     0.006 C 
HETATM    7  C7  UNL     1     -33.588  18.782  -0.806  1.00 20.00     0.093 C 
HETATM    8  C8  UNL     1     -33.908  16.439  -2.799  1.00 20.00    -0.011 C 
HETATM    9  N12 UNL     1     -31.094  18.406  -0.042  1.00 20.00    -0.197 NA
ENDROOT
BRANCH   8  10
HETATM   10  C11 UNL     1     -33.748  15.445  -3.958  1.00 20.00    -0.019 C 
HETATM   11  C9  UNL     1     -35.069  14.735  -4.234  1.00 20.00     0.010 C 
HETATM   12  C10 UNL     1     -33.248  16.164  -5.206  1.00 20.00     0.010 C 
ENDBRANCH   8  10
TORSDOF 1
ENDMDL
MODEL 2
REMARK VINA RESULT:      -5.1      2.904      5.291
REMARK  1 active torsions:
REMARK  status: ('A' for Active; 'I' for Inactive)
REMARK    1  A    between atoms: C8_8  and  C11_11 
ROOT
HETATM    1  C1  UNL     1     -35.760  13.886  -5.510  1.00 20.00     0.064 C 
HETATM    2  C2  UNL     1     -33.705  17.064  -5.743  1.00 20.00     0.002 C 
HETATM    3  C3  UNL     1     -34.094  15.626  -6.080  1.00 20.00     0.019 C 
HETATM    4  C4  UNL     1     -36.354  16.221  -4.925  1.00 20.00     0.019 C 
HETATM    5  C5  UNL     1     -33.640  17.394  -4.245  1.00 20.00     0.005 C 
HETATM    6  C6  UNL     1     -35.846  16.294  -3.484  1.00 20.00     0.006 C 
HETATM    7  C7  UNL     1     -35.587  15.302  -5.886  1.00 20.00     0.093 C 
HETATM    8  C8  UNL     1     -34.328  16.409  -3.287  1.00 20.00    -0.011 C 
HETATM    9  N12 UNL     1     -35.896  12.772  -5.214  1.00 20.00    -0.197 NA
ENDROOT
BRANCH   8  10
HETATM   10  C11 UNL     1     -34.034  16.803  -1.834  1.00 20.00    -0.019 C 
HETATM   11  C9  UNL     1     -33.111  18.017  -1.790  1.00 20.00     0.010 C 
HETATM   12  C10 UNL     1     -35.333  17.083  -1.087  1.00 20.00     0.010 C 
ENDBRANCH   8  10
TORSDOF 1
ENDMDL
MODEL 3
REMARK VINA RESULT:      -5.1      3.111      5.292
REMARK  1 active torsions:
REMARK  status: ('A' for Active; 'I' for Inactive)
REMARK    1  A    between atoms: C8_8  and  C11_11 
ROOT
HETATM    1  C1  UNL     1     -37.209  14.396  -5.129  1.00 20.00     0.064 C 
HETATM    2  C2  UNL     1     -33.482  14.546  -4.448  1.00 20.00     0.002 C 
HETATM    3  C3  UNL     1     -34.836  13.872  -4.656  1.00 20.00     0.019 C 
HETATM    4  C4  UNL     1     -35.559  16.169  -5.653  1.00 20.00     0.019 C 
HETATM    5  C5  UNL     1     -33.484  15.740  -3.482  1.00 20.00     0.005 C 
HETATM    6  C6  UNL     1     -35.576  16.972  -4.352  1.00 20.00     0.006 C 
HETATM    7  C7  UNL     1     -35.818  14.661  -5.543  1.00 20.00     0.093 C 
HETATM    8  C8  UNL     1     -34.849  16.359  -3.147  1.00 20.00    -0.011 C 
HETATM    9  N12 UNL     1     -38.303  14.187  -4.804  1.00 20.00    -0.197 NA
ENDROOT
BRANCH   8  10
HETATM   10  C11 UNL     1     -34.684  17.427  -2.057  1.00 20.00    -0.019 C 
HETATM   11  C9  UNL     1     -35.499  17.056  -0.823  1.00 20.00     0.010 C 
HETATM   12  C10 UNL     1     -33.211  17.597  -1.703  1.00 20.00     0.010 C 
ENDBRANCH   8  10
TORSDOF 1
ENDMDL
MODEL 4
REMARK VINA RESULT:      -5.0      3.048      5.328
REMARK  1 active torsions:
REMARK  status: ('A' for Active; 'I' for Inactive)
REMARK    1  A    between atoms: C8_8  and  C11_11 
ROOT
HETATM    1  C1  UNL     1     -37.129  14.498  -5.152  1.00 20.00     0.064 C 
HETATM    2  C2  UNL     1     -33.496  15.180  -4.310  1.00 20.00     0.002 C 
HETATM    3  C3  UNL     1     -34.692  14.338  -4.747  1.00 20.00     0.019 C 
HETATM    4  C4  UNL     1     -35.872  16.634  -5.107  1.00 20.00     0.019 C 
HETATM    5  C5  UNL     1     -33.718  16.038  -3.056  1.00 20.00     0.005 C 
HETATM    6  C6  UNL     1     -36.028  17.028  -3.638  1.00 20.00     0.006 C 
HETATM    7  C7  UNL     1     -35.826  15.133  -5.423  1.00 20.00     0.093 C 
HETATM    8  C8  UNL     1     -35.174  16.262  -2.618  1.00 20.00    -0.011 C 
HETATM    9  N12 UNL     1     -38.155  13.999  -4.939  1.00 20.00    -0.197 NA
ENDROOT
BRANCH   8  10
HETATM   10  C11 UNL     1     -35.205  16.999  -1.273  1.00 20.00    -0.019 C 
HETATM   11  C9  UNL     1     -33.894  17.745  -1.046  1.00 20.00     0.010 C 
HETATM   12  C10 UNL     1     -36.390  17.958  -1.222  1.00 20.00     0.010 C 
ENDBRANCH   8  10
TORSDOF 1
ENDMDL
MODEL 5
REMARK VINA RESULT:      -4.5      2.138      4.617
REMARK  1 active torsions:
REMARK  status: ('A' for Active; 'I' for Inactive)
REMARK    1  A    between atoms: C8_8  and  C11_11 
ROOT
HETATM    1  C1  UNL     1     -33.541  14.612  -4.418  1.00 20.00     0.064 C 
HETATM    2  C2  UNL     1     -34.048  18.367  -4.571  1.00 20.00     0.002 C 
HETATM    3  C3  UNL     1     -33.475  17.018  -5.000  1.00 20.00     0.019 C 
HETATM    4  C4  UNL     1     -35.391  16.012  -3.546  1.00 20.00     0.019 C 
HETATM    5  C5  UNL     1     -33.988  18.658  -3.064  1.00 20.00     0.005 C 
HETATM    6  C6  UNL     1     -34.840  16.393  -2.172  1.00 20.00     0.006 C 
HETATM    7  C7  UNL     1     -34.369  15.806  -4.672  1.00 20.00     0.093 C 
HETATM    8  C8  UNL     1     -33.737  17.459  -2.136  1.00 20.00    -0.011 C 
HETATM    9  N12 UNL     1     -32.889  13.673  -4.218  1.00 20.00    -0.197 NA
ENDROOT
BRANCH   8  10
HETATM   10  C11 UNL     1     -33.550  17.948  -0.693  1.00 20.00    -0.019 C 
HETATM   11  C9  UNL     1     -32.150  18.523  -0.505  1.00 20.00     0.010 C 
HETATM   12  C10 UNL     1     -34.612  18.984  -0.344  1.00 20.00     0.010 C 
ENDBRANCH   8  10
TORSDOF 1
ENDMDL
MODEL 6
REMARK VINA RESULT:      -4.5      3.070      5.405
REMARK  1 active torsions:
REMARK  status: ('A' for Active; 'I' for Inactive)
REMARK    1  A    between atoms: C8_8  and  C11_11 
ROOT
HETATM    1  C1  UNL     1     -34.698  14.651  -7.079  1.00 20.00     0.064 C 
HETATM    2  C2  UNL     1     -37.377  15.858  -4.682  1.00 20.00     0.002 C 
HETATM    3  C3  UNL     1     -36.674  15.712  -6.029  1.00 20.00     0.019 C 
HETATM    4  C4  UNL     1     -35.410  13.740  -4.886  1.00 20.00     0.019 C 
HETATM    5  C5  UNL     1     -36.466  16.224  -3.501  1.00 20.00     0.005 C 
HETATM    6  C6  UNL     1     -34.540  14.565  -3.936  1.00 20.00     0.006 C 
HETATM    7  C7  UNL     1     -35.852  14.419  -6.189  1.00 20.00     0.093 C 
HETATM    8  C8  UNL     1     -34.956  16.023  -3.702  1.00 20.00    -0.011 C 
HETATM    9  N12 UNL     1     -33.791  14.833  -7.778  1.00 20.00    -0.197 NA
ENDROOT
BRANCH   8  10
HETATM   10  C11 UNL     1     -34.192  16.582  -2.494  1.00 20.00    -0.019 C 
HETATM   11  C9  UNL     1     -33.411  17.830  -2.891  1.00 20.00     0.010 C 
HETATM   12  C10 UNL     1     -35.155  16.885  -1.352  1.00 20.00     0.010 C 
ENDBRANCH   8  10
TORSDOF 1
ENDMDL
MODEL 7
REMARK VINA RESULT:      -4.5     10.802     11.803
REMARK  1 active torsions:
REMARK  status: ('A' for Active; 'I' for Inactive)
REMARK    1  A    between atoms: C8_8  and  C11_11 
ROOT
HETATM    1  C1  UNL     1     -32.552   9.650   1.597  1.00 20.00     0.064 C 
HETATM    2  C2  UNL     1     -32.913   5.883   1.828  1.00 20.00     0.002 C 
HETATM    3  C3  UNL     1     -33.003   7.255   1.164  1.00 20.00     0.019 C 
HETATM    4  C4  UNL     1     -31.420   8.025   3.087  1.00 20.00     0.019 C 
HETATM    5  C5  UNL     1     -33.481   5.804   3.253  1.00 20.00     0.005 C 
HETATM    6  C6  UNL     1     -32.425   7.942   4.237  1.00 20.00     0.006 C 
HETATM    7  C7  UNL     1     -31.988   8.290   1.686  1.00 20.00     0.093 C 
HETATM    8  C8  UNL     1     -33.707   7.137   3.984  1.00 20.00    -0.011 C 
HETATM    9  N12 UNL     1     -32.995  10.720   1.526  1.00 20.00    -0.197 NA
ENDROOT
BRANCH   8  10
HETATM   10  C11 UNL     1     -34.419   6.883   5.319  1.00 20.00    -0.019 C 
HETATM   11  C9  UNL     1     -34.600   5.387   5.549  1.00 20.00     0.010 C 
HETATM   12  C10 UNL     1     -33.638   7.517   6.465  1.00 20.00     0.010 C 
ENDBRANCH   8  10
TORSDOF 1
ENDMDL
MODEL 8
REMARK VINA RESULT:      -4.3      2.523      4.700
REMARK  1 active torsions:
REMARK  status: ('A' for Active; 'I' for Inactive)
REMARK    1  A    between atoms: C8_8  and  C11_11 
ROOT
HETATM    1  C1  UNL     1     -33.808  16.278  -3.050  1.00 20.00     0.064 C 
HETATM    2  C2  UNL     1     -33.574  15.620  -6.776  1.00 20.00     0.002 C 
HETATM    3  C3  UNL     1     -33.361  16.401  -5.482  1.00 20.00     0.019 C 
HETATM    4  C4  UNL     1     -33.939  14.146  -4.308  1.00 20.00     0.019 C 
HETATM    5  C5  UNL     1     -34.995  15.080  -6.994  1.00 20.00     0.005 C 
HETATM    6  C6  UNL     1     -35.429  14.103  -4.647  1.00 20.00     0.006 C 
HETATM    7  C7  UNL     1     -33.288  15.533  -4.211  1.00 20.00     0.093 C 
HETATM    8  C8  UNL     1     -35.915  15.036  -5.765  1.00 20.00    -0.011 C 
HETATM    9  N12 UNL     1     -34.218  16.864  -2.136  1.00 20.00    -0.197 NA
ENDROOT
BRANCH   8  10
HETATM   10  C11 UNL     1     -37.331  14.625  -6.189  1.00 20.00    -0.019 C 
HETATM   11  C9  UNL     1     -38.270  14.637  -4.988  1.00 20.00     0.010 C 
HETATM   12  C10 UNL     1     -37.844  15.549  -7.288  1.00 20.00     0.010 C 
ENDBRANCH   8  10
TORSDOF 1
ENDMDL
MODEL 9
REMARK VINA RESULT:      -4.3      2.253      3.928
REMARK  1 active torsions:
REMARK  status: ('A' for Active; 'I' for Inactive)
REMARK    1  A    between atoms: C8_8  and  C11_11 
ROOT
HETATM    1  C1  UNL     1     -33.506  17.815  -3.511  1.00 20.00     0.064 C 
HETATM    2  C2  UNL     1     -34.214  14.135  -4.092  1.00 20.00     0.002 C 
HETATM    3  C3  UNL     1     -33.373  15.409  -4.083  1.00 20.00     0.019 C 
HETATM    4  C4  UNL     1     -35.238  16.344  -2.519  1.00 20.00     0.019 C 
HETATM    5  C5  UNL     1     -35.614  14.275  -4.706  1.00 20.00     0.005 C 
HETATM    6  C6  UNL     1     -36.350  16.467  -3.562  1.00 20.00     0.006 C 
HETATM    7  C7  UNL     1     -33.793  16.451  -3.029  1.00 20.00     0.093 C 
HETATM    8  C8  UNL     1     -36.156  15.703  -4.879  1.00 20.00    -0.011 C 
HETATM    9  N12 UNL     1     -33.280  18.888  -3.891  1.00 20.00    -0.197 NA
ENDROOT
BRANCH   8  10
HETATM   10  C11 UNL     1     -37.485  15.666  -5.645  1.00 20.00    -0.019 C 
HETATM   11  C9  UNL     1     -37.275  15.101  -7.046  1.00 20.00     0.010 C 
HETATM   12  C10 UNL     1     -38.515  14.844  -4.878  1.00 20.00     0.010 C 
ENDBRANCH   8  10
TORSDOF 1
ENDMDL
