MODEL 1
REMARK VINA RESULT:      -4.7      0.000      0.000
REMARK  1 active torsions:
REMARK  status: ('A' for Active; 'I' for Inactive)
REMARK    1  A    between atoms: C3_3  and  C8_8 
ROOT
HETATM    1  C1  UNL     1     -35.209  16.916  -1.392  1.00 20.00     0.022 A 
HETATM    2  C2  UNL     1     -33.142  17.889  -1.823  1.00 20.00     0.057 A 
HETATM    3  C3  UNL     1     -34.151  17.100  -2.330  1.00 20.00    -0.046 A 
HETATM    4  C4  UNL     1     -34.967  17.572  -0.205  1.00 20.00    -0.021 A 
HETATM    5  C10 UNL     1     -35.815  17.624   1.006  1.00 20.00     0.056 C 
HETATM    6  S11 UNL     1     -33.471  18.404  -0.223  1.00 20.00    -0.106 SA
ENDROOT
BRANCH   3   7
HETATM    7  C8  UNL     1     -34.140  16.499  -3.718  1.00 20.00     0.020 C 
HETATM    8  C5  UNL     1     -33.499  15.095  -3.799  1.00 20.00     0.010 C 
HETATM    9  C6  UNL     1     -34.610  14.160  -4.266  1.00 20.00     0.016 C 
HETATM   10  C9  UNL     1     -35.488  15.061  -5.113  1.00 20.00     0.058 C 
HETATM   11  C7  UNL     1     -35.555  16.347  -4.306  1.00 20.00     0.025 C 
HETATM   12 BR12 UNL     1     -37.239  14.293  -5.386  1.00 20.00    -0.091 Br
ENDBRANCH   3   7
TORSDOF 1
ENDMDL
MODEL 2
REMARK VINA RESULT:      -4.7      1.880      2.262
REMARK  1 active torsions:
REMARK  status: ('A' for Active; 'I' for Inactive)
REMARK    1  A    between atoms: C3_3  and  C8_8 
ROOT
HETATM    1  C1  UNL     1     -33.280  17.353  -1.846  1.00 20.00     0.022 A 
HETATM    2  C2  UNL     1     -35.401  16.490  -2.250  1.00 20.00     0.057 A 
HETATM    3  C3  UNL     1     -34.083  16.493  -2.652  1.00 20.00    -0.046 A 
HETATM    4  C4  UNL     1     -34.016  17.973  -0.860  1.00 20.00    -0.021 A 
HETATM    5  C10 UNL     1     -33.554  18.930   0.169  1.00 20.00     0.056 C 
HETATM    6  S11 UNL     1     -35.666  17.519  -0.907  1.00 20.00    -0.106 SA
ENDROOT
BRANCH   3   7
HETATM    7  C8  UNL     1     -33.549  15.682  -3.811  1.00 20.00     0.020 C 
HETATM    8  C5  UNL     1     -34.437  14.483  -4.212  1.00 20.00     0.010 C 
HETATM    9  C6  UNL     1     -34.883  14.761  -5.645  1.00 20.00     0.016 C 
HETATM   10  C9  UNL     1     -33.732  15.565  -6.216  1.00 20.00     0.058 C 
HETATM   11  C7  UNL     1     -33.378  16.522  -5.090  1.00 20.00     0.025 C 
HETATM   12 BR12 UNL     1     -34.250  16.507  -7.821  1.00 20.00    -0.091 Br
ENDBRANCH   3   7
TORSDOF 1
ENDMDL
MODEL 3
REMARK VINA RESULT:      -4.6      1.035      1.526
REMARK  1 active torsions:
REMARK  status: ('A' for Active; 'I' for Inactive)
REMARK    1  A    between atoms: C3_3  and  C8_8 
ROOT
HETATM    1  C1  UNL     1     -33.233  17.708  -1.658  1.00 20.00     0.022 A 
HETATM    2  C2  UNL     1     -35.424  16.954  -1.477  1.00 20.00     0.057 A 
HETATM    3  C3  UNL     1     -34.315  17.029  -2.291  1.00 20.00    -0.046 A 
HETATM    4  C4  UNL     1     -33.557  18.124  -0.385  1.00 20.00    -0.021 A 
HETATM    5  C10 UNL     1     -32.716  18.856   0.586  1.00 20.00     0.056 C 
HETATM    6  S11 UNL     1     -35.160  17.698   0.042  1.00 20.00    -0.106 SA
ENDROOT
BRANCH   3   7
HETATM    7  C8  UNL     1     -34.250  16.459  -3.690  1.00 20.00     0.020 C 
HETATM    8  C5  UNL     1     -33.602  15.060  -3.780  1.00 20.00     0.010 C 
HETATM    9  C6  UNL     1     -34.693  14.132  -4.308  1.00 20.00     0.016 C 
HETATM   10  C9  UNL     1     -35.542  15.050  -5.166  1.00 20.00     0.058 C 
HETATM   11  C7  UNL     1     -35.643  16.316  -4.333  1.00 20.00     0.025 C 
HETATM   12 BR12 UNL     1     -37.279  14.284  -5.519  1.00 20.00    -0.091 Br
ENDBRANCH   3   7
TORSDOF 1
ENDMDL
MODEL 4
REMARK VINA RESULT:      -4.5      1.638      1.844
REMARK  1 active torsions:
REMARK  status: ('A' for Active; 'I' for Inactive)
REMARK    1  A    between atoms: C3_3  and  C8_8 
ROOT
HETATM    1  C1  UNL     1     -35.169  16.774  -1.469  1.00 20.00     0.022 A 
HETATM    2  C2  UNL     1     -33.036  17.651  -1.760  1.00 20.00     0.057 A 
HETATM    3  C3  UNL     1     -33.987  16.791  -2.265  1.00 20.00    -0.046 A 
HETATM    4  C4  UNL     1     -35.077  17.622  -0.387  1.00 20.00    -0.021 A 
HETATM    5  C10 UNL     1     -36.082  17.885   0.665  1.00 20.00     0.056 C 
HETATM    6  S11 UNL     1     -33.570  18.433  -0.333  1.00 20.00    -0.106 SA
ENDROOT
BRANCH   3   7
HETATM    7  C8  UNL     1     -33.799  15.961  -3.515  1.00 20.00     0.020 C 
HETATM    8  C5  UNL     1     -35.075  15.234  -3.995  1.00 20.00     0.010 C 
HETATM    9  C6  UNL     1     -35.382  15.805  -5.377  1.00 20.00     0.016 C 
HETATM   10  C9  UNL     1     -34.010  16.169  -5.912  1.00 20.00     0.058 C 
HETATM   11  C7  UNL     1     -33.322  16.801  -4.715  1.00 20.00     0.025 C 
HETATM   12 BR12 UNL     1     -34.132  17.396  -7.399  1.00 20.00    -0.091 Br
ENDBRANCH   3   7
TORSDOF 1
ENDMDL
MODEL 5
REMARK VINA RESULT:      -4.5      3.241      5.154
REMARK  1 active torsions:
REMARK  status: ('A' for Active; 'I' for Inactive)
REMARK    1  A    between atoms: C3_3  and  C8_8 
ROOT
HETATM    1  C1  UNL     1     -35.698  15.552  -3.776  1.00 20.00     0.022 A 
HETATM    2  C2  UNL     1     -33.399  15.877  -3.662  1.00 20.00     0.057 A 
HETATM    3  C3  UNL     1     -34.632  16.355  -3.276  1.00 20.00    -0.046 A 
HETATM    4  C4  UNL     1     -35.239  14.490  -4.524  1.00 20.00    -0.021 A 
HETATM    5  C10 UNL     1     -36.022  13.439  -5.208  1.00 20.00     0.056 C 
HETATM    6  S11 UNL     1     -33.529  14.465  -4.622  1.00 20.00    -0.106 SA
ENDROOT
BRANCH   3   7
HETATM    7  C8  UNL     1     -34.833  17.588  -2.423  1.00 20.00     0.020 C 
HETATM    8  C5  UNL     1     -35.672  17.351  -1.148  1.00 20.00     0.010 C 
HETATM    9  C6  UNL     1     -34.744  17.664   0.022  1.00 20.00     0.016 C 
HETATM   10  C9  UNL     1     -33.812  18.716  -0.548  1.00 20.00     0.058 C 
HETATM   11  C7  UNL     1     -33.501  18.194  -1.940  1.00 20.00     0.025 C 
HETATM   12 BR12 UNL     1     -32.213  18.901   0.521  1.00 20.00    -0.091 Br
ENDBRANCH   3   7
TORSDOF 1
ENDMDL
MODEL 6
REMARK VINA RESULT:      -4.5      1.405      1.926
REMARK  1 active torsions:
REMARK  status: ('A' for Active; 'I' for Inactive)
REMARK    1  A    between atoms: C3_3  and  C8_8 
ROOT
HETATM    1  C1  UNL     1     -35.223  16.985  -1.108  1.00 20.00     0.022 A 
HETATM    2  C2  UNL     1     -33.596  17.086  -2.765  1.00 20.00     0.057 A 
HETATM    3  C3  UNL     1     -34.831  16.584  -2.419  1.00 20.00    -0.046 A 
HETATM    4  C4  UNL     1     -34.272  17.778  -0.504  1.00 20.00    -0.021 A 
HETATM    5  C10 UNL     1     -34.303  18.388   0.843  1.00 20.00     0.056 C 
HETATM    6  S11 UNL     1     -32.914  18.036  -1.514  1.00 20.00    -0.106 SA
ENDROOT
BRANCH   3   7
HETATM    7  C8  UNL     1     -35.674  15.710  -3.321  1.00 20.00     0.020 C 
HETATM    8  C5  UNL     1     -36.540  16.490  -4.336  1.00 20.00     0.010 C 
HETATM    9  C6  UNL     1     -36.043  16.066  -5.715  1.00 20.00     0.016 C 
HETATM   10  C9  UNL     1     -35.558  14.648  -5.486  1.00 20.00     0.058 C 
HETATM   11  C7  UNL     1     -34.825  14.736  -4.159  1.00 20.00     0.025 C 
HETATM   12 BR12 UNL     1     -34.394  14.058  -6.910  1.00 20.00    -0.091 Br
ENDBRANCH   3   7
TORSDOF 1
ENDMDL
MODEL 7
REMARK VINA RESULT:      -4.4      2.883      5.030
REMARK  1 active torsions:
REMARK  status: ('A' for Active; 'I' for Inactive)
REMARK    1  A    between atoms: C3_3  and  C8_8 
ROOT
HETATM    1  C1  UNL     1     -34.097  15.224  -4.018  1.00 20.00     0.022 A 
HETATM    2  C2  UNL     1     -33.709  17.474  -4.454  1.00 20.00     0.057 A 
HETATM    3  C3  UNL     1     -33.844  16.516  -3.473  1.00 20.00    -0.046 A 
HETATM    4  C4  UNL     1     -34.146  15.244  -5.395  1.00 20.00    -0.021 A 
HETATM    5  C10 UNL     1     -34.385  14.118  -6.324  1.00 20.00     0.056 C 
HETATM    6  S11 UNL     1     -33.887  16.815  -6.025  1.00 20.00    -0.106 SA
ENDROOT
BRANCH   3   7
HETATM    7  C8  UNL     1     -33.736  16.801  -1.992  1.00 20.00     0.020 C 
HETATM    8  C5  UNL     1     -33.015  18.123  -1.648  1.00 20.00     0.010 C 
HETATM    9  C6  UNL     1     -34.050  18.984  -0.930  1.00 20.00     0.016 C 
HETATM   10  C9  UNL     1     -34.938  17.961  -0.248  1.00 20.00     0.058 C 
HETATM   11  C7  UNL     1     -35.113  16.885  -1.306  1.00 20.00     0.025 C 
HETATM   12 BR12 UNL     1     -36.629  18.729   0.281  1.00 20.00    -0.091 Br
ENDBRANCH   3   7
TORSDOF 1
ENDMDL
MODEL 8
REMARK VINA RESULT:      -4.4      3.555      5.622
REMARK  1 active torsions:
REMARK  status: ('A' for Active; 'I' for Inactive)
REMARK    1  A    between atoms: C3_3  and  C8_8 
ROOT
HETATM    1  C1  UNL     1     -33.591  16.729  -2.567  1.00 20.00     0.022 A 
HETATM    2  C2  UNL     1     -35.867  17.086  -2.256  1.00 20.00     0.057 A 
HETATM    3  C3  UNL     1     -34.598  17.487  -1.901  1.00 20.00    -0.046 A 
HETATM    4  C4  UNL     1     -34.131  15.778  -3.406  1.00 20.00    -0.021 A 
HETATM    5  C10 UNL     1     -33.426  14.800  -4.263  1.00 20.00     0.056 C 
HETATM    6  S11 UNL     1     -35.843  15.801  -3.388  1.00 20.00    -0.106 SA
ENDROOT
BRANCH   3   7
HETATM    7  C8  UNL     1     -34.305  18.601  -0.921  1.00 20.00     0.020 C 
HETATM    8  C5  UNL     1     -34.979  18.429   0.459  1.00 20.00     0.010 C 
HETATM    9  C6  UNL     1     -33.838  18.317   1.466  1.00 20.00     0.016 C 
HETATM   10  C9  UNL     1     -32.736  19.145   0.833  1.00 20.00     0.058 C 
HETATM   11  C7  UNL     1     -32.799  18.753  -0.633  1.00 20.00     0.025 C 
HETATM   12 BR12 UNL     1     -31.013  18.744   1.609  1.00 20.00    -0.091 Br
ENDBRANCH   3   7
TORSDOF 1
ENDMDL
MODEL 9
REMARK VINA RESULT:      -4.3      3.290      4.967
REMARK  1 active torsions:
REMARK  status: ('A' for Active; 'I' for Inactive)
REMARK    1  A    between atoms: C3_3  and  C8_8 
ROOT
HETATM    1  C1  UNL     1     -36.447  15.695  -3.927  1.00 20.00     0.022 A 
HETATM    2  C2  UNL     1     -34.639  14.300  -4.365  1.00 20.00     0.057 A 
HETATM    3  C3  UNL     1     -35.061  15.437  -3.712  1.00 20.00    -0.046 A 
HETATM    4  C4  UNL     1     -37.030  14.744  -4.736  1.00 20.00    -0.021 A 
HETATM    5  C10 UNL     1     -38.435  14.659  -5.190  1.00 20.00     0.056 C 
HETATM    6  S11 UNL     1     -35.910  13.548  -5.232  1.00 20.00    -0.106 SA
ENDROOT
BRANCH   3   7
HETATM    7  C8  UNL     1     -34.162  16.311  -2.866  1.00 20.00     0.020 C 
HETATM    8  C5  UNL     1     -33.659  17.586  -3.578  1.00 20.00     0.010 C 
HETATM    9  C6  UNL     1     -34.220  18.757  -2.775  1.00 20.00     0.016 C 
HETATM   10  C9  UNL     1     -34.308  18.199  -1.368  1.00 20.00     0.058 C 
HETATM   11  C7  UNL     1     -34.853  16.797  -1.578  1.00 20.00     0.025 C 
HETATM   12 BR12 UNL     1     -35.476  19.263  -0.256  1.00 20.00    -0.091 Br
ENDBRANCH   3   7
TORSDOF 1
ENDMDL
