MODEL 1
REMARK VINA RESULT:      -3.9      0.000      0.000
REMARK  5 active torsions:
REMARK  status: ('A' for Active; 'I' for Inactive)
REMARK    1  A    between atoms: C5_5  and  C7_7 
REMARK    2  A    between atoms: C6_6  and  C8_8 
REMARK    3  A    between atoms: C7_7  and  C9_9 
REMARK    4  A    between atoms: C8_8  and  C9_9 
REMARK    5  A    between atoms: C9_9  and  S11_11 
ROOT
HETATM    1  C1  UNL     1     -35.681  13.912  -4.977  1.00 20.00     0.080 C 
HETATM    2  C9  UNL     1     -35.425  15.332  -4.652  1.00 20.00     0.096 C 
HETATM    3  N10 UNL     1     -35.879  12.797  -5.233  1.00 20.00    -0.196 NA
ENDROOT
BRANCH   2   4
HETATM    4  C7  UNL     1     -34.905  16.074  -5.914  1.00 20.00     0.035 C 
BRANCH   4   5
HETATM    5  C5  UNL     1     -33.610  15.508  -6.519  1.00 20.00    -0.002 C 
HETATM    6  C2  UNL     1     -33.849  14.957  -7.918  1.00 20.00     0.005 C 
ENDBRANCH   4   5
ENDBRANCH   2   4
BRANCH   2   7
HETATM    7  C8  UNL     1     -34.426  15.448  -3.472  1.00 20.00     0.035 C 
BRANCH   7   8
HETATM    8  C6  UNL     1     -34.760  16.498  -2.398  1.00 20.00    -0.002 C 
HETATM    9  C3  UNL     1     -33.514  17.265  -1.975  1.00 20.00     0.005 C 
ENDBRANCH   7   8
ENDBRANCH   2   7
BRANCH   2  10
HETATM   10  S11 UNL     1     -37.037  16.133  -4.216  1.00 20.00    -0.148 SA
HETATM   11  C4  UNL     1     -36.986  17.437  -5.461  1.00 20.00     0.091 C 
ENDBRANCH   2  10
TORSDOF 5
ENDMDL
MODEL 2
REMARK VINA RESULT:      -3.9      1.617      3.825
REMARK  5 active torsions:
REMARK  status: ('A' for Active; 'I' for Inactive)
REMARK    1  A    between atoms: C5_5  and  C7_7 
REMARK    2  A    between atoms: C6_6  and  C8_8 
REMARK    3  A    between atoms: C7_7  and  C9_9 
REMARK    4  A    between atoms: C8_8  and  C9_9 
REMARK    5  A    between atoms: C9_9  and  S11_11 
ROOT
HETATM    1  C1  UNL     1     -35.726  13.872  -4.990  1.00 20.00     0.080 C 
HETATM    2  C9  UNL     1     -35.628  15.290  -4.579  1.00 20.00     0.096 C 
HETATM    3  N10 UNL     1     -35.804  12.759  -5.311  1.00 20.00    -0.196 NA
ENDROOT
BRANCH   2   4
HETATM    4  C7  UNL     1     -34.539  15.444  -3.480  1.00 20.00     0.035 C 
BRANCH   4   5
HETATM    5  C5  UNL     1     -34.858  16.471  -2.382  1.00 20.00    -0.002 C 
HETATM    6  C2  UNL     1     -33.600  17.190  -1.916  1.00 20.00     0.005 C 
ENDBRANCH   4   5
ENDBRANCH   2   4
BRANCH   2   7
HETATM    7  C8  UNL     1     -37.005  15.811  -4.091  1.00 20.00     0.035 C 
BRANCH   7   8
HETATM    8  C6  UNL     1     -38.237  15.025  -4.570  1.00 20.00    -0.002 C 
HETATM    9  C3  UNL     1     -39.500  15.871  -4.469  1.00 20.00     0.005 C 
ENDBRANCH   7   8
ENDBRANCH   2   7
BRANCH   2  10
HETATM   10  S11 UNL     1     -35.038  16.281  -6.026  1.00 20.00    -0.148 SA
HETATM   11  C4  UNL     1     -33.288  15.868  -5.885  1.00 20.00     0.091 C 
ENDBRANCH   2  10
TORSDOF 5
ENDMDL
MODEL 3
REMARK VINA RESULT:      -3.8      1.601      3.442
REMARK  5 active torsions:
REMARK  status: ('A' for Active; 'I' for Inactive)
REMARK    1  A    between atoms: C5_5  and  C7_7 
REMARK    2  A    between atoms: C6_6  and  C8_8 
REMARK    3  A    between atoms: C7_7  and  C9_9 
REMARK    4  A    between atoms: C8_8  and  C9_9 
REMARK    5  A    between atoms: C9_9  and  S11_11 
ROOT
HETATM    1  C1  UNL     1     -35.441  13.945  -5.107  1.00 20.00     0.080 C 
HETATM    2  C9  UNL     1     -34.910  15.304  -4.860  1.00 20.00     0.096 C 
HETATM    3  N10 UNL     1     -35.858  12.878  -5.299  1.00 20.00    -0.196 NA
ENDROOT
BRANCH   2   4
HETATM    4  C7  UNL     1     -34.336  15.389  -3.418  1.00 20.00     0.035 C 
BRANCH   4   5
HETATM    5  C5  UNL     1     -33.728  16.748  -3.036  1.00 20.00    -0.002 C 
HETATM    6  C2  UNL     1     -34.088  17.131  -1.607  1.00 20.00     0.005 C 
ENDBRANCH   4   5
ENDBRANCH   2   4
BRANCH   2   7
HETATM    7  C8  UNL     1     -36.012  16.368  -5.098  1.00 20.00     0.035 C 
BRANCH   7   8
HETATM    8  C6  UNL     1     -37.253  16.276  -4.193  1.00 20.00    -0.002 C 
HETATM    9  C3  UNL     1     -37.446  17.559  -3.395  1.00 20.00     0.005 C 
ENDBRANCH   7   8
ENDBRANCH   2   7
BRANCH   2  10
HETATM   10  S11 UNL     1     -33.479  15.589  -5.998  1.00 20.00    -0.148 SA
HETATM   11  C4  UNL     1     -34.376  15.375  -7.548  1.00 20.00     0.091 C 
ENDBRANCH   2  10
TORSDOF 5
ENDMDL
MODEL 4
REMARK VINA RESULT:      -3.7      2.295      4.218
REMARK  5 active torsions:
REMARK  status: ('A' for Active; 'I' for Inactive)
REMARK    1  A    between atoms: C5_5  and  C7_7 
REMARK    2  A    between atoms: C6_6  and  C8_8 
REMARK    3  A    between atoms: C7_7  and  C9_9 
REMARK    4  A    between atoms: C8_8  and  C9_9 
REMARK    5  A    between atoms: C9_9  and  S11_11 
ROOT
HETATM    1  C1  UNL     1     -33.236  14.515  -4.217  1.00 20.00     0.080 C 
HETATM    2  C9  UNL     1     -34.167  15.664  -4.213  1.00 20.00     0.096 C 
HETATM    3  N10 UNL     1     -32.506  13.612  -4.219  1.00 20.00    -0.196 NA
ENDROOT
BRANCH   2   4
HETATM    4  C7  UNL     1     -33.874  16.573  -2.986  1.00 20.00     0.035 C 
BRANCH   4   5
HETATM    5  C5  UNL     1     -34.982  16.613  -1.922  1.00 20.00    -0.002 C 
HETATM    6  C2  UNL     1     -34.586  17.497  -0.747  1.00 20.00     0.005 C 
ENDBRANCH   4   5
ENDBRANCH   2   4
BRANCH   2   7
HETATM    7  C8  UNL     1     -35.638  15.172  -4.217  1.00 20.00     0.035 C 
BRANCH   7   8
HETATM    8  C6  UNL     1     -35.922  13.886  -5.010  1.00 20.00    -0.002 C 
HETATM    9  C3  UNL     1     -36.698  14.188  -6.285  1.00 20.00     0.005 C 
ENDBRANCH   7   8
ENDBRANCH   2   7
BRANCH   2  10
HETATM   10  S11 UNL     1     -33.827  16.700  -5.709  1.00 20.00    -0.148 SA
HETATM   11  C4  UNL     1     -33.503  18.249  -4.844  1.00 20.00     0.091 C 
ENDBRANCH   2  10
TORSDOF 5
ENDMDL
MODEL 5
REMARK VINA RESULT:      -3.7      1.365      1.393
REMARK  5 active torsions:
REMARK  status: ('A' for Active; 'I' for Inactive)
REMARK    1  A    between atoms: C5_5  and  C7_7 
REMARK    2  A    between atoms: C6_6  and  C8_8 
REMARK    3  A    between atoms: C7_7  and  C9_9 
REMARK    4  A    between atoms: C8_8  and  C9_9 
REMARK    5  A    between atoms: C9_9  and  S11_11 
ROOT
HETATM    1  C1  UNL     1     -36.932  14.646  -4.821  1.00 20.00     0.080 C 
HETATM    2  C9  UNL     1     -35.702  15.452  -4.659  1.00 20.00     0.096 C 
HETATM    3  N10 UNL     1     -37.896  14.011  -4.948  1.00 20.00    -0.196 NA
ENDROOT
BRANCH   2   4
HETATM    4  C7  UNL     1     -34.467  14.623  -5.110  1.00 20.00     0.035 C 
BRANCH   4   5
HETATM    5  C5  UNL     1     -34.016  14.857  -6.560  1.00 20.00    -0.002 C 
HETATM    6  C2  UNL     1     -34.410  13.690  -7.455  1.00 20.00     0.005 C 
ENDBRANCH   4   5
ENDBRANCH   2   4
BRANCH   2   7
HETATM    7  C8  UNL     1     -35.559  15.934  -3.192  1.00 20.00     0.035 C 
BRANCH   7   8
HETATM    8  C6  UNL     1     -34.158  16.406  -2.765  1.00 20.00    -0.002 C 
HETATM    9  C3  UNL     1     -34.214  17.165  -1.446  1.00 20.00     0.005 C 
ENDBRANCH   7   8
ENDBRANCH   2   7
BRANCH   2  10
HETATM   10  S11 UNL     1     -35.794  16.900  -5.809  1.00 20.00    -0.148 SA
HETATM   11  C4  UNL     1     -37.247  17.678  -5.078  1.00 20.00     0.091 C 
ENDBRANCH   2  10
TORSDOF 5
ENDMDL
MODEL 6
REMARK VINA RESULT:      -3.6      2.125      2.743
REMARK  5 active torsions:
REMARK  status: ('A' for Active; 'I' for Inactive)
REMARK    1  A    between atoms: C5_5  and  C7_7 
REMARK    2  A    between atoms: C6_6  and  C8_8 
REMARK    3  A    between atoms: C7_7  and  C9_9 
REMARK    4  A    between atoms: C8_8  and  C9_9 
REMARK    5  A    between atoms: C9_9  and  S11_11 
ROOT
HETATM    1  C1  UNL     1     -33.206  14.455  -4.371  1.00 20.00     0.080 C 
HETATM    2  C9  UNL     1     -34.177  15.543  -4.623  1.00 20.00     0.096 C 
HETATM    3  N10 UNL     1     -32.442  13.603  -4.172  1.00 20.00    -0.196 NA
ENDROOT
BRANCH   2   4
HETATM    4  C7  UNL     1     -33.432  16.799  -5.154  1.00 20.00     0.035 C 
BRANCH   4   5
HETATM    5  C5  UNL     1     -34.265  17.718  -6.062  1.00 20.00    -0.002 C 
HETATM    6  C2  UNL     1     -34.634  19.011  -5.347  1.00 20.00     0.005 C 
ENDBRANCH   4   5
ENDBRANCH   2   4
BRANCH   2   7
HETATM    7  C8  UNL     1     -34.982  15.861  -3.336  1.00 20.00     0.035 C 
BRANCH   7   8
HETATM    8  C6  UNL     1     -34.265  16.720  -2.281  1.00 20.00    -0.002 C 
HETATM    9  C3  UNL     1     -35.198  17.059  -1.124  1.00 20.00     0.005 C 
ENDBRANCH   7   8
ENDBRANCH   2   7
BRANCH   2  10
HETATM   10  S11 UNL     1     -35.314  15.009  -5.982  1.00 20.00    -0.148 SA
HETATM   11  C4  UNL     1     -35.935  13.515  -5.185  1.00 20.00     0.091 C 
ENDBRANCH   2  10
TORSDOF 5
ENDMDL
MODEL 7
REMARK VINA RESULT:      -3.6      1.874      3.547
REMARK  5 active torsions:
REMARK  status: ('A' for Active; 'I' for Inactive)
REMARK    1  A    between atoms: C5_5  and  C7_7 
REMARK    2  A    between atoms: C6_6  and  C8_8 
REMARK    3  A    between atoms: C7_7  and  C9_9 
REMARK    4  A    between atoms: C8_8  and  C9_9 
REMARK    5  A    between atoms: C9_9  and  S11_11 
ROOT
HETATM    1  C1  UNL     1     -36.832  14.488  -5.050  1.00 20.00     0.080 C 
HETATM    2  C9  UNL     1     -35.494  15.077  -5.280  1.00 20.00     0.096 C 
HETATM    3  N10 UNL     1     -37.883  14.028  -4.868  1.00 20.00    -0.196 NA
ENDROOT
BRANCH   2   4
HETATM    4  C7  UNL     1     -34.682  15.067  -3.955  1.00 20.00     0.035 C 
BRANCH   4   5
HETATM    5  C5  UNL     1     -35.106  16.120  -2.919  1.00 20.00    -0.002 C 
HETATM    6  C2  UNL     1     -33.896  16.812  -2.307  1.00 20.00     0.005 C 
ENDBRANCH   4   5
ENDBRANCH   2   4
BRANCH   2   7
HETATM    7  C8  UNL     1     -35.623  16.511  -5.857  1.00 20.00     0.035 C 
BRANCH   7   8
HETATM    8  C6  UNL     1     -34.349  17.114  -6.470  1.00 20.00    -0.002 C 
HETATM    9  C3  UNL     1     -33.902  18.351  -5.702  1.00 20.00     0.005 C 
ENDBRANCH   7   8
ENDBRANCH   2   7
BRANCH   2  10
HETATM   10  S11 UNL     1     -34.569  13.987  -6.456  1.00 20.00    -0.148 SA
HETATM   11  C4  UNL     1     -35.833  13.914  -7.740  1.00 20.00     0.091 C 
ENDBRANCH   2  10
TORSDOF 5
ENDMDL
MODEL 8
REMARK VINA RESULT:      -3.5      2.415      4.594
REMARK  5 active torsions:
REMARK  status: ('A' for Active; 'I' for Inactive)
REMARK    1  A    between atoms: C5_5  and  C7_7 
REMARK    2  A    between atoms: C6_6  and  C8_8 
REMARK    3  A    between atoms: C7_7  and  C9_9 
REMARK    4  A    between atoms: C8_8  and  C9_9 
REMARK    5  A    between atoms: C9_9  and  S11_11 
ROOT
HETATM    1  C1  UNL     1     -33.545  17.946  -4.789  1.00 20.00     0.080 C 
HETATM    2  C9  UNL     1     -34.030  16.549  -4.838  1.00 20.00     0.096 C 
HETATM    3  N10 UNL     1     -33.162  19.042  -4.750  1.00 20.00    -0.196 NA
ENDROOT
BRANCH   2   4
HETATM    4  C7  UNL     1     -33.900  15.899  -3.433  1.00 20.00     0.035 C 
BRANCH   4   5
HETATM    5  C5  UNL     1     -33.858  16.886  -2.256  1.00 20.00    -0.002 C 
HETATM    6  C2  UNL     1     -35.157  16.853  -1.461  1.00 20.00     0.005 C 
ENDBRANCH   4   5
ENDBRANCH   2   4
BRANCH   2   7
HETATM    7  C8  UNL     1     -33.254  15.742  -5.912  1.00 20.00     0.035 C 
BRANCH   7   8
HETATM    8  C6  UNL     1     -33.844  15.759  -7.332  1.00 20.00    -0.002 C 
HETATM    9  C3  UNL     1     -34.029  14.343  -7.865  1.00 20.00     0.005 C 
ENDBRANCH   7   8
ENDBRANCH   2   7
BRANCH   2  10
HETATM   10  S11 UNL     1     -35.839  16.571  -5.227  1.00 20.00    -0.148 SA
HETATM   11  C4  UNL     1     -36.237  14.950  -4.542  1.00 20.00     0.091 C 
ENDBRANCH   2  10
TORSDOF 5
ENDMDL
MODEL 9
REMARK VINA RESULT:      -3.5      1.944      3.997
REMARK  5 active torsions:
REMARK  status: ('A' for Active; 'I' for Inactive)
REMARK    1  A    between atoms: C5_5  and  C7_7 
REMARK    2  A    between atoms: C6_6  and  C8_8 
REMARK    3  A    between atoms: C7_7  and  C9_9 
REMARK    4  A    between atoms: C8_8  and  C9_9 
REMARK    5  A    between atoms: C9_9  and  S11_11 
ROOT
HETATM    1  C1  UNL     1     -34.792  16.569  -5.208  1.00 20.00     0.080 C 
HETATM    2  C9  UNL     1     -35.417  15.696  -4.190  1.00 20.00     0.096 C 
HETATM    3  N10 UNL     1     -34.299  17.254  -6.006  1.00 20.00    -0.196 NA
ENDROOT
BRANCH   2   4
HETATM    4  C7  UNL     1     -35.031  16.189  -2.767  1.00 20.00     0.035 C 
BRANCH   4   5
HETATM    5  C5  UNL     1     -33.596  16.723  -2.627  1.00 20.00    -0.002 C 
HETATM    6  C2  UNL     1     -33.469  17.650  -1.426  1.00 20.00     0.005 C 
ENDBRANCH   4   5
ENDBRANCH   2   4
BRANCH   2   7
HETATM    7  C8  UNL     1     -35.001  14.219  -4.413  1.00 20.00     0.035 C 
BRANCH   7   8
HETATM    8  C6  UNL     1     -35.910  13.388  -5.333  1.00 20.00    -0.002 C 
HETATM    9  C3  UNL     1     -35.332  13.300  -6.740  1.00 20.00     0.005 C 
ENDBRANCH   7   8
ENDBRANCH   2   7
BRANCH   2  10
HETATM   10  S11 UNL     1     -37.255  15.876  -4.313  1.00 20.00    -0.148 SA
HETATM   11  C4  UNL     1     -37.385  17.457  -3.454  1.00 20.00     0.091 C 
ENDBRANCH   2  10
TORSDOF 5
ENDMDL
