MODEL 1
REMARK VINA RESULT:      -4.3      0.000      0.000
REMARK  1 active torsions:
REMARK  status: ('A' for Active; 'I' for Inactive)
REMARK    1  A    between atoms: C4_4  and  C8_8 
ROOT
HETATM    1  C5  UNL     1     -32.891  15.494  -5.436  1.00 20.00     0.002 C 
HETATM    2  C6  UNL     1     -33.973  16.566  -5.278  1.00 20.00     0.011 C 
HETATM    3  C7  UNL     1     -33.140  14.461  -4.339  1.00 20.00     0.021 C 
HETATM    4  C8  UNL     1     -34.789  16.191  -4.027  1.00 20.00     0.037 C 
HETATM    5  C9  UNL     1     -34.587  14.673  -3.905  1.00 20.00     0.090 C 
HETATM    6 CL11 UNL     1     -35.694  13.802  -5.015  1.00 20.00    -0.124 Cl
ENDROOT
BRANCH   4   7
HETATM    7  C4  UNL     1     -34.405  16.904  -2.739  1.00 20.00    -0.046 A 
HETATM    8  C1  UNL     1     -35.151  16.812  -1.529  1.00 20.00     0.015 A 
HETATM    9  C2  UNL     1     -34.585  17.555  -0.516  1.00 20.00     0.050 A 
HETATM   10  S10 UNL     1     -33.161  18.357  -1.024  1.00 20.00    -0.113 SA
HETATM   11  C3  UNL     1     -33.297  17.713  -2.605  1.00 20.00     0.057 A 
ENDBRANCH   4   7
TORSDOF 1
ENDMDL
MODEL 2
REMARK VINA RESULT:      -4.3      1.514      2.147
REMARK  1 active torsions:
REMARK  status: ('A' for Active; 'I' for Inactive)
REMARK    1  A    between atoms: C4_4  and  C8_8 
ROOT
HETATM    1  C5  UNL     1     -36.042  16.482  -4.896  1.00 20.00     0.002 C 
HETATM    2  C6  UNL     1     -35.579  15.517  -3.799  1.00 20.00     0.011 C 
HETATM    3  C7  UNL     1     -34.901  17.472  -5.113  1.00 20.00     0.021 C 
HETATM    4  C8  UNL     1     -34.202  16.016  -3.325  1.00 20.00     0.037 C 
HETATM    5  C9  UNL     1     -33.662  16.796  -4.534  1.00 20.00     0.090 C 
HETATM    6 CL11 UNL     1     -32.956  15.673  -5.739  1.00 20.00    -0.124 Cl
ENDROOT
BRANCH   4   7
HETATM    7  C4  UNL     1     -34.197  16.874  -2.068  1.00 20.00    -0.046 A 
HETATM    8  C1  UNL     1     -35.288  16.952  -1.156  1.00 20.00     0.015 A 
HETATM    9  C2  UNL     1     -35.022  17.801  -0.104  1.00 20.00     0.050 A 
HETATM   10  S10 UNL     1     -33.462  18.497  -0.218  1.00 20.00    -0.113 SA
HETATM   11  C3  UNL     1     -33.137  17.665  -1.678  1.00 20.00     0.057 A 
ENDBRANCH   4   7
TORSDOF 1
ENDMDL
MODEL 3
REMARK VINA RESULT:      -4.2      1.701      2.493
REMARK  1 active torsions:
REMARK  status: ('A' for Active; 'I' for Inactive)
REMARK    1  A    between atoms: C4_4  and  C8_8 
ROOT
HETATM    1  C5  UNL     1     -36.038  16.510  -4.755  1.00 20.00     0.002 C 
HETATM    2  C6  UNL     1     -35.574  15.559  -3.648  1.00 20.00     0.011 C 
HETATM    3  C7  UNL     1     -34.899  17.502  -4.982  1.00 20.00     0.021 C 
HETATM    4  C8  UNL     1     -34.200  16.067  -3.176  1.00 20.00     0.037 C 
HETATM    5  C9  UNL     1     -33.660  16.836  -4.393  1.00 20.00     0.090 C 
HETATM    6 CL11 UNL     1     -32.948  15.702  -5.585  1.00 20.00    -0.124 Cl
ENDROOT
BRANCH   4   7
HETATM    7  C4  UNL     1     -34.199  16.938  -1.929  1.00 20.00    -0.046 A 
HETATM    8  C1  UNL     1     -33.107  17.765  -1.539  1.00 20.00     0.015 A 
HETATM    9  C2  UNL     1     -33.367  18.448  -0.371  1.00 20.00     0.050 A 
HETATM   10  S10 UNL     1     -34.922  18.092   0.249  1.00 20.00    -0.113 SA
HETATM   11  C3  UNL     1     -35.253  17.021  -1.045  1.00 20.00     0.057 A 
ENDBRANCH   4   7
TORSDOF 1
ENDMDL
MODEL 4
REMARK VINA RESULT:      -4.2      9.915     10.816
REMARK  1 active torsions:
REMARK  status: ('A' for Active; 'I' for Inactive)
REMARK    1  A    between atoms: C4_4  and  C8_8 
ROOT
HETATM    1  C5  UNL     1     -33.944   7.171   4.723  1.00 20.00     0.002 C 
HETATM    2  C6  UNL     1     -32.507   7.484   4.296  1.00 20.00     0.011 C 
HETATM    3  C7  UNL     1     -34.643   6.583   3.500  1.00 20.00     0.021 C 
HETATM    4  C8  UNL     1     -32.412   7.158   2.794  1.00 20.00     0.037 C 
HETATM    5  C9  UNL     1     -33.521   6.116   2.578  1.00 20.00     0.090 C 
HETATM    6 CL11 UNL     1     -32.957   4.489   3.073  1.00 20.00    -0.124 Cl
ENDROOT
BRANCH   4   7
HETATM    7  C4  UNL     1     -32.567   8.334   1.842  1.00 20.00    -0.046 A 
HETATM    8  C1  UNL     1     -32.342   9.691   2.212  1.00 20.00     0.015 A 
HETATM    9  C2  UNL     1     -32.553  10.556   1.161  1.00 20.00     0.050 A 
HETATM   10  S10 UNL     1     -33.019   9.733  -0.265  1.00 20.00    -0.113 SA
HETATM   11  C3  UNL     1     -32.941   8.213   0.521  1.00 20.00     0.057 A 
ENDBRANCH   4   7
TORSDOF 1
ENDMDL
MODEL 5
REMARK VINA RESULT:      -4.2      2.721      4.240
REMARK  1 active torsions:
REMARK  status: ('A' for Active; 'I' for Inactive)
REMARK    1  A    between atoms: C4_4  and  C8_8 
ROOT
HETATM    1  C5  UNL     1     -34.200  19.206  -2.383  1.00 20.00     0.002 C 
HETATM    2  C6  UNL     1     -33.165  18.090  -2.217  1.00 20.00     0.011 C 
HETATM    3  C7  UNL     1     -35.563  18.524  -2.479  1.00 20.00     0.021 C 
HETATM    4  C8  UNL     1     -33.931  16.758  -2.310  1.00 20.00     0.037 C 
HETATM    5  C9  UNL     1     -35.361  17.132  -1.888  1.00 20.00     0.090 C 
HETATM    6 CL11 UNL     1     -35.489  17.201  -0.101  1.00 20.00    -0.124 Cl
ENDROOT
BRANCH   4   7
HETATM    7  C4  UNL     1     -33.919  16.072  -3.667  1.00 20.00    -0.046 A 
HETATM    8  C1  UNL     1     -34.519  14.806  -3.923  1.00 20.00     0.015 A 
HETATM    9  C2  UNL     1     -34.363  14.414  -5.234  1.00 20.00     0.050 A 
HETATM   10  S10 UNL     1     -33.496  15.570  -6.151  1.00 20.00    -0.113 SA
HETATM   11  C3  UNL     1     -33.327  16.601  -4.794  1.00 20.00     0.057 A 
ENDBRANCH   4   7
TORSDOF 1
ENDMDL
MODEL 6
REMARK VINA RESULT:      -4.1      9.537     10.425
REMARK  1 active torsions:
REMARK  status: ('A' for Active; 'I' for Inactive)
REMARK    1  A    between atoms: C4_4  and  C8_8 
ROOT
HETATM    1  C5  UNL     1     -32.163   8.855  -0.259  1.00 20.00     0.002 C 
HETATM    2  C6  UNL     1     -31.297   8.434   0.932  1.00 20.00     0.011 C 
HETATM    3  C7  UNL     1     -33.441   9.454   0.323  1.00 20.00     0.021 C 
HETATM    4  C8  UNL     1     -32.125   8.711   2.200  1.00 20.00     0.037 C 
HETATM    5  C9  UNL     1     -33.098   9.818   1.764  1.00 20.00     0.090 C 
HETATM    6 CL11 UNL     1     -32.291  11.418   1.816  1.00 20.00    -0.124 Cl
ENDROOT
BRANCH   4   7
HETATM    7  C4  UNL     1     -32.870   7.521   2.786  1.00 20.00    -0.046 A 
HETATM    8  C1  UNL     1     -32.817   6.205   2.244  1.00 20.00     0.015 A 
HETATM    9  C2  UNL     1     -33.584   5.317   2.966  1.00 20.00     0.050 A 
HETATM   10  S10 UNL     1     -34.361   6.070   4.293  1.00 20.00    -0.113 SA
HETATM   11  C3  UNL     1     -33.674   7.589   3.904  1.00 20.00     0.057 A 
ENDBRANCH   4   7
TORSDOF 1
ENDMDL
MODEL 7
REMARK VINA RESULT:      -4.0      3.128      4.143
REMARK  1 active torsions:
REMARK  status: ('A' for Active; 'I' for Inactive)
REMARK    1  A    between atoms: C4_4  and  C8_8 
ROOT
HETATM    1  C5  UNL     1     -32.997  15.634  -5.115  1.00 20.00     0.002 C 
HETATM    2  C6  UNL     1     -33.742  14.653  -4.205  1.00 20.00     0.011 C 
HETATM    3  C7  UNL     1     -33.635  17.003  -4.892  1.00 20.00     0.021 C 
HETATM    4  C8  UNL     1     -34.871  15.449  -3.526  1.00 20.00     0.037 C 
HETATM    5  C9  UNL     1     -34.360  16.898  -3.555  1.00 20.00     0.090 C 
HETATM    6 CL11 UNL     1     -33.210  17.184  -2.210  1.00 20.00    -0.124 Cl
ENDROOT
BRANCH   4   7
HETATM    7  C4  UNL     1     -36.247  15.337  -4.165  1.00 20.00    -0.046 A 
HETATM    8  C1  UNL     1     -36.648  14.257  -5.002  1.00 20.00     0.015 A 
HETATM    9  C2  UNL     1     -37.943  14.402  -5.448  1.00 20.00     0.050 A 
HETATM   10  S10 UNL     1     -38.671  15.834  -4.857  1.00 20.00    -0.113 SA
HETATM   11  C3  UNL     1     -37.252  16.267  -4.002  1.00 20.00     0.057 A 
ENDBRANCH   4   7
TORSDOF 1
ENDMDL
MODEL 8
REMARK VINA RESULT:      -4.0      2.212      3.092
REMARK  1 active torsions:
REMARK  status: ('A' for Active; 'I' for Inactive)
REMARK    1  A    between atoms: C4_4  and  C8_8 
ROOT
HETATM    1  C5  UNL     1     -37.062  14.357  -6.266  1.00 20.00     0.002 C 
HETATM    2  C6  UNL     1     -36.249  13.616  -5.200  1.00 20.00     0.011 C 
HETATM    3  C7  UNL     1     -36.153  15.449  -6.824  1.00 20.00     0.021 C 
HETATM    4  C8  UNL     1     -34.899  14.348  -5.085  1.00 20.00     0.037 C 
HETATM    5  C9  UNL     1     -34.735  15.024  -6.456  1.00 20.00     0.090 C 
HETATM    6 CL11 UNL     1     -34.115  13.851  -7.662  1.00 20.00    -0.124 Cl
ENDROOT
BRANCH   4   7
HETATM    7  C4  UNL     1     -34.780  15.359  -3.955  1.00 20.00    -0.046 A 
HETATM    8  C1  UNL     1     -33.555  15.972  -3.564  1.00 20.00     0.015 A 
HETATM    9  C2  UNL     1     -33.727  16.848  -2.514  1.00 20.00     0.050 A 
HETATM   10  S10 UNL     1     -35.359  16.929  -2.005  1.00 20.00    -0.113 SA
HETATM   11  C3  UNL     1     -35.842  15.790  -3.189  1.00 20.00     0.057 A 
ENDBRANCH   4   7
TORSDOF 1
ENDMDL
MODEL 9
REMARK VINA RESULT:      -4.0      1.914      2.738
REMARK  1 active torsions:
REMARK  status: ('A' for Active; 'I' for Inactive)
REMARK    1  A    between atoms: C4_4  and  C8_8 
ROOT
HETATM    1  C5  UNL     1     -36.391  14.046  -5.205  1.00 20.00     0.002 C 
HETATM    2  C6  UNL     1     -35.043  13.850  -4.506  1.00 20.00     0.011 C 
HETATM    3  C7  UNL     1     -36.168  15.096  -6.291  1.00 20.00     0.021 C 
HETATM    4  C8  UNL     1     -34.066  14.860  -5.137  1.00 20.00     0.037 C 
HETATM    5  C9  UNL     1     -34.662  15.118  -6.529  1.00 20.00     0.090 C 
HETATM    6 CL11 UNL     1     -34.201  13.808  -7.662  1.00 20.00    -0.124 Cl
ENDROOT
BRANCH   4   7
HETATM    7  C4  UNL     1     -33.862  16.160  -4.374  1.00 20.00    -0.046 A 
HETATM    8  C1  UNL     1     -33.974  16.277  -2.959  1.00 20.00     0.015 A 
HETATM    9  C2  UNL     1     -33.741  17.564  -2.526  1.00 20.00     0.050 A 
HETATM   10  S10 UNL     1     -33.389  18.624  -3.823  1.00 20.00    -0.113 SA
HETATM   11  C3  UNL     1     -33.547  17.363  -4.970  1.00 20.00     0.057 A 
ENDBRANCH   4   7
TORSDOF 1
ENDMDL
