MODEL 1
REMARK VINA RESULT:      -5.2      0.000      0.000
REMARK  1 active torsions:
REMARK  status: ('A' for Active; 'I' for Inactive)
REMARK    1  A    between atoms: C4_4  and  C8_8 
ROOT
HETATM    1  C5  UNL     1     -34.426   5.771   5.762  1.00 20.00     0.002 C 
HETATM    2  C6  UNL     1     -33.542   6.910   5.246  1.00 20.00     0.011 C 
HETATM    3  C7  UNL     1     -35.171   5.221   4.547  1.00 20.00     0.021 C 
HETATM    4  C8  UNL     1     -33.988   7.158   3.793  1.00 20.00     0.037 C 
HETATM    5  C9  UNL     1     -34.412   5.748   3.332  1.00 20.00     0.090 C 
HETATM    6 CL11 UNL     1     -33.011   4.688   2.982  1.00 20.00    -0.124 Cl
ENDROOT
BRANCH   4   7
HETATM    7  C4  UNL     1     -33.033   7.905   2.887  1.00 20.00    -0.046 A 
HETATM    8  C1  UNL     1     -31.667   8.157   3.206  1.00 20.00     0.015 A 
HETATM    9  C2  UNL     1     -31.023   8.858   2.211  1.00 20.00     0.050 A 
HETATM   10  S10 UNL     1     -32.063   9.208   0.896  1.00 20.00    -0.113 SA
HETATM   11  C3  UNL     1     -33.380   8.423   1.658  1.00 20.00     0.057 A 
ENDBRANCH   4   7
TORSDOF 1
ENDMDL
MODEL 2
REMARK VINA RESULT:      -4.4     11.438     12.005
REMARK  1 active torsions:
REMARK  status: ('A' for Active; 'I' for Inactive)
REMARK    1  A    between atoms: C4_4  and  C8_8 
ROOT
HETATM    1  C5  UNL     1     -34.212  18.016  -0.670  1.00 20.00     0.002 C 
HETATM    2  C6  UNL     1     -35.191  17.006  -1.275  1.00 20.00     0.011 C 
HETATM    3  C7  UNL     1     -33.003  18.055  -1.604  1.00 20.00     0.021 C 
HETATM    4  C8  UNL     1     -34.416  16.299  -2.401  1.00 20.00     0.037 C 
HETATM    5  C9  UNL     1     -33.474  17.411  -2.906  1.00 20.00     0.090 C 
HETATM    6 CL11 UNL     1     -34.321  18.626  -3.914  1.00 20.00    -0.124 Cl
ENDROOT
BRANCH   4   7
HETATM    7  C4  UNL     1     -35.225  15.571  -3.455  1.00 20.00    -0.046 A 
HETATM    8  C1  UNL     1     -34.720  14.498  -4.244  1.00 20.00     0.015 A 
HETATM    9  C2  UNL     1     -35.661  14.016  -5.127  1.00 20.00     0.050 A 
HETATM   10  S10 UNL     1     -37.148  14.856  -5.002  1.00 20.00    -0.113 SA
HETATM   11  C3  UNL     1     -36.534  15.868  -3.765  1.00 20.00     0.057 A 
ENDBRANCH   4   7
TORSDOF 1
ENDMDL
MODEL 3
REMARK VINA RESULT:      -4.3     11.388     12.062
REMARK  1 active torsions:
REMARK  status: ('A' for Active; 'I' for Inactive)
REMARK    1  A    between atoms: C4_4  and  C8_8 
ROOT
HETATM    1  C5  UNL     1     -34.210  18.012  -0.765  1.00 20.00     0.002 C 
HETATM    2  C6  UNL     1     -35.170  16.965  -1.335  1.00 20.00     0.011 C 
HETATM    3  C7  UNL     1     -33.033  18.089  -1.736  1.00 20.00     0.021 C 
HETATM    4  C8  UNL     1     -34.406  16.280  -2.483  1.00 20.00     0.037 C 
HETATM    5  C9  UNL     1     -33.521  17.424  -3.020  1.00 20.00     0.090 C 
HETATM    6 CL11 UNL     1     -34.442  18.602  -4.006  1.00 20.00    -0.124 Cl
ENDROOT
BRANCH   4   7
HETATM    7  C4  UNL     1     -35.221  15.519  -3.508  1.00 20.00    -0.046 A 
HETATM    8  C1  UNL     1     -36.595  15.777  -3.781  1.00 20.00     0.015 A 
HETATM    9  C2  UNL     1     -37.096  14.942  -4.756  1.00 20.00     0.050 A 
HETATM   10  S10 UNL     1     -35.909  13.853  -5.338  1.00 20.00    -0.113 SA
HETATM   11  C3  UNL     1     -34.723  14.497  -4.285  1.00 20.00     0.057 A 
ENDBRANCH   4   7
TORSDOF 1
ENDMDL
MODEL 4
REMARK VINA RESULT:      -4.3     11.586     12.100
REMARK  1 active torsions:
REMARK  status: ('A' for Active; 'I' for Inactive)
REMARK    1  A    between atoms: C4_4  and  C8_8 
ROOT
HETATM    1  C5  UNL     1     -34.509  18.093  -0.219  1.00 20.00     0.002 C 
HETATM    2  C6  UNL     1     -35.106  17.056  -1.174  1.00 20.00     0.011 C 
HETATM    3  C7  UNL     1     -33.136  18.455  -0.784  1.00 20.00     0.021 C 
HETATM    4  C8  UNL     1     -33.962  16.655  -2.122  1.00 20.00     0.037 C 
HETATM    5  C9  UNL     1     -33.146  17.960  -2.227  1.00 20.00     0.090 C 
HETATM    6 CL11 UNL     1     -33.927  19.177  -3.285  1.00 20.00    -0.124 Cl
ENDROOT
BRANCH   4   7
HETATM    7  C4  UNL     1     -34.339  15.988  -3.429  1.00 20.00    -0.046 A 
HETATM    8  C1  UNL     1     -35.682  15.756  -3.844  1.00 20.00     0.015 A 
HETATM    9  C2  UNL     1     -35.746  15.133  -5.071  1.00 20.00     0.050 A 
HETATM   10  S10 UNL     1     -34.189  14.831  -5.717  1.00 20.00    -0.113 SA
HETATM   11  C3  UNL     1     -33.427  15.533  -4.355  1.00 20.00     0.057 A 
ENDBRANCH   4   7
TORSDOF 1
ENDMDL
MODEL 5
REMARK VINA RESULT:      -4.1     11.516     11.992
REMARK  1 active torsions:
REMARK  status: ('A' for Active; 'I' for Inactive)
REMARK    1  A    between atoms: C4_4  and  C8_8 
ROOT
HETATM    1  C5  UNL     1     -34.032  14.579  -5.488  1.00 20.00     0.002 C 
HETATM    2  C6  UNL     1     -33.488  15.149  -4.174  1.00 20.00     0.011 C 
HETATM    3  C7  UNL     1     -35.513  14.951  -5.536  1.00 20.00     0.021 C 
HETATM    4  C8  UNL     1     -34.722  15.613  -3.379  1.00 20.00     0.037 C 
HETATM    5  C9  UNL     1     -35.690  16.054  -4.496  1.00 20.00     0.090 C 
HETATM    6 CL11 UNL     1     -35.245  17.638  -5.205  1.00 20.00    -0.124 Cl
ENDROOT
BRANCH   4   7
HETATM    7  C4  UNL     1     -34.496  16.600  -2.252  1.00 20.00    -0.046 A 
HETATM    8  C1  UNL     1     -33.279  17.313  -2.053  1.00 20.00     0.015 A 
HETATM    9  C2  UNL     1     -33.339  18.144  -0.956  1.00 20.00     0.050 A 
HETATM   10  S10 UNL     1     -34.859  18.062  -0.172  1.00 20.00    -0.113 SA
HETATM   11  C3  UNL     1     -35.441  16.913  -1.300  1.00 20.00     0.057 A 
ENDBRANCH   4   7
TORSDOF 1
ENDMDL
MODEL 6
REMARK VINA RESULT:      -4.1     11.517     12.077
REMARK  1 active torsions:
REMARK  status: ('A' for Active; 'I' for Inactive)
REMARK    1  A    between atoms: C4_4  and  C8_8 
ROOT
HETATM    1  C5  UNL     1     -35.023  17.218  -1.736  1.00 20.00     0.002 C 
HETATM    2  C6  UNL     1     -35.771  16.292  -2.698  1.00 20.00     0.011 C 
HETATM    3  C7  UNL     1     -33.546  17.128  -2.114  1.00 20.00     0.021 C 
HETATM    4  C8  UNL     1     -34.682  15.495  -3.440  1.00 20.00     0.037 C 
HETATM    5  C9  UNL     1     -33.520  16.507  -3.508  1.00 20.00     0.090 C 
HETATM    6 CL11 UNL     1     -33.783  17.776  -4.746  1.00 20.00    -0.124 Cl
ENDROOT
BRANCH   4   7
HETATM    7  C4  UNL     1     -35.071  14.826  -4.742  1.00 20.00    -0.046 A 
HETATM    8  C1  UNL     1     -36.417  14.650  -5.174  1.00 20.00     0.015 A 
HETATM    9  C2  UNL     1     -36.492  14.011  -6.392  1.00 20.00     0.050 A 
HETATM   10  S10 UNL     1     -34.942  13.627  -7.010  1.00 20.00    -0.113 SA
HETATM   11  C3  UNL     1     -34.167  14.315  -5.647  1.00 20.00     0.057 A 
ENDBRANCH   4   7
TORSDOF 1
ENDMDL
MODEL 7
REMARK VINA RESULT:      -4.1      1.439      1.827
REMARK  1 active torsions:
REMARK  status: ('A' for Active; 'I' for Inactive)
REMARK    1  A    between atoms: C4_4  and  C8_8 
ROOT
HETATM    1  C5  UNL     1     -35.471   5.005   4.523  1.00 20.00     0.002 C 
HETATM    2  C6  UNL     1     -35.000   5.929   3.396  1.00 20.00     0.011 C 
HETATM    3  C7  UNL     1     -34.309   4.903   5.509  1.00 20.00     0.021 C 
HETATM    4  C8  UNL     1     -33.492   6.133   3.628  1.00 20.00     0.037 C 
HETATM    5  C9  UNL     1     -33.381   6.066   5.166  1.00 20.00     0.090 C 
HETATM    6 CL11 UNL     1     -33.958   7.563   5.963  1.00 20.00    -0.124 Cl
ENDROOT
BRANCH   4   7
HETATM    7  C4  UNL     1     -32.836   7.322   2.956  1.00 20.00    -0.046 A 
HETATM    8  C1  UNL     1     -31.680   7.983   3.462  1.00 20.00     0.015 A 
HETATM    9  C2  UNL     1     -31.291   9.033   2.660  1.00 20.00     0.050 A 
HETATM   10  S10 UNL     1     -32.317   9.217   1.302  1.00 20.00    -0.113 SA
HETATM   11  C3  UNL     1     -33.287   7.891   1.785  1.00 20.00     0.057 A 
ENDBRANCH   4   7
TORSDOF 1
ENDMDL
MODEL 8
REMARK VINA RESULT:      -3.9     11.204     11.840
REMARK  1 active torsions:
REMARK  status: ('A' for Active; 'I' for Inactive)
REMARK    1  A    between atoms: C4_4  and  C8_8 
ROOT
HETATM    1  C5  UNL     1     -35.627  14.110  -5.738  1.00 20.00     0.002 C 
HETATM    2  C6  UNL     1     -35.833  14.926  -4.458  1.00 20.00     0.011 C 
HETATM    3  C7  UNL     1     -34.308  14.586  -6.343  1.00 20.00     0.021 C 
HETATM    4  C8  UNL     1     -34.760  16.029  -4.491  1.00 20.00     0.037 C 
HETATM    5  C9  UNL     1     -33.592  15.335  -5.222  1.00 20.00     0.090 C 
HETATM    6 CL11 UNL     1     -32.719  14.173  -4.174  1.00 20.00    -0.124 Cl
ENDROOT
BRANCH   4   7
HETATM    7  C4  UNL     1     -34.424  16.716  -3.183  1.00 20.00    -0.046 A 
HETATM    8  C1  UNL     1     -35.173  16.549  -1.983  1.00 20.00     0.015 A 
HETATM    9  C2  UNL     1     -34.656  17.287  -0.942  1.00 20.00     0.050 A 
HETATM   10  S10 UNL     1     -33.271  18.177  -1.413  1.00 20.00    -0.113 SA
HETATM   11  C3  UNL     1     -33.362  17.577  -3.014  1.00 20.00     0.057 A 
ENDBRANCH   4   7
TORSDOF 1
ENDMDL
MODEL 9
REMARK VINA RESULT:      -3.9     11.657     12.120
REMARK  1 active torsions:
REMARK  status: ('A' for Active; 'I' for Inactive)
REMARK    1  A    between atoms: C4_4  and  C8_8 
ROOT
HETATM    1  C5  UNL     1     -34.829  15.909  -4.348  1.00 20.00     0.002 C 
HETATM    2  C6  UNL     1     -33.848  16.469  -3.314  1.00 20.00     0.011 C 
HETATM    3  C7  UNL     1     -36.216  15.992  -3.713  1.00 20.00     0.021 C 
HETATM    4  C8  UNL     1     -34.657  16.625  -2.014  1.00 20.00     0.037 C 
HETATM    5  C9  UNL     1     -36.069  16.957  -2.539  1.00 20.00     0.090 C 
HETATM    6 CL11 UNL     1     -36.208  18.647  -3.119  1.00 20.00    -0.124 Cl
ENDROOT
BRANCH   4   7
HETATM    7  C4  UNL     1     -34.099  17.547  -0.949  1.00 20.00    -0.046 A 
HETATM    8  C1  UNL     1     -34.799  17.903   0.240  1.00 20.00     0.015 A 
HETATM    9  C2  UNL     1     -34.067  18.756   1.036  1.00 20.00     0.050 A 
HETATM   10  S10 UNL     1     -32.542  19.123   0.350  1.00 20.00    -0.113 SA
HETATM   11  C3  UNL     1     -32.858  18.141  -1.016  1.00 20.00     0.057 A 
ENDBRANCH   4   7
TORSDOF 1
ENDMDL
