MODEL 1
REMARK VINA RESULT:      -4.7      0.000      0.000
REMARK  2 active torsions:
REMARK  status: ('A' for Active; 'I' for Inactive)
REMARK    1  A    between atoms: C8_8  and  C10_10 
REMARK    2  A    between atoms: C10_10  and  C11_11 
ROOT
HETATM    1  C1  UNL     1     -37.175  14.414  -5.462  1.00 20.00     0.064 C 
HETATM    2  C2  UNL     1     -34.084  14.129  -4.567  1.00 20.00     0.002 C 
HETATM    3  C3  UNL     1     -34.778  13.987  -5.925  1.00 20.00     0.019 C 
HETATM    4  C4  UNL     1     -35.732  16.397  -5.900  1.00 20.00     0.019 C 
HETATM    5  C5  UNL     1     -33.274  15.419  -4.456  1.00 20.00     0.005 C 
HETATM    6  C6  UNL     1     -35.501  16.758  -4.431  1.00 20.00     0.006 C 
HETATM    7  C7  UNL     1     -35.979  14.905  -6.178  1.00 20.00     0.093 C 
HETATM    8  C8  UNL     1     -34.049  16.643  -3.948  1.00 20.00    -0.014 C 
HETATM    9  N12 UNL     1     -38.113  14.028  -4.899  1.00 20.00    -0.197 NA
ENDROOT
BRANCH   8  10
HETATM   10  C10 UNL     1     -34.015  16.710  -2.417  1.00 20.00     0.004 C 
BRANCH  10  11
HETATM   11  C11 UNL     1     -35.423  16.693  -1.838  1.00 20.00    -0.004 C 
HETATM   12  C9  UNL     1     -35.474  17.424  -0.506  1.00 20.00     0.005 C 
ENDBRANCH  10  11
ENDBRANCH   8  10
TORSDOF 2
ENDMDL
MODEL 2
REMARK VINA RESULT:      -4.7      1.230      1.385
REMARK  2 active torsions:
REMARK  status: ('A' for Active; 'I' for Inactive)
REMARK    1  A    between atoms: C8_8  and  C10_10 
REMARK    2  A    between atoms: C10_10  and  C11_11 
ROOT
HETATM    1  C1  UNL     1     -35.706  13.910  -5.703  1.00 20.00     0.064 C 
HETATM    2  C2  UNL     1     -33.139  15.785  -5.134  1.00 20.00     0.002 C 
HETATM    3  C3  UNL     1     -33.961  15.526  -6.399  1.00 20.00     0.019 C 
HETATM    4  C4  UNL     1     -36.188  16.327  -5.342  1.00 20.00     0.019 C 
HETATM    5  C5  UNL     1     -33.408  17.163  -4.533  1.00 20.00     0.005 C 
HETATM    6  C6  UNL     1     -35.786  16.354  -3.865  1.00 20.00     0.006 C 
HETATM    7  C7  UNL     1     -35.461  15.279  -6.201  1.00 20.00     0.093 C 
HETATM    8  C8  UNL     1     -34.571  17.232  -3.534  1.00 20.00    -0.014 C 
HETATM    9  N12 UNL     1     -35.898  12.835  -5.312  1.00 20.00    -0.197 NA
ENDROOT
BRANCH   8  10
HETATM   10  C10 UNL     1     -34.087  16.913  -2.114  1.00 20.00     0.004 C 
BRANCH  10  11
HETATM   11  C11 UNL     1     -35.245  16.922  -1.127  1.00 20.00    -0.004 C 
HETATM   12  C9  UNL     1     -34.952  17.840   0.050  1.00 20.00     0.005 C 
ENDBRANCH  10  11
ENDBRANCH   8  10
TORSDOF 2
ENDMDL
MODEL 3
REMARK VINA RESULT:      -4.7     10.457     11.668
REMARK  2 active torsions:
REMARK  status: ('A' for Active; 'I' for Inactive)
REMARK    1  A    between atoms: C8_8  and  C10_10 
REMARK    2  A    between atoms: C10_10  and  C11_11 
ROOT
HETATM    1  C1  UNL     1     -35.424   5.905   3.754  1.00 20.00     0.064 C 
HETATM    2  C2  UNL     1     -33.290   8.023   4.934  1.00 20.00     0.002 C 
HETATM    3  C3  UNL     1     -33.652   6.593   5.344  1.00 20.00     0.019 C 
HETATM    4  C4  UNL     1     -33.062   5.581   3.032  1.00 20.00     0.019 C 
HETATM    5  C5  UNL     1     -31.936   8.106   4.233  1.00 20.00     0.005 C 
HETATM    6  C6  UNL     1     -32.969   6.861   2.198  1.00 20.00     0.006 C 
HETATM    7  C7  UNL     1     -34.046   5.636   4.213  1.00 20.00     0.093 C 
HETATM    8  C8  UNL     1     -31.968   7.905   2.711  1.00 20.00    -0.014 C 
HETATM    9  N12 UNL     1     -36.506   6.117   3.394  1.00 20.00    -0.197 NA
ENDROOT
BRANCH   8  10
HETATM   10  C10 UNL     1     -32.212   9.238   1.993  1.00 20.00     0.004 C 
BRANCH  10  11
HETATM   11  C11 UNL     1     -31.880   9.129   0.511  1.00 20.00    -0.004 C 
HETATM   12  C9  UNL     1     -33.084   9.491  -0.345  1.00 20.00     0.005 C 
ENDBRANCH  10  11
ENDBRANCH   8  10
TORSDOF 2
ENDMDL
MODEL 4
REMARK VINA RESULT:      -4.4      1.548      1.994
REMARK  2 active torsions:
REMARK  status: ('A' for Active; 'I' for Inactive)
REMARK    1  A    between atoms: C8_8  and  C10_10 
REMARK    2  A    between atoms: C10_10  and  C11_11 
ROOT
HETATM    1  C1  UNL     1     -36.500  14.842  -7.582  1.00 20.00     0.064 C 
HETATM    2  C2  UNL     1     -35.407  14.115  -4.631  1.00 20.00     0.002 C 
HETATM    3  C3  UNL     1     -35.535  13.286  -5.911  1.00 20.00     0.019 C 
HETATM    4  C4  UNL     1     -34.024  14.863  -7.306  1.00 20.00     0.019 C 
HETATM    5  C5  UNL     1     -33.960  14.488  -4.317  1.00 20.00     0.005 C 
HETATM    6  C6  UNL     1     -33.975  16.077  -6.374  1.00 20.00     0.006 C 
HETATM    7  C7  UNL     1     -35.315  14.031  -7.233  1.00 20.00     0.093 C 
HETATM    8  C8  UNL     1     -33.461  15.791  -4.956  1.00 20.00    -0.014 C 
HETATM    9  N12 UNL     1     -37.431  15.478  -7.855  1.00 20.00    -0.197 NA
ENDROOT
BRANCH   8  10
HETATM   10  C10 UNL     1     -33.770  16.992  -4.053  1.00 20.00     0.004 C 
BRANCH  10  11
HETATM   11  C11 UNL     1     -33.640  16.617  -2.583  1.00 20.00    -0.004 C 
HETATM   12  C9  UNL     1     -34.934  16.894  -1.833  1.00 20.00     0.005 C 
ENDBRANCH  10  11
ENDBRANCH   8  10
TORSDOF 2
ENDMDL
MODEL 5
REMARK VINA RESULT:      -4.4      1.776      2.705
REMARK  2 active torsions:
REMARK  status: ('A' for Active; 'I' for Inactive)
REMARK    1  A    between atoms: C8_8  and  C10_10 
REMARK    2  A    between atoms: C10_10  and  C11_11 
ROOT
HETATM    1  C1  UNL     1     -34.611  14.522  -6.575  1.00 20.00     0.064 C 
HETATM    2  C2  UNL     1     -36.367  16.338  -4.562  1.00 20.00     0.002 C 
HETATM    3  C3  UNL     1     -36.569  14.922  -5.108  1.00 20.00     0.019 C 
HETATM    4  C4  UNL     1     -34.331  14.032  -4.148  1.00 20.00     0.019 C 
HETATM    5  C5  UNL     1     -35.950  16.345  -3.093  1.00 20.00     0.005 C 
HETATM    6  C6  UNL     1     -33.650  15.356  -3.792  1.00 20.00     0.006 C 
HETATM    7  C7  UNL     1     -35.300  14.092  -5.340  1.00 20.00     0.093 C 
HETATM    8  C8  UNL     1     -34.439  16.261  -2.836  1.00 20.00    -0.014 C 
HETATM    9  N12 UNL     1     -34.070  14.860  -7.543  1.00 20.00    -0.197 NA
ENDROOT
BRANCH   8  10
HETATM   10  C10 UNL     1     -33.811  17.661  -2.828  1.00 20.00     0.004 C 
BRANCH  10  11
HETATM   11  C11 UNL     1     -32.994  17.886  -1.563  1.00 20.00    -0.004 C 
HETATM   12  C9  UNL     1     -33.898  18.079  -0.356  1.00 20.00     0.005 C 
ENDBRANCH  10  11
ENDBRANCH   8  10
TORSDOF 2
ENDMDL
MODEL 6
REMARK VINA RESULT:      -4.4      3.056      5.413
REMARK  2 active torsions:
REMARK  status: ('A' for Active; 'I' for Inactive)
REMARK    1  A    between atoms: C8_8  and  C10_10 
REMARK    2  A    between atoms: C10_10  and  C11_11 
ROOT
HETATM    1  C1  UNL     1     -32.332  18.556  -0.890  1.00 20.00     0.064 C 
HETATM    2  C2  UNL     1     -35.119  16.926  -0.996  1.00 20.00     0.002 C 
HETATM    3  C3  UNL     1     -34.797  18.391  -0.690  1.00 20.00     0.019 C 
HETATM    4  C4  UNL     1     -33.662  18.815  -2.981  1.00 20.00     0.019 C 
HETATM    5  C5  UNL     1     -35.762  16.741  -2.368  1.00 20.00     0.005 C 
HETATM    6  C6  UNL     1     -33.490  17.372  -3.463  1.00 20.00     0.006 C 
HETATM    7  C7  UNL     1     -33.621  19.007  -1.456  1.00 20.00     0.093 C 
HETATM    8  C8  UNL     1     -34.783  16.548  -3.535  1.00 20.00    -0.014 C 
HETATM    9  N12 UNL     1     -31.322  18.201  -0.446  1.00 20.00    -0.197 NA
ENDROOT
BRANCH   8  10
HETATM   10  C10 UNL     1     -34.431  15.065  -3.708  1.00 20.00     0.004 C 
BRANCH  10  11
HETATM   11  C11 UNL     1     -34.737  14.592  -5.122  1.00 20.00    -0.004 C 
HETATM   12  C9  UNL     1     -35.854  13.561  -5.123  1.00 20.00     0.005 C 
ENDBRANCH  10  11
ENDBRANCH   8  10
TORSDOF 2
ENDMDL
MODEL 7
REMARK VINA RESULT:      -4.3      0.989      1.259
REMARK  2 active torsions:
REMARK  status: ('A' for Active; 'I' for Inactive)
REMARK    1  A    between atoms: C8_8  and  C10_10 
REMARK    2  A    between atoms: C10_10  and  C11_11 
ROOT
HETATM    1  C1  UNL     1     -37.517  14.391  -5.868  1.00 20.00     0.064 C 
HETATM    2  C2  UNL     1     -34.302  14.187  -6.100  1.00 20.00     0.002 C 
HETATM    3  C3  UNL     1     -35.413  14.113  -7.149  1.00 20.00     0.019 C 
HETATM    4  C4  UNL     1     -36.348  16.467  -6.599  1.00 20.00     0.019 C 
HETATM    5  C5  UNL     1     -33.527  15.502  -6.160  1.00 20.00     0.005 C 
HETATM    6  C6  UNL     1     -35.638  16.730  -5.269  1.00 20.00     0.006 C 
HETATM    7  C7  UNL     1     -36.647  14.989  -6.902  1.00 20.00     0.093 C 
HETATM    8  C8  UNL     1     -34.105  16.648  -5.319  1.00 20.00    -0.014 C 
HETATM    9  N12 UNL     1     -38.199  13.922  -5.056  1.00 20.00    -0.197 NA
ENDROOT
BRANCH   8  10
HETATM   10  C10 UNL     1     -33.553  16.605  -3.889  1.00 20.00     0.004 C 
BRANCH  10  11
HETATM   11  C11 UNL     1     -34.596  16.074  -2.916  1.00 20.00    -0.004 C 
HETATM   12  C9  UNL     1     -34.594  16.875  -1.623  1.00 20.00     0.005 C 
ENDBRANCH  10  11
ENDBRANCH   8  10
TORSDOF 2
ENDMDL
MODEL 8
REMARK VINA RESULT:      -4.3      1.933      3.120
REMARK  2 active torsions:
REMARK  status: ('A' for Active; 'I' for Inactive)
REMARK    1  A    between atoms: C8_8  and  C10_10 
REMARK    2  A    between atoms: C10_10  and  C11_11 
ROOT
HETATM    1  C1  UNL     1     -36.844  13.892  -5.095  1.00 20.00     0.064 C 
HETATM    2  C2  UNL     1     -34.213  15.579  -4.282  1.00 20.00     0.002 C 
HETATM    3  C3  UNL     1     -34.571  14.098  -4.129  1.00 20.00     0.019 C 
HETATM    4  C4  UNL     1     -34.921  13.728  -6.671  1.00 20.00     0.019 C 
HETATM    5  C5  UNL     1     -33.178  15.821  -5.379  1.00 20.00     0.005 C 
HETATM    6  C6  UNL     1     -34.975  15.182  -7.145  1.00 20.00     0.006 C 
HETATM    7  C7  UNL     1     -35.431  13.485  -5.241  1.00 20.00     0.093 C 
HETATM    8  C8  UNL     1     -33.749  16.034  -6.788  1.00 20.00    -0.014 C 
HETATM    9  N12 UNL     1     -37.953  14.212  -4.981  1.00 20.00    -0.197 NA
ENDROOT
BRANCH   8  10
HETATM   10  C10 UNL     1     -34.072  17.514  -7.025  1.00 20.00     0.004 C 
BRANCH  10  11
HETATM   11  C11 UNL     1     -35.575  17.751  -7.031  1.00 20.00    -0.004 C 
HETATM   12  C9  UNL     1     -36.010  18.526  -5.797  1.00 20.00     0.005 C 
ENDBRANCH  10  11
ENDBRANCH   8  10
TORSDOF 2
ENDMDL
MODEL 9
REMARK VINA RESULT:      -4.2      1.825      3.912
REMARK  2 active torsions:
REMARK  status: ('A' for Active; 'I' for Inactive)
REMARK    1  A    between atoms: C8_8  and  C10_10 
REMARK    2  A    between atoms: C10_10  and  C11_11 
ROOT
HETATM    1  C1  UNL     1     -35.198  13.703  -4.671  1.00 20.00     0.064 C 
HETATM    2  C2  UNL     1     -35.577  16.878  -4.216  1.00 20.00     0.002 C 
HETATM    3  C3  UNL     1     -35.105  15.757  -3.287  1.00 20.00     0.019 C 
HETATM    4  C4  UNL     1     -33.122  15.074  -4.810  1.00 20.00     0.019 C 
HETATM    5  C5  UNL     1     -34.434  17.784  -4.668  1.00 20.00     0.005 C 
HETATM    6  C6  UNL     1     -33.505  15.818  -6.092  1.00 20.00     0.006 C 
HETATM    7  C7  UNL     1     -34.304  14.622  -3.936  1.00 20.00     0.093 C 
HETATM    8  C8  UNL     1     -33.698  17.333  -5.937  1.00 20.00    -0.014 C 
HETATM    9  N12 UNL     1     -35.900  12.982  -5.247  1.00 20.00    -0.197 NA
ENDROOT
BRANCH   8  10
HETATM   10  C10 UNL     1     -34.385  17.888  -7.191  1.00 20.00     0.004 C 
BRANCH  10  11
HETATM   11  C11 UNL     1     -35.183  16.804  -7.902  1.00 20.00    -0.004 C 
HETATM   12  C9  UNL     1     -36.677  17.052  -7.772  1.00 20.00     0.005 C 
ENDBRANCH  10  11
ENDBRANCH   8  10
TORSDOF 2
ENDMDL
