MODEL 1
REMARK VINA RESULT:      -4.8      0.000      0.000
REMARK  1 active torsions:
REMARK  status: ('A' for Active; 'I' for Inactive)
REMARK    1  A    between atoms: C7_7  and  C10_10 
ROOT
HETATM    1  C1  UNL     1     -32.468   8.015   4.763  1.00 20.00     0.004 C 
HETATM    2  C2  UNL     1     -32.603   8.748   3.429  1.00 20.00     0.005 C 
HETATM    3  C3  UNL     1     -32.908   6.699   1.888  1.00 20.00     0.007 C 
HETATM    4  C4  UNL     1     -33.655   7.123   5.110  1.00 20.00     0.040 C 
HETATM    5  C5  UNL     1     -33.052   5.693   3.028  1.00 20.00     0.040 C 
HETATM    6  C6  UNL     1     -35.538   5.974   3.731  1.00 20.00     0.207 A 
HETATM    7  C7  UNL     1     -32.071   7.942   2.231  1.00 20.00    -0.015 C 
HETATM    8  C8  UNL     1     -34.063   6.143   4.044  1.00 20.00     0.082 A 
HETATM    9  O11 UNL     1     -34.846   5.056   4.576  1.00 20.00    -0.375 OA
ENDROOT
BRANCH   7  10
HETATM   10  C10 UNL     1     -31.987   8.850   0.999  1.00 20.00     0.000 C 
HETATM   11  C9  UNL     1     -32.695  10.143   1.223  1.00 20.00     0.005 C 
ENDBRANCH   7  10
TORSDOF 1
ENDMDL
MODEL 2
REMARK VINA RESULT:      -4.6     10.206     11.378
REMARK  1 active torsions:
REMARK  status: ('A' for Active; 'I' for Inactive)
REMARK    1  A    between atoms: C7_7  and  C10_10 
ROOT
HETATM    1  C1  UNL     1     -36.810  15.557  -3.923  1.00 20.00     0.004 C 
HETATM    2  C2  UNL     1     -35.739  16.647  -3.934  1.00 20.00     0.005 C 
HETATM    3  C3  UNL     1     -33.646  15.136  -3.891  1.00 20.00     0.007 C 
HETATM    4  C4  UNL     1     -36.710  14.568  -5.080  1.00 20.00     0.040 C 
HETATM    5  C5  UNL     1     -34.415  13.834  -4.111  1.00 20.00     0.040 C 
HETATM    6  C6  UNL     1     -34.800  13.824  -6.682  1.00 20.00     0.207 A 
HETATM    7  C7  UNL     1     -34.451  16.246  -3.195  1.00 20.00    -0.015 C 
HETATM    8  C8  UNL     1     -35.359  13.936  -5.276  1.00 20.00     0.082 A 
HETATM    9  O11 UNL     1     -35.436  12.717  -6.042  1.00 20.00    -0.375 OA
ENDROOT
BRANCH   7  10
HETATM   10  C10 UNL     1     -33.557  17.479  -3.016  1.00 20.00     0.000 C 
HETATM   11  C9  UNL     1     -33.175  17.673  -1.587  1.00 20.00     0.005 C 
ENDBRANCH   7  10
TORSDOF 1
ENDMDL
MODEL 3
REMARK VINA RESULT:      -4.5     10.583     12.330
REMARK  1 active torsions:
REMARK  status: ('A' for Active; 'I' for Inactive)
REMARK    1  A    between atoms: C7_7  and  C10_10 
ROOT
HETATM    1  C1  UNL     1     -33.138  15.291  -4.805  1.00 20.00     0.004 C 
HETATM    2  C2  UNL     1     -33.596  16.487  -5.640  1.00 20.00     0.005 C 
HETATM    3  C3  UNL     1     -34.715  15.202  -7.580  1.00 20.00     0.007 C 
HETATM    4  C4  UNL     1     -34.265  14.352  -4.387  1.00 20.00     0.040 C 
HETATM    5  C5  UNL     1     -34.624  13.834  -6.906  1.00 20.00     0.040 C 
HETATM    6  C6  UNL     1     -36.656  13.858  -5.285  1.00 20.00     0.207 A 
HETATM    7  C7  UNL     1     -33.628  16.201  -7.151  1.00 20.00    -0.015 C 
HETATM    8  C8  UNL     1     -35.154  13.870  -5.500  1.00 20.00     0.082 A 
HETATM    9  O11 UNL     1     -35.873  12.673  -5.142  1.00 20.00    -0.375 OA
ENDROOT
BRANCH   7  10
HETATM   10  C10 UNL     1     -33.820  17.515  -7.918  1.00 20.00     0.000 C 
HETATM   11  C9  UNL     1     -34.237  18.622  -7.009  1.00 20.00     0.005 C 
ENDBRANCH   7  10
TORSDOF 1
ENDMDL
MODEL 4
REMARK VINA RESULT:      -4.4      1.254      2.404
REMARK  1 active torsions:
REMARK  status: ('A' for Active; 'I' for Inactive)
REMARK    1  A    between atoms: C7_7  and  C10_10 
ROOT
HETATM    1  C1  UNL     1     -33.095   4.693   2.404  1.00 20.00     0.004 C 
HETATM    2  C2  UNL     1     -32.242   5.936   2.659  1.00 20.00     0.005 C 
HETATM    3  C3  UNL     1     -34.042   7.420   3.767  1.00 20.00     0.007 C 
HETATM    4  C4  UNL     1     -33.730   4.101   3.658  1.00 20.00     0.040 C 
HETATM    5  C5  UNL     1     -35.082   6.307   3.883  1.00 20.00     0.040 C 
HETATM    6  C6  UNL     1     -34.321   5.029   6.015  1.00 20.00     0.207 A 
HETATM    7  C7  UNL     1     -33.044   7.247   2.610  1.00 20.00    -0.015 C 
HETATM    8  C8  UNL     1     -34.505   5.068   4.510  1.00 20.00     0.082 A 
HETATM    9  O11 UNL     1     -35.435   4.399   5.384  1.00 20.00    -0.375 OA
ENDROOT
BRANCH   7  10
HETATM   10  C10 UNL     1     -32.080   8.438   2.594  1.00 20.00     0.000 C 
HETATM   11  C9  UNL     1     -32.139   9.173   1.297  1.00 20.00     0.005 C 
ENDBRANCH   7  10
TORSDOF 1
ENDMDL
MODEL 5
REMARK VINA RESULT:      -4.3      2.174      4.465
REMARK  1 active torsions:
REMARK  status: ('A' for Active; 'I' for Inactive)
REMARK    1  A    between atoms: C7_7  and  C10_10 
ROOT
HETATM    1  C1  UNL     1     -33.312   6.236   2.180  1.00 20.00     0.004 C 
HETATM    2  C2  UNL     1     -34.012   6.676   3.465  1.00 20.00     0.005 C 
HETATM    3  C3  UNL     1     -32.255   8.371   4.306  1.00 20.00     0.007 C 
HETATM    4  C4  UNL     1     -33.005   7.375   1.212  1.00 20.00     0.040 C 
HETATM    5  C5  UNL     1     -31.421   8.346   3.026  1.00 20.00     0.040 C 
HETATM    6  C6  UNL     1     -32.731   9.950   1.455  1.00 20.00     0.207 A 
HETATM    7  C7  UNL     1     -33.038   7.078   4.586  1.00 20.00    -0.015 C 
HETATM    8  C8  UNL     1     -32.270   8.547   1.803  1.00 20.00     0.082 A 
HETATM    9  O11 UNL     1     -31.620   9.345   0.794  1.00 20.00    -0.375 OA
ENDROOT
BRANCH   7  10
HETATM   10  C10 UNL     1     -33.807   7.230   5.904  1.00 20.00     0.000 C 
HETATM   11  C9  UNL     1     -34.719   6.074   6.140  1.00 20.00     0.005 C 
ENDBRANCH   7  10
TORSDOF 1
ENDMDL
MODEL 6
REMARK VINA RESULT:      -4.3     10.993     11.917
REMARK  1 active torsions:
REMARK  status: ('A' for Active; 'I' for Inactive)
REMARK    1  A    between atoms: C7_7  and  C10_10 
ROOT
HETATM    1  C1  UNL     1     -36.697  15.393  -4.182  1.00 20.00     0.004 C 
HETATM    2  C2  UNL     1     -36.142  16.579  -3.395  1.00 20.00     0.005 C 
HETATM    3  C3  UNL     1     -33.652  15.897  -3.366  1.00 20.00     0.007 C 
HETATM    4  C4  UNL     1     -36.067  15.206  -5.559  1.00 20.00     0.040 C 
HETATM    5  C5  UNL     1     -33.818  14.739  -4.348  1.00 20.00     0.040 C 
HETATM    6  C6  UNL     1     -33.825  15.939  -6.654  1.00 20.00     0.207 A 
HETATM    7  C7  UNL     1     -34.910  16.226  -2.544  1.00 20.00    -0.015 C 
HETATM    8  C8  UNL     1     -34.564  15.159  -5.583  1.00 20.00     0.082 A 
HETATM    9  O11 UNL     1     -34.059  14.537  -6.781  1.00 20.00    -0.375 OA
ENDROOT
BRANCH   7  10
HETATM   10  C10 UNL     1     -34.598  17.383  -1.588  1.00 20.00     0.000 C 
HETATM   11  C9  UNL     1     -33.141  17.702  -1.572  1.00 20.00     0.005 C 
ENDBRANCH   7  10
TORSDOF 1
ENDMDL
MODEL 7
REMARK VINA RESULT:      -4.3     10.987     11.756
REMARK  1 active torsions:
REMARK  status: ('A' for Active; 'I' for Inactive)
REMARK    1  A    between atoms: C7_7  and  C10_10 
ROOT
HETATM    1  C1  UNL     1     -33.369  16.142  -4.817  1.00 20.00     0.004 C 
HETATM    2  C2  UNL     1     -33.717  16.049  -3.332  1.00 20.00     0.005 C 
HETATM    3  C3  UNL     1     -36.291  16.082  -3.532  1.00 20.00     0.007 C 
HETATM    4  C4  UNL     1     -33.960  15.023  -5.670  1.00 20.00     0.040 C 
HETATM    5  C5  UNL     1     -36.310  15.942  -5.053  1.00 20.00     0.040 C 
HETATM    6  C6  UNL     1     -35.965  13.388  -5.398  1.00 20.00     0.207 A 
HETATM    7  C7  UNL     1     -35.032  16.759  -2.966  1.00 20.00    -0.015 C 
HETATM    8  C8  UNL     1     -35.441  14.807  -5.519  1.00 20.00     0.082 A 
HETATM    9  O11 UNL     1     -36.003  14.094  -6.638  1.00 20.00    -0.375 OA
ENDROOT
BRANCH   7  10
HETATM   10  C10 UNL     1     -35.155  16.858  -1.442  1.00 20.00     0.000 C 
HETATM   11  C9  UNL     1     -34.074  17.706  -0.860  1.00 20.00     0.005 C 
ENDBRANCH   7  10
TORSDOF 1
ENDMDL
MODEL 8
REMARK VINA RESULT:      -4.0     10.955     12.498
REMARK  1 active torsions:
REMARK  status: ('A' for Active; 'I' for Inactive)
REMARK    1  A    between atoms: C7_7  and  C10_10 
ROOT
HETATM    1  C1  UNL     1     -35.283  13.533  -7.099  1.00 20.00     0.004 C 
HETATM    2  C2  UNL     1     -36.595  14.245  -6.769  1.00 20.00     0.005 C 
HETATM    3  C3  UNL     1     -36.072  14.910  -4.329  1.00 20.00     0.007 C 
HETATM    4  C4  UNL     1     -34.039  14.397  -6.923  1.00 20.00     0.040 C 
HETATM    5  C5  UNL     1     -34.602  14.501  -4.390  1.00 20.00     0.040 C 
HETATM    6  C6  UNL     1     -33.486  16.539  -5.554  1.00 20.00     0.207 A 
HETATM    7  C7  UNL     1     -36.993  14.136  -5.287  1.00 20.00    -0.015 C 
HETATM    8  C8  UNL     1     -33.910  15.083  -5.591  1.00 20.00     0.082 A 
HETATM    9  O11 UNL     1     -32.554  15.485  -5.315  1.00 20.00    -0.375 OA
ENDROOT
BRANCH   7  10
HETATM   10  C10 UNL     1     -38.434  14.626  -5.106  1.00 20.00     0.000 C 
HETATM   11  C9  UNL     1     -38.818  15.601  -6.168  1.00 20.00     0.005 C 
ENDBRANCH   7  10
TORSDOF 1
ENDMDL
MODEL 9
REMARK VINA RESULT:      -4.0     10.735     12.019
REMARK  1 active torsions:
REMARK  status: ('A' for Active; 'I' for Inactive)
REMARK    1  A    between atoms: C7_7  and  C10_10 
ROOT
HETATM    1  C1  UNL     1     -33.680  18.276  -4.565  1.00 20.00     0.004 C 
HETATM    2  C2  UNL     1     -33.201  18.309  -3.114  1.00 20.00     0.005 C 
HETATM    3  C3  UNL     1     -34.711  16.443  -2.163  1.00 20.00     0.007 C 
HETATM    4  C4  UNL     1     -33.526  16.918  -5.244  1.00 20.00     0.040 C 
HETATM    5  C5  UNL     1     -35.233  15.985  -3.524  1.00 20.00     0.040 C 
HETATM    6  C6  UNL     1     -33.310  14.469  -4.396  1.00 20.00     0.207 A 
HETATM    7  C7  UNL     1     -34.292  17.921  -2.101  1.00 20.00    -0.015 C 
HETATM    8  C8  UNL     1     -34.114  15.752  -4.500  1.00 20.00     0.082 A 
HETATM    9  O11 UNL     1     -34.350  14.620  -5.362  1.00 20.00    -0.375 OA
ENDROOT
BRANCH   7  10
HETATM   10  C10 UNL     1     -33.815  18.251  -0.682  1.00 20.00     0.000 C 
HETATM   11  C9  UNL     1     -32.336  18.433  -0.631  1.00 20.00     0.005 C 
ENDBRANCH   7  10
TORSDOF 1
ENDMDL
