MODEL 1
REMARK VINA RESULT:      -4.9      0.000      0.000
REMARK  0 active torsions:
REMARK  status: ('A' for Active; 'I' for Inactive)
ROOT
HETATM    1  C1  UNL     1     -32.953  14.904  -4.482  1.00 20.00     0.004 C 
HETATM    2  C2  UNL     1     -33.979  13.807  -4.204  1.00 20.00     0.040 C 
HETATM    3  C3  UNL     1     -36.203  15.154  -4.304  1.00 20.00     0.041 C 
HETATM    4  C4  UNL     1     -33.505  16.322  -4.643  1.00 20.00     0.009 C 
HETATM    5  C5  UNL     1     -35.598  15.944  -3.139  1.00 20.00     0.012 C 
HETATM    6  C6  UNL     1     -35.522  13.614  -6.287  1.00 20.00     0.207 A 
HETATM    7  C7  UNL     1     -35.307  14.068  -4.857  1.00 20.00     0.082 A 
HETATM    8  C8  UNL     1     -34.404  16.866  -3.505  1.00 20.00    -0.048 C 
HETATM    9  C9  UNL     1     -33.559  17.102  -2.237  1.00 20.00     0.015 C 
HETATM   10  C10 UNL     1     -34.954  18.235  -3.965  1.00 20.00     0.015 C 
HETATM   11  O11 UNL     1     -36.023  12.861  -5.178  1.00 20.00    -0.375 OA
ENDROOT
TORSDOF 0
ENDMDL
MODEL 2
REMARK VINA RESULT:      -4.7     10.467     11.865
REMARK  0 active torsions:
REMARK  status: ('A' for Active; 'I' for Inactive)
ROOT
HETATM    1  C1  UNL     1     -32.755   8.014   4.912  1.00 20.00     0.004 C 
HETATM    2  C2  UNL     1     -31.723   7.842   3.798  1.00 20.00     0.040 C 
HETATM    3  C3  UNL     1     -33.166   6.738   1.935  1.00 20.00     0.041 C 
HETATM    4  C4  UNL     1     -34.155   7.466   4.627  1.00 20.00     0.009 C 
HETATM    5  C5  UNL     1     -33.367   5.622   2.965  1.00 20.00     0.012 C 
HETATM    6  C6  UNL     1     -32.511   9.250   1.760  1.00 20.00     0.207 A 
HETATM    7  C7  UNL     1     -32.330   7.899   2.425  1.00 20.00     0.082 A 
HETATM    8  C8  UNL     1     -34.261   5.988   4.181  1.00 20.00    -0.048 C 
HETATM    9  C9  UNL     1     -33.896   5.057   5.355  1.00 20.00     0.015 C 
HETATM   10  C10 UNL     1     -35.738   5.721   3.810  1.00 20.00     0.015 C 
HETATM   11  O11 UNL     1     -31.416   8.391   1.426  1.00 20.00    -0.375 OA
ENDROOT
TORSDOF 0
ENDMDL
MODEL 3
REMARK VINA RESULT:      -4.5      1.550      2.289
REMARK  0 active torsions:
REMARK  status: ('A' for Active; 'I' for Inactive)
ROOT
HETATM    1  C1  UNL     1     -34.896  13.801  -6.436  1.00 20.00     0.004 C 
HETATM    2  C2  UNL     1     -36.026  13.360  -5.507  1.00 20.00     0.040 C 
HETATM    3  C3  UNL     1     -36.364  15.503  -4.068  1.00 20.00     0.041 C 
HETATM    4  C4  UNL     1     -34.330  15.202  -6.196  1.00 20.00     0.009 C 
HETATM    5  C5  UNL     1     -34.907  15.271  -3.657  1.00 20.00     0.012 C 
HETATM    6  C6  UNL     1     -38.066  14.911  -5.946  1.00 20.00     0.207 A 
HETATM    7  C7  UNL     1     -36.900  14.501  -5.067  1.00 20.00     0.082 A 
HETATM    8  C8  UNL     1     -33.850  15.537  -4.763  1.00 20.00    -0.048 C 
HETATM    9  C9  UNL     1     -32.580  14.728  -4.432  1.00 20.00     0.015 C 
HETATM   10  C10 UNL     1     -33.472  17.036  -4.740  1.00 20.00     0.015 C 
HETATM   11  O11 UNL     1     -38.253  14.097  -4.784  1.00 20.00    -0.375 OA
ENDROOT
TORSDOF 0
ENDMDL
MODEL 4
REMARK VINA RESULT:      -4.4      1.422      2.065
REMARK  0 active torsions:
REMARK  status: ('A' for Active; 'I' for Inactive)
ROOT
HETATM    1  C1  UNL     1     -35.282  16.871  -5.853  1.00 20.00     0.004 C 
HETATM    2  C2  UNL     1     -34.467  15.670  -6.331  1.00 20.00     0.040 C 
HETATM    3  C3  UNL     1     -34.278  14.281  -4.138  1.00 20.00     0.041 C 
HETATM    4  C4  UNL     1     -35.628  16.904  -4.363  1.00 20.00     0.009 C 
HETATM    5  C5  UNL     1     -33.559  15.520  -3.596  1.00 20.00     0.012 C 
HETATM    6  C6  UNL     1     -35.926  13.543  -6.011  1.00 20.00     0.207 A 
HETATM    7  C7  UNL     1     -34.770  14.415  -5.562  1.00 20.00     0.082 A 
HETATM    8  C8  UNL     1     -34.458  16.764  -3.359  1.00 20.00    -0.048 C 
HETATM    9  C9  UNL     1     -33.573  18.025  -3.406  1.00 20.00     0.015 C 
HETATM   10  C10 UNL     1     -35.072  16.672  -1.944  1.00 20.00     0.015 C 
HETATM   11  O11 UNL     1     -34.571  13.218  -6.338  1.00 20.00    -0.375 OA
ENDROOT
TORSDOF 0
ENDMDL
MODEL 5
REMARK VINA RESULT:      -4.4      1.412      1.857
REMARK  0 active torsions:
REMARK  status: ('A' for Active; 'I' for Inactive)
ROOT
HETATM    1  C1  UNL     1     -33.916  16.340  -6.290  1.00 20.00     0.004 C 
HETATM    2  C2  UNL     1     -33.663  14.851  -6.519  1.00 20.00     0.040 C 
HETATM    3  C3  UNL     1     -35.426  13.786  -4.929  1.00 20.00     0.041 C 
HETATM    4  C4  UNL     1     -34.976  16.693  -5.244  1.00 20.00     0.009 C 
HETATM    5  C5  UNL     1     -34.660  14.528  -3.830  1.00 20.00     0.012 C 
HETATM    6  C6  UNL     1     -35.836  13.815  -7.498  1.00 20.00     0.207 A 
HETATM    7  C7  UNL     1     -34.894  14.011  -6.326  1.00 20.00     0.082 A 
HETATM    8  C8  UNL     1     -34.815  16.074  -3.834  1.00 20.00    -0.048 C 
HETATM    9  C9  UNL     1     -33.593  16.691  -3.126  1.00 20.00     0.015 C 
HETATM   10  C10 UNL     1     -36.072  16.449  -3.018  1.00 20.00     0.015 C 
HETATM   11  O11 UNL     1     -34.887  12.812  -7.123  1.00 20.00    -0.375 OA
ENDROOT
TORSDOF 0
ENDMDL
MODEL 6
REMARK VINA RESULT:      -4.2      2.070      4.130
REMARK  0 active torsions:
REMARK  status: ('A' for Active; 'I' for Inactive)
ROOT
HETATM    1  C1  UNL     1     -36.393  16.353  -3.887  1.00 20.00     0.004 C 
HETATM    2  C2  UNL     1     -35.444  16.263  -2.693  1.00 20.00     0.040 C 
HETATM    3  C3  UNL     1     -33.223  15.570  -3.859  1.00 20.00     0.041 C 
HETATM    4  C4  UNL     1     -35.804  15.972  -5.248  1.00 20.00     0.009 C 
HETATM    5  C5  UNL     1     -34.016  14.335  -4.296  1.00 20.00     0.012 C 
HETATM    6  C6  UNL     1     -33.559  18.017  -3.039  1.00 20.00     0.207 A 
HETATM    7  C7  UNL     1     -34.019  16.573  -3.052  1.00 20.00     0.082 A 
HETATM    8  C8  UNL     1     -35.116  14.590  -5.361  1.00 20.00    -0.048 C 
HETATM    9  C9  UNL     1     -36.170  13.469  -5.256  1.00 20.00     0.015 C 
HETATM   10  C10 UNL     1     -34.478  14.505  -6.766  1.00 20.00     0.015 C 
HETATM   11  O11 UNL     1     -33.270  17.129  -1.955  1.00 20.00    -0.375 OA
ENDROOT
TORSDOF 0
ENDMDL
MODEL 7
REMARK VINA RESULT:      -4.1      2.140      3.901
REMARK  0 active torsions:
REMARK  status: ('A' for Active; 'I' for Inactive)
ROOT
HETATM    1  C1  UNL     1     -35.307  13.903  -4.777  1.00 20.00     0.004 C 
HETATM    2  C2  UNL     1     -34.154  14.412  -3.913  1.00 20.00     0.040 C 
HETATM    3  C3  UNL     1     -33.684  16.726  -5.006  1.00 20.00     0.041 C 
HETATM    4  C4  UNL     1     -35.726  14.801  -5.943  1.00 20.00     0.009 C 
HETATM    5  C5  UNL     1     -33.387  15.901  -6.262  1.00 20.00     0.012 C 
HETATM    6  C6  UNL     1     -34.944  16.589  -2.735  1.00 20.00     0.207 A 
HETATM    7  C7  UNL     1     -34.118  15.911  -3.809  1.00 20.00     0.082 A 
HETATM    8  C8  UNL     1     -34.620  15.239  -6.934  1.00 20.00    -0.048 C 
HETATM    9  C9  UNL     1     -34.139  14.025  -7.754  1.00 20.00     0.015 C 
HETATM   10  C10 UNL     1     -35.254  16.250  -7.917  1.00 20.00     0.015 C 
HETATM   11  O11 UNL     1     -33.539  16.375  -2.575  1.00 20.00    -0.375 OA
ENDROOT
TORSDOF 0
ENDMDL
MODEL 8
REMARK VINA RESULT:      -4.1      1.390      1.717
REMARK  0 active torsions:
REMARK  status: ('A' for Active; 'I' for Inactive)
ROOT
HETATM    1  C1  UNL     1     -34.429  13.861  -4.088  1.00 20.00     0.004 C 
HETATM    2  C2  UNL     1     -35.622  13.751  -5.036  1.00 20.00     0.040 C 
HETATM    3  C3  UNL     1     -35.549  16.069  -6.216  1.00 20.00     0.041 C 
HETATM    4  C4  UNL     1     -33.689  15.200  -4.086  1.00 20.00     0.009 C 
HETATM    5  C5  UNL     1     -35.749  16.624  -4.803  1.00 20.00     0.012 C 
HETATM    6  C6  UNL     1     -34.726  13.942  -7.468  1.00 20.00     0.207 A 
HETATM    7  C7  UNL     1     -35.451  14.562  -6.290  1.00 20.00     0.082 A 
HETATM    8  C8  UNL     1     -34.532  16.477  -3.849  1.00 20.00    -0.048 C 
HETATM    9  C9  UNL     1     -35.043  16.506  -2.394  1.00 20.00     0.015 C 
HETATM   10  C10 UNL     1     -33.597  17.692  -4.043  1.00 20.00     0.015 C 
HETATM   11  O11 UNL     1     -36.154  14.009  -7.418  1.00 20.00    -0.375 OA
ENDROOT
TORSDOF 0
ENDMDL
MODEL 9
REMARK VINA RESULT:      -4.0      2.299      3.756
REMARK  0 active torsions:
REMARK  status: ('A' for Active; 'I' for Inactive)
ROOT
HETATM    1  C1  UNL     1     -36.576  15.979  -7.473  1.00 20.00     0.004 C 
HETATM    2  C2  UNL     1     -37.416  14.804  -6.976  1.00 20.00     0.040 C 
HETATM    3  C3  UNL     1     -36.032  14.026  -4.913  1.00 20.00     0.041 C 
HETATM    4  C4  UNL     1     -35.275  16.249  -6.713  1.00 20.00     0.009 C 
HETATM    5  C5  UNL     1     -34.922  13.787  -5.941  1.00 20.00     0.012 C 
HETATM    6  C6  UNL     1     -38.235  15.370  -4.575  1.00 20.00     0.207 A 
HETATM    7  C7  UNL     1     -37.310  14.594  -5.492  1.00 20.00     0.082 A 
HETATM    8  C8  UNL     1     -34.289  15.067  -6.551  1.00 20.00    -0.048 C 
HETATM    9  C9  UNL     1     -33.673  14.706  -7.918  1.00 20.00     0.015 C 
HETATM   10  C10 UNL     1     -33.143  15.544  -5.630  1.00 20.00     0.015 C 
HETATM   11  O11 UNL     1     -38.493  14.006  -4.920  1.00 20.00    -0.375 OA
ENDROOT
TORSDOF 0
ENDMDL
