MODEL 1
REMARK VINA RESULT:      -4.2      0.000      0.000
REMARK  4 active torsions:
REMARK  status: ('A' for Active; 'I' for Inactive)
REMARK    1  A    between atoms: C5_5  and  C7_7 
REMARK    2  A    between atoms: C5_5  and  O10_10 
REMARK    3  A    between atoms: C6_6  and  C7_7 
REMARK    4  A    between atoms: C7_7  and  N8_8 
ROOT
HETATM    1  C1  UNL     1     -33.491   7.464   5.730  1.00 20.00     0.332 C 
HETATM    2  N8  UNL     1     -32.806   7.785   4.837  1.00 20.00    -0.240 NA
HETATM    3  O9  UNL     1     -34.173   7.147   6.635  1.00 20.00    -0.260 OA
ENDROOT
BRANCH   2   4
HETATM    4  C7  UNL     1     -33.287   7.334   3.521  1.00 20.00     0.139 C 
BRANCH   4   5
HETATM    5  C5  UNL     1     -32.153   7.517   2.513  1.00 20.00     0.194 C 
BRANCH   5   6
HETATM    6  O10 UNL     1     -31.991   8.906   2.243  1.00 20.00    -0.394 OA
HETATM    7  C4  UNL     1     -32.328   9.215   0.899  1.00 20.00     0.201 C 
ENDBRANCH   5   6
ENDBRANCH   4   5
BRANCH   4   8
HETATM    8  C6  UNL     1     -33.779   5.872   3.615  1.00 20.00     0.004 C 
HETATM    9  C2  UNL     1     -33.153   5.007   2.516  1.00 20.00     0.012 C 
HETATM   10  C3  UNL     1     -35.304   5.734   3.580  1.00 20.00     0.012 C 
ENDBRANCH   4   8
ENDBRANCH   2   4
TORSDOF 4
ENDMDL
MODEL 2
REMARK VINA RESULT:      -4.2      2.099      3.022
REMARK  4 active torsions:
REMARK  status: ('A' for Active; 'I' for Inactive)
REMARK    1  A    between atoms: C5_5  and  C7_7 
REMARK    2  A    between atoms: C5_5  and  O10_10 
REMARK    3  A    between atoms: C6_6  and  C7_7 
REMARK    4  A    between atoms: C7_7  and  N8_8 
ROOT
HETATM    1  C1  UNL     1     -33.263   4.838   2.444  1.00 20.00     0.332 C 
HETATM    2  N8  UNL     1     -33.946   5.737   2.754  1.00 20.00    -0.240 NA
HETATM    3  O9  UNL     1     -32.584   3.932   2.124  1.00 20.00    -0.260 OA
ENDROOT
BRANCH   2   4
HETATM    4  C7  UNL     1     -33.344   6.625   3.763  1.00 20.00     0.139 C 
BRANCH   4   5
HETATM    5  C5  UNL     1     -33.149   8.000   3.126  1.00 20.00     0.194 C 
BRANCH   5   6
HETATM    6  O10 UNL     1     -31.858   8.056   2.526  1.00 20.00    -0.394 OA
HETATM    7  C4  UNL     1     -31.886   8.774   1.301  1.00 20.00     0.201 C 
ENDBRANCH   5   6
ENDBRANCH   4   5
BRANCH   4   8
HETATM    8  C6  UNL     1     -34.235   6.666   5.024  1.00 20.00     0.004 C 
HETATM    9  C2  UNL     1     -33.586   7.505   6.130  1.00 20.00     0.012 C 
HETATM   10  C3  UNL     1     -34.596   5.280   5.567  1.00 20.00     0.012 C 
ENDBRANCH   4   8
ENDBRANCH   2   4
TORSDOF 4
ENDMDL
MODEL 3
REMARK VINA RESULT:      -4.2      0.617      1.278
REMARK  4 active torsions:
REMARK  status: ('A' for Active; 'I' for Inactive)
REMARK    1  A    between atoms: C5_5  and  C7_7 
REMARK    2  A    between atoms: C5_5  and  O10_10 
REMARK    3  A    between atoms: C6_6  and  C7_7 
REMARK    4  A    between atoms: C7_7  and  N8_8 
ROOT
HETATM    1  C1  UNL     1     -33.320   7.451   5.372  1.00 20.00     0.332 C 
HETATM    2  N8  UNL     1     -32.630   7.349   4.432  1.00 20.00    -0.240 NA
HETATM    3  O9  UNL     1     -34.004   7.553   6.324  1.00 20.00    -0.260 OA
ENDROOT
BRANCH   2   4
HETATM    4  C7  UNL     1     -33.341   7.483   3.150  1.00 20.00     0.139 C 
BRANCH   4   5
HETATM    5  C5  UNL     1     -32.349   8.004   2.110  1.00 20.00     0.194 C 
BRANCH   5   6
HETATM    6  O10 UNL     1     -32.701   9.338   1.759  1.00 20.00    -0.394 OA
HETATM    7  C4  UNL     1     -32.622   9.543   0.356  1.00 20.00     0.201 C 
ENDBRANCH   5   6
ENDBRANCH   4   5
BRANCH   4   8
HETATM    8  C6  UNL     1     -33.973   6.130   2.756  1.00 20.00     0.004 C 
HETATM    9  C2  UNL     1     -35.181   5.806   3.641  1.00 20.00     0.012 C 
HETATM   10  C3  UNL     1     -32.983   4.961   2.778  1.00 20.00     0.012 C 
ENDBRANCH   4   8
ENDBRANCH   2   4
TORSDOF 4
ENDMDL
MODEL 4
REMARK VINA RESULT:      -4.0      2.125      4.150
REMARK  4 active torsions:
REMARK  status: ('A' for Active; 'I' for Inactive)
REMARK    1  A    between atoms: C5_5  and  C7_7 
REMARK    2  A    between atoms: C5_5  and  O10_10 
REMARK    3  A    between atoms: C6_6  and  C7_7 
REMARK    4  A    between atoms: C7_7  and  N8_8 
ROOT
HETATM    1  C1  UNL     1     -33.357   5.233   2.551  1.00 20.00     0.332 C 
HETATM    2  N8  UNL     1     -34.111   6.129   2.561  1.00 20.00    -0.240 NA
HETATM    3  O9  UNL     1     -32.607   4.327   2.535  1.00 20.00    -0.260 OA
ENDROOT
BRANCH   2   4
HETATM    4  C7  UNL     1     -33.617   7.319   3.272  1.00 20.00     0.139 C 
BRANCH   4   5
HETATM    5  C5  UNL     1     -33.512   6.974   4.757  1.00 20.00     0.194 C 
BRANCH   5   6
HETATM    6  O10 UNL     1     -34.742   6.401   5.189  1.00 20.00    -0.394 OA
HETATM    7  C4  UNL     1     -34.531   5.177   5.876  1.00 20.00     0.201 C 
ENDBRANCH   5   6
ENDBRANCH   4   5
BRANCH   4   8
HETATM    8  C6  UNL     1     -32.273   7.775   2.663  1.00 20.00     0.004 C 
HETATM    9  C2  UNL     1     -31.332   8.317   3.744  1.00 20.00     0.012 C 
HETATM   10  C3  UNL     1     -32.425   8.807   1.541  1.00 20.00     0.012 C 
ENDBRANCH   4   8
ENDBRANCH   2   4
TORSDOF 4
ENDMDL
MODEL 5
REMARK VINA RESULT:      -4.0     11.261     12.083
REMARK  4 active torsions:
REMARK  status: ('A' for Active; 'I' for Inactive)
REMARK    1  A    between atoms: C5_5  and  C7_7 
REMARK    2  A    between atoms: C5_5  and  O10_10 
REMARK    3  A    between atoms: C6_6  and  C7_7 
REMARK    4  A    between atoms: C7_7  and  N8_8 
ROOT
HETATM    1  C1  UNL     1     -35.896  13.862  -4.854  1.00 20.00     0.332 C 
HETATM    2  N8  UNL     1     -35.931  14.973  -4.484  1.00 20.00    -0.240 NA
HETATM    3  O9  UNL     1     -35.872  12.748  -5.228  1.00 20.00    -0.260 OA
ENDROOT
BRANCH   2   4
HETATM    4  C7  UNL     1     -34.631  15.495  -4.033  1.00 20.00     0.139 C 
BRANCH   4   5
HETATM    5  C5  UNL     1     -34.107  16.451  -5.104  1.00 20.00     0.194 C 
BRANCH   5   6
HETATM    6  O10 UNL     1     -33.123  15.780  -5.885  1.00 20.00    -0.394 OA
HETATM    7  C4  UNL     1     -33.586  15.538  -7.206  1.00 20.00     0.201 C 
ENDBRANCH   5   6
ENDBRANCH   4   5
BRANCH   4   8
HETATM    8  C6  UNL     1     -34.785  16.165  -2.650  1.00 20.00     0.004 C 
HETATM    9  C2  UNL     1     -36.073  16.993  -2.578  1.00 20.00     0.012 C 
HETATM   10  C3  UNL     1     -33.587  17.032  -2.250  1.00 20.00     0.012 C 
ENDBRANCH   4   8
ENDBRANCH   2   4
TORSDOF 4
ENDMDL
MODEL 6
REMARK VINA RESULT:      -4.0     11.543     12.058
REMARK  4 active torsions:
REMARK  status: ('A' for Active; 'I' for Inactive)
REMARK    1  A    between atoms: C5_5  and  C7_7 
REMARK    2  A    between atoms: C5_5  and  O10_10 
REMARK    3  A    between atoms: C6_6  and  C7_7 
REMARK    4  A    between atoms: C7_7  and  N8_8 
ROOT
HETATM    1  C1  UNL     1     -37.310  14.735  -4.582  1.00 20.00     0.332 C 
HETATM    2  N8  UNL     1     -36.558  15.541  -4.187  1.00 20.00    -0.240 NA
HETATM    3  O9  UNL     1     -38.075  13.934  -4.978  1.00 20.00    -0.260 OA
ENDROOT
BRANCH   2   4
HETATM    4  C7  UNL     1     -35.163  15.075  -4.120  1.00 20.00     0.139 C 
BRANCH   4   5
HETATM    5  C5  UNL     1     -34.605  15.045  -5.543  1.00 20.00     0.194 C 
BRANCH   5   6
HETATM    6  O10 UNL     1     -34.263  13.704  -5.880  1.00 20.00    -0.394 OA
HETATM    7  C4  UNL     1     -34.704  13.369  -7.187  1.00 20.00     0.201 C 
ENDBRANCH   5   6
ENDBRANCH   4   5
BRANCH   4   8
HETATM    8  C6  UNL     1     -34.350  15.985  -3.173  1.00 20.00     0.004 C 
HETATM    9  C2  UNL     1     -35.247  16.601  -2.094  1.00 20.00     0.012 C 
HETATM   10  C3  UNL     1     -33.575  17.090  -3.898  1.00 20.00     0.012 C 
ENDBRANCH   4   8
ENDBRANCH   2   4
TORSDOF 4
ENDMDL
MODEL 7
REMARK VINA RESULT:      -3.9     11.287     12.190
REMARK  4 active torsions:
REMARK  status: ('A' for Active; 'I' for Inactive)
REMARK    1  A    between atoms: C5_5  and  C7_7 
REMARK    2  A    between atoms: C5_5  and  O10_10 
REMARK    3  A    between atoms: C6_6  and  C7_7 
REMARK    4  A    between atoms: C7_7  and  N8_8 
ROOT
HETATM    1  C1  UNL     1     -35.465  13.027  -6.429  1.00 20.00     0.332 C 
HETATM    2  N8  UNL     1     -35.738  13.216  -5.306  1.00 20.00    -0.240 NA
HETATM    3  O9  UNL     1     -35.194  12.826  -7.556  1.00 20.00    -0.260 OA
ENDROOT
BRANCH   2   4
HETATM    4  C7  UNL     1     -35.626  14.624  -4.892  1.00 20.00     0.139 C 
BRANCH   4   5
HETATM    5  C5  UNL     1     -36.979  15.062  -4.334  1.00 20.00     0.194 C 
BRANCH   5   6
HETATM    6  O10 UNL     1     -37.978  14.138  -4.755  1.00 20.00    -0.394 OA
HETATM    7  C4  UNL     1     -39.083  14.804  -5.347  1.00 20.00     0.201 C 
ENDBRANCH   5   6
ENDBRANCH   4   5
BRANCH   4   8
HETATM    8  C6  UNL     1     -34.474  14.782  -3.874  1.00 20.00     0.004 C 
HETATM    9  C2  UNL     1     -34.677  16.024  -3.000  1.00 20.00     0.012 C 
HETATM   10  C3  UNL     1     -33.085  14.820  -4.519  1.00 20.00     0.012 C 
ENDBRANCH   4   8
ENDBRANCH   2   4
TORSDOF 4
ENDMDL
MODEL 8
REMARK VINA RESULT:      -3.9     11.076     12.407
REMARK  4 active torsions:
REMARK  status: ('A' for Active; 'I' for Inactive)
REMARK    1  A    between atoms: C5_5  and  C7_7 
REMARK    2  A    between atoms: C5_5  and  O10_10 
REMARK    3  A    between atoms: C6_6  and  C7_7 
REMARK    4  A    between atoms: C7_7  and  N8_8 
ROOT
HETATM    1  C1  UNL     1     -33.658  16.768  -6.031  1.00 20.00     0.332 C 
HETATM    2  N8  UNL     1     -33.518  16.757  -4.868  1.00 20.00    -0.240 NA
HETATM    3  O9  UNL     1     -33.790  16.787  -7.200  1.00 20.00    -0.260 OA
ENDROOT
BRANCH   2   4
HETATM    4  C7  UNL     1     -34.376  15.785  -4.172  1.00 20.00     0.139 C 
BRANCH   4   5
HETATM    5  C5  UNL     1     -33.737  14.403  -4.311  1.00 20.00     0.194 C 
BRANCH   5   6
HETATM    6  O10 UNL     1     -34.756  13.411  -4.247  1.00 20.00    -0.394 OA
HETATM    7  C4  UNL     1     -35.808  13.688  -5.159  1.00 20.00     0.201 C 
ENDBRANCH   5   6
ENDBRANCH   4   5
BRANCH   4   8
HETATM    8  C6  UNL     1     -34.569  16.214  -2.700  1.00 20.00     0.004 C 
HETATM    9  C2  UNL     1     -35.951  16.838  -2.484  1.00 20.00     0.012 C 
HETATM   10  C3  UNL     1     -33.482  17.165  -2.191  1.00 20.00     0.012 C 
ENDBRANCH   4   8
ENDBRANCH   2   4
TORSDOF 4
ENDMDL
MODEL 9
REMARK VINA RESULT:      -3.9      1.889      3.540
REMARK  4 active torsions:
REMARK  status: ('A' for Active; 'I' for Inactive)
REMARK    1  A    between atoms: C5_5  and  C7_7 
REMARK    2  A    between atoms: C5_5  and  O10_10 
REMARK    3  A    between atoms: C6_6  and  C7_7 
REMARK    4  A    between atoms: C7_7  and  N8_8 
ROOT
HETATM    1  C1  UNL     1     -32.182   8.412   2.563  1.00 20.00     0.332 C 
HETATM    2  N8  UNL     1     -32.227   7.661   3.460  1.00 20.00    -0.240 NA
HETATM    3  O9  UNL     1     -32.127   9.166   1.661  1.00 20.00    -0.260 OA
ENDROOT
BRANCH   2   4
HETATM    4  C7  UNL     1     -33.574   7.135   3.734  1.00 20.00     0.139 C 
BRANCH   4   5
HETATM    5  C5  UNL     1     -33.900   6.089   2.669  1.00 20.00     0.194 C 
BRANCH   5   6
HETATM    6  O10 UNL     1     -32.747   5.284   2.440  1.00 20.00    -0.394 OA
HETATM    7  C4  UNL     1     -33.046   3.902   2.565  1.00 20.00     0.201 C 
ENDBRANCH   5   6
ENDBRANCH   4   5
BRANCH   4   8
HETATM    8  C6  UNL     1     -33.635   6.571   5.171  1.00 20.00     0.004 C 
HETATM    9  C2  UNL     1     -34.773   5.554   5.317  1.00 20.00     0.012 C 
HETATM   10  C3  UNL     1     -33.761   7.651   6.250  1.00 20.00     0.012 C 
ENDBRANCH   4   8
ENDBRANCH   2   4
TORSDOF 4
ENDMDL
