MODEL 1
REMARK VINA RESULT:      -4.7      0.000      0.000
REMARK  2 active torsions:
REMARK  status: ('A' for Active; 'I' for Inactive)
REMARK    1  A    between atoms: C4_4  and  C9_9 
REMARK    2  A    between atoms: C5_5  and  S11_11 
ROOT
HETATM    1  C1  UNL     1     -35.358  13.928  -5.085  1.00 20.00     0.080 C 
HETATM    2  C2  UNL     1     -33.817  15.425  -3.717  1.00 20.00     0.041 C 
HETATM    3  C3  UNL     1     -35.641  16.354  -4.365  1.00 20.00     0.041 C 
HETATM    4  C4  UNL     1     -35.024  16.057  -2.973  1.00 20.00    -0.006 C 
HETATM    5  C5  UNL     1     -34.746  15.230  -4.943  1.00 20.00     0.097 C 
HETATM    6  N10 UNL     1     -35.851  12.884  -5.199  1.00 20.00    -0.196 NA
ENDROOT
BRANCH   5   7
HETATM    7  S11 UNL     1     -33.939  15.718  -6.510  1.00 20.00    -0.148 SA
HETATM    8  C8  UNL     1     -35.262  15.224  -7.635  1.00 20.00     0.091 C 
ENDBRANCH   5   7
BRANCH   4   9
HETATM    9  C9  UNL     1     -34.725  17.256  -2.095  1.00 20.00    -0.019 C 
HETATM   10  C6  UNL     1     -35.427  17.131  -0.740  1.00 20.00     0.010 C 
HETATM   11  C7  UNL     1     -33.217  17.425  -1.894  1.00 20.00     0.010 C 
ENDBRANCH   4   9
TORSDOF 2
ENDMDL
MODEL 2
REMARK VINA RESULT:      -4.5     10.915     11.649
REMARK  2 active torsions:
REMARK  status: ('A' for Active; 'I' for Inactive)
REMARK    1  A    between atoms: C4_4  and  C9_9 
REMARK    2  A    between atoms: C5_5  and  S11_11 
ROOT
HETATM    1  C1  UNL     1     -33.633   6.951   4.934  1.00 20.00     0.080 C 
HETATM    2  C2  UNL     1     -32.023   7.403   3.013  1.00 20.00     0.041 C 
HETATM    3  C3  UNL     1     -34.104   7.508   2.495  1.00 20.00     0.041 C 
HETATM    4  C4  UNL     1     -32.937   8.529   2.458  1.00 20.00    -0.006 C 
HETATM    5  C5  UNL     1     -33.300   6.706   3.549  1.00 20.00     0.097 C 
HETATM    6  N10 UNL     1     -33.901   7.148   6.045  1.00 20.00    -0.196 NA
ENDROOT
BRANCH   5   7
HETATM    7  S11 UNL     1     -33.305   4.910   3.210  1.00 20.00    -0.148 SA
HETATM    8  C8  UNL     1     -34.486   4.419   4.484  1.00 20.00     0.091 C 
ENDBRANCH   5   7
BRANCH   4   9
HETATM    9  C9  UNL     1     -32.570   9.090   1.099  1.00 20.00    -0.019 C 
HETATM   10  C6  UNL     1     -32.618  10.621   1.107  1.00 20.00     0.010 C 
HETATM   11  C7  UNL     1     -31.183   8.609   0.664  1.00 20.00     0.010 C 
ENDBRANCH   4   9
TORSDOF 2
ENDMDL
MODEL 3
REMARK VINA RESULT:      -4.4     10.365     11.169
REMARK  2 active torsions:
REMARK  status: ('A' for Active; 'I' for Inactive)
REMARK    1  A    between atoms: C4_4  and  C9_9 
REMARK    2  A    between atoms: C5_5  and  S11_11 
ROOT
HETATM    1  C1  UNL     1     -32.963   5.751   3.036  1.00 20.00     0.080 C 
HETATM    2  C2  UNL     1     -33.766   8.048   2.283  1.00 20.00     0.041 C 
HETATM    3  C3  UNL     1     -31.672   7.926   2.738  1.00 20.00     0.041 C 
HETATM    4  C4  UNL     1     -32.473   8.275   1.456  1.00 20.00    -0.006 C 
HETATM    5  C5  UNL     1     -32.927   7.180   3.256  1.00 20.00     0.097 C 
HETATM    6  N10 UNL     1     -32.990   4.605   2.861  1.00 20.00    -0.196 NA
ENDROOT
BRANCH   5   7
HETATM    7  S11 UNL     1     -33.287   7.555   5.008  1.00 20.00    -0.148 SA
HETATM    8  C8  UNL     1     -34.398   6.170   5.337  1.00 20.00     0.091 C 
ENDBRANCH   5   7
BRANCH   4   9
HETATM    9  C9  UNL     1     -32.268   9.664   0.887  1.00 20.00    -0.019 C 
HETATM   10  C6  UNL     1     -32.919   9.792  -0.494  1.00 20.00     0.010 C 
HETATM   11  C7  UNL     1     -32.825  10.731   1.833  1.00 20.00     0.010 C 
ENDBRANCH   4   9
TORSDOF 2
ENDMDL
MODEL 4
REMARK VINA RESULT:      -4.4      1.521      1.785
REMARK  2 active torsions:
REMARK  status: ('A' for Active; 'I' for Inactive)
REMARK    1  A    between atoms: C4_4  and  C9_9 
REMARK    2  A    between atoms: C5_5  and  S11_11 
ROOT
HETATM    1  C1  UNL     1     -34.601  14.778  -3.981  1.00 20.00     0.080 C 
HETATM    2  C2  UNL     1     -33.632  17.062  -3.407  1.00 20.00     0.041 C 
HETATM    3  C3  UNL     1     -35.460  16.573  -2.393  1.00 20.00     0.041 C 
HETATM    4  C4  UNL     1     -34.021  16.897  -1.913  1.00 20.00    -0.006 C 
HETATM    5  C5  UNL     1     -34.858  16.184  -3.767  1.00 20.00     0.097 C 
HETATM    6  N10 UNL     1     -34.395  13.649  -4.152  1.00 20.00    -0.196 NA
ENDROOT
BRANCH   5   7
HETATM    7  S11 UNL     1     -35.815  16.868  -5.166  1.00 20.00    -0.148 SA
HETATM    8  C8  UNL     1     -34.856  16.131  -6.507  1.00 20.00     0.091 C 
ENDBRANCH   5   7
BRANCH   4   9
HETATM    9  C9  UNL     1     -33.860  18.120  -1.033  1.00 20.00    -0.019 C 
HETATM   10  C6  UNL     1     -34.666  17.975   0.261  1.00 20.00     0.010 C 
HETATM   11  C7  UNL     1     -32.385  18.372  -0.710  1.00 20.00     0.010 C 
ENDBRANCH   4   9
TORSDOF 2
ENDMDL
MODEL 5
REMARK VINA RESULT:      -4.1      1.396      1.795
REMARK  2 active torsions:
REMARK  status: ('A' for Active; 'I' for Inactive)
REMARK    1  A    between atoms: C4_4  and  C9_9 
REMARK    2  A    between atoms: C5_5  and  S11_11 
ROOT
HETATM    1  C1  UNL     1     -34.539  14.578  -5.741  1.00 20.00     0.080 C 
HETATM    2  C2  UNL     1     -33.610  16.681  -4.646  1.00 20.00     0.041 C 
HETATM    3  C3  UNL     1     -35.284  15.797  -3.634  1.00 20.00     0.041 C 
HETATM    4  C4  UNL     1     -33.814  16.083  -3.228  1.00 20.00    -0.006 C 
HETATM    5  C5  UNL     1     -34.830  15.847  -5.114  1.00 20.00     0.097 C 
HETATM    6  N10 UNL     1     -34.306  13.559  -6.244  1.00 20.00    -0.196 NA
ENDROOT
BRANCH   5   7
HETATM    7  S11 UNL     1     -35.973  16.817  -6.160  1.00 20.00    -0.148 SA
HETATM    8  C8  UNL     1     -37.105  15.480  -6.599  1.00 20.00     0.091 C 
ENDBRANCH   5   7
BRANCH   4   9
HETATM    9  C9  UNL     1     -33.604  17.024  -2.060  1.00 20.00    -0.019 C 
HETATM   10  C6  UNL     1     -33.170  18.410  -2.543  1.00 20.00     0.010 C 
HETATM   11  C7  UNL     1     -34.874  17.136  -1.212  1.00 20.00     0.010 C 
ENDBRANCH   4   9
TORSDOF 2
ENDMDL
MODEL 6
REMARK VINA RESULT:      -3.8      1.808      2.209
REMARK  2 active torsions:
REMARK  status: ('A' for Active; 'I' for Inactive)
REMARK    1  A    between atoms: C4_4  and  C9_9 
REMARK    2  A    between atoms: C5_5  and  S11_11 
ROOT
HETATM    1  C1  UNL     1     -37.343  14.925  -4.849  1.00 20.00     0.080 C 
HETATM    2  C2  UNL     1     -34.976  15.618  -4.214  1.00 20.00     0.041 C 
HETATM    3  C3  UNL     1     -36.533  16.825  -3.360  1.00 20.00     0.041 C 
HETATM    4  C4  UNL     1     -35.415  15.933  -2.759  1.00 20.00    -0.006 C 
HETATM    5  C5  UNL     1     -36.404  16.010  -4.671  1.00 20.00     0.097 C 
HETATM    6  N10 UNL     1     -38.097  14.055  -4.991  1.00 20.00    -0.196 NA
ENDROOT
BRANCH   5   7
HETATM    7  S11 UNL     1     -36.390  17.077  -6.155  1.00 20.00    -0.148 SA
HETATM    8  C8  UNL     1     -38.176  17.192  -6.397  1.00 20.00     0.091 C 
ENDBRANCH   5   7
BRANCH   4   9
HETATM    9  C9  UNL     1     -34.394  16.627  -1.879  1.00 20.00    -0.019 C 
HETATM   10  C6  UNL     1     -33.509  17.567  -2.703  1.00 20.00     0.010 C 
HETATM   11  C7  UNL     1     -35.080  17.402  -0.752  1.00 20.00     0.010 C 
ENDBRANCH   4   9
TORSDOF 2
ENDMDL
MODEL 7
REMARK VINA RESULT:      -3.7      3.043      4.829
REMARK  2 active torsions:
REMARK  status: ('A' for Active; 'I' for Inactive)
REMARK    1  A    between atoms: C4_4  and  C9_9 
REMARK    2  A    between atoms: C5_5  and  S11_11 
ROOT
HETATM    1  C1  UNL     1     -33.014  18.119  -1.923  1.00 20.00     0.080 C 
HETATM    2  C2  UNL     1     -34.610  16.279  -2.668  1.00 20.00     0.041 C 
HETATM    3  C3  UNL     1     -33.538  17.246  -4.257  1.00 20.00     0.041 C 
HETATM    4  C4  UNL     1     -33.603  15.784  -3.741  1.00 20.00    -0.006 C 
HETATM    5  C5  UNL     1     -34.032  17.705  -2.862  1.00 20.00     0.097 C 
HETATM    6  N10 UNL     1     -32.196  18.452  -1.171  1.00 20.00    -0.196 NA
ENDROOT
BRANCH   5   7
HETATM    7  S11 UNL     1     -35.341  18.976  -2.970  1.00 20.00    -0.148 SA
HETATM    8  C8  UNL     1     -35.557  19.262  -1.200  1.00 20.00     0.091 C 
ENDBRANCH   5   7
BRANCH   4   9
HETATM    9  C9  UNL     1     -34.113  14.744  -4.718  1.00 20.00    -0.019 C 
HETATM   10  C6  UNL     1     -35.620  14.527  -4.551  1.00 20.00     0.010 C 
HETATM   11  C7  UNL     1     -33.795  15.144  -6.161  1.00 20.00     0.010 C 
ENDBRANCH   4   9
TORSDOF 2
ENDMDL
MODEL 8
REMARK VINA RESULT:      -3.6      2.520      4.509
REMARK  2 active torsions:
REMARK  status: ('A' for Active; 'I' for Inactive)
REMARK    1  A    between atoms: C4_4  and  C9_9 
REMARK    2  A    between atoms: C5_5  and  S11_11 
ROOT
HETATM    1  C1  UNL     1     -35.097  17.092  -1.594  1.00 20.00     0.080 C 
HETATM    2  C2  UNL     1     -35.795  16.199  -3.875  1.00 20.00     0.041 C 
HETATM    3  C3  UNL     1     -33.708  15.986  -3.419  1.00 20.00     0.041 C 
HETATM    4  C4  UNL     1     -34.846  14.979  -3.734  1.00 20.00    -0.006 C 
HETATM    5  C5  UNL     1     -34.797  17.007  -3.006  1.00 20.00     0.097 C 
HETATM    6  N10 UNL     1     -35.336  17.160  -0.461  1.00 20.00    -0.196 NA
ENDROOT
BRANCH   5   7
HETATM    7  S11 UNL     1     -34.480  18.675  -3.682  1.00 20.00    -0.148 SA
HETATM    8  C8  UNL     1     -33.292  19.227  -2.438  1.00 20.00     0.091 C 
ENDBRANCH   5   7
BRANCH   4   9
HETATM    9  C9  UNL     1     -34.665  14.116  -4.966  1.00 20.00    -0.019 C 
HETATM   10  C6  UNL     1     -35.979  13.431  -5.353  1.00 20.00     0.010 C 
HETATM   11  C7  UNL     1     -34.136  14.942  -6.141  1.00 20.00     0.010 C 
ENDBRANCH   4   9
TORSDOF 2
ENDMDL
MODEL 9
REMARK VINA RESULT:      -3.6     10.893     11.757
REMARK  2 active torsions:
REMARK  status: ('A' for Active; 'I' for Inactive)
REMARK    1  A    between atoms: C4_4  and  C9_9 
REMARK    2  A    between atoms: C5_5  and  S11_11 
ROOT
HETATM    1  C1  UNL     1     -33.668   5.528   3.648  1.00 20.00     0.080 C 
HETATM    2  C2  UNL     1     -33.999   7.907   2.802  1.00 20.00     0.041 C 
HETATM    3  C3  UNL     1     -31.962   7.367   3.208  1.00 20.00     0.041 C 
HETATM    4  C4  UNL     1     -32.717   7.820   1.931  1.00 20.00    -0.006 C 
HETATM    5  C5  UNL     1     -33.326   6.925   3.795  1.00 20.00     0.097 C 
HETATM    6  N10 UNL     1     -33.940   4.407   3.531  1.00 20.00    -0.196 NA
ENDROOT
BRANCH   5   7
HETATM    7  S11 UNL     1     -33.537   7.444   5.535  1.00 20.00    -0.148 SA
HETATM    8  C8  UNL     1     -34.623   6.103   6.065  1.00 20.00     0.091 C 
ENDBRANCH   5   7
BRANCH   4   9
HETATM    9  C9  UNL     1     -32.247   9.109   1.288  1.00 20.00    -0.019 C 
HETATM   10  C6  UNL     1     -30.931   8.898   0.534  1.00 20.00     0.010 C 
HETATM   11  C7  UNL     1     -33.312   9.669   0.341  1.00 20.00     0.010 C 
ENDBRANCH   4   9
TORSDOF 2
ENDMDL
