MODEL 1
REMARK VINA RESULT:      -5.6      0.000      0.000
REMARK  1 active torsions:
REMARK  status: ('A' for Active; 'I' for Inactive)
REMARK    1  A    between atoms: C7_7  and  C11_11 
ROOT
HETATM    1  C1  UNL     1     -33.184   7.848   5.290  1.00 20.00     0.004 C 
HETATM    2  C2  UNL     1     -32.176   8.187   4.186  1.00 20.00     0.005 C 
HETATM    3  C3  UNL     1     -32.824   6.777   2.107  1.00 20.00     0.008 C 
HETATM    4  C4  UNL     1     -33.580   6.377   5.374  1.00 20.00     0.040 C 
HETATM    5  C5  UNL     1     -33.096   5.572   3.004  1.00 20.00     0.041 C 
HETATM    6  C6  UNL     1     -35.570   5.998   3.723  1.00 20.00     0.207 A 
HETATM    7  C7  UNL     1     -32.795   8.165   2.777  1.00 20.00    -0.011 C 
HETATM    8  C8  UNL     1     -34.108   5.841   4.075  1.00 20.00     0.082 A 
HETATM    9  O12 UNL     1     -35.051   4.769   4.250  1.00 20.00    -0.375 OA
ENDROOT
BRANCH   7  10
HETATM   10  C11 UNL     1     -32.054   9.144   1.858  1.00 20.00    -0.019 C 
HETATM   11  C9  UNL     1     -31.446   8.401   0.673  1.00 20.00     0.010 C 
HETATM   12  C10 UNL     1     -32.998  10.243   1.384  1.00 20.00     0.010 C 
ENDBRANCH   7  10
TORSDOF 1
ENDMDL
MODEL 2
REMARK VINA RESULT:      -4.8     10.959     11.793
REMARK  1 active torsions:
REMARK  status: ('A' for Active; 'I' for Inactive)
REMARK    1  A    between atoms: C7_7  and  C11_11 
ROOT
HETATM    1  C1  UNL     1     -33.132  15.248  -4.827  1.00 20.00     0.004 C 
HETATM    2  C2  UNL     1     -33.544  16.369  -3.865  1.00 20.00     0.005 C 
HETATM    3  C3  UNL     1     -36.126  16.258  -3.633  1.00 20.00     0.008 C 
HETATM    4  C4  UNL     1     -34.065  15.042  -6.015  1.00 20.00     0.040 C 
HETATM    5  C5  UNL     1     -36.254  16.005  -5.133  1.00 20.00     0.041 C 
HETATM    6  C6  UNL     1     -35.963  13.413  -5.257  1.00 20.00     0.207 A 
HETATM    7  C7  UNL     1     -34.752  15.995  -2.986  1.00 20.00    -0.011 C 
HETATM    8  C8  UNL     1     -35.489  14.806  -5.604  1.00 20.00     0.082 A 
HETATM    9  O12 UNL     1     -36.220  13.997  -6.541  1.00 20.00    -0.375 OA
ENDROOT
BRANCH   7  10
HETATM   10  C11 UNL     1     -34.683  16.739  -1.647  1.00 20.00    -0.019 C 
HETATM   11  C9  UNL     1     -33.442  17.625  -1.598  1.00 20.00     0.010 C 
HETATM   12  C10 UNL     1     -35.947  17.562  -1.432  1.00 20.00     0.010 C 
ENDBRANCH   7  10
TORSDOF 1
ENDMDL
MODEL 3
REMARK VINA RESULT:      -4.7     10.552     11.675
REMARK  1 active torsions:
REMARK  status: ('A' for Active; 'I' for Inactive)
REMARK    1  A    between atoms: C7_7  and  C11_11 
ROOT
HETATM    1  C1  UNL     1     -36.951  15.347  -4.753  1.00 20.00     0.004 C 
HETATM    2  C2  UNL     1     -36.358  15.817  -3.420  1.00 20.00     0.005 C 
HETATM    3  C3  UNL     1     -33.793  15.452  -3.557  1.00 20.00     0.008 C 
HETATM    4  C4  UNL     1     -36.321  14.083  -5.328  1.00 20.00     0.040 C 
HETATM    5  C5  UNL     1     -34.018  14.104  -4.236  1.00 20.00     0.041 C 
HETATM    6  C6  UNL     1     -34.244  14.805  -6.740  1.00 20.00     0.207 A 
HETATM    7  C7  UNL     1     -34.964  16.454  -3.570  1.00 20.00    -0.011 C 
HETATM    8  C8  UNL     1     -34.833  14.194  -5.489  1.00 20.00     0.082 A 
HETATM    9  O12 UNL     1     -34.319  13.385  -6.562  1.00 20.00    -0.375 OA
ENDROOT
BRANCH   7  10
HETATM   10  C11 UNL     1     -34.738  17.498  -2.470  1.00 20.00    -0.019 C 
HETATM   11  C9  UNL     1     -35.395  17.047  -1.169  1.00 20.00     0.010 C 
HETATM   12  C10 UNL     1     -33.247  17.740  -2.268  1.00 20.00     0.010 C 
ENDBRANCH   7  10
TORSDOF 1
ENDMDL
MODEL 4
REMARK VINA RESULT:      -4.6     10.613     11.620
REMARK  1 active torsions:
REMARK  status: ('A' for Active; 'I' for Inactive)
REMARK    1  A    between atoms: C7_7  and  C11_11 
ROOT
HETATM    1  C1  UNL     1     -36.437  15.564  -4.138  1.00 20.00     0.004 C 
HETATM    2  C2  UNL     1     -35.476  15.932  -3.001  1.00 20.00     0.005 C 
HETATM    3  C3  UNL     1     -33.082  15.340  -3.808  1.00 20.00     0.008 C 
HETATM    4  C4  UNL     1     -36.103  14.269  -4.870  1.00 20.00     0.040 C 
HETATM    5  C5  UNL     1     -33.605  14.042  -4.417  1.00 20.00     0.041 C 
HETATM    6  C6  UNL     1     -34.403  14.848  -6.769  1.00 20.00     0.207 A 
HETATM    7  C7  UNL     1     -34.114  16.444  -3.504  1.00 20.00    -0.011 C 
HETATM    8  C8  UNL     1     -34.704  14.249  -5.414  1.00 20.00     0.082 A 
HETATM    9  O12 UNL     1     -34.567  13.434  -6.590  1.00 20.00    -0.375 OA
ENDROOT
BRANCH   7  10
HETATM   10  C11 UNL     1     -33.510  17.424  -2.492  1.00 20.00    -0.019 C 
HETATM   11  C9  UNL     1     -33.461  18.830  -3.080  1.00 20.00     0.010 C 
HETATM   12  C10 UNL     1     -34.309  17.406  -1.195  1.00 20.00     0.010 C 
ENDBRANCH   7  10
TORSDOF 1
ENDMDL
MODEL 5
REMARK VINA RESULT:      -4.4     10.706     12.002
REMARK  1 active torsions:
REMARK  status: ('A' for Active; 'I' for Inactive)
REMARK    1  A    between atoms: C7_7  and  C11_11 
ROOT
HETATM    1  C1  UNL     1     -33.313  17.686  -5.085  1.00 20.00     0.004 C 
HETATM    2  C2  UNL     1     -34.004  18.259  -3.842  1.00 20.00     0.005 C 
HETATM    3  C3  UNL     1     -34.767  16.243  -2.399  1.00 20.00     0.008 C 
HETATM    4  C4  UNL     1     -33.973  16.444  -5.675  1.00 20.00     0.040 C 
HETATM    5  C5  UNL     1     -35.220  15.508  -3.658  1.00 20.00     0.041 C 
HETATM    6  C6  UNL     1     -33.003  14.363  -4.427  1.00 20.00     0.207 A 
HETATM    7  C7  UNL     1     -33.776  17.409  -2.579  1.00 20.00    -0.011 C 
HETATM    8  C8  UNL     1     -34.132  15.337  -4.675  1.00 20.00     0.082 A 
HETATM    9  O12 UNL     1     -34.112  14.030  -5.272  1.00 20.00    -0.375 OA
ENDROOT
BRANCH   7  10
HETATM   10  C11 UNL     1     -33.820  18.295  -1.329  1.00 20.00    -0.019 C 
HETATM   11  C9  UNL     1     -34.794  17.720  -0.306  1.00 20.00     0.010 C 
HETATM   12  C10 UNL     1     -32.426  18.437  -0.730  1.00 20.00     0.010 C 
ENDBRANCH   7  10
TORSDOF 1
ENDMDL
MODEL 6
REMARK VINA RESULT:      -4.4     10.386     12.451
REMARK  1 active torsions:
REMARK  status: ('A' for Active; 'I' for Inactive)
REMARK    1  A    between atoms: C7_7  and  C11_11 
ROOT
HETATM    1  C1  UNL     1     -34.317  15.708  -3.604  1.00 20.00     0.004 C 
HETATM    2  C2  UNL     1     -33.747  16.673  -4.651  1.00 20.00     0.005 C 
HETATM    3  C3  UNL     1     -34.597  15.868  -6.967  1.00 20.00     0.008 C 
HETATM    4  C4  UNL     1     -34.333  14.241  -4.020  1.00 20.00     0.040 C 
HETATM    5  C5  UNL     1     -34.339  14.420  -6.563  1.00 20.00     0.041 C 
HETATM    6  C6  UNL     1     -36.556  13.813  -5.325  1.00 20.00     0.207 A 
HETATM    7  C7  UNL     1     -34.702  16.910  -5.836  1.00 20.00    -0.011 C 
HETATM    8  C8  UNL     1     -35.057  14.010  -5.314  1.00 20.00     0.082 A 
HETATM    9  O12 UNL     1     -35.652  12.703  -5.402  1.00 20.00    -0.375 OA
ENDROOT
BRANCH   7  10
HETATM   10  C11 UNL     1     -34.478  18.308  -6.425  1.00 20.00    -0.019 C 
HETATM   11  C9  UNL     1     -33.592  19.136  -5.500  1.00 20.00     0.010 C 
HETATM   12  C10 UNL     1     -33.863  18.204  -7.815  1.00 20.00     0.010 C 
ENDBRANCH   7  10
TORSDOF 1
ENDMDL
MODEL 7
REMARK VINA RESULT:      -4.4     11.023     12.477
REMARK  1 active torsions:
REMARK  status: ('A' for Active; 'I' for Inactive)
REMARK    1  A    between atoms: C7_7  and  C11_11 
ROOT
HETATM    1  C1  UNL     1     -35.490  13.871  -4.831  1.00 20.00     0.004 C 
HETATM    2  C2  UNL     1     -34.461  14.596  -3.955  1.00 20.00     0.005 C 
HETATM    3  C3  UNL     1     -34.341  17.047  -4.796  1.00 20.00     0.008 C 
HETATM    4  C4  UNL     1     -35.453  14.241  -6.310  1.00 20.00     0.040 C 
HETATM    5  C5  UNL     1     -34.392  16.558  -6.241  1.00 20.00     0.041 C 
HETATM    6  C6  UNL     1     -36.965  16.348  -6.636  1.00 20.00     0.207 A 
HETATM    7  C7  UNL     1     -34.819  16.072  -3.702  1.00 20.00    -0.011 C 
HETATM    8  C8  UNL     1     -35.594  15.717  -6.545  1.00 20.00     0.082 A 
HETATM    9  O12 UNL     1     -36.203  16.031  -7.809  1.00 20.00    -0.375 OA
ENDROOT
BRANCH   7  10
HETATM   10  C11 UNL     1     -34.257  16.529  -2.350  1.00 20.00    -0.019 C 
HETATM   11  C9  UNL     1     -33.302  17.702  -2.543  1.00 20.00     0.010 C 
HETATM   12  C10 UNL     1     -35.392  16.902  -1.404  1.00 20.00     0.010 C 
ENDBRANCH   7  10
TORSDOF 1
ENDMDL
MODEL 8
REMARK VINA RESULT:      -4.2     11.035     12.094
REMARK  1 active torsions:
REMARK  status: ('A' for Active; 'I' for Inactive)
REMARK    1  A    between atoms: C7_7  and  C11_11 
ROOT
HETATM    1  C1  UNL     1     -33.846  15.924  -3.385  1.00 20.00     0.004 C 
HETATM    2  C2  UNL     1     -33.992  14.686  -4.278  1.00 20.00     0.005 C 
HETATM    3  C3  UNL     1     -36.297  14.867  -5.456  1.00 20.00     0.008 C 
HETATM    4  C4  UNL     1     -35.118  16.351  -2.661  1.00 20.00     0.040 C 
HETATM    5  C5  UNL     1     -36.928  15.354  -4.154  1.00 20.00     0.041 C 
HETATM    6  C6  UNL     1     -36.456  17.920  -4.267  1.00 20.00     0.207 A 
HETATM    7  C7  UNL     1     -34.764  14.969  -5.580  1.00 20.00    -0.011 C 
HETATM    8  C8  UNL     1     -36.272  16.579  -3.593  1.00 20.00     0.082 A 
HETATM    9  O12 UNL     1     -37.209  17.553  -3.104  1.00 20.00    -0.375 OA
ENDROOT
BRANCH   7  10
HETATM   10  C11 UNL     1     -34.291  14.024  -6.692  1.00 20.00    -0.019 C 
HETATM   11  C9  UNL     1     -35.395  13.034  -7.049  1.00 20.00     0.010 C 
HETATM   12  C10 UNL     1     -33.859  14.822  -7.916  1.00 20.00     0.010 C 
ENDBRANCH   7  10
TORSDOF 1
ENDMDL
MODEL 9
REMARK VINA RESULT:      -4.1     10.727     11.931
REMARK  1 active torsions:
REMARK  status: ('A' for Active; 'I' for Inactive)
REMARK    1  A    between atoms: C7_7  and  C11_11 
ROOT
HETATM    1  C1  UNL     1     -36.747  17.580  -2.855  1.00 20.00     0.004 C 
HETATM    2  C2  UNL     1     -35.525  17.153  -3.676  1.00 20.00     0.005 C 
HETATM    3  C3  UNL     1     -33.499  17.113  -2.057  1.00 20.00     0.008 C 
HETATM    4  C4  UNL     1     -36.484  18.675  -1.828  1.00 20.00     0.040 C 
HETATM    5  C5  UNL     1     -33.982  18.410  -1.414  1.00 20.00     0.041 C 
HETATM    6  C6  UNL     1     -35.668  17.519   0.369  1.00 20.00     0.207 A 
HETATM    7  C7  UNL     1     -34.525  16.302  -2.872  1.00 20.00    -0.011 C 
HETATM    8  C8  UNL     1     -35.377  18.327  -0.875  1.00 20.00     0.082 A 
HETATM    9  O12 UNL     1     -35.528  18.945   0.414  1.00 20.00    -0.375 OA
ENDROOT
BRANCH   7  10
HETATM   10  C11 UNL     1     -33.774  15.344  -3.804  1.00 20.00    -0.019 C 
HETATM   11  C9  UNL     1     -34.684  14.195  -4.226  1.00 20.00     0.010 C 
HETATM   12  C10 UNL     1     -33.247  16.094  -5.021  1.00 20.00     0.010 C 
ENDBRANCH   7  10
TORSDOF 1
ENDMDL
