MODEL 1
REMARK VINA RESULT:      -6.3      0.000      0.000
REMARK  2 active torsions:
REMARK  status: ('A' for Active; 'I' for Inactive)
REMARK    1  A    between atoms: C6_6  and  C9_9 
REMARK    2  A    between atoms: C9_9  and  C10_10 
ROOT
HETATM    1  C1  UNL     1     -33.785   5.310   2.900  1.00 20.00     0.002 C 
HETATM    2  C2  UNL     1     -32.560   6.220   2.720  1.00 20.00     0.005 C 
HETATM    3  C3  UNL     1     -33.028   8.111   4.428  1.00 20.00     0.006 C 
HETATM    4  C4  UNL     1     -34.962   5.886   3.686  1.00 20.00     0.020 C 
HETATM    5  C5  UNL     1     -33.353   6.977   5.402  1.00 20.00     0.020 C 
HETATM    6  C6  UNL     1     -32.814   7.718   2.948  1.00 20.00    -0.014 C 
HETATM    7  C7  UNL     1     -34.672   6.252   5.142  1.00 20.00     0.082 C 
HETATM    8 CL11 UNL     1     -34.719   4.772   6.161  1.00 20.00    -0.125 Cl
ENDROOT
BRANCH   6   9
HETATM    9  C9  UNL     1     -31.662   8.542   2.358  1.00 20.00     0.004 C 
BRANCH   9  10
HETATM   10  C10 UNL     1     -32.013   9.053   0.968  1.00 20.00    -0.004 C 
HETATM   11  C8  UNL     1     -32.758  10.376   1.046  1.00 20.00     0.005 C 
ENDBRANCH   9  10
ENDBRANCH   6   9
TORSDOF 2
ENDMDL
MODEL 2
REMARK VINA RESULT:      -4.6     11.202     12.323
REMARK  2 active torsions:
REMARK  status: ('A' for Active; 'I' for Inactive)
REMARK    1  A    between atoms: C6_6  and  C9_9 
REMARK    2  A    between atoms: C9_9  and  C10_10 
ROOT
HETATM    1  C1  UNL     1     -34.504  14.668  -3.966  1.00 20.00     0.002 C 
HETATM    2  C2  UNL     1     -34.908  15.828  -3.043  1.00 20.00     0.005 C 
HETATM    3  C3  UNL     1     -33.305  17.716  -3.804  1.00 20.00     0.006 C 
HETATM    4  C4  UNL     1     -33.194  14.825  -4.737  1.00 20.00     0.020 C 
HETATM    5  C5  UNL     1     -33.716  17.318  -5.223  1.00 20.00     0.020 C 
HETATM    6  C6  UNL     1     -33.772  16.789  -2.658  1.00 20.00    -0.014 C 
HETATM    7  C7  UNL     1     -33.140  15.994  -5.721  1.00 20.00     0.082 C 
HETATM    8 CL11 UNL     1     -33.981  15.544  -7.245  1.00 20.00    -0.125 Cl
ENDROOT
BRANCH   6   9
HETATM    9  C9  UNL     1     -34.188  17.636  -1.449  1.00 20.00     0.004 C 
BRANCH   9  10
HETATM   10  C10 UNL     1     -35.484  17.118  -0.840  1.00 20.00    -0.004 C 
HETATM   11  C8  UNL     1     -35.619  17.559   0.609  1.00 20.00     0.005 C 
ENDBRANCH   9  10
ENDBRANCH   6   9
TORSDOF 2
ENDMDL
MODEL 3
REMARK VINA RESULT:      -4.5     11.363     12.111
REMARK  2 active torsions:
REMARK  status: ('A' for Active; 'I' for Inactive)
REMARK    1  A    between atoms: C6_6  and  C9_9 
REMARK    2  A    between atoms: C9_9  and  C10_10 
ROOT
HETATM    1  C1  UNL     1     -33.051  15.538  -5.278  1.00 20.00     0.002 C 
HETATM    2  C2  UNL     1     -33.513  15.569  -3.814  1.00 20.00     0.005 C 
HETATM    3  C3  UNL     1     -36.087  15.394  -4.047  1.00 20.00     0.006 C 
HETATM    4  C4  UNL     1     -34.127  15.742  -6.345  1.00 20.00     0.020 C 
HETATM    5  C5  UNL     1     -35.793  14.256  -5.026  1.00 20.00     0.020 C 
HETATM    6  C6  UNL     1     -34.878  16.230  -3.567  1.00 20.00    -0.014 C 
HETATM    7  C7  UNL     1     -35.234  14.689  -6.380  1.00 20.00     0.082 C 
HETATM    8 CL11 UNL     1     -34.653  13.226  -7.249  1.00 20.00    -0.125 Cl
ENDROOT
BRANCH   6   9
HETATM    9  C9  UNL     1     -35.040  16.562  -2.079  1.00 20.00     0.004 C 
BRANCH   9  10
HETATM   10  C10 UNL     1     -33.821  17.304  -1.549  1.00 20.00    -0.004 C 
HETATM   11  C8  UNL     1     -34.145  18.030  -0.254  1.00 20.00     0.005 C 
ENDBRANCH   9  10
ENDBRANCH   6   9
TORSDOF 2
ENDMDL
MODEL 4
REMARK VINA RESULT:      -4.5     11.404     12.037
REMARK  2 active torsions:
REMARK  status: ('A' for Active; 'I' for Inactive)
REMARK    1  A    between atoms: C6_6  and  C9_9 
REMARK    2  A    between atoms: C9_9  and  C10_10 
ROOT
HETATM    1  C1  UNL     1     -36.553  14.714  -4.687  1.00 20.00     0.002 C 
HETATM    2  C2  UNL     1     -35.874  15.893  -3.974  1.00 20.00     0.005 C 
HETATM    3  C3  UNL     1     -33.382  15.543  -4.592  1.00 20.00     0.006 C 
HETATM    4  C4  UNL     1     -35.640  13.603  -5.205  1.00 20.00     0.020 C 
HETATM    5  C5  UNL     1     -33.896  15.340  -6.018  1.00 20.00     0.020 C 
HETATM    6  C6  UNL     1     -34.446  15.625  -3.473  1.00 20.00    -0.014 C 
HETATM    7  C7  UNL     1     -34.624  14.020  -6.267  1.00 20.00     0.082 C 
HETATM    8 CL11 UNL     1     -35.426  14.107  -7.874  1.00 20.00    -0.125 Cl
ENDROOT
BRANCH   6   9
HETATM    9  C9  UNL     1     -34.038  16.696  -2.453  1.00 20.00     0.004 C 
BRANCH   9  10
HETATM   10  C10 UNL     1     -35.152  16.941  -1.445  1.00 20.00    -0.004 C 
HETATM   11  C8  UNL     1     -34.646  17.745  -0.258  1.00 20.00     0.005 C 
ENDBRANCH   9  10
ENDBRANCH   6   9
TORSDOF 2
ENDMDL
MODEL 5
REMARK VINA RESULT:      -4.3      0.912      2.031
REMARK  2 active torsions:
REMARK  status: ('A' for Active; 'I' for Inactive)
REMARK    1  A    between atoms: C6_6  and  C9_9 
REMARK    2  A    between atoms: C9_9  and  C10_10 
ROOT
HETATM    1  C1  UNL     1     -33.850   7.265   5.554  1.00 20.00     0.002 C 
HETATM    2  C2  UNL     1     -33.377   8.190   4.422  1.00 20.00     0.005 C 
HETATM    3  C3  UNL     1     -32.627   6.497   2.610  1.00 20.00     0.006 C 
HETATM    4  C4  UNL     1     -33.465   5.790   5.445  1.00 20.00     0.020 C 
HETATM    5  C5  UNL     1     -33.954   5.794   2.899  1.00 20.00     0.020 C 
HETATM    6  C6  UNL     1     -32.225   7.645   3.564  1.00 20.00    -0.014 C 
HETATM    7  C7  UNL     1     -34.020   5.047   4.230  1.00 20.00     0.082 C 
HETATM    8 CL11 UNL     1     -35.729   4.576   4.534  1.00 20.00    -0.125 Cl
ENDROOT
BRANCH   6   9
HETATM    9  C9  UNL     1     -31.585   8.783   2.759  1.00 20.00     0.004 C 
BRANCH   9  10
HETATM   10  C10 UNL     1     -32.162   8.847   1.352  1.00 20.00    -0.004 C 
HETATM   11  C8  UNL     1     -32.697  10.237   1.045  1.00 20.00     0.005 C 
ENDBRANCH   9  10
ENDBRANCH   6   9
TORSDOF 2
ENDMDL
MODEL 6
REMARK VINA RESULT:      -4.3     11.053     11.942
REMARK  2 active torsions:
REMARK  status: ('A' for Active; 'I' for Inactive)
REMARK    1  A    between atoms: C6_6  and  C9_9 
REMARK    2  A    between atoms: C9_9  and  C10_10 
ROOT
HETATM    1  C1  UNL     1     -35.460  17.443  -0.267  1.00 20.00     0.002 C 
HETATM    2  C2  UNL     1     -35.077  16.693  -1.552  1.00 20.00     0.005 C 
HETATM    3  C3  UNL     1     -33.185  18.181  -2.510  1.00 20.00     0.006 C 
HETATM    4  C4  UNL     1     -34.925  18.867  -0.114  1.00 20.00     0.020 C 
HETATM    5  C5  UNL     1     -32.626  18.166  -1.087  1.00 20.00     0.020 C 
HETATM    6  C6  UNL     1     -34.595  17.579  -2.712  1.00 20.00    -0.014 C 
HETATM    7  C7  UNL     1     -33.403  19.003  -0.072  1.00 20.00     0.082 C 
HETATM    8 CL11 UNL     1     -32.803  18.603   1.575  1.00 20.00    -0.125 Cl
ENDROOT
BRANCH   6   9
HETATM    9  C9  UNL     1     -34.634  16.790  -4.027  1.00 20.00     0.004 C 
BRANCH   9  10
HETATM   10  C10 UNL     1     -34.452  15.299  -3.774  1.00 20.00    -0.004 C 
HETATM   11  C8  UNL     1     -33.147  14.801  -4.374  1.00 20.00     0.005 C 
ENDBRANCH   9  10
ENDBRANCH   6   9
TORSDOF 2
ENDMDL
MODEL 7
REMARK VINA RESULT:      -4.3     11.555     12.437
REMARK  2 active torsions:
REMARK  status: ('A' for Active; 'I' for Inactive)
REMARK    1  A    between atoms: C6_6  and  C9_9 
REMARK    2  A    between atoms: C9_9  and  C10_10 
ROOT
HETATM    1  C1  UNL     1     -35.048  15.404  -3.507  1.00 20.00     0.002 C 
HETATM    2  C2  UNL     1     -35.264  16.459  -2.411  1.00 20.00     0.005 C 
HETATM    3  C3  UNL     1     -33.232  18.029  -2.756  1.00 20.00     0.006 C 
HETATM    4  C4  UNL     1     -33.676  15.382  -4.181  1.00 20.00     0.020 C 
HETATM    5  C5  UNL     1     -33.602  17.973  -4.239  1.00 20.00     0.020 C 
HETATM    6  C6  UNL     1     -33.982  17.060  -1.813  1.00 20.00    -0.014 C 
HETATM    7  C7  UNL     1     -33.289  16.651  -4.939  1.00 20.00     0.082 C 
HETATM    8 CL11 UNL     1     -34.080  16.661  -6.553  1.00 20.00    -0.125 Cl
ENDROOT
BRANCH   6   9
HETATM    9  C9  UNL     1     -34.301  17.770  -0.492  1.00 20.00     0.004 C 
BRANCH   9  10
HETATM   10  C10 UNL     1     -33.420  18.998  -0.306  1.00 20.00    -0.004 C 
HETATM   11  C8  UNL     1     -32.501  18.831   0.894  1.00 20.00     0.005 C 
ENDBRANCH   9  10
ENDBRANCH   6   9
TORSDOF 2
ENDMDL
MODEL 8
REMARK VINA RESULT:      -4.1     11.246     12.292
REMARK  2 active torsions:
REMARK  status: ('A' for Active; 'I' for Inactive)
REMARK    1  A    between atoms: C6_6  and  C9_9 
REMARK    2  A    between atoms: C9_9  and  C10_10 
ROOT
HETATM    1  C1  UNL     1     -33.341  18.496  -3.214  1.00 20.00     0.002 C 
HETATM    2  C2  UNL     1     -33.617  17.776  -4.542  1.00 20.00     0.005 C 
HETATM    3  C3  UNL     1     -34.415  15.444  -3.745  1.00 20.00     0.006 C 
HETATM    4  C4  UNL     1     -33.283  17.627  -1.958  1.00 20.00     0.020 C 
HETATM    5  C5  UNL     1     -35.304  16.220  -2.773  1.00 20.00     0.020 C 
HETATM    6  C6  UNL     1     -33.366  16.260  -4.535  1.00 20.00    -0.014 C 
HETATM    7  C7  UNL     1     -34.571  16.883  -1.606  1.00 20.00     0.082 C 
HETATM    8 CL11 UNL     1     -35.712  17.999  -0.779  1.00 20.00    -0.125 Cl
ENDROOT
BRANCH   6   9
HETATM    9  C9  UNL     1     -33.282  15.735  -5.973  1.00 20.00     0.004 C 
BRANCH   9  10
HETATM   10  C10 UNL     1     -34.180  14.520  -6.164  1.00 20.00    -0.004 C 
HETATM   11  C8  UNL     1     -34.212  14.090  -7.622  1.00 20.00     0.005 C 
ENDBRANCH   9  10
ENDBRANCH   6   9
TORSDOF 2
ENDMDL
MODEL 9
REMARK VINA RESULT:      -4.1     11.584     12.603
REMARK  2 active torsions:
REMARK  status: ('A' for Active; 'I' for Inactive)
REMARK    1  A    between atoms: C6_6  and  C9_9 
REMARK    2  A    between atoms: C9_9  and  C10_10 
ROOT
HETATM    1  C1  UNL     1     -35.023  16.430  -2.127  1.00 20.00     0.002 C 
HETATM    2  C2  UNL     1     -34.723  17.443  -1.012  1.00 20.00     0.005 C 
HETATM    3  C3  UNL     1     -32.913  18.939  -2.106  1.00 20.00     0.006 C 
HETATM    4  C4  UNL     1     -34.039  16.379  -3.296  1.00 20.00     0.020 C 
HETATM    5  C5  UNL     1     -33.847  18.965  -3.317  1.00 20.00     0.020 C 
HETATM    6  C6  UNL     1     -33.277  17.961  -0.965  1.00 20.00    -0.014 C 
HETATM    7  C7  UNL     1     -33.916  17.664  -4.115  1.00 20.00     0.082 C 
HETATM    8 CL11 UNL     1     -35.285  17.779  -5.275  1.00 20.00    -0.125 Cl
ENDROOT
BRANCH   6   9
HETATM    9  C9  UNL     1     -33.001  18.625   0.390  1.00 20.00     0.004 C 
BRANCH   9  10
HETATM   10  C10 UNL     1     -31.504  18.769   0.632  1.00 20.00    -0.004 C 
HETATM   11  C8  UNL     1     -31.186  18.725   2.117  1.00 20.00     0.005 C 
ENDBRANCH   9  10
ENDBRANCH   6   9
TORSDOF 2
ENDMDL
