MODEL 1
REMARK VINA RESULT:      -5.1      0.000      0.000
REMARK  1 active torsions:
REMARK  status: ('A' for Active; 'I' for Inactive)
REMARK    1  A    between atoms: C8_8  and  C11_11 
ROOT
HETATM    1  C1  UNL     1     -32.670   9.194   0.410  1.00 20.00     0.064 C 
HETATM    2  C2  UNL     1     -31.566   8.430   3.996  1.00 20.00     0.002 C 
HETATM    3  C3  UNL     1     -31.947   9.234   2.756  1.00 20.00     0.019 C 
HETATM    4  C4  UNL     1     -32.431   6.998   1.518  1.00 20.00     0.019 C 
HETATM    5  C5  UNL     1     -32.764   7.726   4.633  1.00 20.00     0.005 C 
HETATM    6  C6  UNL     1     -33.656   6.775   2.406  1.00 20.00     0.006 C 
HETATM    7  C7  UNL     1     -31.924   8.445   1.442  1.00 20.00     0.093 C 
HETATM    8  C8  UNL     1     -33.293   6.500   3.875  1.00 20.00    -0.011 C 
HETATM    9  N12 UNL     1     -33.256   9.783  -0.401  1.00 20.00    -0.197 NA
ENDROOT
BRANCH   8  10
HETATM   10  C11 UNL     1     -34.516   5.943   4.613  1.00 20.00    -0.019 C 
HETATM   11  C9  UNL     1     -34.551   4.422   4.507  1.00 20.00     0.010 C 
HETATM   12  C10 UNL     1     -34.501   6.385   6.072  1.00 20.00     0.010 C 
ENDBRANCH   8  10
TORSDOF 1
ENDMDL
MODEL 2
REMARK VINA RESULT:      -5.1     10.714     11.521
REMARK  1 active torsions:
REMARK  status: ('A' for Active; 'I' for Inactive)
REMARK    1  A    between atoms: C8_8  and  C11_11 
ROOT
HETATM    1  C1  UNL     1     -35.915  13.884  -5.183  1.00 20.00     0.064 C 
HETATM    2  C2  UNL     1     -37.045  17.159  -3.552  1.00 20.00     0.002 C 
HETATM    3  C3  UNL     1     -37.104  15.730  -4.082  1.00 20.00     0.019 C 
HETATM    4  C4  UNL     1     -34.592  15.922  -4.729  1.00 20.00     0.019 C 
HETATM    5  C5  UNL     1     -36.188  17.286  -2.293  1.00 20.00     0.005 C 
HETATM    6  C6  UNL     1     -34.213  15.925  -3.248  1.00 20.00     0.006 C 
HETATM    7  C7  UNL     1     -35.980  15.355  -5.056  1.00 20.00     0.093 C 
HETATM    8  C8  UNL     1     -34.671  17.197  -2.512  1.00 20.00    -0.011 C 
HETATM    9  N12 UNL     1     -35.864  12.729  -5.283  1.00 20.00    -0.197 NA
ENDROOT
BRANCH   8  10
HETATM   10  C11 UNL     1     -33.961  17.292  -1.156  1.00 20.00    -0.019 C 
HETATM   11  C9  UNL     1     -32.753  18.218  -1.255  1.00 20.00     0.010 C 
HETATM   12  C10 UNL     1     -34.930  17.776  -0.084  1.00 20.00     0.010 C 
ENDBRANCH   8  10
TORSDOF 1
ENDMDL
MODEL 3
REMARK VINA RESULT:      -5.1     10.444     11.890
REMARK  1 active torsions:
REMARK  status: ('A' for Active; 'I' for Inactive)
REMARK    1  A    between atoms: C8_8  and  C11_11 
ROOT
HETATM    1  C1  UNL     1     -36.952  14.181  -5.268  1.00 20.00     0.064 C 
HETATM    2  C2  UNL     1     -33.946  16.389  -6.138  1.00 20.00     0.002 C 
HETATM    3  C3  UNL     1     -35.355  15.806  -6.187  1.00 20.00     0.019 C 
HETATM    4  C4  UNL     1     -34.727  14.257  -4.194  1.00 20.00     0.019 C 
HETATM    5  C5  UNL     1     -33.698  17.225  -4.882  1.00 20.00     0.005 C 
HETATM    6  C6  UNL     1     -34.685  15.472  -3.266  1.00 20.00     0.006 C 
HETATM    7  C7  UNL     1     -35.515  14.446  -5.496  1.00 20.00     0.093 C 
HETATM    8  C8  UNL     1     -33.523  16.430  -3.580  1.00 20.00    -0.011 C 
HETATM    9  N12 UNL     1     -38.079  13.974  -5.088  1.00 20.00    -0.197 NA
ENDROOT
BRANCH   8  10
HETATM   10  C11 UNL     1     -33.333  17.409  -2.416  1.00 20.00    -0.019 C 
HETATM   11  C9  UNL     1     -33.341  18.846  -2.926  1.00 20.00     0.010 C 
HETATM   12  C10 UNL     1     -34.417  17.200  -1.364  1.00 20.00     0.010 C 
ENDBRANCH   8  10
TORSDOF 1
ENDMDL
MODEL 4
REMARK VINA RESULT:      -5.1     10.658     11.790
REMARK  1 active torsions:
REMARK  status: ('A' for Active; 'I' for Inactive)
REMARK    1  A    between atoms: C8_8  and  C11_11 
ROOT
HETATM    1  C1  UNL     1     -35.175  13.770  -5.431  1.00 20.00     0.064 C 
HETATM    2  C2  UNL     1     -34.238  17.463  -5.811  1.00 20.00     0.002 C 
HETATM    3  C3  UNL     1     -35.010  16.158  -5.979  1.00 20.00     0.019 C 
HETATM    4  C4  UNL     1     -33.313  15.007  -4.378  1.00 20.00     0.019 C 
HETATM    5  C5  UNL     1     -34.366  18.046  -4.404  1.00 20.00     0.005 C 
HETATM    6  C6  UNL     1     -33.877  15.813  -3.206  1.00 20.00     0.006 C 
HETATM    7  C7  UNL     1     -34.230  14.892  -5.603  1.00 20.00     0.093 C 
HETATM    8  C8  UNL     1     -33.574  17.317  -3.309  1.00 20.00    -0.011 C 
HETATM    9  N12 UNL     1     -35.917  12.888  -5.296  1.00 20.00    -0.197 NA
ENDROOT
BRANCH   8  10
HETATM   10  C11 UNL     1     -33.847  17.992  -1.958  1.00 20.00    -0.019 C 
HETATM   11  C9  UNL     1     -34.878  17.194  -1.167  1.00 20.00     0.010 C 
HETATM   12  C10 UNL     1     -32.551  18.138  -1.168  1.00 20.00     0.010 C 
ENDBRANCH   8  10
TORSDOF 1
ENDMDL
MODEL 5
REMARK VINA RESULT:      -4.8     10.676     11.500
REMARK  1 active torsions:
REMARK  status: ('A' for Active; 'I' for Inactive)
REMARK    1  A    between atoms: C8_8  and  C11_11 
ROOT
HETATM    1  C1  UNL     1     -33.714  16.038  -3.519  1.00 20.00     0.064 C 
HETATM    2  C2  UNL     1     -35.746  17.673  -0.715  1.00 20.00     0.002 C 
HETATM    3  C3  UNL     1     -35.243  16.606  -1.683  1.00 20.00     0.019 C 
HETATM    4  C4  UNL     1     -33.534  18.331  -2.616  1.00 20.00     0.019 C 
HETATM    5  C5  UNL     1     -34.717  18.026   0.359  1.00 20.00     0.005 C 
HETATM    6  C6  UNL     1     -32.756  18.267  -1.301  1.00 20.00     0.006 C 
HETATM    7  C7  UNL     1     -34.467  17.144  -2.891  1.00 20.00     0.093 C 
HETATM    8  C8  UNL     1     -33.527  18.872  -0.115  1.00 20.00    -0.011 C 
HETATM    9  N12 UNL     1     -33.124  15.169  -4.013  1.00 20.00    -0.197 NA
ENDROOT
BRANCH   8  10
HETATM   10  C11 UNL     1     -32.569  19.095   1.062  1.00 20.00    -0.019 C 
HETATM   11  C9  UNL     1     -33.142  18.480   2.335  1.00 20.00     0.010 C 
HETATM   12  C10 UNL     1     -31.197  18.511   0.748  1.00 20.00     0.010 C 
ENDBRANCH   8  10
TORSDOF 1
ENDMDL
MODEL 6
REMARK VINA RESULT:      -4.8     10.806     11.681
REMARK  1 active torsions:
REMARK  status: ('A' for Active; 'I' for Inactive)
REMARK    1  A    between atoms: C8_8  and  C11_11 
ROOT
HETATM    1  C1  UNL     1     -33.741  18.478   2.431  1.00 20.00     0.064 C 
HETATM    2  C2  UNL     1     -32.647  18.974  -1.206  1.00 20.00     0.002 C 
HETATM    3  C3  UNL     1     -32.549  18.756   0.301  1.00 20.00     0.019 C 
HETATM    4  C4  UNL     1     -35.147  18.706   0.411  1.00 20.00     0.019 C 
HETATM    5  C5  UNL     1     -33.180  17.747  -1.945  1.00 20.00     0.005 C 
HETATM    6  C6  UNL     1     -35.150  17.364  -0.323  1.00 20.00     0.006 C 
HETATM    7  C7  UNL     1     -33.823  19.088   1.087  1.00 20.00     0.093 C 
HETATM    8  C8  UNL     1     -34.682  17.476  -1.784  1.00 20.00    -0.011 C 
HETATM    9  N12 UNL     1     -33.675  18.000   3.486  1.00 20.00    -0.197 NA
ENDROOT
BRANCH   8  10
HETATM   10  C11 UNL     1     -35.045  16.193  -2.542  1.00 20.00    -0.019 C 
HETATM   11  C9  UNL     1     -36.341  16.388  -3.322  1.00 20.00     0.010 C 
HETATM   12  C10 UNL     1     -33.908  15.787  -3.472  1.00 20.00     0.010 C 
ENDBRANCH   8  10
TORSDOF 1
ENDMDL
MODEL 7
REMARK VINA RESULT:      -4.6      2.567      4.721
REMARK  1 active torsions:
REMARK  status: ('A' for Active; 'I' for Inactive)
REMARK    1  A    between atoms: C8_8  and  C11_11 
ROOT
HETATM    1  C1  UNL     1     -34.296   4.131   4.404  1.00 20.00     0.064 C 
HETATM    2  C2  UNL     1     -33.601   7.687   5.646  1.00 20.00     0.002 C 
HETATM    3  C3  UNL     1     -33.625   6.161   5.613  1.00 20.00     0.019 C 
HETATM    4  C4  UNL     1     -34.791   6.282   3.290  1.00 20.00     0.019 C 
HETATM    5  C5  UNL     1     -32.648   8.283   4.611  1.00 20.00     0.005 C 
HETATM    6  C6  UNL     1     -33.496   6.808   2.670  1.00 20.00     0.006 C 
HETATM    7  C7  UNL     1     -34.634   5.552   4.631  1.00 20.00     0.093 C 
HETATM    8  C8  UNL     1     -33.128   8.221   3.153  1.00 20.00    -0.011 C 
HETATM    9  N12 UNL     1     -34.032   3.016   4.225  1.00 20.00    -0.197 NA
ENDROOT
BRANCH   8  10
HETATM   10  C11 UNL     1     -32.044   8.812   2.242  1.00 20.00    -0.019 C 
HETATM   11  C9  UNL     1     -31.626   7.792   1.188  1.00 20.00     0.010 C 
HETATM   12  C10 UNL     1     -32.544  10.095   1.588  1.00 20.00     0.010 C 
ENDBRANCH   8  10
TORSDOF 1
ENDMDL
MODEL 8
REMARK VINA RESULT:      -4.5     10.557     12.132
REMARK  1 active torsions:
REMARK  status: ('A' for Active; 'I' for Inactive)
REMARK    1  A    between atoms: C8_8  and  C11_11 
ROOT
HETATM    1  C1  UNL     1     -32.488  18.453  -0.863  1.00 20.00     0.064 C 
HETATM    2  C2  UNL     1     -35.064  19.034  -3.637  1.00 20.00     0.002 C 
HETATM    3  C3  UNL     1     -33.852  19.263  -2.738  1.00 20.00     0.019 C 
HETATM    4  C4  UNL     1     -34.380  17.014  -1.541  1.00 20.00     0.019 C 
HETATM    5  C5  UNL     1     -34.867  17.866  -4.604  1.00 20.00     0.005 C 
HETATM    6  C6  UNL     1     -33.971  16.250  -2.801  1.00 20.00     0.006 C 
HETATM    7  C7  UNL     1     -33.850  18.450  -1.437  1.00 20.00     0.093 C 
HETATM    8  C8  UNL     1     -34.940  16.467  -3.977  1.00 20.00    -0.011 C 
HETATM    9  N12 UNL     1     -31.419  18.455  -0.412  1.00 20.00    -0.197 NA
ENDROOT
BRANCH   8  10
HETATM   10  C11 UNL     1     -34.676  15.416  -5.062  1.00 20.00    -0.019 C 
HETATM   11  C9  UNL     1     -33.300  15.631  -5.685  1.00 20.00     0.010 C 
HETATM   12  C10 UNL     1     -34.794  14.011  -4.481  1.00 20.00     0.010 C 
ENDBRANCH   8  10
TORSDOF 1
ENDMDL
MODEL 9
REMARK VINA RESULT:      -4.5     10.440     11.370
REMARK  1 active torsions:
REMARK  status: ('A' for Active; 'I' for Inactive)
REMARK    1  A    between atoms: C8_8  and  C11_11 
ROOT
HETATM    1  C1  UNL     1     -33.419  14.689  -4.257  1.00 20.00     0.064 C 
HETATM    2  C2  UNL     1     -36.360  16.777  -2.967  1.00 20.00     0.002 C 
HETATM    3  C3  UNL     1     -35.552  15.557  -3.402  1.00 20.00     0.019 C 
HETATM    4  C4  UNL     1     -33.515  17.120  -3.819  1.00 20.00     0.019 C 
HETATM    5  C5  UNL     1     -35.871  17.365  -1.644  1.00 20.00     0.005 C 
HETATM    6  C6  UNL     1     -33.378  17.340  -2.312  1.00 20.00     0.006 C 
HETATM    7  C7  UNL     1     -34.305  15.873  -4.237  1.00 20.00     0.093 C 
HETATM    8  C8  UNL     1     -34.547  18.140  -1.712  1.00 20.00    -0.011 C 
HETATM    9  N12 UNL     1     -32.724  13.760  -4.273  1.00 20.00    -0.197 NA
ENDROOT
BRANCH   8  10
HETATM   10  C11 UNL     1     -34.174  18.621  -0.304  1.00 20.00    -0.019 C 
HETATM   11  C9  UNL     1     -35.021  17.903   0.742  1.00 20.00     0.010 C 
HETATM   12  C10 UNL     1     -32.688  18.399  -0.045  1.00 20.00     0.010 C 
ENDBRANCH   8  10
TORSDOF 1
ENDMDL
