MODEL 1
REMARK VINA RESULT:      -4.1      0.000      0.000
REMARK  2 active torsions:
REMARK  status: ('A' for Active; 'I' for Inactive)
REMARK    1  A    between atoms: C5_5  and  S11_11 
REMARK    2  A    between atoms: C9_9  and  S11_11 
ROOT
HETATM    1  C1  UNL     1     -33.238  14.585  -4.317  1.00 20.00     0.080 C 
HETATM    2  C2  UNL     1     -34.482  16.579  -2.439  1.00 20.00     0.005 C 
HETATM    3  C3  UNL     1     -35.329  15.711  -3.394  1.00 20.00     0.036 C 
HETATM    4  C4  UNL     1     -33.649  17.012  -3.665  1.00 20.00     0.036 C 
HETATM    5  C5  UNL     1     -34.129  15.721  -4.375  1.00 20.00     0.097 C 
HETATM    6  N10 UNL     1     -32.524  13.673  -4.269  1.00 20.00    -0.196 NA
ENDROOT
BRANCH   5   7
HETATM    7  S11 UNL     1     -34.646  16.027  -6.101  1.00 20.00    -0.135 SA
BRANCH   7   8
HETATM    8  C9  UNL     1     -35.497  14.428  -6.393  1.00 20.00    -0.001 C 
HETATM    9  C6  UNL     1     -36.759  14.688  -7.221  1.00 20.00     0.026 C 
HETATM   10  C7  UNL     1     -34.543  13.505  -7.155  1.00 20.00     0.026 C 
HETATM   11  C8  UNL     1     -35.864  13.813  -5.040  1.00 20.00     0.026 C 
ENDBRANCH   7   8
ENDBRANCH   5   7
TORSDOF 2
ENDMDL
MODEL 2
REMARK VINA RESULT:      -4.1      0.007      1.312
REMARK  2 active torsions:
REMARK  status: ('A' for Active; 'I' for Inactive)
REMARK    1  A    between atoms: C5_5  and  S11_11 
REMARK    2  A    between atoms: C9_9  and  S11_11 
ROOT
HETATM    1  C1  UNL     1     -33.243  14.588  -4.315  1.00 20.00     0.080 C 
HETATM    2  C2  UNL     1     -34.482  16.581  -2.433  1.00 20.00     0.005 C 
HETATM    3  C3  UNL     1     -35.332  15.714  -3.388  1.00 20.00     0.036 C 
HETATM    4  C4  UNL     1     -33.651  17.014  -3.660  1.00 20.00     0.036 C 
HETATM    5  C5  UNL     1     -34.134  15.724  -4.370  1.00 20.00     0.097 C 
HETATM    6  N10 UNL     1     -32.529  13.675  -4.269  1.00 20.00    -0.196 NA
ENDROOT
BRANCH   5   7
HETATM    7  S11 UNL     1     -34.652  16.033  -6.096  1.00 20.00    -0.135 SA
BRANCH   7   8
HETATM    8  C9  UNL     1     -35.498  14.432  -6.390  1.00 20.00    -0.001 C 
HETATM    9  C6  UNL     1     -35.873  13.819  -5.037  1.00 20.00     0.026 C 
HETATM   10  C7  UNL     1     -36.757  14.695  -7.221  1.00 20.00     0.026 C 
HETATM   11  C8  UNL     1     -34.545  13.505  -7.149  1.00 20.00     0.026 C 
ENDBRANCH   7   8
ENDBRANCH   5   7
TORSDOF 2
ENDMDL
MODEL 3
REMARK VINA RESULT:      -3.9      1.958      4.224
REMARK  2 active torsions:
REMARK  status: ('A' for Active; 'I' for Inactive)
REMARK    1  A    between atoms: C5_5  and  S11_11 
REMARK    2  A    between atoms: C9_9  and  S11_11 
ROOT
HETATM    1  C1  UNL     1     -37.168  14.371  -5.567  1.00 20.00     0.080 C 
HETATM    2  C2  UNL     1     -35.578  13.374  -7.918  1.00 20.00     0.005 C 
HETATM    3  C3  UNL     1     -34.914  13.741  -6.574  1.00 20.00     0.036 C 
HETATM    4  C4  UNL     1     -36.241  14.768  -7.905  1.00 20.00     0.036 C 
HETATM    5  C5  UNL     1     -36.039  14.786  -6.369  1.00 20.00     0.097 C 
HETATM    6  N10 UNL     1     -38.073  14.036  -4.924  1.00 20.00    -0.196 NA
ENDROOT
BRANCH   5   7
HETATM    7  S11 UNL     1     -35.398  16.389  -5.769  1.00 20.00    -0.135 SA
BRANCH   7   8
HETATM    8  C9  UNL     1     -34.865  15.836  -4.103  1.00 20.00    -0.001 C 
HETATM    9  C6  UNL     1     -34.614  14.325  -4.145  1.00 20.00     0.026 C 
HETATM   10  C7  UNL     1     -33.577  16.578  -3.736  1.00 20.00     0.026 C 
HETATM   11  C8  UNL     1     -35.973  16.165  -3.099  1.00 20.00     0.026 C 
ENDBRANCH   7   8
ENDBRANCH   5   7
TORSDOF 2
ENDMDL
MODEL 4
REMARK VINA RESULT:      -3.8      2.307      3.127
REMARK  2 active torsions:
REMARK  status: ('A' for Active; 'I' for Inactive)
REMARK    1  A    between atoms: C5_5  and  S11_11 
REMARK    2  A    between atoms: C9_9  and  S11_11 
ROOT
HETATM    1  C1  UNL     1     -35.496  13.867  -4.995  1.00 20.00     0.080 C 
HETATM    2  C2  UNL     1     -33.078  15.633  -5.279  1.00 20.00     0.005 C 
HETATM    3  C3  UNL     1     -33.741  15.362  -3.911  1.00 20.00     0.036 C 
HETATM    4  C4  UNL     1     -34.468  16.051  -5.805  1.00 20.00     0.036 C 
HETATM    5  C5  UNL     1     -35.089  15.212  -4.660  1.00 20.00     0.097 C 
HETATM    6  N10 UNL     1     -35.820  12.786  -5.264  1.00 20.00    -0.196 NA
ENDROOT
BRANCH   5   7
HETATM    7  S11 UNL     1     -36.454  16.089  -3.817  1.00 20.00    -0.135 SA
BRANCH   7   8
HETATM    8  C9  UNL     1     -37.674  16.024  -5.185  1.00 20.00    -0.001 C 
HETATM    9  C6  UNL     1     -38.555  14.785  -4.998  1.00 20.00     0.026 C 
HETATM   10  C7  UNL     1     -38.526  17.294  -5.134  1.00 20.00     0.026 C 
HETATM   11  C8  UNL     1     -36.917  15.944  -6.514  1.00 20.00     0.026 C 
ENDBRANCH   7   8
ENDBRANCH   5   7
TORSDOF 2
ENDMDL
MODEL 5
REMARK VINA RESULT:      -3.8      2.107      4.199
REMARK  2 active torsions:
REMARK  status: ('A' for Active; 'I' for Inactive)
REMARK    1  A    between atoms: C5_5  and  S11_11 
REMARK    2  A    between atoms: C9_9  and  S11_11 
ROOT
HETATM    1  C1  UNL     1     -36.897  14.105  -5.356  1.00 20.00     0.080 C 
HETATM    2  C2  UNL     1     -35.341  14.358  -7.917  1.00 20.00     0.005 C 
HETATM    3  C3  UNL     1     -35.005  13.291  -6.854  1.00 20.00     0.036 C 
HETATM    4  C4  UNL     1     -35.259  15.417  -6.797  1.00 20.00     0.036 C 
HETATM    5  C5  UNL     1     -35.527  14.279  -5.781  1.00 20.00     0.097 C 
HETATM    6  N10 UNL     1     -37.997  13.964  -5.016  1.00 20.00    -0.196 NA
ENDROOT
BRANCH   5   7
HETATM    7  S11 UNL     1     -34.425  14.371  -4.326  1.00 20.00    -0.135 SA
BRANCH   7   8
HETATM    8  C9  UNL     1     -34.773  16.110  -3.859  1.00 20.00    -0.001 C 
HETATM    9  C6  UNL     1     -36.212  16.200  -3.341  1.00 20.00     0.026 C 
HETATM   10  C7  UNL     1     -33.788  16.525  -2.764  1.00 20.00     0.026 C 
HETATM   11  C8  UNL     1     -34.597  16.995  -5.096  1.00 20.00     0.026 C 
ENDBRANCH   7   8
ENDBRANCH   5   7
TORSDOF 2
ENDMDL
MODEL 6
REMARK VINA RESULT:      -3.8      1.636      3.975
REMARK  2 active torsions:
REMARK  status: ('A' for Active; 'I' for Inactive)
REMARK    1  A    between atoms: C5_5  and  S11_11 
REMARK    2  A    between atoms: C9_9  and  S11_11 
ROOT
HETATM    1  C1  UNL     1     -35.534  13.845  -5.649  1.00 20.00     0.080 C 
HETATM    2  C2  UNL     1     -33.951  15.028  -7.917  1.00 20.00     0.005 C 
HETATM    3  C3  UNL     1     -33.643  15.358  -6.440  1.00 20.00     0.036 C 
HETATM    4  C4  UNL     1     -35.416  15.427  -7.640  1.00 20.00     0.036 C 
HETATM    5  C5  UNL     1     -35.149  15.149  -6.140  1.00 20.00     0.097 C 
HETATM    6  N10 UNL     1     -35.842  12.799  -5.255  1.00 20.00    -0.196 NA
ENDROOT
BRANCH   5   7
HETATM    7  S11 UNL     1     -35.830  16.455  -5.057  1.00 20.00    -0.135 SA
BRANCH   7   8
HETATM    8  C9  UNL     1     -34.565  16.362  -3.732  1.00 20.00    -0.001 C 
HETATM    9  C6  UNL     1     -33.614  17.554  -3.878  1.00 20.00     0.026 C 
HETATM   10  C7  UNL     1     -35.278  16.415  -2.378  1.00 20.00     0.026 C 
HETATM   11  C8  UNL     1     -33.797  15.046  -3.877  1.00 20.00     0.026 C 
ENDBRANCH   7   8
ENDBRANCH   5   7
TORSDOF 2
ENDMDL
MODEL 7
REMARK VINA RESULT:      -3.8      1.776      3.593
REMARK  2 active torsions:
REMARK  status: ('A' for Active; 'I' for Inactive)
REMARK    1  A    between atoms: C5_5  and  S11_11 
REMARK    2  A    between atoms: C9_9  and  S11_11 
ROOT
HETATM    1  C1  UNL     1     -36.037  13.851  -5.341  1.00 20.00     0.080 C 
HETATM    2  C2  UNL     1     -38.643  15.185  -4.651  1.00 20.00     0.005 C 
HETATM    3  C3  UNL     1     -38.014  15.289  -6.057  1.00 20.00     0.036 C 
HETATM    4  C4  UNL     1     -37.294  15.667  -4.075  1.00 20.00     0.036 C 
HETATM    5  C5  UNL     1     -36.624  15.170  -5.381  1.00 20.00     0.097 C 
HETATM    6  N10 UNL     1     -35.566  12.791  -5.309  1.00 20.00    -0.196 NA
ENDROOT
BRANCH   5   7
HETATM    7  S11 UNL     1     -35.421  16.374  -6.048  1.00 20.00    -0.135 SA
BRANCH   7   8
HETATM    8  C9  UNL     1     -34.192  16.274  -4.691  1.00 20.00    -0.001 C 
HETATM    9  C6  UNL     1     -33.079  15.307  -5.107  1.00 20.00     0.026 C 
HETATM   10  C7  UNL     1     -33.617  17.673  -4.454  1.00 20.00     0.026 C 
HETATM   11  C8  UNL     1     -34.894  15.767  -3.428  1.00 20.00     0.026 C 
ENDBRANCH   7   8
ENDBRANCH   5   7
TORSDOF 2
ENDMDL
MODEL 8
REMARK VINA RESULT:      -3.8      1.804      2.146
REMARK  2 active torsions:
REMARK  status: ('A' for Active; 'I' for Inactive)
REMARK    1  A    between atoms: C5_5  and  S11_11 
REMARK    2  A    between atoms: C9_9  and  S11_11 
ROOT
HETATM    1  C1  UNL     1     -34.394  14.793  -3.954  1.00 20.00     0.080 C 
HETATM    2  C2  UNL     1     -35.410  16.714  -1.874  1.00 20.00     0.005 C 
HETATM    3  C3  UNL     1     -35.808  16.827  -3.362  1.00 20.00     0.036 C 
HETATM    4  C4  UNL     1     -33.936  16.700  -2.330  1.00 20.00     0.036 C 
HETATM    5  C5  UNL     1     -34.428  16.218  -3.717  1.00 20.00     0.097 C 
HETATM    6  N10 UNL     1     -34.367  13.649  -4.143  1.00 20.00    -0.196 NA
ENDROOT
BRANCH   5   7
HETATM    7  S11 UNL     1     -33.611  17.104  -5.092  1.00 20.00    -0.135 SA
BRANCH   7   8
HETATM    8  C9  UNL     1     -34.722  16.546  -6.442  1.00 20.00    -0.001 C 
HETATM    9  C6  UNL     1     -36.085  16.193  -5.840  1.00 20.00     0.026 C 
HETATM   10  C7  UNL     1     -34.866  17.687  -7.452  1.00 20.00     0.026 C 
HETATM   11  C8  UNL     1     -34.101  15.317  -7.112  1.00 20.00     0.026 C 
ENDBRANCH   7   8
ENDBRANCH   5   7
TORSDOF 2
ENDMDL
MODEL 9
REMARK VINA RESULT:      -3.7      2.416      2.983
REMARK  2 active torsions:
REMARK  status: ('A' for Active; 'I' for Inactive)
REMARK    1  A    between atoms: C5_5  and  S11_11 
REMARK    2  A    between atoms: C9_9  and  S11_11 
ROOT
HETATM    1  C1  UNL     1     -34.735  18.105  -3.824  1.00 20.00     0.080 C 
HETATM    2  C2  UNL     1     -34.503  17.564  -0.874  1.00 20.00     0.005 C 
HETATM    3  C3  UNL     1     -33.314  17.373  -1.841  1.00 20.00     0.036 C 
HETATM    4  C4  UNL     1     -35.335  16.664  -1.813  1.00 20.00     0.036 C 
HETATM    5  C5  UNL     1     -34.343  17.026  -2.946  1.00 20.00     0.097 C 
HETATM    6  N10 UNL     1     -35.049  18.972  -4.528  1.00 20.00    -0.196 NA
ENDROOT
BRANCH   5   7
HETATM    7  S11 UNL     1     -33.844  15.567  -3.927  1.00 20.00    -0.135 SA
BRANCH   7   8
HETATM    8  C9  UNL     1     -35.458  15.251  -4.740  1.00 20.00    -0.001 C 
HETATM    9  C6  UNL     1     -35.464  15.947  -6.104  1.00 20.00     0.026 C 
HETATM   10  C7  UNL     1     -35.624  13.739  -4.915  1.00 20.00     0.026 C 
HETATM   11  C8  UNL     1     -36.573  15.809  -3.852  1.00 20.00     0.026 C 
ENDBRANCH   7   8
ENDBRANCH   5   7
TORSDOF 2
ENDMDL
