MODEL 1
REMARK VINA RESULT:      -4.7      0.000      0.000
REMARK  1 active torsions:
REMARK  status: ('A' for Active; 'I' for Inactive)
REMARK    1  A    between atoms: C4_4  and  C10_10 
ROOT
HETATM    1  C5  UNL     1     -35.266  13.651  -5.826  1.00 20.00     0.001 C 
HETATM    2  C6  UNL     1     -35.149  14.534  -7.076  1.00 20.00     0.001 C 
HETATM    3  C7  UNL     1     -35.529  14.403  -4.522  1.00 20.00     0.009 C 
HETATM    4  C8  UNL     1     -34.976  16.035  -6.841  1.00 20.00     0.020 C 
HETATM    5  C9  UNL     1     -33.223  15.569  -4.971  1.00 20.00     0.029 C 
HETATM    6  C10 UNL     1     -34.284  15.114  -3.942  1.00 20.00     0.020 C 
HETATM    7  C11 UNL     1     -33.665  16.427  -6.161  1.00 20.00     0.083 C 
HETATM    8 CL13 UNL     1     -33.731  18.161  -5.707  1.00 20.00    -0.125 Cl
ENDROOT
BRANCH   6   9
HETATM    9  C4  UNL     1     -34.591  16.186  -2.906  1.00 20.00    -0.047 A 
HETATM   10  C1  UNL     1     -33.594  16.901  -2.183  1.00 20.00     0.015 A 
HETATM   11  C2  UNL     1     -34.143  17.813  -1.308  1.00 20.00     0.050 A 
HETATM   12  S12 UNL     1     -35.855  17.804  -1.361  1.00 20.00    -0.113 SA
HETATM   13  C3  UNL     1     -35.865  16.577  -2.556  1.00 20.00     0.057 A 
ENDBRANCH   6   9
TORSDOF 1
ENDMDL
MODEL 2
REMARK VINA RESULT:      -4.7      1.121      1.443
REMARK  1 active torsions:
REMARK  status: ('A' for Active; 'I' for Inactive)
REMARK    1  A    between atoms: C4_4  and  C10_10 
ROOT
HETATM    1  C5  UNL     1     -34.635  14.094  -5.549  1.00 20.00     0.001 C 
HETATM    2  C6  UNL     1     -35.266  14.980  -6.631  1.00 20.00     0.001 C 
HETATM    3  C7  UNL     1     -34.760  14.623  -4.121  1.00 20.00     0.009 C 
HETATM    4  C8  UNL     1     -35.637  16.405  -6.220  1.00 20.00     0.020 C 
HETATM    5  C9  UNL     1     -33.362  16.670  -4.979  1.00 20.00     0.029 C 
HETATM    6  C10 UNL     1     -33.785  15.778  -3.789  1.00 20.00     0.020 C 
HETATM    7  C11 UNL     1     -34.449  17.295  -5.860  1.00 20.00     0.083 C 
HETATM    8 CL13 UNL     1     -35.052  18.824  -5.141  1.00 20.00    -0.125 Cl
ENDROOT
BRANCH   6   9
HETATM    9  C4  UNL     1     -34.157  16.587  -2.555  1.00 20.00    -0.047 A 
HETATM   10  C1  UNL     1     -35.452  16.581  -1.962  1.00 20.00     0.015 A 
HETATM   11  C2  UNL     1     -35.519  17.401  -0.857  1.00 20.00     0.050 A 
HETATM   12  S12 UNL     1     -34.025  18.174  -0.538  1.00 20.00    -0.113 SA
HETATM   13  C3  UNL     1     -33.284  17.412  -1.882  1.00 20.00     0.057 A 
ENDBRANCH   6   9
TORSDOF 1
ENDMDL
MODEL 3
REMARK VINA RESULT:      -4.6     11.025     12.002
REMARK  1 active torsions:
REMARK  status: ('A' for Active; 'I' for Inactive)
REMARK    1  A    between atoms: C4_4  and  C10_10 
ROOT
HETATM    1  C5  UNL     1     -33.561   6.730   5.808  1.00 20.00     0.001 C 
HETATM    2  C6  UNL     1     -34.744   5.857   5.369  1.00 20.00     0.001 C 
HETATM    3  C7  UNL     1     -33.176   7.842   4.833  1.00 20.00     0.009 C 
HETATM    4  C8  UNL     1     -35.175   5.973   3.907  1.00 20.00     0.020 C 
HETATM    5  C9  UNL     1     -32.688   5.901   3.137  1.00 20.00     0.029 C 
HETATM    6  C10 UNL     1     -32.394   7.349   3.592  1.00 20.00     0.020 C 
HETATM    7  C11 UNL     1     -34.141   5.480   2.895  1.00 20.00     0.083 C 
HETATM    8 CL13 UNL     1     -34.670   5.933   1.242  1.00 20.00    -0.125 Cl
ENDROOT
BRANCH   6   9
HETATM    9  C4  UNL     1     -32.364   8.332   2.431  1.00 20.00    -0.047 A 
HETATM   10  C1  UNL     1     -31.562   8.162   1.266  1.00 20.00     0.015 A 
HETATM   11  C2  UNL     1     -31.722   9.197   0.371  1.00 20.00     0.050 A 
HETATM   12  S12 UNL     1     -32.836  10.368   0.936  1.00 20.00    -0.113 SA
HETATM   13  C3  UNL     1     -33.106   9.492   2.383  1.00 20.00     0.057 A 
ENDBRANCH   6   9
TORSDOF 1
ENDMDL
MODEL 4
REMARK VINA RESULT:      -4.5      2.259      4.955
REMARK  1 active torsions:
REMARK  status: ('A' for Active; 'I' for Inactive)
REMARK    1  A    between atoms: C4_4  and  C10_10 
ROOT
HETATM    1  C5  UNL     1     -33.400  18.289  -0.536  1.00 20.00     0.001 C 
HETATM    2  C6  UNL     1     -34.585  19.263  -0.574  1.00 20.00     0.001 C 
HETATM    3  C7  UNL     1     -33.048  17.642  -1.875  1.00 20.00     0.009 C 
HETATM    4  C8  UNL     1     -35.465  19.225  -1.824  1.00 20.00     0.020 C 
HETATM    5  C9  UNL     1     -35.462  16.620  -1.780  1.00 20.00     0.029 C 
HETATM    6  C10 UNL     1     -34.010  16.506  -2.299  1.00 20.00     0.020 C 
HETATM    7  C11 UNL     1     -36.236  17.920  -2.021  1.00 20.00     0.083 C 
HETATM    8 CL13 UNL     1     -36.991  17.921  -3.648  1.00 20.00    -0.125 Cl
ENDROOT
BRANCH   6   9
HETATM    9  C4  UNL     1     -33.943  16.137  -3.774  1.00 20.00    -0.047 A 
HETATM   10  C1  UNL     1     -34.159  14.820  -4.273  1.00 20.00     0.015 A 
HETATM   11  C2  UNL     1     -34.039  14.761  -5.645  1.00 20.00     0.050 A 
HETATM   12  S12 UNL     1     -33.668  16.289  -6.324  1.00 20.00    -0.113 SA
HETATM   13  C3  UNL     1     -33.666  17.034  -4.782  1.00 20.00     0.057 A 
ENDBRANCH   6   9
TORSDOF 1
ENDMDL
MODEL 5
REMARK VINA RESULT:      -4.5      2.207      4.718
REMARK  1 active torsions:
REMARK  status: ('A' for Active; 'I' for Inactive)
REMARK    1  A    between atoms: C4_4  and  C10_10 
ROOT
HETATM    1  C5  UNL     1     -33.684  18.101  -0.798  1.00 20.00     0.001 C 
HETATM    2  C6  UNL     1     -34.646  19.263  -1.084  1.00 20.00     0.001 C 
HETATM    3  C7  UNL     1     -33.279  17.278  -2.020  1.00 20.00     0.009 C 
HETATM    4  C8  UNL     1     -35.334  19.263  -2.449  1.00 20.00     0.020 C 
HETATM    5  C9  UNL     1     -35.832  16.715  -2.229  1.00 20.00     0.029 C 
HETATM    6  C10 UNL     1     -34.370  16.296  -2.509  1.00 20.00     0.020 C 
HETATM    7  C11 UNL     1     -36.304  18.103  -2.675  1.00 20.00     0.083 C 
HETATM    8 CL13 UNL     1     -36.811  18.084  -4.395  1.00 20.00    -0.125 Cl
ENDROOT
BRANCH   6   9
HETATM    9  C4  UNL     1     -34.171  15.782  -3.927  1.00 20.00    -0.047 A 
HETATM   10  C1  UNL     1     -33.354  16.429  -4.899  1.00 20.00     0.015 A 
HETATM   11  C2  UNL     1     -33.347  15.755  -6.100  1.00 20.00     0.050 A 
HETATM   12  S12 UNL     1     -34.323  14.348  -6.054  1.00 20.00    -0.113 SA
HETATM   13  C3  UNL     1     -34.758  14.639  -4.423  1.00 20.00     0.057 A 
ENDBRANCH   6   9
TORSDOF 1
ENDMDL
MODEL 6
REMARK VINA RESULT:      -4.4      1.760      2.037
REMARK  1 active torsions:
REMARK  status: ('A' for Active; 'I' for Inactive)
REMARK    1  A    between atoms: C4_4  and  C10_10 
ROOT
HETATM    1  C5  UNL     1     -37.385  14.734  -4.660  1.00 20.00     0.001 C 
HETATM    2  C6  UNL     1     -36.857  14.380  -6.058  1.00 20.00     0.001 C 
HETATM    3  C7  UNL     1     -36.705  15.929  -3.993  1.00 20.00     0.009 C 
HETATM    4  C8  UNL     1     -35.534  15.022  -6.474  1.00 20.00     0.020 C 
HETATM    5  C9  UNL     1     -34.512  14.497  -4.135  1.00 20.00     0.029 C 
HETATM    6  C10 UNL     1     -35.302  15.617  -3.420  1.00 20.00     0.020 C 
HETATM    7  C11 UNL     1     -34.323  14.576  -5.654  1.00 20.00     0.083 C 
HETATM    8 CL13 UNL     1     -32.916  15.607  -6.070  1.00 20.00    -0.125 Cl
ENDROOT
BRANCH   6   9
HETATM    9  C4  UNL     1     -34.447  16.844  -3.134  1.00 20.00    -0.047 A 
HETATM   10  C1  UNL     1     -33.671  17.013  -1.951  1.00 20.00     0.015 A 
HETATM   11  C2  UNL     1     -32.993  18.212  -1.944  1.00 20.00     0.050 A 
HETATM   12  S12 UNL     1     -33.294  19.129  -3.359  1.00 20.00    -0.113 SA
HETATM   13  C3  UNL     1     -34.334  17.921  -3.985  1.00 20.00     0.057 A 
ENDBRANCH   6   9
TORSDOF 1
ENDMDL
MODEL 7
REMARK VINA RESULT:      -4.4      2.253      4.504
REMARK  1 active torsions:
REMARK  status: ('A' for Active; 'I' for Inactive)
REMARK    1  A    between atoms: C4_4  and  C10_10 
ROOT
HETATM    1  C5  UNL     1     -34.758  18.021  -0.334  1.00 20.00     0.001 C 
HETATM    2  C6  UNL     1     -33.490  18.717  -0.848  1.00 20.00     0.001 C 
HETATM    3  C7  UNL     1     -35.191  16.790  -1.130  1.00 20.00     0.009 C 
HETATM    4  C8  UNL     1     -33.009  18.322  -2.244  1.00 20.00     0.020 C 
HETATM    5  C9  UNL     1     -35.449  18.444  -3.150  1.00 20.00     0.029 C 
HETATM    6  C10 UNL     1     -35.879  17.120  -2.476  1.00 20.00     0.020 C 
HETATM    7  C11 UNL     1     -33.957  18.709  -3.379  1.00 20.00     0.083 C 
HETATM    8 CL13 UNL     1     -33.399  17.943  -4.902  1.00 20.00    -0.125 Cl
ENDROOT
BRANCH   6   9
HETATM    9  C4  UNL     1     -35.941  15.958  -3.457  1.00 20.00    -0.047 A 
HETATM   10  C1  UNL     1     -34.860  15.061  -3.695  1.00 20.00     0.015 A 
HETATM   11  C2  UNL     1     -35.181  14.101  -4.630  1.00 20.00     0.050 A 
HETATM   12  S12 UNL     1     -36.779  14.283  -5.216  1.00 20.00    -0.113 SA
HETATM   13  C3  UNL     1     -37.046  15.650  -4.219  1.00 20.00     0.057 A 
ENDBRANCH   6   9
TORSDOF 1
ENDMDL
MODEL 8
REMARK VINA RESULT:      -4.3      2.524      4.550
REMARK  1 active torsions:
REMARK  status: ('A' for Active; 'I' for Inactive)
REMARK    1  A    between atoms: C4_4  and  C10_10 
ROOT
HETATM    1  C5  UNL     1     -33.907  17.013  -2.067  1.00 20.00     0.001 C 
HETATM    2  C6  UNL     1     -34.600  18.344  -2.390  1.00 20.00     0.001 C 
HETATM    3  C7  UNL     1     -33.664  16.099  -3.268  1.00 20.00     0.009 C 
HETATM    4  C8  UNL     1     -35.251  18.461  -3.768  1.00 20.00     0.020 C 
HETATM    5  C9  UNL     1     -36.274  16.079  -3.518  1.00 20.00     0.029 C 
HETATM    6  C10 UNL     1     -34.929  15.358  -3.763  1.00 20.00     0.020 C 
HETATM    7  C11 UNL     1     -36.438  17.526  -3.995  1.00 20.00     0.083 C 
HETATM    8 CL13 UNL     1     -36.911  17.580  -5.724  1.00 20.00    -0.125 Cl
ENDROOT
BRANCH   6   9
HETATM    9  C4  UNL     1     -34.818  14.786  -5.169  1.00 20.00    -0.047 A 
HETATM   10  C1  UNL     1     -33.959  15.314  -6.176  1.00 20.00     0.015 A 
HETATM   11  C2  UNL     1     -34.053  14.610  -7.357  1.00 20.00     0.050 A 
HETATM   12  S12 UNL     1     -35.174  13.320  -7.249  1.00 20.00    -0.113 SA
HETATM   13  C3  UNL     1     -35.537  13.701  -5.619  1.00 20.00     0.057 A 
ENDBRANCH   6   9
TORSDOF 1
ENDMDL
MODEL 9
REMARK VINA RESULT:      -4.3      1.406      1.689
REMARK  1 active torsions:
REMARK  status: ('A' for Active; 'I' for Inactive)
REMARK    1  A    between atoms: C4_4  and  C10_10 
ROOT
HETATM    1  C5  UNL     1     -35.885  15.156  -4.817  1.00 20.00     0.001 C 
HETATM    2  C6  UNL     1     -35.771  16.175  -5.960  1.00 20.00     0.001 C 
HETATM    3  C7  UNL     1     -35.752  15.740  -3.412  1.00 20.00     0.009 C 
HETATM    4  C8  UNL     1     -35.220  17.554  -5.597  1.00 20.00     0.020 C 
HETATM    5  C9  UNL     1     -33.343  16.457  -4.161  1.00 20.00     0.029 C 
HETATM    6  C10 UNL     1     -34.299  16.081  -3.005  1.00 20.00     0.020 C 
HETATM    7  C11 UNL     1     -33.761  17.558  -5.141  1.00 20.00     0.083 C 
HETATM    8 CL13 UNL     1     -33.350  19.179  -4.492  1.00 20.00    -0.125 Cl
ENDROOT
BRANCH   6   9
HETATM    9  C4  UNL     1     -34.178  17.024  -1.817  1.00 20.00    -0.047 A 
HETATM   10  C1  UNL     1     -32.985  17.723  -1.475  1.00 20.00     0.015 A 
HETATM   11  C2  UNL     1     -33.147  18.509  -0.355  1.00 20.00     0.050 A 
HETATM   12  S12 UNL     1     -34.734  18.401   0.280  1.00 20.00    -0.113 SA
HETATM   13  C3  UNL     1     -35.207  17.301  -0.944  1.00 20.00     0.057 A 
ENDBRANCH   6   9
TORSDOF 1
ENDMDL
