MODEL 1
REMARK VINA RESULT:      -5.0      0.000      0.000
REMARK  2 active torsions:
REMARK  status: ('A' for Active; 'I' for Inactive)
REMARK    1  A    between atoms: C8_8  and  C10_10 
REMARK    2  A    between atoms: C10_10  and  C11_11 
ROOT
HETATM    1  C1  UNL     1     -35.248  13.554  -6.343  1.00 20.00     0.064 C 
HETATM    2  C2  UNL     1     -33.273  15.297  -4.355  1.00 20.00     0.002 C 
HETATM    3  C3  UNL     1     -34.025  15.587  -5.653  1.00 20.00     0.019 C 
HETATM    4  C4  UNL     1     -36.228  14.837  -4.492  1.00 20.00     0.019 C 
HETATM    5  C5  UNL     1     -33.637  16.270  -3.232  1.00 20.00     0.005 C 
HETATM    6  C6  UNL     1     -36.182  16.087  -3.614  1.00 20.00     0.006 C 
HETATM    7  C7  UNL     1     -35.398  14.913  -5.779  1.00 20.00     0.093 C 
HETATM    8  C8  UNL     1     -35.022  16.070  -2.604  1.00 20.00    -0.014 C 
HETATM    9  N12 UNL     1     -35.131  12.487  -6.784  1.00 20.00    -0.197 NA
ENDROOT
BRANCH   8  10
HETATM   10  C10 UNL     1     -35.252  17.150  -1.539  1.00 20.00     0.004 C 
BRANCH  10  11
HETATM   11  C11 UNL     1     -33.932  17.761  -1.088  1.00 20.00    -0.004 C 
HETATM   12  C9  UNL     1     -34.033  18.289   0.334  1.00 20.00     0.005 C 
ENDBRANCH  10  11
ENDBRANCH   8  10
TORSDOF 2
ENDMDL
MODEL 2
REMARK VINA RESULT:      -4.9      0.908      1.245
REMARK  2 active torsions:
REMARK  status: ('A' for Active; 'I' for Inactive)
REMARK    1  A    between atoms: C8_8  and  C10_10 
REMARK    2  A    between atoms: C10_10  and  C11_11 
ROOT
HETATM    1  C1  UNL     1     -35.347  13.304  -6.530  1.00 20.00     0.064 C 
HETATM    2  C2  UNL     1     -33.436  15.950  -6.047  1.00 20.00     0.002 C 
HETATM    3  C3  UNL     1     -34.894  15.731  -6.450  1.00 20.00     0.019 C 
HETATM    4  C4  UNL     1     -35.228  14.314  -4.295  1.00 20.00     0.019 C 
HETATM    5  C5  UNL     1     -33.292  16.833  -4.806  1.00 20.00     0.005 C 
HETATM    6  C6  UNL     1     -35.095  15.581  -3.450  1.00 20.00     0.006 C 
HETATM    7  C7  UNL     1     -35.590  14.547  -5.767  1.00 20.00     0.093 C 
HETATM    8  C8  UNL     1     -33.676  16.173  -3.475  1.00 20.00    -0.014 C 
HETATM    9  N12 UNL     1     -35.156  12.328  -7.128  1.00 20.00    -0.197 NA
ENDROOT
BRANCH   8  10
HETATM   10  C10 UNL     1     -33.527  17.199  -2.345  1.00 20.00     0.004 C 
BRANCH  10  11
HETATM   11  C11 UNL     1     -34.650  17.056  -1.327  1.00 20.00    -0.004 C 
HETATM   12  C9  UNL     1     -34.437  17.988  -0.144  1.00 20.00     0.005 C 
ENDBRANCH  10  11
ENDBRANCH   8  10
TORSDOF 2
ENDMDL
MODEL 3
REMARK VINA RESULT:      -4.9     11.118     11.818
REMARK  2 active torsions:
REMARK  status: ('A' for Active; 'I' for Inactive)
REMARK    1  A    between atoms: C8_8  and  C10_10 
REMARK    2  A    between atoms: C10_10  and  C11_11 
ROOT
HETATM    1  C1  UNL     1     -34.623   5.457   5.566  1.00 20.00     0.064 C 
HETATM    2  C2  UNL     1     -33.240   5.388   2.570  1.00 20.00     0.002 C 
HETATM    3  C3  UNL     1     -34.623   5.748   3.113  1.00 20.00     0.019 C 
HETATM    4  C4  UNL     1     -33.499   7.466   4.710  1.00 20.00     0.019 C 
HETATM    5  C5  UNL     1     -32.608   6.525   1.765  1.00 20.00     0.005 C 
HETATM    6  C6  UNL     1     -33.155   8.346   3.509  1.00 20.00     0.006 C 
HETATM    7  C7  UNL     1     -34.628   6.454   4.475  1.00 20.00     0.093 C 
HETATM    8  C8  UNL     1     -32.097   7.716   2.586  1.00 20.00    -0.014 C 
HETATM    9  N12 UNL     1     -34.617   4.674   6.422  1.00 20.00    -0.197 NA
ENDROOT
BRANCH   8  10
HETATM   10  C10 UNL     1     -31.545   8.783   1.633  1.00 20.00     0.004 C 
BRANCH  10  11
HETATM   11  C11 UNL     1     -32.638   9.755   1.210  1.00 20.00    -0.004 C 
HETATM   12  C9  UNL     1     -33.017   9.548  -0.248  1.00 20.00     0.005 C 
ENDBRANCH  10  11
ENDBRANCH   8  10
TORSDOF 2
ENDMDL
MODEL 4
REMARK VINA RESULT:      -4.9      3.752      6.531
REMARK  2 active torsions:
REMARK  status: ('A' for Active; 'I' for Inactive)
REMARK    1  A    between atoms: C8_8  and  C10_10 
REMARK    2  A    between atoms: C10_10  and  C11_11 
ROOT
HETATM    1  C1  UNL     1     -33.113  18.991   1.985  1.00 20.00     0.064 C 
HETATM    2  C2  UNL     1     -35.297  17.409   0.082  1.00 20.00     0.002 C 
HETATM    3  C3  UNL     1     -34.955  18.875   0.342  1.00 20.00     0.019 C 
HETATM    4  C4  UNL     1     -32.488  18.368  -0.307  1.00 20.00     0.019 C 
HETATM    5  C5  UNL     1     -35.206  17.035  -1.398  1.00 20.00     0.005 C 
HETATM    6  C6  UNL     1     -32.919  18.173  -1.761  1.00 20.00     0.006 C 
HETATM    7  C7  UNL     1     -33.465  19.172   0.560  1.00 20.00     0.093 C 
HETATM    8  C8  UNL     1     -33.786  16.919  -1.967  1.00 20.00    -0.014 C 
HETATM    9  N12 UNL     1     -32.836  18.848   3.102  1.00 20.00    -0.197 NA
ENDROOT
BRANCH   8  10
HETATM   10  C10 UNL     1     -33.869  16.593  -3.464  1.00 20.00     0.004 C 
BRANCH  10  11
HETATM   11  C11 UNL     1     -34.978  15.587  -3.741  1.00 20.00    -0.004 C 
HETATM   12  C9  UNL     1     -34.404  14.241  -4.154  1.00 20.00     0.005 C 
ENDBRANCH  10  11
ENDBRANCH   8  10
TORSDOF 2
ENDMDL
MODEL 5
REMARK VINA RESULT:      -4.7      1.107      1.293
REMARK  2 active torsions:
REMARK  status: ('A' for Active; 'I' for Inactive)
REMARK    1  A    between atoms: C8_8  and  C10_10 
REMARK    2  A    between atoms: C10_10  and  C11_11 
ROOT
HETATM    1  C1  UNL     1     -35.826  13.907  -5.163  1.00 20.00     0.064 C 
HETATM    2  C2  UNL     1     -33.493  15.622  -3.580  1.00 20.00     0.002 C 
HETATM    3  C3  UNL     1     -34.240  15.783  -4.903  1.00 20.00     0.019 C 
HETATM    4  C4  UNL     1     -36.485  15.677  -3.594  1.00 20.00     0.019 C 
HETATM    5  C5  UNL     1     -33.632  16.843  -2.670  1.00 20.00     0.005 C 
HETATM    6  C6  UNL     1     -36.185  17.045  -2.983  1.00 20.00     0.006 C 
HETATM    7  C7  UNL     1     -35.713  15.353  -4.879  1.00 20.00     0.093 C 
HETATM    8  C8  UNL     1     -35.002  17.018  -2.001  1.00 20.00    -0.014 C 
HETATM    9  N12 UNL     1     -35.914  12.771  -5.384  1.00 20.00    -0.197 NA
ENDROOT
BRANCH   8  10
HETATM   10  C10 UNL     1     -34.994  18.307  -1.169  1.00 20.00     0.004 C 
BRANCH  10  11
HETATM   11  C11 UNL     1     -34.622  18.020   0.279  1.00 20.00    -0.004 C 
HETATM   12  C9  UNL     1     -35.840  17.588   1.079  1.00 20.00     0.005 C 
ENDBRANCH  10  11
ENDBRANCH   8  10
TORSDOF 2
ENDMDL
MODEL 6
REMARK VINA RESULT:      -4.7      0.999      1.134
REMARK  2 active torsions:
REMARK  status: ('A' for Active; 'I' for Inactive)
REMARK    1  A    between atoms: C8_8  and  C10_10 
REMARK    2  A    between atoms: C10_10  and  C11_11 
ROOT
HETATM    1  C1  UNL     1     -35.868  13.953  -5.193  1.00 20.00     0.064 C 
HETATM    2  C2  UNL     1     -33.425  15.581  -3.686  1.00 20.00     0.002 C 
HETATM    3  C3  UNL     1     -34.285  15.831  -4.924  1.00 20.00     0.019 C 
HETATM    4  C4  UNL     1     -36.408  15.587  -3.442  1.00 20.00     0.019 C 
HETATM    5  C5  UNL     1     -33.498  16.726  -2.675  1.00 20.00     0.005 C 
HETATM    6  C6  UNL     1     -36.071  16.909  -2.754  1.00 20.00     0.006 C 
HETATM    7  C7  UNL     1     -35.746  15.375  -4.809  1.00 20.00     0.093 C 
HETATM    8  C8  UNL     1     -34.807  16.827  -1.881  1.00 20.00    -0.014 C 
HETATM    9  N12 UNL     1     -35.963  12.837  -5.494  1.00 20.00    -0.197 NA
ENDROOT
BRANCH   8  10
HETATM   10  C10 UNL     1     -34.741  18.049  -0.955  1.00 20.00     0.004 C 
BRANCH  10  11
HETATM   11  C11 UNL     1     -33.298  18.462  -0.700  1.00 20.00    -0.004 C 
HETATM   12  C9  UNL     1     -33.068  18.758   0.774  1.00 20.00     0.005 C 
ENDBRANCH  10  11
ENDBRANCH   8  10
TORSDOF 2
ENDMDL
MODEL 7
REMARK VINA RESULT:      -4.6      2.234      3.530
REMARK  2 active torsions:
REMARK  status: ('A' for Active; 'I' for Inactive)
REMARK    1  A    between atoms: C8_8  and  C10_10 
REMARK    2  A    between atoms: C10_10  and  C11_11 
ROOT
HETATM    1  C1  UNL     1     -34.142  17.031  -5.139  1.00 20.00     0.064 C 
HETATM    2  C2  UNL     1     -35.693  16.666  -2.249  1.00 20.00     0.002 C 
HETATM    3  C3  UNL     1     -34.619  15.884  -3.003  1.00 20.00     0.019 C 
HETATM    4  C4  UNL     1     -33.188  18.053  -3.120  1.00 20.00     0.019 C 
HETATM    5  C5  UNL     1     -35.247  17.081  -0.846  1.00 20.00     0.005 C 
HETATM    6  C6  UNL     1     -32.948  17.967  -1.613  1.00 20.00     0.006 C 
HETATM    7  C7  UNL     1     -33.616  16.740  -3.788  1.00 20.00     0.093 C 
HETATM    8  C8  UNL     1     -34.220  18.220  -0.787  1.00 20.00    -0.014 C 
HETATM    9  N12 UNL     1     -34.556  17.260  -6.198  1.00 20.00    -0.197 NA
ENDROOT
BRANCH   8  10
HETATM   10  C10 UNL     1     -33.840  18.478   0.677  1.00 20.00     0.004 C 
BRANCH  10  11
HETATM   11  C11 UNL     1     -32.368  18.844   0.802  1.00 20.00    -0.004 C 
HETATM   12  C9  UNL     1     -31.877  18.654   2.228  1.00 20.00     0.005 C 
ENDBRANCH  10  11
ENDBRANCH   8  10
TORSDOF 2
ENDMDL
MODEL 8
REMARK VINA RESULT:      -4.4      1.628      1.988
REMARK  2 active torsions:
REMARK  status: ('A' for Active; 'I' for Inactive)
REMARK    1  A    between atoms: C8_8  and  C10_10 
REMARK    2  A    between atoms: C10_10  and  C11_11 
ROOT
HETATM    1  C1  UNL     1     -37.614  14.826  -5.090  1.00 20.00     0.064 C 
HETATM    2  C2  UNL     1     -34.470  14.651  -4.104  1.00 20.00     0.002 C 
HETATM    3  C3  UNL     1     -35.175  15.083  -5.389  1.00 20.00     0.019 C 
HETATM    4  C4  UNL     1     -36.584  16.768  -3.995  1.00 20.00     0.019 C 
HETATM    5  C5  UNL     1     -33.568  15.745  -3.528  1.00 20.00     0.005 C 
HETATM    6  C6  UNL     1     -35.332  17.614  -3.767  1.00 20.00     0.006 C 
HETATM    7  C7  UNL     1     -36.512  15.807  -5.189  1.00 20.00     0.093 C 
HETATM    8  C8  UNL     1     -34.295  16.922  -2.865  1.00 20.00    -0.014 C 
HETATM    9  N12 UNL     1     -38.478  14.056  -5.012  1.00 20.00    -0.197 NA
ENDROOT
BRANCH   8  10
HETATM   10  C10 UNL     1     -33.260  17.949  -2.390  1.00 20.00     0.004 C 
BRANCH  10  11
HETATM   11  C11 UNL     1     -33.271  18.073  -0.872  1.00 20.00    -0.004 C 
HETATM   12  C9  UNL     1     -34.630  17.698  -0.304  1.00 20.00     0.005 C 
ENDBRANCH  10  11
ENDBRANCH   8  10
TORSDOF 2
ENDMDL
MODEL 9
REMARK VINA RESULT:      -4.3      1.200      2.122
REMARK  2 active torsions:
REMARK  status: ('A' for Active; 'I' for Inactive)
REMARK    1  A    between atoms: C8_8  and  C10_10 
REMARK    2  A    between atoms: C10_10  and  C11_11 
ROOT
HETATM    1  C1  UNL     1     -33.854  15.029  -6.767  1.00 20.00     0.064 C 
HETATM    2  C2  UNL     1     -36.277  15.424  -4.561  1.00 20.00     0.002 C 
HETATM    3  C3  UNL     1     -35.241  14.336  -4.843  1.00 20.00     0.019 C 
HETATM    4  C4  UNL     1     -33.368  16.128  -4.626  1.00 20.00     0.019 C 
HETATM    5  C5  UNL     1     -36.209  15.946  -3.125  1.00 20.00     0.005 C 
HETATM    6  C6  UNL     1     -33.643  16.223  -3.125  1.00 20.00     0.006 C 
HETATM    7  C7  UNL     1     -33.867  14.844  -5.300  1.00 20.00     0.093 C 
HETATM    8  C8  UNL     1     -35.011  16.850  -2.804  1.00 20.00    -0.014 C 
HETATM    9  N12 UNL     1     -33.844  15.174  -7.918  1.00 20.00    -0.197 NA
ENDROOT
BRANCH   8  10
HETATM   10  C10 UNL     1     -35.062  17.243  -1.322  1.00 20.00     0.004 C 
BRANCH  10  11
HETATM   11  C11 UNL     1     -33.730  17.823  -0.867  1.00 20.00    -0.004 C 
HETATM   12  C9  UNL     1     -33.855  18.462   0.507  1.00 20.00     0.005 C 
ENDBRANCH  10  11
ENDBRANCH   8  10
TORSDOF 2
ENDMDL
