MODEL 1
REMARK VINA RESULT:      -4.7      0.000      0.000
REMARK  0 active torsions:
REMARK  status: ('A' for Active; 'I' for Inactive)
ROOT
HETATM    1  C1  UNL     1     -37.337  14.451  -5.414  1.00 20.00     0.085 C 
HETATM    2  C2  UNL     1     -34.402  14.188  -4.121  1.00 20.00     0.004 C 
HETATM    3  C3  UNL     1     -34.900  14.025  -5.561  1.00 20.00     0.041 C 
HETATM    4  C4  UNL     1     -35.854  16.435  -5.694  1.00 20.00     0.042 C 
HETATM    5  C5  UNL     1     -33.605  15.478  -3.927  1.00 20.00     0.009 C 
HETATM    6  C6  UNL     1     -35.813  16.812  -4.207  1.00 20.00     0.011 C 
HETATM    7  C7  UNL     1     -36.063  14.936  -5.981  1.00 20.00     0.125 C 
HETATM    8  C8  UNL     1     -34.431  16.717  -3.516  1.00 20.00    -0.048 C 
HETATM    9  C9  UNL     1     -33.602  17.979  -3.841  1.00 20.00     0.015 C 
HETATM   10  C10 UNL     1     -34.664  16.697  -1.989  1.00 20.00     0.015 C 
HETATM   11  N11 UNL     1     -38.338  14.071  -4.968  1.00 20.00    -0.195 NA
HETATM   12 CL12 UNL     1     -36.269  14.748  -7.774  1.00 20.00    -0.103 Cl
ENDROOT
TORSDOF 0
ENDMDL
MODEL 2
REMARK VINA RESULT:      -4.3      1.988      2.951
REMARK  0 active torsions:
REMARK  status: ('A' for Active; 'I' for Inactive)
ROOT
HETATM    1  C1  UNL     1     -34.744  14.643  -4.206  1.00 20.00     0.085 C 
HETATM    2  C2  UNL     1     -33.535  17.610  -4.513  1.00 20.00     0.004 C 
HETATM    3  C3  UNL     1     -34.744  16.930  -5.164  1.00 20.00     0.041 C 
HETATM    4  C4  UNL     1     -35.903  16.421  -2.899  1.00 20.00     0.042 C 
HETATM    5  C5  UNL     1     -33.947  18.645  -3.466  1.00 20.00     0.009 C 
HETATM    6  C6  UNL     1     -34.736  16.699  -1.942  1.00 20.00     0.011 C 
HETATM    7  C7  UNL     1     -35.496  15.911  -4.294  1.00 20.00     0.125 C 
HETATM    8  C8  UNL     1     -34.106  18.110  -2.025  1.00 20.00    -0.048 C 
HETATM    9  C9  UNL     1     -34.974  19.112  -1.232  1.00 20.00     0.015 C 
HETATM   10  C10 UNL     1     -32.722  18.054  -1.342  1.00 20.00     0.015 C 
HETATM   11  N11 UNL     1     -34.153  13.647  -4.136  1.00 20.00    -0.195 NA
HETATM   12 CL12 UNL     1     -37.017  15.471  -5.180  1.00 20.00    -0.103 Cl
ENDROOT
TORSDOF 0
ENDMDL
MODEL 3
REMARK VINA RESULT:      -4.3      1.994      2.965
REMARK  0 active torsions:
REMARK  status: ('A' for Active; 'I' for Inactive)
ROOT
HETATM    1  C1  UNL     1     -34.401  15.083  -6.275  1.00 20.00     0.085 C 
HETATM    2  C2  UNL     1     -35.904  17.535  -4.832  1.00 20.00     0.004 C 
HETATM    3  C3  UNL     1     -36.371  16.120  -5.186  1.00 20.00     0.041 C 
HETATM    4  C4  UNL     1     -34.516  14.963  -3.789  1.00 20.00     0.042 C 
HETATM    5  C5  UNL     1     -35.674  17.710  -3.330  1.00 20.00     0.009 C 
HETATM    6  C6  UNL     1     -33.598  16.167  -3.531  1.00 20.00     0.011 C 
HETATM    7  C7  UNL     1     -35.305  15.017  -5.110  1.00 20.00     0.125 C 
HETATM    8  C8  UNL     1     -34.248  17.384  -2.831  1.00 20.00    -0.048 C 
HETATM    9  C9  UNL     1     -34.318  17.131  -1.309  1.00 20.00     0.015 C 
HETATM   10  C10 UNL     1     -33.333  18.607  -3.057  1.00 20.00     0.015 C 
HETATM   11  N11 UNL     1     -33.690  15.135  -7.191  1.00 20.00    -0.195 NA
HETATM   12 CL12 UNL     1     -36.164  13.430  -5.297  1.00 20.00    -0.103 Cl
ENDROOT
TORSDOF 0
ENDMDL
MODEL 4
REMARK VINA RESULT:      -4.2      2.888      4.258
REMARK  0 active torsions:
REMARK  status: ('A' for Active; 'I' for Inactive)
ROOT
HETATM    1  C1  UNL     1     -35.316  18.187  -3.443  1.00 20.00     0.085 C 
HETATM    2  C2  UNL     1     -33.290  15.917  -4.491  1.00 20.00     0.004 C 
HETATM    3  C3  UNL     1     -33.707  16.338  -3.078  1.00 20.00     0.041 C 
HETATM    4  C4  UNL     1     -36.225  15.867  -3.487  1.00 20.00     0.042 C 
HETATM    5  C5  UNL     1     -33.895  14.573  -4.897  1.00 20.00     0.009 C 
HETATM    6  C6  UNL     1     -36.218  15.724  -5.015  1.00 20.00     0.011 C 
HETATM    7  C7  UNL     1     -35.157  16.818  -2.915  1.00 20.00     0.125 C 
HETATM    8  C8  UNL     1     -35.272  14.645  -5.595  1.00 20.00    -0.048 C 
HETATM    9  C9  UNL     1     -35.941  13.257  -5.485  1.00 20.00     0.015 C 
HETATM   10  C10 UNL     1     -35.072  14.945  -7.096  1.00 20.00     0.015 C 
HETATM   11  N11 UNL     1     -35.442  19.263  -3.858  1.00 20.00    -0.195 NA
HETATM   12 CL12 UNL     1     -35.469  16.982  -1.135  1.00 20.00    -0.103 Cl
ENDROOT
TORSDOF 0
ENDMDL
MODEL 5
REMARK VINA RESULT:      -4.2      2.812      4.330
REMARK  0 active torsions:
REMARK  status: ('A' for Active; 'I' for Inactive)
ROOT
HETATM    1  C1  UNL     1     -33.891  17.455  -4.289  1.00 20.00     0.085 C 
HETATM    2  C2  UNL     1     -34.401  14.380  -5.087  1.00 20.00     0.004 C 
HETATM    3  C3  UNL     1     -34.021  15.038  -3.757  1.00 20.00     0.041 C 
HETATM    4  C4  UNL     1     -36.133  16.545  -3.693  1.00 20.00     0.042 C 
HETATM    5  C5  UNL     1     -35.850  13.891  -5.099  1.00 20.00     0.009 C 
HETATM    6  C6  UNL     1     -36.620  16.369  -5.138  1.00 20.00     0.011 C 
HETATM    7  C7  UNL     1     -34.609  16.434  -3.501  1.00 20.00     0.125 C 
HETATM    8  C8  UNL     1     -36.896  14.916  -5.594  1.00 20.00    -0.048 C 
HETATM    9  C9  UNL     1     -38.285  14.469  -5.088  1.00 20.00     0.015 C 
HETATM   10  C10 UNL     1     -36.937  14.902  -7.137  1.00 20.00     0.015 C 
HETATM   11  N11 UNL     1     -33.327  18.258  -4.908  1.00 20.00    -0.195 NA
HETATM   12 CL12 UNL     1     -34.244  16.859  -1.775  1.00 20.00    -0.103 Cl
ENDROOT
TORSDOF 0
ENDMDL
MODEL 6
REMARK VINA RESULT:      -4.2      2.138      3.160
REMARK  0 active torsions:
REMARK  status: ('A' for Active; 'I' for Inactive)
ROOT
HETATM    1  C1  UNL     1     -35.233  13.841  -4.922  1.00 20.00     0.085 C 
HETATM    2  C2  UNL     1     -36.145  16.473  -3.310  1.00 20.00     0.004 C 
HETATM    3  C3  UNL     1     -34.857  15.645  -3.264  1.00 20.00     0.041 C 
HETATM    4  C4  UNL     1     -34.327  15.999  -5.780  1.00 20.00     0.042 C 
HETATM    5  C5  UNL     1     -35.942  17.822  -4.001  1.00 20.00     0.009 C 
HETATM    6  C6  UNL     1     -35.676  16.559  -6.252  1.00 20.00     0.011 C 
HETATM    7  C7  UNL     1     -34.407  15.020  -4.593  1.00 20.00     0.125 C 
HETATM    8  C8  UNL     1     -36.178  17.831  -5.529  1.00 20.00    -0.048 C 
HETATM    9  C9  UNL     1     -35.474  19.074  -6.117  1.00 20.00     0.015 C 
HETATM   10  C10 UNL     1     -37.689  17.976  -5.814  1.00 20.00     0.015 C 
HETATM   11  N11 UNL     1     -35.882  12.915  -5.181  1.00 20.00    -0.195 NA
HETATM   12 CL12 UNL     1     -32.744  14.344  -4.330  1.00 20.00    -0.103 Cl
ENDROOT
TORSDOF 0
ENDMDL
MODEL 7
REMARK VINA RESULT:      -4.0      3.403      4.915
REMARK  0 active torsions:
REMARK  status: ('A' for Active; 'I' for Inactive)
ROOT
HETATM    1  C1  UNL     1     -35.091  18.867  -1.865  1.00 20.00     0.085 C 
HETATM    2  C2  UNL     1     -33.950  18.305  -4.821  1.00 20.00     0.004 C 
HETATM    3  C3  UNL     1     -33.303  18.930  -3.580  1.00 20.00     0.041 C 
HETATM    4  C4  UNL     1     -33.678  16.828  -2.106  1.00 20.00     0.042 C 
HETATM    5  C5  UNL     1     -33.414  16.902  -5.109  1.00 20.00     0.009 C 
HETATM    6  C6  UNL     1     -34.663  16.058  -2.997  1.00 20.00     0.011 C 
HETATM    7  C7  UNL     1     -33.752  18.362  -2.225  1.00 20.00     0.125 C 
HETATM    8  C8  UNL     1     -34.181  15.743  -4.434  1.00 20.00    -0.048 C 
HETATM    9  C9  UNL     1     -33.259  14.504  -4.411  1.00 20.00     0.015 C 
HETATM   10  C10 UNL     1     -35.419  15.384  -5.283  1.00 20.00     0.015 C 
HETATM   11  N11 UNL     1     -36.144  19.263  -1.582  1.00 20.00    -0.195 NA
HETATM   12 CL12 UNL     1     -32.653  19.061  -0.962  1.00 20.00    -0.103 Cl
ENDROOT
TORSDOF 0
ENDMDL
MODEL 8
REMARK VINA RESULT:      -4.0      3.159      4.449
REMARK  0 active torsions:
REMARK  status: ('A' for Active; 'I' for Inactive)
ROOT
HETATM    1  C1  UNL     1     -33.563  18.057  -3.113  1.00 20.00     0.085 C 
HETATM    2  C2  UNL     1     -33.083  15.535  -5.052  1.00 20.00     0.004 C 
HETATM    3  C3  UNL     1     -33.637  15.634  -3.627  1.00 20.00     0.041 C 
HETATM    4  C4  UNL     1     -35.584  17.211  -4.301  1.00 20.00     0.042 C 
HETATM    5  C5  UNL     1     -34.175  15.222  -6.077  1.00 20.00     0.009 C 
HETATM    6  C6  UNL     1     -35.118  17.611  -5.708  1.00 20.00     0.011 C 
HETATM    7  C7  UNL     1     -34.453  16.895  -3.305  1.00 20.00     0.125 C 
HETATM    8  C8  UNL     1     -34.874  16.450  -6.702  1.00 20.00    -0.048 C 
HETATM    9  C9  UNL     1     -36.221  15.985  -7.298  1.00 20.00     0.015 C 
HETATM   10  C10 UNL     1     -34.015  16.993  -7.865  1.00 20.00     0.015 C 
HETATM   11  N11 UNL     1     -32.865  18.971  -2.963  1.00 20.00    -0.195 NA
HETATM   12 CL12 UNL     1     -35.214  16.638  -1.678  1.00 20.00    -0.103 Cl
ENDROOT
TORSDOF 0
ENDMDL
MODEL 9
REMARK VINA RESULT:      -4.0      2.024      2.721
REMARK  0 active torsions:
REMARK  status: ('A' for Active; 'I' for Inactive)
ROOT
HETATM    1  C1  UNL     1     -35.330  16.557  -6.181  1.00 20.00     0.085 C 
HETATM    2  C2  UNL     1     -36.168  16.356  -3.080  1.00 20.00     0.004 C 
HETATM    3  C3  UNL     1     -35.678  15.298  -4.074  1.00 20.00     0.041 C 
HETATM    4  C4  UNL     1     -33.442  16.524  -4.554  1.00 20.00     0.042 C 
HETATM    5  C5  UNL     1     -35.102  16.712  -2.043  1.00 20.00     0.009 C 
HETATM    6  C6  UNL     1     -33.754  17.888  -3.923  1.00 20.00     0.011 C 
HETATM    7  C7  UNL     1     -34.661  15.774  -5.123  1.00 20.00     0.125 C 
HETATM    8  C8  UNL     1     -34.157  17.873  -2.429  1.00 20.00    -0.048 C 
HETATM    9  C9  UNL     1     -32.891  17.775  -1.551  1.00 20.00     0.015 C 
HETATM   10  C10 UNL     1     -34.841  19.220  -2.107  1.00 20.00     0.015 C 
HETATM   11  N11 UNL     1     -35.855  17.173  -7.012  1.00 20.00    -0.195 NA
HETATM   12 CL12 UNL     1     -34.044  14.298  -5.978  1.00 20.00    -0.103 Cl
ENDROOT
TORSDOF 0
ENDMDL
