MODEL 1
REMARK VINA RESULT:      -4.6      0.000      0.000
REMARK  2 active torsions:
REMARK  status: ('A' for Active; 'I' for Inactive)
REMARK    1  A    between atoms: C8_8  and  C10_10 
REMARK    2  A    between atoms: C10_10  and  C11_11 
ROOT
HETATM    1  C1  UNL     1     -35.506  13.843  -4.859  1.00 20.00     0.064 C 
HETATM    2  C2  UNL     1     -33.409  17.041  -5.078  1.00 20.00     0.002 C 
HETATM    3  C3  UNL     1     -34.530  16.080  -5.470  1.00 20.00     0.019 C 
HETATM    4  C4  UNL     1     -36.011  15.793  -3.380  1.00 20.00     0.019 C 
HETATM    5  C5  UNL     1     -33.832  18.228  -4.217  1.00 20.00     0.005 C 
HETATM    6  C6  UNL     1     -35.925  17.293  -3.090  1.00 20.00     0.006 C 
HETATM    7  C7  UNL     1     -34.963  15.171  -4.314  1.00 20.00     0.093 C 
HETATM    8  C8  UNL     1     -34.542  17.918  -2.893  1.00 20.00    -0.014 C 
HETATM    9  N12 UNL     1     -35.917  12.838  -5.270  1.00 20.00    -0.197 NA
ENDROOT
BRANCH   8  10
HETATM   10  C10 UNL     1     -33.696  17.155  -1.962  1.00 20.00     0.004 C 
BRANCH  10  11
HETATM   11  C11 UNL     1     -32.718  18.070  -1.238  1.00 20.00    -0.004 C 
HETATM   12  C9  UNL     1     -33.292  18.541   0.088  1.00 20.00     0.005 C 
ENDBRANCH  10  11
ENDBRANCH   8  10
TORSDOF 2
ENDMDL
MODEL 2
REMARK VINA RESULT:      -4.6      1.630      2.059
REMARK  2 active torsions:
REMARK  status: ('A' for Active; 'I' for Inactive)
REMARK    1  A    between atoms: C8_8  and  C10_10 
REMARK    2  A    between atoms: C10_10  and  C11_11 
ROOT
HETATM    1  C1  UNL     1     -37.911  14.649  -4.730  1.00 20.00     0.064 C 
HETATM    2  C2  UNL     1     -34.138  14.335  -4.145  1.00 20.00     0.002 C 
HETATM    3  C3  UNL     1     -35.415  14.447  -4.977  1.00 20.00     0.019 C 
HETATM    4  C4  UNL     1     -36.517  16.683  -4.326  1.00 20.00     0.019 C 
HETATM    5  C5  UNL     1     -33.332  15.623  -4.002  1.00 20.00     0.005 C 
HETATM    6  C6  UNL     1     -35.155  17.380  -4.338  1.00 20.00     0.006 C 
HETATM    7  C7  UNL     1     -36.551  15.152  -4.227  1.00 20.00     0.093 C 
HETATM    8  C8  UNL     1     -34.055  16.843  -3.419  1.00 20.00    -0.014 C 
HETATM    9  N12 UNL     1     -38.939  14.269  -5.111  1.00 20.00    -0.197 NA
ENDROOT
BRANCH   8  10
HETATM   10  C10 UNL     1     -34.518  16.621  -2.040  1.00 20.00     0.004 C 
BRANCH  10  11
HETATM   11  C11 UNL     1     -34.170  17.806  -1.150  1.00 20.00    -0.004 C 
HETATM   12  C9  UNL     1     -32.685  18.123  -1.221  1.00 20.00     0.005 C 
ENDBRANCH  10  11
ENDBRANCH   8  10
TORSDOF 2
ENDMDL
MODEL 3
REMARK VINA RESULT:      -4.4      3.144      5.312
REMARK  2 active torsions:
REMARK  status: ('A' for Active; 'I' for Inactive)
REMARK    1  A    between atoms: C8_8  and  C10_10 
REMARK    2  A    between atoms: C10_10  and  C11_11 
ROOT
HETATM    1  C1  UNL     1     -31.831  18.489   0.146  1.00 20.00     0.064 C 
HETATM    2  C2  UNL     1     -35.491  17.419  -0.215  1.00 20.00     0.002 C 
HETATM    3  C3  UNL     1     -34.343  18.389   0.061  1.00 20.00     0.019 C 
HETATM    4  C4  UNL     1     -32.936  18.487  -2.095  1.00 20.00     0.019 C 
HETATM    5  C5  UNL     1     -36.132  17.534  -1.595  1.00 20.00     0.005 C 
HETATM    6  C6  UNL     1     -34.207  18.531  -2.946  1.00 20.00     0.006 C 
HETATM    7  C7  UNL     1     -33.045  17.987  -0.648  1.00 20.00     0.093 C 
HETATM    8  C8  UNL     1     -35.211  17.383  -2.812  1.00 20.00    -0.014 C 
HETATM    9  N12 UNL     1     -30.912  18.868   0.746  1.00 20.00    -0.197 NA
ENDROOT
BRANCH   8  10
HETATM   10  C10 UNL     1     -34.579  16.057  -2.883  1.00 20.00     0.004 C 
BRANCH  10  11
HETATM   11  C11 UNL     1     -34.336  15.644  -4.328  1.00 20.00    -0.004 C 
HETATM   12  C9  UNL     1     -33.071  14.810  -4.451  1.00 20.00     0.005 C 
ENDBRANCH  10  11
ENDBRANCH   8  10
TORSDOF 2
ENDMDL
MODEL 4
REMARK VINA RESULT:      -4.4      3.535      5.928
REMARK  2 active torsions:
REMARK  status: ('A' for Active; 'I' for Inactive)
REMARK    1  A    between atoms: C8_8  and  C10_10 
REMARK    2  A    between atoms: C10_10  and  C11_11 
ROOT
HETATM    1  C1  UNL     1     -31.587  18.856   0.985  1.00 20.00     0.064 C 
HETATM    2  C2  UNL     1     -35.292  17.973   1.392  1.00 20.00     0.002 C 
HETATM    3  C3  UNL     1     -34.058  18.872   1.454  1.00 20.00     0.019 C 
HETATM    4  C4  UNL     1     -33.154  19.038  -0.953  1.00 20.00     0.019 C 
HETATM    5  C5  UNL     1     -36.212  18.199   0.196  1.00 20.00     0.005 C 
HETATM    6  C6  UNL     1     -34.575  19.190  -1.498  1.00 20.00     0.006 C 
HETATM    7  C7  UNL     1     -32.971  18.457   0.456  1.00 20.00     0.093 C 
HETATM    8  C8  UNL     1     -35.589  18.082  -1.201  1.00 20.00    -0.014 C 
HETATM    9  N12 UNL     1     -30.539  19.157   1.384  1.00 20.00    -0.197 NA
ENDROOT
BRANCH   8  10
HETATM   10  C10 UNL     1     -35.064  16.736  -1.475  1.00 20.00     0.004 C 
BRANCH  10  11
HETATM   11  C11 UNL     1     -35.103  16.427  -2.966  1.00 20.00    -0.004 C 
HETATM   12  C9  UNL     1     -33.714  16.108  -3.493  1.00 20.00     0.005 C 
ENDBRANCH  10  11
ENDBRANCH   8  10
TORSDOF 2
ENDMDL
MODEL 5
REMARK VINA RESULT:      -4.3      2.040      3.223
REMARK  2 active torsions:
REMARK  status: ('A' for Active; 'I' for Inactive)
REMARK    1  A    between atoms: C8_8  and  C10_10 
REMARK    2  A    between atoms: C10_10  and  C11_11 
ROOT
HETATM    1  C1  UNL     1     -37.163  15.518  -7.179  1.00 20.00     0.064 C 
HETATM    2  C2  UNL     1     -34.998  14.000  -4.407  1.00 20.00     0.002 C 
HETATM    3  C3  UNL     1     -35.622  14.085  -5.799  1.00 20.00     0.019 C 
HETATM    4  C4  UNL     1     -34.817  16.307  -6.827  1.00 20.00     0.019 C 
HETATM    5  C5  UNL     1     -33.545  14.457  -4.310  1.00 20.00     0.005 C 
HETATM    6  C6  UNL     1     -33.405  16.066  -6.289  1.00 20.00     0.006 C 
HETATM    7  C7  UNL     1     -35.979  15.520  -6.202  1.00 20.00     0.093 C 
HETATM    8  C8  UNL     1     -33.223  15.881  -4.781  1.00 20.00    -0.014 C 
HETATM    9  N12 UNL     1     -38.057  15.517  -7.918  1.00 20.00    -0.197 NA
ENDROOT
BRANCH   8  10
HETATM   10  C10 UNL     1     -33.917  16.909  -3.990  1.00 20.00     0.004 C 
BRANCH  10  11
HETATM   11  C11 UNL     1     -33.646  16.729  -2.502  1.00 20.00    -0.004 C 
HETATM   12  C9  UNL     1     -34.932  16.829  -1.699  1.00 20.00     0.005 C 
ENDBRANCH  10  11
ENDBRANCH   8  10
TORSDOF 2
ENDMDL
MODEL 6
REMARK VINA RESULT:      -4.3      2.690      4.747
REMARK  2 active torsions:
REMARK  status: ('A' for Active; 'I' for Inactive)
REMARK    1  A    between atoms: C8_8  and  C10_10 
REMARK    2  A    between atoms: C10_10  and  C11_11 
ROOT
HETATM    1  C1  UNL     1     -35.664  17.388   0.198  1.00 20.00     0.064 C 
HETATM    2  C2  UNL     1     -36.712  17.194  -3.481  1.00 20.00     0.002 C 
HETATM    3  C3  UNL     1     -36.349  17.890  -2.170  1.00 20.00     0.019 C 
HETATM    4  C4  UNL     1     -33.943  17.164  -1.601  1.00 20.00     0.019 C 
HETATM    5  C5  UNL     1     -35.608  17.156  -4.533  1.00 20.00     0.005 C 
HETATM    6  C6  UNL     1     -33.526  17.330  -3.063  1.00 20.00     0.006 C 
HETATM    7  C7  UNL     1     -35.439  17.037  -1.279  1.00 20.00     0.093 C 
HETATM    8  C8  UNL     1     -34.272  16.522  -4.128  1.00 20.00    -0.014 C 
HETATM    9  N12 UNL     1     -35.833  17.654   1.315  1.00 20.00    -0.197 NA
ENDROOT
BRANCH   8  10
HETATM   10  C10 UNL     1     -34.405  15.099  -3.778  1.00 20.00     0.004 C 
BRANCH  10  11
HETATM   11  C11 UNL     1     -34.528  14.238  -5.028  1.00 20.00    -0.004 C 
HETATM   12  C9  UNL     1     -35.874  13.534  -5.074  1.00 20.00     0.005 C 
ENDBRANCH  10  11
ENDBRANCH   8  10
TORSDOF 2
ENDMDL
MODEL 7
REMARK VINA RESULT:      -4.3      2.178      3.370
REMARK  2 active torsions:
REMARK  status: ('A' for Active; 'I' for Inactive)
REMARK    1  A    between atoms: C8_8  and  C10_10 
REMARK    2  A    between atoms: C10_10  and  C11_11 
ROOT
HETATM    1  C1  UNL     1     -39.079  15.646  -4.349  1.00 20.00     0.064 C 
HETATM    2  C2  UNL     1     -36.032  13.497  -5.231  1.00 20.00     0.002 C 
HETATM    3  C3  UNL     1     -37.309  14.287  -5.513  1.00 20.00     0.019 C 
HETATM    4  C4  UNL     1     -36.853  16.708  -4.756  1.00 20.00     0.019 C 
HETATM    5  C5  UNL     1     -34.728  14.216  -5.562  1.00 20.00     0.005 C 
HETATM    6  C6  UNL     1     -35.454  16.658  -5.375  1.00 20.00     0.006 C 
HETATM    7  C7  UNL     1     -37.572  15.381  -4.472  1.00 20.00     0.093 C 
HETATM    8  C8  UNL     1     -34.485  15.575  -4.894  1.00 20.00    -0.014 C 
HETATM    9  N12 UNL     1     -40.218  15.847  -4.257  1.00 20.00    -0.197 NA
ENDROOT
BRANCH   8  10
HETATM   10  C10 UNL     1     -34.413  15.481  -3.428  1.00 20.00     0.004 C 
BRANCH  10  11
HETATM   11  C11 UNL     1     -33.716  16.697  -2.835  1.00 20.00    -0.004 C 
HETATM   12  C9  UNL     1     -34.346  17.096  -1.511  1.00 20.00     0.005 C 
ENDBRANCH  10  11
ENDBRANCH   8  10
TORSDOF 2
ENDMDL
MODEL 8
REMARK VINA RESULT:      -4.1      2.688      4.935
REMARK  2 active torsions:
REMARK  status: ('A' for Active; 'I' for Inactive)
REMARK    1  A    between atoms: C8_8  and  C10_10 
REMARK    2  A    between atoms: C10_10  and  C11_11 
ROOT
HETATM    1  C1  UNL     1     -33.653  17.574  -4.051  1.00 20.00     0.064 C 
HETATM    2  C2  UNL     1     -33.834  15.262  -7.100  1.00 20.00     0.002 C 
HETATM    3  C3  UNL     1     -33.202  15.876  -5.852  1.00 20.00     0.019 C 
HETATM    4  C4  UNL     1     -34.796  15.357  -3.895  1.00 20.00     0.019 C 
HETATM    5  C5  UNL     1     -34.460  13.883  -6.910  1.00 20.00     0.005 C 
HETATM    6  C6  UNL     1     -35.001  13.932  -4.414  1.00 20.00     0.006 C 
HETATM    7  C7  UNL     1     -34.242  16.413  -4.863  1.00 20.00     0.093 C 
HETATM    8  C8  UNL     1     -35.543  13.746  -5.833  1.00 20.00    -0.014 C 
HETATM    9  N12 UNL     1     -33.207  18.452  -3.436  1.00 20.00    -0.197 NA
ENDROOT
BRANCH   8  10
HETATM   10  C10 UNL     1     -36.724  14.578  -6.109  1.00 20.00     0.004 C 
BRANCH  10  11
HETATM   11  C11 UNL     1     -37.898  14.169  -5.230  1.00 20.00    -0.004 C 
HETATM   12  C9  UNL     1     -38.567  15.387  -4.613  1.00 20.00     0.005 C 
ENDBRANCH  10  11
ENDBRANCH   8  10
TORSDOF 2
ENDMDL
MODEL 9
REMARK VINA RESULT:      -4.0     11.910     13.301
REMARK  2 active torsions:
REMARK  status: ('A' for Active; 'I' for Inactive)
REMARK    1  A    between atoms: C8_8  and  C10_10 
REMARK    2  A    between atoms: C10_10  and  C11_11 
ROOT
HETATM    1  C1  UNL     1     -32.309   8.143   2.344  1.00 20.00     0.064 C 
HETATM    2  C2  UNL     1     -33.370   7.244   5.912  1.00 20.00     0.002 C 
HETATM    3  C3  UNL     1     -33.354   8.076   4.631  1.00 20.00     0.019 C 
HETATM    4  C4  UNL     1     -34.170   6.524   2.743  1.00 20.00     0.019 C 
HETATM    5  C5  UNL     1     -34.576   6.325   6.085  1.00 20.00     0.005 C 
HETATM    6  C6  UNL     1     -35.265   5.962   3.652  1.00 20.00     0.006 C 
HETATM    7  C7  UNL     1     -32.984   7.251   3.393  1.00 20.00     0.093 C 
HETATM    8  C8  UNL     1     -34.848   5.307   4.971  1.00 20.00    -0.014 C 
HETATM    9  N12 UNL     1     -31.798   8.818   1.549  1.00 20.00    -0.197 NA
ENDROOT
BRANCH   8  10
HETATM   10  C10 UNL     1     -33.753   4.339   4.809  1.00 20.00     0.004 C 
BRANCH  10  11
HETATM   11  C11 UNL     1     -33.907   3.550   3.516  1.00 20.00    -0.004 C 
HETATM   12  C9  UNL     1     -32.748   3.820   2.571  1.00 20.00     0.005 C 
ENDBRANCH  10  11
ENDBRANCH   8  10
TORSDOF 2
ENDMDL
