MODEL 1
REMARK VINA RESULT:      -5.2      0.000      0.000
REMARK  1 active torsions:
REMARK  status: ('A' for Active; 'I' for Inactive)
REMARK    1  A    between atoms: C4_4  and  C8_8 
ROOT
HETATM    1  C5  UNL     1     -31.709   8.405   3.376  1.00 20.00     0.011 C 
HETATM    2  C6  UNL     1     -31.625   9.456   2.265  1.00 20.00     0.021 C 
HETATM    3  C7  UNL     1     -33.281   7.859   1.628  1.00 20.00     0.029 C 
HETATM    4  C8  UNL     1     -32.533   7.226   2.812  1.00 20.00     0.020 C 
HETATM    5  C9  UNL     1     -32.231   8.789   1.039  1.00 20.00     0.083 C 
HETATM    6 CL11 UNL     1     -32.924   9.956  -0.095  1.00 20.00    -0.125 Cl
ENDROOT
BRANCH   4   7
HETATM    7  C4  UNL     1     -33.363   6.497   3.846  1.00 20.00    -0.047 A 
HETATM    8  C1  UNL     1     -33.702   7.038   5.120  1.00 20.00     0.015 A 
HETATM    9  C2  UNL     1     -34.464   6.167   5.866  1.00 20.00     0.050 A 
HETATM   10  S10 UNL     1     -34.769   4.703   5.031  1.00 20.00    -0.113 SA
HETATM   11  C3  UNL     1     -33.880   5.232   3.667  1.00 20.00     0.057 A 
ENDBRANCH   4   7
TORSDOF 1
ENDMDL
MODEL 2
REMARK VINA RESULT:      -4.7     11.102     11.676
REMARK  1 active torsions:
REMARK  status: ('A' for Active; 'I' for Inactive)
REMARK    1  A    between atoms: C4_4  and  C8_8 
ROOT
HETATM    1  C5  UNL     1     -34.961  17.742  -0.036  1.00 20.00     0.011 C 
HETATM    2  C6  UNL     1     -35.269  16.885  -1.267  1.00 20.00     0.021 C 
HETATM    3  C7  UNL     1     -33.027  17.675  -1.477  1.00 20.00     0.029 C 
HETATM    4  C8  UNL     1     -33.648  18.497  -0.337  1.00 20.00     0.020 C 
HETATM    5  C9  UNL     1     -34.243  17.303  -2.310  1.00 20.00     0.083 C 
HETATM    6 CL11 UNL     1     -33.896  16.017  -3.474  1.00 20.00    -0.125 Cl
ENDROOT
BRANCH   4   7
HETATM    7  C4  UNL     1     -32.785  18.755   0.880  1.00 20.00    -0.047 A 
HETATM    8  C1  UNL     1     -31.361  18.778   0.854  1.00 20.00     0.015 A 
HETATM    9  C2  UNL     1     -30.825  19.034   2.097  1.00 20.00     0.050 A 
HETATM   10  S10 UNL     1     -32.037  19.246   3.288  1.00 20.00    -0.113 SA
HETATM   11  C3  UNL     1     -33.284  18.995   2.142  1.00 20.00     0.057 A 
ENDBRANCH   4   7
TORSDOF 1
ENDMDL
MODEL 3
REMARK VINA RESULT:      -4.6     10.867     11.386
REMARK  1 active torsions:
REMARK  status: ('A' for Active; 'I' for Inactive)
REMARK    1  A    between atoms: C4_4  and  C8_8 
ROOT
HETATM    1  C5  UNL     1     -33.204  17.662  -1.947  1.00 20.00     0.011 C 
HETATM    2  C6  UNL     1     -33.278  18.162  -0.501  1.00 20.00     0.021 C 
HETATM    3  C7  UNL     1     -35.322  17.026  -0.981  1.00 20.00     0.029 C 
HETATM    4  C8  UNL     1     -34.631  17.222  -2.340  1.00 20.00     0.020 C 
HETATM    5  C9  UNL     1     -34.762  18.178  -0.161  1.00 20.00     0.083 C 
HETATM    6 CL11 UNL     1     -35.063  17.983   1.571  1.00 20.00    -0.125 Cl
ENDROOT
BRANCH   4   7
HETATM    7  C4  UNL     1     -34.680  16.066  -3.315  1.00 20.00    -0.047 A 
HETATM    8  C1  UNL     1     -33.524  15.430  -3.852  1.00 20.00     0.015 A 
HETATM    9  C2  UNL     1     -33.850  14.407  -4.715  1.00 20.00     0.050 A 
HETATM   10  S10 UNL     1     -35.545  14.216  -4.874  1.00 20.00    -0.113 SA
HETATM   11  C3  UNL     1     -35.847  15.504  -3.788  1.00 20.00     0.057 A 
ENDBRANCH   4   7
TORSDOF 1
ENDMDL
MODEL 4
REMARK VINA RESULT:      -4.6     10.884     11.455
REMARK  1 active torsions:
REMARK  status: ('A' for Active; 'I' for Inactive)
REMARK    1  A    between atoms: C4_4  and  C8_8 
ROOT
HETATM    1  C5  UNL     1     -33.449  16.720  -4.932  1.00 20.00     0.011 C 
HETATM    2  C6  UNL     1     -33.821  15.838  -6.129  1.00 20.00     0.021 C 
HETATM    3  C7  UNL     1     -34.607  14.751  -4.154  1.00 20.00     0.029 C 
HETATM    4  C8  UNL     1     -33.670  15.866  -3.665  1.00 20.00     0.020 C 
HETATM    5  C9  UNL     1     -34.062  14.454  -5.543  1.00 20.00     0.083 C 
HETATM    6 CL11 UNL     1     -35.184  13.493  -6.516  1.00 20.00    -0.125 Cl
ENDROOT
BRANCH   4   7
HETATM    7  C4  UNL     1     -34.110  16.656  -2.451  1.00 20.00    -0.047 A 
HETATM    8  C1  UNL     1     -33.250  17.519  -1.711  1.00 20.00     0.015 A 
HETATM    9  C2  UNL     1     -33.902  18.115  -0.654  1.00 20.00     0.050 A 
HETATM   10  S10 UNL     1     -35.543  17.634  -0.556  1.00 20.00    -0.113 SA
HETATM   11  C3  UNL     1     -35.385  16.625  -1.930  1.00 20.00     0.057 A 
ENDBRANCH   4   7
TORSDOF 1
ENDMDL
MODEL 5
REMARK VINA RESULT:      -4.6     10.947     11.470
REMARK  1 active torsions:
REMARK  status: ('A' for Active; 'I' for Inactive)
REMARK    1  A    between atoms: C4_4  and  C8_8 
ROOT
HETATM    1  C5  UNL     1     -33.391  16.664  -4.934  1.00 20.00     0.011 C 
HETATM    2  C6  UNL     1     -33.777  15.792  -6.133  1.00 20.00     0.021 C 
HETATM    3  C7  UNL     1     -34.633  14.743  -4.167  1.00 20.00     0.029 C 
HETATM    4  C8  UNL     1     -33.663  15.824  -3.666  1.00 20.00     0.020 C 
HETATM    5  C9  UNL     1     -34.079  14.421  -5.546  1.00 20.00     0.083 C 
HETATM    6 CL11 UNL     1     -35.220  13.498  -6.533  1.00 20.00    -0.125 Cl
ENDROOT
BRANCH   4   7
HETATM    7  C4  UNL     1     -34.091  16.635  -2.462  1.00 20.00    -0.047 A 
HETATM    8  C1  UNL     1     -35.402  16.596  -1.903  1.00 20.00     0.015 A 
HETATM    9  C2  UNL     1     -35.524  17.430  -0.814  1.00 20.00     0.050 A 
HETATM   10  S10 UNL     1     -34.063  18.255  -0.469  1.00 20.00    -0.113 SA
HETATM   11  C3  UNL     1     -33.262  17.498  -1.779  1.00 20.00     0.057 A 
ENDBRANCH   4   7
TORSDOF 1
ENDMDL
MODEL 6
REMARK VINA RESULT:      -4.5     11.297     11.773
REMARK  1 active torsions:
REMARK  status: ('A' for Active; 'I' for Inactive)
REMARK    1  A    between atoms: C4_4  and  C8_8 
ROOT
HETATM    1  C5  UNL     1     -31.665  18.706   0.762  1.00 20.00     0.011 C 
HETATM    2  C6  UNL     1     -31.401  18.839   2.265  1.00 20.00     0.021 C 
HETATM    3  C7  UNL     1     -33.746  18.509   1.966  1.00 20.00     0.029 C 
HETATM    4  C8  UNL     1     -33.193  18.816   0.567  1.00 20.00     0.020 C 
HETATM    5  C9  UNL     1     -32.746  19.208   2.874  1.00 20.00     0.083 C 
HETATM    6 CL11 UNL     1     -32.891  18.695   4.560  1.00 20.00    -0.125 Cl
ENDROOT
BRANCH   4   7
HETATM    7  C4  UNL     1     -33.734  18.000  -0.587  1.00 20.00    -0.047 A 
HETATM    8  C1  UNL     1     -35.036  17.421  -0.610  1.00 20.00     0.015 A 
HETATM    9  C2  UNL     1     -35.274  16.729  -1.776  1.00 20.00     0.050 A 
HETATM   10  S10 UNL     1     -33.932  16.779  -2.839  1.00 20.00    -0.113 SA
HETATM   11  C3  UNL     1     -33.027  17.728  -1.738  1.00 20.00     0.057 A 
ENDBRANCH   4   7
TORSDOF 1
ENDMDL
MODEL 7
REMARK VINA RESULT:      -4.4      3.429      4.924
REMARK  1 active torsions:
REMARK  status: ('A' for Active; 'I' for Inactive)
REMARK    1  A    between atoms: C4_4  and  C8_8 
ROOT
HETATM    1  C5  UNL     1     -33.331   7.862   4.869  1.00 20.00     0.011 C 
HETATM    2  C6  UNL     1     -33.686   6.588   5.641  1.00 20.00     0.021 C 
HETATM    3  C7  UNL     1     -34.060   6.158   3.323  1.00 20.00     0.029 C 
HETATM    4  C8  UNL     1     -33.876   7.679   3.435  1.00 20.00     0.020 C 
HETATM    5  C9  UNL     1     -34.582   5.791   4.704  1.00 20.00     0.083 C 
HETATM    6 CL11 UNL     1     -34.508   4.050   5.012  1.00 20.00    -0.125 Cl
ENDROOT
BRANCH   4   7
HETATM    7  C4  UNL     1     -33.049   8.357   2.364  1.00 20.00    -0.047 A 
HETATM    8  C1  UNL     1     -31.736   7.944   1.993  1.00 20.00     0.015 A 
HETATM    9  C2  UNL     1     -31.209   8.732   0.994  1.00 20.00     0.050 A 
HETATM   10  S10 UNL     1     -32.295   9.964   0.506  1.00 20.00    -0.113 SA
HETATM   11  C3  UNL     1     -33.475   9.445   1.634  1.00 20.00     0.057 A 
ENDBRANCH   4   7
TORSDOF 1
ENDMDL
MODEL 8
REMARK VINA RESULT:      -4.4     10.930     11.445
REMARK  1 active torsions:
REMARK  status: ('A' for Active; 'I' for Inactive)
REMARK    1  A    between atoms: C4_4  and  C8_8 
ROOT
HETATM    1  C5  UNL     1     -33.624  16.922  -2.987  1.00 20.00     0.011 C 
HETATM    2  C6  UNL     1     -33.261  17.509  -1.619  1.00 20.00     0.021 C 
HETATM    3  C7  UNL     1     -35.573  16.916  -1.564  1.00 20.00     0.029 C 
HETATM    4  C8  UNL     1     -35.165  16.846  -3.044  1.00 20.00     0.020 C 
HETATM    5  C9  UNL     1     -34.587  17.929  -1.002  1.00 20.00     0.083 C 
HETATM    6 CL11 UNL     1     -34.545  17.920   0.767  1.00 20.00    -0.125 Cl
ENDROOT
BRANCH   4   7
HETATM    7  C4  UNL     1     -35.702  15.687  -3.856  1.00 20.00    -0.047 A 
HETATM    8  C1  UNL     1     -37.072  15.539  -4.221  1.00 20.00     0.015 A 
HETATM    9  C2  UNL     1     -37.290  14.397  -4.958  1.00 20.00     0.050 A 
HETATM   10  S10 UNL     1     -35.847  13.508  -5.208  1.00 20.00    -0.113 SA
HETATM   11  C3  UNL     1     -34.926  14.651  -4.328  1.00 20.00     0.057 A 
ENDBRANCH   4   7
TORSDOF 1
ENDMDL
MODEL 9
REMARK VINA RESULT:      -4.3      3.359      5.070
REMARK  1 active torsions:
REMARK  status: ('A' for Active; 'I' for Inactive)
REMARK    1  A    between atoms: C4_4  and  C8_8 
ROOT
HETATM    1  C5  UNL     1     -33.676   5.879   2.580  1.00 20.00     0.011 C 
HETATM    2  C6  UNL     1     -34.439   5.304   3.777  1.00 20.00     0.021 C 
HETATM    3  C7  UNL     1     -33.401   7.334   4.484  1.00 20.00     0.029 C 
HETATM    4  C8  UNL     1     -32.762   6.997   3.128  1.00 20.00     0.020 C 
HETATM    5  C9  UNL     1     -33.816   5.965   4.999  1.00 20.00     0.083 C 
HETATM    6 CL11 UNL     1     -34.941   6.068   6.360  1.00 20.00    -0.125 Cl
ENDROOT
BRANCH   4   7
HETATM    7  C4  UNL     1     -32.534   8.143   2.166  1.00 20.00    -0.047 A 
HETATM    8  C1  UNL     1     -31.586   8.110   1.102  1.00 20.00     0.015 A 
HETATM    9  C2  UNL     1     -31.580   9.282   0.379  1.00 20.00     0.050 A 
HETATM   10  S10 UNL     1     -32.713  10.416   0.983  1.00 20.00    -0.113 SA
HETATM   11  C3  UNL     1     -33.215   9.339   2.216  1.00 20.00     0.057 A 
ENDBRANCH   4   7
TORSDOF 1
ENDMDL
