MODEL 1
REMARK VINA RESULT:      -6.3      0.000      0.000
REMARK  2 active torsions:
REMARK  status: ('A' for Active; 'I' for Inactive)
REMARK    1  A    between atoms: C4_4  and  C9_9 
REMARK    2  A    between atoms: C8_8  and  O10_10 
ROOT
HETATM    1  C1  UNL     1     -32.783  10.188   1.059  1.00 20.00     0.012 C 
HETATM    2  C2  UNL     1     -32.387   9.141   1.492  1.00 20.00    -0.113 C 
HETATM    3  C9  UNL     1     -31.887   7.868   2.006  1.00 20.00     0.127 C 
ENDROOT
BRANCH   3   4
HETATM    4  C4  UNL     1     -32.839   7.332   3.035  1.00 20.00    -0.070 C 
HETATM    5  C3  UNL     1     -32.933   7.871   4.264  1.00 20.00     0.008 C 
HETATM    6  C8  UNL     1     -33.850   7.345   5.331  1.00 20.00     0.141 C 
HETATM    7  C7  UNL     1     -34.400   5.952   5.015  1.00 20.00     0.036 C 
HETATM    8  C6  UNL     1     -34.843   5.856   3.562  1.00 20.00     0.007 C 
HETATM    9  C5  UNL     1     -33.681   6.153   2.612  1.00 20.00     0.035 C 
BRANCH   6  10
HETATM   10  O10 UNL     1     -33.132   7.292   6.561  1.00 20.00    -0.392 OA
HETATM   11  H22 UNL     1     -32.525   6.538   6.494  1.00 20.00     0.210 HD
ENDBRANCH   6  10
ENDBRANCH   3   4
TORSDOF 2
ENDMDL
MODEL 2
REMARK VINA RESULT:      -6.1      1.040      1.191
REMARK  2 active torsions:
REMARK  status: ('A' for Active; 'I' for Inactive)
REMARK    1  A    between atoms: C4_4  and  C9_9 
REMARK    2  A    between atoms: C8_8  and  O10_10 
ROOT
HETATM    1  C1  UNL     1     -32.452   9.390   0.722  1.00 20.00     0.012 C 
HETATM    2  C2  UNL     1     -32.163   8.893   1.776  1.00 20.00    -0.113 C 
HETATM    3  C9  UNL     1     -31.796   8.302   3.061  1.00 20.00     0.127 C 
ENDROOT
BRANCH   3   4
HETATM    4  C4  UNL     1     -32.756   7.200   3.401  1.00 20.00    -0.070 C 
HETATM    5  C3  UNL     1     -33.607   7.295   4.438  1.00 20.00     0.008 C 
HETATM    6  C8  UNL     1     -34.560   6.203   4.830  1.00 20.00     0.141 C 
HETATM    7  C7  UNL     1     -34.238   4.860   4.169  1.00 20.00     0.036 C 
HETATM    8  C6  UNL     1     -33.905   5.043   2.695  1.00 20.00     0.007 C 
HETATM    9  C5  UNL     1     -32.709   5.980   2.514  1.00 20.00     0.035 C 
BRANCH   6  10
HETATM   10  O10 UNL     1     -34.515   6.045   6.245  1.00 20.00    -0.392 OA
HETATM   11  H22 UNL     1     -33.762   5.463   6.435  1.00 20.00     0.210 HD
ENDBRANCH   6  10
ENDBRANCH   3   4
TORSDOF 2
ENDMDL
MODEL 3
REMARK VINA RESULT:      -5.9      1.406      2.123
REMARK  2 active torsions:
REMARK  status: ('A' for Active; 'I' for Inactive)
REMARK    1  A    between atoms: C4_4  and  C9_9 
REMARK    2  A    between atoms: C8_8  and  O10_10 
ROOT
HETATM    1  C1  UNL     1     -32.892  10.226   1.161  1.00 20.00     0.012 C 
HETATM    2  C2  UNL     1     -32.447   9.183   1.557  1.00 20.00    -0.113 C 
HETATM    3  C9  UNL     1     -31.890   7.915   2.023  1.00 20.00     0.127 C 
ENDROOT
BRANCH   3   4
HETATM    4  C4  UNL     1     -32.680   7.420   3.197  1.00 20.00    -0.070 C 
HETATM    5  C3  UNL     1     -33.507   6.363   3.102  1.00 20.00     0.008 C 
HETATM    6  C8  UNL     1     -34.339   5.856   4.246  1.00 20.00     0.141 C 
HETATM    7  C7  UNL     1     -34.422   6.845   5.411  1.00 20.00     0.036 C 
HETATM    8  C6  UNL     1     -33.057   7.449   5.714  1.00 20.00     0.007 C 
HETATM    9  C5  UNL     1     -32.494   8.176   4.490  1.00 20.00     0.035 C 
BRANCH   6  10
HETATM   10  O10 UNL     1     -35.655   5.591   3.768  1.00 20.00    -0.392 OA
HETATM   11  H22 UNL     1     -35.576   4.867   3.127  1.00 20.00     0.210 HD
ENDBRANCH   6  10
ENDBRANCH   3   4
TORSDOF 2
ENDMDL
MODEL 4
REMARK VINA RESULT:      -5.1      1.933      2.415
REMARK  2 active torsions:
REMARK  status: ('A' for Active; 'I' for Inactive)
REMARK    1  A    between atoms: C4_4  and  C9_9 
REMARK    2  A    between atoms: C8_8  and  O10_10 
ROOT
HETATM    1  C1  UNL     1     -32.518   9.390   0.661  1.00 20.00     0.012 C 
HETATM    2  C2  UNL     1     -32.202   8.998   1.751  1.00 20.00    -0.113 C 
HETATM    3  C9  UNL     1     -31.804   8.537   3.079  1.00 20.00     0.127 C 
ENDROOT
BRANCH   3   4
HETATM    4  C4  UNL     1     -32.641   7.358   3.475  1.00 20.00    -0.070 C 
HETATM    5  C3  UNL     1     -32.497   6.156   2.889  1.00 20.00     0.008 C 
HETATM    6  C8  UNL     1     -33.337   4.959   3.234  1.00 20.00     0.141 C 
HETATM    7  C7  UNL     1     -34.582   5.316   4.051  1.00 20.00     0.036 C 
HETATM    8  C6  UNL     1     -34.246   6.313   5.151  1.00 20.00     0.007 C 
HETATM    9  C5  UNL     1     -33.655   7.598   4.567  1.00 20.00     0.035 C 
BRANCH   6  10
HETATM   10  O10 UNL     1     -33.742   4.324   2.025  1.00 20.00    -0.392 OA
HETATM   11  H22 UNL     1     -34.664   4.585   1.871  1.00 20.00     0.210 HD
ENDBRANCH   6  10
ENDBRANCH   3   4
TORSDOF 2
ENDMDL
MODEL 5
REMARK VINA RESULT:      -5.0     10.943     11.695
REMARK  2 active torsions:
REMARK  status: ('A' for Active; 'I' for Inactive)
REMARK    1  A    between atoms: C4_4  and  C9_9 
REMARK    2  A    between atoms: C8_8  and  O10_10 
ROOT
HETATM    1  C1  UNL     1     -35.576  16.937  -1.535  1.00 20.00     0.012 C 
HETATM    2  C2  UNL     1     -34.649  16.633  -2.235  1.00 20.00    -0.113 C 
HETATM    3  C9  UNL     1     -33.507  16.272  -3.073  1.00 20.00     0.127 C 
ENDROOT
BRANCH   3   4
HETATM    4  C4  UNL     1     -33.988  15.539  -4.290  1.00 20.00    -0.070 C 
HETATM    5  C3  UNL     1     -35.074  14.745  -4.259  1.00 20.00     0.008 C 
HETATM    6  C8  UNL     1     -35.568  13.971  -5.447  1.00 20.00     0.141 C 
HETATM    7  C7  UNL     1     -34.543  13.893  -6.581  1.00 20.00     0.036 C 
HETATM    8  C6  UNL     1     -33.884  15.245  -6.815  1.00 20.00     0.007 C 
HETATM    9  C5  UNL     1     -33.182  15.742  -5.550  1.00 20.00     0.035 C 
BRANCH   6  10
HETATM   10  O10 UNL     1     -35.893  12.649  -5.025  1.00 20.00    -0.392 OA
HETATM   11  H22 UNL     1     -36.615  12.734  -4.381  1.00 20.00     0.210 HD
ENDBRANCH   6  10
ENDBRANCH   3   4
TORSDOF 2
ENDMDL
MODEL 6
REMARK VINA RESULT:      -4.8     10.979     11.483
REMARK  2 active torsions:
REMARK  status: ('A' for Active; 'I' for Inactive)
REMARK    1  A    between atoms: C4_4  and  C9_9 
REMARK    2  A    between atoms: C8_8  and  O10_10 
ROOT
HETATM    1  C1  UNL     1     -33.630  15.649  -3.846  1.00 20.00     0.012 C 
HETATM    2  C2  UNL     1     -34.342  16.100  -2.991  1.00 20.00    -0.113 C 
HETATM    3  C9  UNL     1     -35.225  16.639  -1.959  1.00 20.00     0.127 C 
ENDROOT
BRANCH   3   4
HETATM    4  C4  UNL     1     -34.429  17.472  -1.000  1.00 20.00    -0.070 C 
HETATM    5  C3  UNL     1     -33.192  17.911  -1.297  1.00 20.00     0.008 C 
HETATM    6  C8  UNL     1     -32.351  18.721  -0.352  1.00 20.00     0.141 C 
HETATM    7  C7  UNL     1     -32.880  18.705   1.085  1.00 20.00     0.036 C 
HETATM    8  C6  UNL     1     -34.390  18.890   1.113  1.00 20.00     0.007 C 
HETATM    9  C5  UNL     1     -35.094  17.788   0.318  1.00 20.00     0.035 C 
BRANCH   6  10
HETATM   10  O10 UNL     1     -31.025  18.200  -0.364  1.00 20.00    -0.392 OA
HETATM   11  H22 UNL     1     -31.065  17.330   0.065  1.00 20.00     0.210 HD
ENDBRANCH   6  10
ENDBRANCH   3   4
TORSDOF 2
ENDMDL
MODEL 7
REMARK VINA RESULT:      -4.7     10.786     11.466
REMARK  2 active torsions:
REMARK  status: ('A' for Active; 'I' for Inactive)
REMARK    1  A    between atoms: C4_4  and  C9_9 
REMARK    2  A    between atoms: C8_8  and  O10_10 
ROOT
HETATM    1  C1  UNL     1     -35.266  17.129  -0.912  1.00 20.00     0.012 C 
HETATM    2  C2  UNL     1     -34.786  16.687  -1.920  1.00 20.00    -0.113 C 
HETATM    3  C9  UNL     1     -34.184  16.159  -3.142  1.00 20.00     0.127 C 
ENDROOT
BRANCH   3   4
HETATM    4  C4  UNL     1     -35.202  15.358  -3.899  1.00 20.00    -0.070 C 
HETATM    5  C3  UNL     1     -34.930  14.128  -4.371  1.00 20.00     0.008 C 
HETATM    6  C8  UNL     1     -35.910  13.307  -5.159  1.00 20.00     0.141 C 
HETATM    7  C7  UNL     1     -37.101  14.122  -5.668  1.00 20.00     0.036 C 
HETATM    8  C6  UNL     1     -37.633  15.048  -4.584  1.00 20.00     0.007 C 
HETATM    9  C5  UNL     1     -36.546  16.012  -4.103  1.00 20.00     0.035 C 
BRANCH   6  10
HETATM   10  O10 UNL     1     -35.230  12.734  -6.273  1.00 20.00    -0.392 OA
HETATM   11  H22 UNL     1     -35.466  11.793  -6.287  1.00 20.00     0.210 HD
ENDBRANCH   6  10
ENDBRANCH   3   4
TORSDOF 2
ENDMDL
MODEL 8
REMARK VINA RESULT:      -4.6     10.836     11.342
REMARK  2 active torsions:
REMARK  status: ('A' for Active; 'I' for Inactive)
REMARK    1  A    between atoms: C4_4  and  C9_9 
REMARK    2  A    between atoms: C8_8  and  O10_10 
ROOT
HETATM    1  C1  UNL     1     -35.288  17.323  -0.449  1.00 20.00     0.012 C 
HETATM    2  C2  UNL     1     -34.657  16.984  -1.413  1.00 20.00    -0.113 C 
HETATM    3  C9  UNL     1     -33.871  16.582  -2.577  1.00 20.00     0.127 C 
ENDROOT
BRANCH   3   4
HETATM    4  C4  UNL     1     -34.724  15.765  -3.502  1.00 20.00    -0.070 C 
HETATM    5  C3  UNL     1     -36.034  16.020  -3.672  1.00 20.00     0.008 C 
HETATM    6  C8  UNL     1     -36.927  15.208  -4.564  1.00 20.00     0.141 C 
HETATM    7  C7  UNL     1     -36.303  13.875  -4.985  1.00 20.00     0.036 C 
HETATM    8  C6  UNL     1     -34.845  14.057  -5.384  1.00 20.00     0.007 C 
HETATM    9  C5  UNL     1     -34.028  14.641  -4.230  1.00 20.00     0.035 C 
BRANCH   6  10
HETATM   10  O10 UNL     1     -38.147  14.950  -3.874  1.00 20.00    -0.392 OA
HETATM   11  H22 UNL     1     -38.857  15.332  -4.414  1.00 20.00     0.210 HD
ENDBRANCH   6  10
ENDBRANCH   3   4
TORSDOF 2
ENDMDL
MODEL 9
REMARK VINA RESULT:      -4.6      2.138      4.431
REMARK  2 active torsions:
REMARK  status: ('A' for Active; 'I' for Inactive)
REMARK    1  A    between atoms: C4_4  and  C9_9 
REMARK    2  A    between atoms: C8_8  and  O10_10 
ROOT
HETATM    1  C1  UNL     1     -34.715   4.671   5.626  1.00 20.00     0.012 C 
HETATM    2  C2  UNL     1     -34.720   5.273   4.587  1.00 20.00    -0.113 C 
HETATM    3  C9  UNL     1     -34.743   5.993   3.316  1.00 20.00     0.127 C 
ENDROOT
BRANCH   3   4
HETATM    4  C4  UNL     1     -33.635   7.004   3.291  1.00 20.00    -0.070 C 
HETATM    5  C3  UNL     1     -33.258   7.617   2.154  1.00 20.00     0.008 C 
HETATM    6  C8  UNL     1     -32.134   8.610   2.082  1.00 20.00     0.141 C 
HETATM    7  C7  UNL     1     -31.246   8.602   3.329  1.00 20.00     0.036 C 
HETATM    8  C6  UNL     1     -32.085   8.543   4.597  1.00 20.00     0.007 C 
HETATM    9  C5  UNL     1     -32.968   7.293   4.614  1.00 20.00     0.035 C 
BRANCH   6  10
HETATM   10  O10 UNL     1     -31.334   8.310   0.941  1.00 20.00    -0.392 OA
HETATM   11  H22 UNL     1     -31.498   9.015   0.295  1.00 20.00     0.210 HD
ENDBRANCH   6  10
ENDBRANCH   3   4
TORSDOF 2
ENDMDL
