MODEL 1
REMARK VINA RESULT:      -6.0      0.000      0.000
REMARK  4 active torsions:
REMARK  status: ('A' for Active; 'I' for Inactive)
REMARK    1  A    between atoms: C2_2  and  C7_7 
REMARK    2  A    between atoms: C7_7  and  C8_8 
REMARK    3  A    between atoms: C8_8  and  C9_9 
REMARK    4  A    between atoms: C9_9  and  O10_10 
ROOT
HETATM    1  C1  UNL     1     -33.753   6.301   3.096  1.00 20.00    -0.004 C 
HETATM    2  C2  UNL     1     -32.969   7.176   3.738  1.00 20.00    -0.082 C 
HETATM    3  C3  UNL     1     -33.271   7.213   5.204  1.00 20.00     0.036 C 
HETATM    4  C4  UNL     1     -34.617   6.490   5.282  1.00 20.00     0.028 C 
HETATM    5  C5  UNL     1     -34.701   5.618   4.026  1.00 20.00     0.105 C 
HETATM    6 CL11 UNL     1     -34.141   3.960   4.339  1.00 20.00    -0.121 Cl
ENDROOT
BRANCH   2   7
HETATM    7  C7  UNL     1     -31.892   8.012   3.151  1.00 20.00     0.036 C 
BRANCH   7   8
HETATM    8  C8  UNL     1     -32.246   8.453   1.734  1.00 20.00     0.030 C 
BRANCH   8   9
HETATM    9  C9  UNL     1     -32.553   9.943   1.641  1.00 20.00     0.167 C 
BRANCH   9  10
HETATM   10  O10 UNL     1     -32.621  10.312   0.270  1.00 20.00    -0.396 OA
HETATM   11  C6  UNL     1     -33.116   9.247  -0.532  1.00 20.00     0.201 C 
ENDBRANCH   9  10
ENDBRANCH   8   9
ENDBRANCH   7   8
ENDBRANCH   2   7
TORSDOF 4
ENDMDL
MODEL 2
REMARK VINA RESULT:      -5.0      1.129      1.598
REMARK  4 active torsions:
REMARK  status: ('A' for Active; 'I' for Inactive)
REMARK    1  A    between atoms: C2_2  and  C7_7 
REMARK    2  A    between atoms: C7_7  and  C8_8 
REMARK    3  A    between atoms: C8_8  and  C9_9 
REMARK    4  A    between atoms: C9_9  and  O10_10 
ROOT
HETATM    1  C1  UNL     1     -33.644   7.076   4.323  1.00 20.00    -0.004 C 
HETATM    2  C2  UNL     1     -32.721   7.098   3.353  1.00 20.00    -0.082 C 
HETATM    3  C3  UNL     1     -32.753   5.844   2.535  1.00 20.00     0.036 C 
HETATM    4  C4  UNL     1     -33.595   4.905   3.401  1.00 20.00     0.028 C 
HETATM    5  C5  UNL     1     -34.434   5.809   4.309  1.00 20.00     0.105 C 
HETATM    6 CL11 UNL     1     -36.044   6.116   3.620  1.00 20.00    -0.121 Cl
ENDROOT
BRANCH   2   7
HETATM    7  C7  UNL     1     -31.777   8.199   3.040  1.00 20.00     0.036 C 
BRANCH   7   8
HETATM    8  C8  UNL     1     -31.918   8.652   1.590  1.00 20.00     0.030 C 
BRANCH   8   9
HETATM    9  C9  UNL     1     -32.533  10.041   1.464  1.00 20.00     0.167 C 
BRANCH   9  10
HETATM   10  O10 UNL     1     -32.901  10.257   0.108  1.00 20.00    -0.396 OA
HETATM   11  C6  UNL     1     -33.021   9.031  -0.602  1.00 20.00     0.201 C 
ENDBRANCH   9  10
ENDBRANCH   8   9
ENDBRANCH   7   8
ENDBRANCH   2   7
TORSDOF 4
ENDMDL
MODEL 3
REMARK VINA RESULT:      -4.9      3.402      5.137
REMARK  4 active torsions:
REMARK  status: ('A' for Active; 'I' for Inactive)
REMARK    1  A    between atoms: C2_2  and  C7_7 
REMARK    2  A    between atoms: C7_7  and  C8_8 
REMARK    3  A    between atoms: C8_8  and  C9_9 
REMARK    4  A    between atoms: C9_9  and  O10_10 
ROOT
HETATM    1  C1  UNL     1     -32.578   7.643   1.365  1.00 20.00    -0.004 C 
HETATM    2  C2  UNL     1     -32.881   6.993   2.495  1.00 20.00    -0.082 C 
HETATM    3  C3  UNL     1     -32.395   7.733   3.703  1.00 20.00     0.036 C 
HETATM    4  C4  UNL     1     -31.425   8.750   3.099  1.00 20.00     0.028 C 
HETATM    5  C5  UNL     1     -31.844   8.915   1.635  1.00 20.00     0.105 C 
HETATM    6 CL11 UNL     1     -32.942  10.297   1.420  1.00 20.00    -0.121 Cl
ENDROOT
BRANCH   2   7
HETATM    7  C7  UNL     1     -33.630   5.718   2.621  1.00 20.00     0.036 C 
BRANCH   7   8
HETATM    8  C8  UNL     1     -34.694   5.808   3.711  1.00 20.00     0.030 C 
BRANCH   8   9
HETATM    9  C9  UNL     1     -34.703   4.591   4.628  1.00 20.00     0.167 C 
BRANCH   9  10
HETATM   10  O10 UNL     1     -34.406   5.015   5.953  1.00 20.00    -0.396 OA
HETATM   11  C6  UNL     1     -34.416   6.432   6.062  1.00 20.00     0.201 C 
ENDBRANCH   9  10
ENDBRANCH   8   9
ENDBRANCH   7   8
ENDBRANCH   2   7
TORSDOF 4
ENDMDL
MODEL 4
REMARK VINA RESULT:      -4.9      3.237      5.161
REMARK  4 active torsions:
REMARK  status: ('A' for Active; 'I' for Inactive)
REMARK    1  A    between atoms: C2_2  and  C7_7 
REMARK    2  A    between atoms: C7_7  and  C8_8 
REMARK    3  A    between atoms: C8_8  and  C9_9 
REMARK    4  A    between atoms: C9_9  and  O10_10 
ROOT
HETATM    1  C1  UNL     1     -31.593   8.409   1.172  1.00 20.00    -0.004 C 
HETATM    2  C2  UNL     1     -32.209   8.535   2.354  1.00 20.00    -0.082 C 
HETATM    3  C3  UNL     1     -33.060   9.767   2.401  1.00 20.00     0.036 C 
HETATM    4  C4  UNL     1     -32.564  10.558   1.188  1.00 20.00     0.028 C 
HETATM    5  C5  UNL     1     -31.930   9.531   0.246  1.00 20.00     0.105 C 
HETATM    6 CL11 UNL     1     -33.086   8.966  -0.982  1.00 20.00    -0.121 Cl
ENDROOT
BRANCH   2   7
HETATM    7  C7  UNL     1     -32.139   7.601   3.505  1.00 20.00     0.036 C 
BRANCH   7   8
HETATM    8  C8  UNL     1     -33.534   7.188   3.966  1.00 20.00     0.030 C 
BRANCH   8   9
HETATM    9  C9  UNL     1     -33.695   7.249   5.480  1.00 20.00     0.167 C 
BRANCH   9  10
HETATM   10  O10 UNL     1     -34.379   6.081   5.915  1.00 20.00    -0.396 OA
HETATM   11  C6  UNL     1     -34.717   5.237   4.822  1.00 20.00     0.201 C 
ENDBRANCH   9  10
ENDBRANCH   8   9
ENDBRANCH   7   8
ENDBRANCH   2   7
TORSDOF 4
ENDMDL
MODEL 5
REMARK VINA RESULT:      -4.7      3.362      4.973
REMARK  4 active torsions:
REMARK  status: ('A' for Active; 'I' for Inactive)
REMARK    1  A    between atoms: C2_2  and  C7_7 
REMARK    2  A    between atoms: C7_7  and  C8_8 
REMARK    3  A    between atoms: C8_8  and  C9_9 
REMARK    4  A    between atoms: C9_9  and  O10_10 
ROOT
HETATM    1  C1  UNL     1     -33.376   7.692   2.653  1.00 20.00    -0.004 C 
HETATM    2  C2  UNL     1     -33.000   7.702   3.938  1.00 20.00    -0.082 C 
HETATM    3  C3  UNL     1     -31.674   8.374   4.118  1.00 20.00     0.036 C 
HETATM    4  C4  UNL     1     -31.139   8.438   2.686  1.00 20.00     0.028 C 
HETATM    5  C5  UNL     1     -32.365   8.351   1.773  1.00 20.00     0.105 C 
HETATM    6 CL11 UNL     1     -32.946   9.964   1.300  1.00 20.00    -0.121 Cl
ENDROOT
BRANCH   2   7
HETATM    7  C7  UNL     1     -33.758   7.170   5.097  1.00 20.00     0.036 C 
BRANCH   7   8
HETATM    8  C8  UNL     1     -34.752   6.097   4.661  1.00 20.00     0.030 C 
BRANCH   8   9
HETATM    9  C9  UNL     1     -34.529   4.766   5.369  1.00 20.00     0.167 C 
BRANCH   9  10
HETATM   10  O10 UNL     1     -34.405   3.742   4.390  1.00 20.00    -0.396 OA
HETATM   11  C6  UNL     1     -33.611   4.165   3.290  1.00 20.00     0.201 C 
ENDBRANCH   9  10
ENDBRANCH   8   9
ENDBRANCH   7   8
ENDBRANCH   2   7
TORSDOF 4
ENDMDL
MODEL 6
REMARK VINA RESULT:      -4.4     10.960     11.359
REMARK  4 active torsions:
REMARK  status: ('A' for Active; 'I' for Inactive)
REMARK    1  A    between atoms: C2_2  and  C7_7 
REMARK    2  A    between atoms: C7_7  and  C8_8 
REMARK    3  A    between atoms: C8_8  and  C9_9 
REMARK    4  A    between atoms: C9_9  and  O10_10 
ROOT
HETATM    1  C1  UNL     1     -33.776  16.481  -3.023  1.00 20.00    -0.004 C 
HETATM    2  C2  UNL     1     -35.096  16.264  -2.969  1.00 20.00    -0.082 C 
HETATM    3  C3  UNL     1     -35.717  16.950  -1.791  1.00 20.00     0.036 C 
HETATM    4  C4  UNL     1     -34.500  17.308  -0.937  1.00 20.00     0.028 C 
HETATM    5  C5  UNL     1     -33.307  17.340  -1.895  1.00 20.00     0.105 C 
HETATM    6 CL11 UNL     1     -32.987  18.985  -2.490  1.00 20.00    -0.121 Cl
ENDROOT
BRANCH   2   7
HETATM    7  C7  UNL     1     -35.916  15.488  -3.931  1.00 20.00     0.036 C 
BRANCH   7   8
HETATM    8  C8  UNL     1     -35.121  14.330  -4.526  1.00 20.00     0.030 C 
BRANCH   8   9
HETATM    9  C9  UNL     1     -36.004  13.313  -5.239  1.00 20.00     0.167 C 
BRANCH   9  10
HETATM   10  O10 UNL     1     -35.247  12.692  -6.270  1.00 20.00    -0.396 OA
HETATM   11  C6  UNL     1     -34.444  13.634  -6.967  1.00 20.00     0.201 C 
ENDBRANCH   9  10
ENDBRANCH   8   9
ENDBRANCH   7   8
ENDBRANCH   2   7
TORSDOF 4
ENDMDL
MODEL 7
REMARK VINA RESULT:      -4.4      3.456      5.366
REMARK  4 active torsions:
REMARK  status: ('A' for Active; 'I' for Inactive)
REMARK    1  A    between atoms: C2_2  and  C7_7 
REMARK    2  A    between atoms: C7_7  and  C8_8 
REMARK    3  A    between atoms: C8_8  and  C9_9 
REMARK    4  A    between atoms: C9_9  and  O10_10 
ROOT
HETATM    1  C1  UNL     1     -33.335   9.223   2.229  1.00 20.00    -0.004 C 
HETATM    2  C2  UNL     1     -32.479   8.194   2.222  1.00 20.00    -0.082 C 
HETATM    3  C3  UNL     1     -31.404   8.381   1.196  1.00 20.00     0.036 C 
HETATM    4  C4  UNL     1     -31.964   9.512   0.332  1.00 20.00     0.028 C 
HETATM    5  C5  UNL     1     -32.972  10.256   1.213  1.00 20.00     0.105 C 
HETATM    6 CL11 UNL     1     -32.230  11.655   2.021  1.00 20.00    -0.121 Cl
ENDROOT
BRANCH   2   7
HETATM    7  C7  UNL     1     -32.502   7.004   3.108  1.00 20.00     0.036 C 
BRANCH   7   8
HETATM    8  C8  UNL     1     -33.833   6.891   3.846  1.00 20.00     0.030 C 
BRANCH   8   9
HETATM    9  C9  UNL     1     -33.692   7.095   5.349  1.00 20.00     0.167 C 
BRANCH   9  10
HETATM   10  O10 UNL     1     -34.431   6.082   6.020  1.00 20.00    -0.396 OA
HETATM   11  C6  UNL     1     -34.674   4.967   5.173  1.00 20.00     0.201 C 
ENDBRANCH   9  10
ENDBRANCH   8   9
ENDBRANCH   7   8
ENDBRANCH   2   7
TORSDOF 4
ENDMDL
MODEL 8
REMARK VINA RESULT:      -4.3     10.902     11.354
REMARK  4 active torsions:
REMARK  status: ('A' for Active; 'I' for Inactive)
REMARK    1  A    between atoms: C2_2  and  C7_7 
REMARK    2  A    between atoms: C7_7  and  C8_8 
REMARK    3  A    between atoms: C8_8  and  C9_9 
REMARK    4  A    between atoms: C9_9  and  O10_10 
ROOT
HETATM    1  C1  UNL     1     -33.662  16.434  -3.047  1.00 20.00    -0.004 C 
HETATM    2  C2  UNL     1     -34.473  16.914  -2.095  1.00 20.00    -0.082 C 
HETATM    3  C3  UNL     1     -35.911  16.636  -2.406  1.00 20.00     0.036 C 
HETATM    4  C4  UNL     1     -35.859  16.237  -3.882  1.00 20.00     0.028 C 
HETATM    5  C5  UNL     1     -34.426  15.763  -4.141  1.00 20.00     0.105 C 
HETATM    6 CL11 UNL     1     -34.279  13.998  -3.977  1.00 20.00    -0.121 Cl
ENDROOT
BRANCH   2   7
HETATM    7  C7  UNL     1     -34.074  17.611  -0.847  1.00 20.00     0.036 C 
BRANCH   7   8
HETATM    8  C8  UNL     1     -32.635  18.112  -0.930  1.00 20.00     0.030 C 
BRANCH   8   9
HETATM    9  C9  UNL     1     -32.228  18.940   0.282  1.00 20.00     0.167 C 
BRANCH   9  10
HETATM   10  O10 UNL     1     -30.902  18.587   0.654  1.00 20.00    -0.396 OA
HETATM   11  C6  UNL     1     -30.659  18.847   2.030  1.00 20.00     0.201 C 
ENDBRANCH   9  10
ENDBRANCH   8   9
ENDBRANCH   7   8
ENDBRANCH   2   7
TORSDOF 4
ENDMDL
MODEL 9
REMARK VINA RESULT:      -4.2     10.566     11.174
REMARK  4 active torsions:
REMARK  status: ('A' for Active; 'I' for Inactive)
REMARK    1  A    between atoms: C2_2  and  C7_7 
REMARK    2  A    between atoms: C7_7  and  C8_8 
REMARK    3  A    between atoms: C8_8  and  C9_9 
REMARK    4  A    between atoms: C9_9  and  O10_10 
ROOT
HETATM    1  C1  UNL     1     -35.758  16.682  -2.355  1.00 20.00    -0.004 C 
HETATM    2  C2  UNL     1     -34.609  16.210  -2.854  1.00 20.00    -0.082 C 
HETATM    3  C3  UNL     1     -33.431  16.981  -2.345  1.00 20.00     0.036 C 
HETATM    4  C4  UNL     1     -34.085  18.229  -1.749  1.00 20.00     0.028 C 
HETATM    5  C5  UNL     1     -35.532  17.839  -1.438  1.00 20.00     0.105 C 
HETATM    6 CL11 UNL     1     -35.722  17.311   0.249  1.00 20.00    -0.121 Cl
ENDROOT
BRANCH   2   7
HETATM    7  C7  UNL     1     -34.437  15.054  -3.770  1.00 20.00     0.036 C 
BRANCH   7   8
HETATM    8  C8  UNL     1     -35.447  15.102  -4.913  1.00 20.00     0.030 C 
BRANCH   8   9
HETATM    9  C9  UNL     1     -36.301  13.843  -4.997  1.00 20.00     0.167 C 
BRANCH   9  10
HETATM   10  O10 UNL     1     -35.548  12.820  -5.637  1.00 20.00    -0.396 OA
HETATM   11  C6  UNL     1     -35.208  13.179  -6.969  1.00 20.00     0.201 C 
ENDBRANCH   9  10
ENDBRANCH   8   9
ENDBRANCH   7   8
ENDBRANCH   2   7
TORSDOF 4
ENDMDL
