MODEL 1
REMARK VINA RESULT:      -7.0      0.000      0.000
REMARK  2 active torsions:
REMARK  status: ('A' for Active; 'I' for Inactive)
REMARK    1  A    between atoms: C4_4  and  C10_10 
REMARK    2  A    between atoms: C9_9  and  C10_10 
ROOT
HETATM    1  C1  UNL     1     -33.215   9.475  -0.482  1.00 20.00     0.012 C 
HETATM    2  C2  UNL     1     -32.775   9.358   0.629  1.00 20.00    -0.117 C 
HETATM    3  C9  UNL     1     -32.237   9.219   1.990  1.00 20.00     0.097 C 
ENDROOT
BRANCH   3   4
HETATM    4  C10 UNL     1     -31.865   7.779   2.314  1.00 20.00     0.046 C 
BRANCH   4   5
HETATM    5  C4  UNL     1     -32.732   7.241   3.390  1.00 20.00    -0.081 C 
HETATM    6  C3  UNL     1     -33.580   6.209   3.213  1.00 20.00    -0.004 C 
HETATM    7  C8  UNL     1     -34.464   5.654   4.292  1.00 20.00     0.105 C 
HETATM    8  C7  UNL     1     -34.093   6.146   5.694  1.00 20.00     0.024 C 
HETATM    9 CL11 UNL     1     -34.411   3.868   4.259  1.00 20.00    -0.121 Cl
HETATM   10  C6  UNL     1     -33.801   7.643   5.672  1.00 20.00     0.006 C 
HETATM   11  C5  UNL     1     -32.641   7.954   4.723  1.00 20.00     0.034 C 
ENDBRANCH   4   5
ENDBRANCH   3   4
TORSDOF 2
ENDMDL
MODEL 2
REMARK VINA RESULT:      -5.8      1.501      2.140
REMARK  2 active torsions:
REMARK  status: ('A' for Active; 'I' for Inactive)
REMARK    1  A    between atoms: C4_4  and  C10_10 
REMARK    2  A    between atoms: C9_9  and  C10_10 
ROOT
HETATM    1  C1  UNL     1     -33.244   9.523  -0.809  1.00 20.00     0.012 C 
HETATM    2  C2  UNL     1     -32.865   9.549   0.330  1.00 20.00    -0.117 C 
HETATM    3  C9  UNL     1     -32.402   9.585   1.725  1.00 20.00     0.097 C 
ENDROOT
BRANCH   3   4
HETATM    4  C10 UNL     1     -31.678   8.306   2.120  1.00 20.00     0.046 C 
BRANCH   4   5
HETATM    5  C4  UNL     1     -32.531   7.468   2.997  1.00 20.00    -0.081 C 
HETATM    6  C3  UNL     1     -32.543   7.571   4.340  1.00 20.00    -0.004 C 
HETATM    7  C8  UNL     1     -33.400   6.730   5.240  1.00 20.00     0.105 C 
HETATM    8  C7  UNL     1     -34.497   5.966   4.494  1.00 20.00     0.024 C 
HETATM    9 CL11 UNL     1     -34.145   7.757   6.499  1.00 20.00    -0.121 Cl
HETATM   10  C6  UNL     1     -33.941   5.351   3.214  1.00 20.00     0.006 C 
HETATM   11  C5  UNL     1     -33.386   6.437   2.289  1.00 20.00     0.034 C 
ENDBRANCH   4   5
ENDBRANCH   3   4
TORSDOF 2
ENDMDL
MODEL 3
REMARK VINA RESULT:      -5.4      1.265      1.986
REMARK  2 active torsions:
REMARK  status: ('A' for Active; 'I' for Inactive)
REMARK    1  A    between atoms: C4_4  and  C10_10 
REMARK    2  A    between atoms: C9_9  and  C10_10 
ROOT
HETATM    1  C1  UNL     1     -31.998   9.140   1.107  1.00 20.00     0.012 C 
HETATM    2  C2  UNL     1     -31.737   8.830   2.237  1.00 20.00    -0.117 C 
HETATM    3  C9  UNL     1     -31.414   8.450   3.620  1.00 20.00     0.097 C 
ENDROOT
BRANCH   3   4
HETATM    4  C10 UNL     1     -32.655   8.380   4.499  1.00 20.00     0.046 C 
BRANCH   4   5
HETATM    5  C4  UNL     1     -33.292   7.044   4.403  1.00 20.00    -0.081 C 
HETATM    6  C3  UNL     1     -33.349   6.329   3.262  1.00 20.00    -0.004 C 
HETATM    7  C8  UNL     1     -33.990   4.976   3.150  1.00 20.00     0.105 C 
HETATM    8  C7  UNL     1     -34.293   4.333   4.506  1.00 20.00     0.024 C 
HETATM    9 CL11 UNL     1     -32.942   3.887   2.198  1.00 20.00    -0.121 Cl
HETATM   10  C6  UNL     1     -34.892   5.360   5.460  1.00 20.00     0.006 C 
HETATM   11  C5  UNL     1     -33.925   6.526   5.678  1.00 20.00     0.034 C 
ENDBRANCH   4   5
ENDBRANCH   3   4
TORSDOF 2
ENDMDL
MODEL 4
REMARK VINA RESULT:      -5.3      2.576      4.877
REMARK  2 active torsions:
REMARK  status: ('A' for Active; 'I' for Inactive)
REMARK    1  A    between atoms: C4_4  and  C10_10 
REMARK    2  A    between atoms: C9_9  and  C10_10 
ROOT
HETATM    1  C1  UNL     1     -34.635   4.994   6.120  1.00 20.00     0.012 C 
HETATM    2  C2  UNL     1     -34.788   5.391   4.997  1.00 20.00    -0.117 C 
HETATM    3  C9  UNL     1     -34.979   5.879   3.624  1.00 20.00     0.097 C 
ENDROOT
BRANCH   3   4
HETATM    4  C10 UNL     1     -33.742   5.663   2.763  1.00 20.00     0.046 C 
BRANCH   4   5
HETATM    5  C4  UNL     1     -33.008   6.937   2.568  1.00 20.00    -0.081 C 
HETATM    6  C3  UNL     1     -32.818   7.506   1.362  1.00 20.00    -0.004 C 
HETATM    7  C8  UNL     1     -32.077   8.794   1.148  1.00 20.00     0.105 C 
HETATM    8  C7  UNL     1     -31.832   9.576   2.441  1.00 20.00     0.024 C 
HETATM    9 CL11 UNL     1     -32.974   9.823  -0.005  1.00 20.00    -0.121 Cl
HETATM   10  C6  UNL     1     -31.378   8.636   3.553  1.00 20.00     0.006 C 
HETATM   11  C5  UNL     1     -32.438   7.565   3.823  1.00 20.00     0.034 C 
ENDBRANCH   4   5
ENDBRANCH   3   4
TORSDOF 2
ENDMDL
MODEL 5
REMARK VINA RESULT:      -4.8     11.173     11.722
REMARK  2 active torsions:
REMARK  status: ('A' for Active; 'I' for Inactive)
REMARK    1  A    between atoms: C4_4  and  C10_10 
REMARK    2  A    between atoms: C9_9  and  C10_10 
ROOT
HETATM    1  C1  UNL     1     -31.063  18.846   1.415  1.00 20.00     0.012 C 
HETATM    2  C2  UNL     1     -31.691  18.697   0.402  1.00 20.00    -0.117 C 
HETATM    3  C9  UNL     1     -32.457  18.516  -0.839  1.00 20.00     0.097 C 
ENDROOT
BRANCH   3   4
HETATM    4  C10 UNL     1     -33.820  17.887  -0.584  1.00 20.00     0.046 C 
BRANCH   4   5
HETATM    5  C4  UNL     1     -34.291  17.149  -1.780  1.00 20.00    -0.081 C 
HETATM    6  C3  UNL     1     -33.471  16.727  -2.762  1.00 20.00    -0.004 C 
HETATM    7  C8  UNL     1     -33.933  15.979  -3.979  1.00 20.00     0.105 C 
HETATM    8  C7  UNL     1     -35.366  15.452  -3.861  1.00 20.00     0.024 C 
HETATM    9 CL11 UNL     1     -32.826  14.615  -4.307  1.00 20.00    -0.121 Cl
HETATM   10  C6  UNL     1     -36.275  16.516  -3.255  1.00 20.00     0.006 C 
HETATM   11  C5  UNL     1     -35.786  16.917  -1.862  1.00 20.00     0.034 C 
ENDBRANCH   4   5
ENDBRANCH   3   4
TORSDOF 2
ENDMDL
MODEL 6
REMARK VINA RESULT:      -4.6     10.683     11.854
REMARK  2 active torsions:
REMARK  status: ('A' for Active; 'I' for Inactive)
REMARK    1  A    between atoms: C4_4  and  C10_10 
REMARK    2  A    between atoms: C9_9  and  C10_10 
ROOT
HETATM    1  C1  UNL     1     -35.128  18.048   0.659  1.00 20.00     0.012 C 
HETATM    2  C2  UNL     1     -35.168  17.465  -0.390  1.00 20.00    -0.117 C 
HETATM    3  C9  UNL     1     -35.221  16.750  -1.674  1.00 20.00     0.097 C 
ENDROOT
BRANCH   3   4
HETATM    4  C10 UNL     1     -33.875  16.751  -2.384  1.00 20.00     0.046 C 
BRANCH   4   5
HETATM    5  C4  UNL     1     -33.976  16.079  -3.702  1.00 20.00    -0.081 C 
HETATM    6  C3  UNL     1     -34.439  14.824  -3.862  1.00 20.00    -0.004 C 
HETATM    7  C8  UNL     1     -34.547  14.131  -5.190  1.00 20.00     0.105 C 
HETATM    8  C7  UNL     1     -34.390  15.077  -6.383  1.00 20.00     0.024 C 
HETATM    9 CL11 UNL     1     -36.118  13.288  -5.306  1.00 20.00    -0.121 Cl
HETATM   10  C6  UNL     1     -33.237  16.047  -6.145  1.00 20.00     0.006 C 
HETATM   11  C5  UNL     1     -33.485  16.884  -4.888  1.00 20.00     0.034 C 
ENDBRANCH   4   5
ENDBRANCH   3   4
TORSDOF 2
ENDMDL
MODEL 7
REMARK VINA RESULT:      -4.6     10.698     11.935
REMARK  2 active torsions:
REMARK  status: ('A' for Active; 'I' for Inactive)
REMARK    1  A    between atoms: C4_4  and  C10_10 
REMARK    2  A    between atoms: C9_9  and  C10_10 
ROOT
HETATM    1  C1  UNL     1     -31.976  18.561  -0.038  1.00 20.00     0.012 C 
HETATM    2  C2  UNL     1     -32.529  18.321  -1.076  1.00 20.00    -0.117 C 
HETATM    3  C9  UNL     1     -33.204  18.031  -2.350  1.00 20.00     0.097 C 
ENDROOT
BRANCH   3   4
HETATM    4  C10 UNL     1     -34.047  16.766  -2.275  1.00 20.00     0.046 C 
BRANCH   4   5
HETATM    5  C4  UNL     1     -34.085  16.080  -3.589  1.00 20.00    -0.081 C 
HETATM    6  C3  UNL     1     -34.582  14.840  -3.765  1.00 20.00    -0.004 C 
HETATM    7  C8  UNL     1     -34.627  14.133  -5.089  1.00 20.00     0.105 C 
HETATM    8  C7  UNL     1     -34.357  15.056  -6.280  1.00 20.00     0.024 C 
HETATM    9 CL11 UNL     1     -36.216  13.345  -5.300  1.00 20.00    -0.121 Cl
HETATM   10  C6  UNL     1     -33.188  15.988  -5.977  1.00 20.00     0.006 C 
HETATM   11  C5  UNL     1     -33.488  16.850  -4.748  1.00 20.00     0.034 C 
ENDBRANCH   4   5
ENDBRANCH   3   4
TORSDOF 2
ENDMDL
MODEL 8
REMARK VINA RESULT:      -4.6     11.033     11.453
REMARK  2 active torsions:
REMARK  status: ('A' for Active; 'I' for Inactive)
REMARK    1  A    between atoms: C4_4  and  C10_10 
REMARK    2  A    between atoms: C9_9  and  C10_10 
ROOT
HETATM    1  C1  UNL     1     -35.935  13.993  -4.918  1.00 20.00     0.012 C 
HETATM    2  C2  UNL     1     -35.332  14.773  -4.231  1.00 20.00    -0.117 C 
HETATM    3  C9  UNL     1     -34.591  15.727  -3.393  1.00 20.00     0.097 C 
ENDROOT
BRANCH   3   4
HETATM    4  C10 UNL     1     -35.449  16.284  -2.266  1.00 20.00     0.046 C 
BRANCH   4   5
HETATM    5  C4  UNL     1     -34.651  17.173  -1.388  1.00 20.00    -0.081 C 
HETATM    6  C3  UNL     1     -35.142  17.752  -0.274  1.00 20.00    -0.004 C 
HETATM    7  C8  UNL     1     -34.347  18.654   0.624  1.00 20.00     0.105 C 
HETATM    8  C7  UNL     1     -32.841  18.610   0.351  1.00 20.00     0.024 C 
HETATM    9 CL11 UNL     1     -34.651  18.228   2.332  1.00 20.00    -0.121 Cl
HETATM   10  C6  UNL     1     -32.572  18.634  -1.150  1.00 20.00     0.006 C 
HETATM   11  C5  UNL     1     -33.228  17.434  -1.837  1.00 20.00     0.034 C 
ENDBRANCH   4   5
ENDBRANCH   3   4
TORSDOF 2
ENDMDL
MODEL 9
REMARK VINA RESULT:      -4.4     10.906     11.896
REMARK  2 active torsions:
REMARK  status: ('A' for Active; 'I' for Inactive)
REMARK    1  A    between atoms: C4_4  and  C10_10 
REMARK    2  A    between atoms: C9_9  and  C10_10 
ROOT
HETATM    1  C1  UNL     1     -35.031  17.005  -1.203  1.00 20.00     0.012 C 
HETATM    2  C2  UNL     1     -34.435  16.876  -2.238  1.00 20.00    -0.117 C 
HETATM    3  C9  UNL     1     -33.704  16.722  -3.504  1.00 20.00     0.097 C 
ENDROOT
BRANCH   3   4
HETATM    4  C10 UNL     1     -33.423  15.261  -3.828  1.00 20.00     0.046 C 
BRANCH   4   5
HETATM    5  C4  UNL     1     -34.374  14.756  -4.847  1.00 20.00    -0.081 C 
HETATM    6  C3  UNL     1     -35.598  14.278  -4.549  1.00 20.00    -0.004 C 
HETATM    7  C8  UNL     1     -36.571  13.764  -5.569  1.00 20.00     0.105 C 
HETATM    8  C7  UNL     1     -36.189  14.123  -7.008  1.00 20.00     0.024 C 
HETATM    9 CL11 UNL     1     -38.206  14.393  -5.217  1.00 20.00    -0.121 Cl
HETATM   10  C6  UNL     1     -34.696  13.906  -7.232  1.00 20.00     0.006 C 
HETATM   11  C5  UNL     1     -33.873  14.774  -6.277  1.00 20.00     0.034 C 
ENDBRANCH   4   5
ENDBRANCH   3   4
TORSDOF 2
ENDMDL
