MODEL 1
REMARK VINA RESULT:      -6.5      0.000      0.000
REMARK  4 active torsions:
REMARK  status: ('A' for Active; 'I' for Inactive)
REMARK    1  A    between atoms: C2_2  and  C8_8 
REMARK    2  A    between atoms: C8_8  and  C11_11 
REMARK    3  A    between atoms: C9_9  and  C10_10 
REMARK    4  A    between atoms: C10_10  and  C11_11 
ROOT
HETATM    1  C1  UNL     1     -34.632   5.926   3.459  1.00 20.00    -0.004 C 
HETATM    2  C2  UNL     1     -33.953   7.020   3.825  1.00 20.00    -0.082 C 
HETATM    3  C3  UNL     1     -33.694   7.040   5.301  1.00 20.00     0.036 C 
HETATM    4  C4  UNL     1     -34.651   5.963   5.817  1.00 20.00     0.028 C 
HETATM    5  C5  UNL     1     -34.935   5.045   4.627  1.00 20.00     0.105 C 
HETATM    6 CL12 UNL     1     -33.851   3.637   4.611  1.00 20.00    -0.121 Cl
ENDROOT
BRANCH   2   7
HETATM    7  C8  UNL     1     -33.453   8.102   2.939  1.00 20.00     0.038 C 
BRANCH   7   8
HETATM    8  C11 UNL     1     -31.978   7.958   2.511  1.00 20.00    -0.015 C 
HETATM    9  C7  UNL     1     -31.029   8.410   3.629  1.00 20.00     0.010 C 
BRANCH   8  10
HETATM   10  C10 UNL     1     -31.627   8.696   1.202  1.00 20.00     0.004 C 
BRANCH  10  11
HETATM   11  C9  UNL     1     -32.641   9.777   0.820  1.00 20.00    -0.004 C 
HETATM   12  C6  UNL     1     -33.249   9.508  -0.548  1.00 20.00     0.005 C 
ENDBRANCH  10  11
ENDBRANCH   8  10
ENDBRANCH   7   8
ENDBRANCH   2   7
TORSDOF 4
ENDMDL
MODEL 2
REMARK VINA RESULT:      -6.2      2.460      5.313
REMARK  4 active torsions:
REMARK  status: ('A' for Active; 'I' for Inactive)
REMARK    1  A    between atoms: C2_2  and  C8_8 
REMARK    2  A    between atoms: C8_8  and  C11_11 
REMARK    3  A    between atoms: C9_9  and  C10_10 
REMARK    4  A    between atoms: C10_10  and  C11_11 
ROOT
HETATM    1  C1  UNL     1     -31.660   8.322   1.220  1.00 20.00    -0.004 C 
HETATM    2  C2  UNL     1     -32.417   8.389   2.322  1.00 20.00    -0.082 C 
HETATM    3  C3  UNL     1     -33.284   9.611   2.321  1.00 20.00     0.036 C 
HETATM    4  C4  UNL     1     -32.656  10.460   1.215  1.00 20.00     0.028 C 
HETATM    5  C5  UNL     1     -31.900   9.484   0.311  1.00 20.00     0.105 C 
HETATM    6 CL12 UNL     1     -32.889   8.967  -1.071  1.00 20.00    -0.121 Cl
ENDROOT
BRANCH   2   7
HETATM    7  C8  UNL     1     -32.474   7.403   3.431  1.00 20.00     0.038 C 
BRANCH   7   8
HETATM    8  C11 UNL     1     -33.807   7.375   4.205  1.00 20.00    -0.015 C 
HETATM    9  C7  UNL     1     -33.569   7.348   5.720  1.00 20.00     0.010 C 
BRANCH   8  10
HETATM   10  C10 UNL     1     -34.744   6.216   3.806  1.00 20.00     0.004 C 
BRANCH  10  11
HETATM   11  C9  UNL     1     -34.802   5.093   4.845  1.00 20.00    -0.004 C 
HETATM   12  C6  UNL     1     -34.044   3.862   4.373  1.00 20.00     0.005 C 
ENDBRANCH  10  11
ENDBRANCH   8  10
ENDBRANCH   7   8
ENDBRANCH   2   7
TORSDOF 4
ENDMDL
MODEL 3
REMARK VINA RESULT:      -5.7      2.673      5.470
REMARK  4 active torsions:
REMARK  status: ('A' for Active; 'I' for Inactive)
REMARK    1  A    between atoms: C2_2  and  C8_8 
REMARK    2  A    between atoms: C8_8  and  C11_11 
REMARK    3  A    between atoms: C9_9  and  C10_10 
REMARK    4  A    between atoms: C10_10  and  C11_11 
ROOT
HETATM    1  C1  UNL     1     -33.437   9.225   2.128  1.00 20.00    -0.004 C 
HETATM    2  C2  UNL     1     -32.633   8.163   2.266  1.00 20.00    -0.082 C 
HETATM    3  C3  UNL     1     -31.460   8.238   1.338  1.00 20.00     0.036 C 
HETATM    4  C4  UNL     1     -31.883   9.334   0.358  1.00 20.00     0.028 C 
HETATM    5  C5  UNL     1     -32.931  10.174   1.091  1.00 20.00     0.105 C 
HETATM    6 CL12 UNL     1     -32.203  11.589   1.881  1.00 20.00    -0.121 Cl
ENDROOT
BRANCH   2   7
HETATM    7  C8  UNL     1     -32.796   7.034   3.216  1.00 20.00     0.038 C 
BRANCH   7   8
HETATM    8  C11 UNL     1     -34.014   7.148   4.155  1.00 20.00    -0.015 C 
HETATM    9  C7  UNL     1     -33.575   7.287   5.619  1.00 20.00     0.010 C 
BRANCH   8  10
HETATM   10  C10 UNL     1     -35.022   5.987   4.023  1.00 20.00     0.004 C 
BRANCH  10  11
HETATM   11  C9  UNL     1     -34.775   4.848   5.014  1.00 20.00    -0.004 C 
HETATM   12  C6  UNL     1     -33.961   3.730   4.381  1.00 20.00     0.005 C 
ENDBRANCH  10  11
ENDBRANCH   8  10
ENDBRANCH   7   8
ENDBRANCH   2   7
TORSDOF 4
ENDMDL
MODEL 4
REMARK VINA RESULT:      -5.6      2.580      5.243
REMARK  4 active torsions:
REMARK  status: ('A' for Active; 'I' for Inactive)
REMARK    1  A    between atoms: C2_2  and  C8_8 
REMARK    2  A    between atoms: C8_8  and  C11_11 
REMARK    3  A    between atoms: C9_9  and  C10_10 
REMARK    4  A    between atoms: C10_10  and  C11_11 
ROOT
HETATM    1  C1  UNL     1     -33.033   8.187   1.172  1.00 20.00    -0.004 C 
HETATM    2  C2  UNL     1     -33.148   7.492   2.311  1.00 20.00    -0.082 C 
HETATM    3  C3  UNL     1     -32.160   7.952   3.338  1.00 20.00     0.036 C 
HETATM    4  C4  UNL     1     -31.183   8.786   2.506  1.00 20.00     0.028 C 
HETATM    5  C5  UNL     1     -31.955   9.217   1.257  1.00 20.00     0.105 C 
HETATM    6 CL12 UNL     1     -32.680  10.827   1.456  1.00 20.00    -0.121 Cl
ENDROOT
BRANCH   2   7
HETATM    7  C8  UNL     1     -34.126   6.414   2.608  1.00 20.00     0.038 C 
BRANCH   7   8
HETATM    8  C11 UNL     1     -33.572   5.254   3.459  1.00 20.00    -0.015 C 
HETATM    9  C7  UNL     1     -32.895   4.195   2.580  1.00 20.00     0.010 C 
BRANCH   8  10
HETATM   10  C10 UNL     1     -34.622   4.581   4.367  1.00 20.00     0.004 C 
BRANCH  10  11
HETATM   11  C9  UNL     1     -34.557   5.046   5.824  1.00 20.00    -0.004 C 
HETATM   12  C6  UNL     1     -34.219   6.525   5.919  1.00 20.00     0.005 C 
ENDBRANCH  10  11
ENDBRANCH   8  10
ENDBRANCH   7   8
ENDBRANCH   2   7
TORSDOF 4
ENDMDL
MODEL 5
REMARK VINA RESULT:      -5.4      0.984      1.631
REMARK  4 active torsions:
REMARK  status: ('A' for Active; 'I' for Inactive)
REMARK    1  A    between atoms: C2_2  and  C8_8 
REMARK    2  A    between atoms: C8_8  and  C11_11 
REMARK    3  A    between atoms: C9_9  and  C10_10 
REMARK    4  A    between atoms: C10_10  and  C11_11 
ROOT
HETATM    1  C1  UNL     1     -33.922   6.201   3.126  1.00 20.00    -0.004 C 
HETATM    2  C2  UNL     1     -33.107   7.105   3.683  1.00 20.00    -0.082 C 
HETATM    3  C3  UNL     1     -33.296   7.176   5.167  1.00 20.00     0.036 C 
HETATM    4  C4  UNL     1     -34.618   6.433   5.367  1.00 20.00     0.028 C 
HETATM    5  C5  UNL     1     -34.782   5.527   4.145  1.00 20.00     0.105 C 
HETATM    6 CL12 UNL     1     -34.170   3.888   4.455  1.00 20.00    -0.121 Cl
ENDROOT
BRANCH   2   7
HETATM    7  C8  UNL     1     -32.093   7.943   2.993  1.00 20.00     0.038 C 
BRANCH   7   8
HETATM    8  C11 UNL     1     -32.411   8.260   1.518  1.00 20.00    -0.015 C 
HETATM    9  C7  UNL     1     -31.126   8.452   0.702  1.00 20.00     0.010 C 
BRANCH   8  10
HETATM   10  C10 UNL     1     -33.338   9.477   1.320  1.00 20.00     0.004 C 
BRANCH  10  11
HETATM   11  C9  UNL     1     -32.588  10.767   0.979  1.00 20.00    -0.004 C 
HETATM   12  C6  UNL     1     -32.276  11.573   2.231  1.00 20.00     0.005 C 
ENDBRANCH  10  11
ENDBRANCH   8  10
ENDBRANCH   7   8
ENDBRANCH   2   7
TORSDOF 4
ENDMDL
MODEL 6
REMARK VINA RESULT:      -5.0      2.484      4.828
REMARK  4 active torsions:
REMARK  status: ('A' for Active; 'I' for Inactive)
REMARK    1  A    between atoms: C2_2  and  C8_8 
REMARK    2  A    between atoms: C8_8  and  C11_11 
REMARK    3  A    between atoms: C9_9  and  C10_10 
REMARK    4  A    between atoms: C10_10  and  C11_11 
ROOT
HETATM    1  C1  UNL     1     -33.576   8.335   2.587  1.00 20.00    -0.004 C 
HETATM    2  C2  UNL     1     -32.810   7.949   3.615  1.00 20.00    -0.082 C 
HETATM    3  C3  UNL     1     -31.353   8.110   3.307  1.00 20.00     0.036 C 
HETATM    4  C4  UNL     1     -31.356   8.305   1.789  1.00 20.00     0.028 C 
HETATM    5  C5  UNL     1     -32.756   8.811   1.432  1.00 20.00     0.105 C 
HETATM    6 CL12 UNL     1     -32.811  10.585   1.351  1.00 20.00    -0.121 Cl
ENDROOT
BRANCH   2   7
HETATM    7  C8  UNL     1     -33.270   7.451   4.937  1.00 20.00     0.038 C 
BRANCH   7   8
HETATM    8  C11 UNL     1     -34.500   6.523   4.886  1.00 20.00    -0.015 C 
HETATM    9  C7  UNL     1     -34.467   5.495   6.025  1.00 20.00     0.010 C 
BRANCH   8  10
HETATM   10  C10 UNL     1     -34.687   5.797   3.537  1.00 20.00     0.004 C 
BRANCH  10  11
HETATM   11  C9  UNL     1     -33.909   4.483   3.438  1.00 20.00    -0.004 C 
HETATM   12  C6  UNL     1     -32.806   4.570   2.395  1.00 20.00     0.005 C 
ENDBRANCH  10  11
ENDBRANCH   8  10
ENDBRANCH   7   8
ENDBRANCH   2   7
TORSDOF 4
ENDMDL
MODEL 7
REMARK VINA RESULT:      -4.6     10.916     11.870
REMARK  4 active torsions:
REMARK  status: ('A' for Active; 'I' for Inactive)
REMARK    1  A    between atoms: C2_2  and  C8_8 
REMARK    2  A    between atoms: C8_8  and  C11_11 
REMARK    3  A    between atoms: C9_9  and  C10_10 
REMARK    4  A    between atoms: C10_10  and  C11_11 
ROOT
HETATM    1  C1  UNL     1     -35.222  14.007  -4.469  1.00 20.00    -0.004 C 
HETATM    2  C2  UNL     1     -34.198  14.742  -4.919  1.00 20.00    -0.082 C 
HETATM    3  C3  UNL     1     -34.122  14.721  -6.415  1.00 20.00     0.036 C 
HETATM    4  C4  UNL     1     -35.042  13.554  -6.776  1.00 20.00     0.028 C 
HETATM    5  C5  UNL     1     -35.989  13.380  -5.587  1.00 20.00     0.105 C 
HETATM    6 CL12 UNL     1     -37.516  14.256  -5.830  1.00 20.00    -0.121 Cl
ENDROOT
BRANCH   2   7
HETATM    7  C8  UNL     1     -33.240  15.535  -4.108  1.00 20.00     0.038 C 
BRANCH   7   8
HETATM    8  C11 UNL     1     -33.796  16.868  -3.568  1.00 20.00    -0.015 C 
HETATM    9  C7  UNL     1     -33.624  17.997  -4.593  1.00 20.00     0.010 C 
BRANCH   8  10
HETATM   10  C10 UNL     1     -33.195  17.300  -2.215  1.00 20.00     0.004 C 
BRANCH  10  11
HETATM   11  C9  UNL     1     -34.224  17.368  -1.084  1.00 20.00    -0.004 C 
HETATM   12  C6  UNL     1     -35.583  16.861  -1.541  1.00 20.00     0.005 C 
ENDBRANCH  10  11
ENDBRANCH   8  10
ENDBRANCH   7   8
ENDBRANCH   2   7
TORSDOF 4
ENDMDL
MODEL 8
REMARK VINA RESULT:      -4.5      1.418      2.033
REMARK  4 active torsions:
REMARK  status: ('A' for Active; 'I' for Inactive)
REMARK    1  A    between atoms: C2_2  and  C8_8 
REMARK    2  A    between atoms: C8_8  and  C11_11 
REMARK    3  A    between atoms: C9_9  and  C10_10 
REMARK    4  A    between atoms: C10_10  and  C11_11 
ROOT
HETATM    1  C1  UNL     1     -33.770   7.016   4.339  1.00 20.00    -0.004 C 
HETATM    2  C2  UNL     1     -32.820   6.951   3.398  1.00 20.00    -0.082 C 
HETATM    3  C3  UNL     1     -32.859   5.644   2.666  1.00 20.00     0.036 C 
HETATM    4  C4  UNL     1     -33.748   4.787   3.569  1.00 20.00     0.028 C 
HETATM    5  C5  UNL     1     -34.591   5.768   4.386  1.00 20.00     0.105 C 
HETATM    6 CL12 UNL     1     -36.171   6.064   3.630  1.00 20.00    -0.121 Cl
ENDROOT
BRANCH   2   7
HETATM    7  C8  UNL     1     -31.840   8.008   3.040  1.00 20.00     0.038 C 
BRANCH   7   8
HETATM    8  C11 UNL     1     -32.001   8.586   1.620  1.00 20.00    -0.015 C 
HETATM    9  C7  UNL     1     -30.689   8.495   0.831  1.00 20.00     0.010 C 
BRANCH   8  10
HETATM   10  C10 UNL     1     -32.529  10.035   1.585  1.00 20.00     0.004 C 
BRANCH  10  11
HETATM   11  C9  UNL     1     -33.148  10.428   0.241  1.00 20.00    -0.004 C 
HETATM   12  C6  UNL     1     -33.311   9.219  -0.667  1.00 20.00     0.005 C 
ENDBRANCH  10  11
ENDBRANCH   8  10
ENDBRANCH   7   8
ENDBRANCH   2   7
TORSDOF 4
ENDMDL
MODEL 9
REMARK VINA RESULT:      -4.5     10.799     11.666
REMARK  4 active torsions:
REMARK  status: ('A' for Active; 'I' for Inactive)
REMARK    1  A    between atoms: C2_2  and  C8_8 
REMARK    2  A    between atoms: C8_8  and  C11_11 
REMARK    3  A    between atoms: C9_9  and  C10_10 
REMARK    4  A    between atoms: C10_10  and  C11_11 
ROOT
HETATM    1  C1  UNL     1     -35.201  17.945  -0.792  1.00 20.00    -0.004 C 
HETATM    2  C2  UNL     1     -34.375  17.312  -1.635  1.00 20.00    -0.082 C 
HETATM    3  C3  UNL     1     -32.952  17.735  -1.432  1.00 20.00     0.036 C 
HETATM    4  C4  UNL     1     -33.102  18.999  -0.582  1.00 20.00     0.028 C 
HETATM    5  C5  UNL     1     -34.465  18.887   0.104  1.00 20.00     0.105 C 
HETATM    6 CL12 UNL     1     -34.327  18.182   1.729  1.00 20.00    -0.121 Cl
ENDROOT
BRANCH   2   7
HETATM    7  C8  UNL     1     -34.739  16.285  -2.644  1.00 20.00     0.038 C 
BRANCH   7   8
HETATM    8  C11 UNL     1     -33.625  15.948  -3.655  1.00 20.00    -0.015 C 
HETATM    9  C7  UNL     1     -33.613  16.947  -4.821  1.00 20.00     0.010 C 
BRANCH   8  10
HETATM   10  C10 UNL     1     -33.688  14.509  -4.206  1.00 20.00     0.004 C 
BRANCH  10  11
HETATM   11  C9  UNL     1     -35.106  14.049  -4.555  1.00 20.00    -0.004 C 
HETATM   12  C6  UNL     1     -35.251  13.783  -6.045  1.00 20.00     0.005 C 
ENDBRANCH  10  11
ENDBRANCH   8  10
ENDBRANCH   7   8
ENDBRANCH   2   7
TORSDOF 4
ENDMDL
