MODEL 1
REMARK VINA RESULT:      -5.0      0.000      0.000
REMARK  2 active torsions:
REMARK  status: ('A' for Active; 'I' for Inactive)
REMARK    1  A    between atoms: C3_3  and  C8_8 
REMARK    2  A    between atoms: C8_8  and  C9_9 
ROOT
HETATM    1  C1  UNL     1     -33.720   6.896   4.780  1.00 20.00     0.044 A 
HETATM    2  C2  UNL     1     -34.076   5.743   4.111  1.00 20.00     0.005 A 
HETATM    3  C3  UNL     1     -32.915   7.398   2.801  1.00 20.00     0.081 A 
HETATM    4  C4  UNL     1     -33.982   7.192   6.202  1.00 20.00     0.071 C 
HETATM    5  C5  UNL     1     -34.783   4.541   4.599  1.00 20.00     0.058 C 
HETATM    6  N10 UNL     1     -33.054   7.846   4.030  1.00 20.00    -0.249 NA
HETATM    7  S11 UNL     1     -33.563   5.842   2.478  1.00 20.00    -0.077 SA
ENDROOT
BRANCH   3   8
HETATM    8  C8  UNL     1     -32.228   8.164   1.678  1.00 20.00     0.059 C 
HETATM    9  C6  UNL     1     -30.931   8.788   2.217  1.00 20.00     0.018 C 
BRANCH   8  10
HETATM   10  C9  UNL     1     -33.163   9.211   1.017  1.00 20.00     0.088 C 
HETATM   11  C7  UNL     1     -33.101   9.188  -0.511  1.00 20.00     0.027 C 
HETATM   12 CL12 UNL     1     -32.733  10.874   1.551  1.00 20.00    -0.125 Cl
ENDBRANCH   8  10
ENDBRANCH   3   8
TORSDOF 2
ENDMDL
MODEL 2
REMARK VINA RESULT:      -4.2     10.448     11.040
REMARK  2 active torsions:
REMARK  status: ('A' for Active; 'I' for Inactive)
REMARK    1  A    between atoms: C3_3  and  C8_8 
REMARK    2  A    between atoms: C8_8  and  C9_9 
ROOT
HETATM    1  C1  UNL     1     -35.021  17.538  -0.230  1.00 20.00     0.044 A 
HETATM    2  C2  UNL     1     -33.764  18.056  -0.464  1.00 20.00     0.005 A 
HETATM    3  C3  UNL     1     -34.780  16.894  -2.313  1.00 20.00     0.081 A 
HETATM    4  C4  UNL     1     -35.781  17.637   1.032  1.00 20.00     0.071 C 
HETATM    5  C5  UNL     1     -32.867  18.816   0.430  1.00 20.00     0.058 C 
HETATM    6  N10 UNL     1     -35.605  16.872  -1.289  1.00 20.00    -0.249 NA
HETATM    7  S11 UNL     1     -33.284  17.699  -2.071  1.00 20.00    -0.077 SA
ENDROOT
BRANCH   3   8
HETATM    8  C8  UNL     1     -35.071  16.262  -3.669  1.00 20.00     0.059 C 
HETATM    9  C6  UNL     1     -36.587  16.044  -3.804  1.00 20.00     0.018 C 
BRANCH   8  10
HETATM   10  C9  UNL     1     -34.259  14.961  -3.902  1.00 20.00     0.088 C 
HETATM   11  C7  UNL     1     -33.067  15.160  -4.839  1.00 20.00     0.027 C 
HETATM   12 CL12 UNL     1     -35.301  13.680  -4.616  1.00 20.00    -0.125 Cl
ENDBRANCH   8  10
ENDBRANCH   3   8
TORSDOF 2
ENDMDL
MODEL 3
REMARK VINA RESULT:      -4.2     10.824     11.236
REMARK  2 active torsions:
REMARK  status: ('A' for Active; 'I' for Inactive)
REMARK    1  A    between atoms: C3_3  and  C8_8 
REMARK    2  A    between atoms: C8_8  and  C9_9 
ROOT
HETATM    1  C1  UNL     1     -33.284  17.937  -1.053  1.00 20.00     0.044 A 
HETATM    2  C2  UNL     1     -34.518  17.735  -0.472  1.00 20.00     0.005 A 
HETATM    3  C3  UNL     1     -34.304  17.008  -2.759  1.00 20.00     0.081 A 
HETATM    4  C4  UNL     1     -32.106  18.547  -0.403  1.00 20.00     0.071 C 
HETATM    5  C5  UNL     1     -34.990  18.052   0.891  1.00 20.00     0.058 C 
HETATM    6  N10 UNL     1     -33.159  17.521  -2.364  1.00 20.00    -0.249 NA
HETATM    7  S11 UNL     1     -35.573  16.996  -1.603  1.00 20.00    -0.077 SA
ENDROOT
BRANCH   3   8
HETATM    8  C8  UNL     1     -34.561  16.438  -4.148  1.00 20.00     0.059 C 
HETATM    9  C6  UNL     1     -35.631  15.339  -4.048  1.00 20.00     0.018 C 
BRANCH   8  10
HETATM   10  C9  UNL     1     -33.260  15.941  -4.832  1.00 20.00     0.088 C 
HETATM   11  C7  UNL     1     -33.364  15.903  -6.357  1.00 20.00     0.027 C 
HETATM   12 CL12 UNL     1     -32.844  14.281  -4.277  1.00 20.00    -0.125 Cl
ENDBRANCH   8  10
ENDBRANCH   3   8
TORSDOF 2
ENDMDL
MODEL 4
REMARK VINA RESULT:      -4.2     10.880     11.515
REMARK  2 active torsions:
REMARK  status: ('A' for Active; 'I' for Inactive)
REMARK    1  A    between atoms: C3_3  and  C8_8 
REMARK    2  A    between atoms: C8_8  and  C9_9 
ROOT
HETATM    1  C1  UNL     1     -36.020  14.812  -4.899  1.00 20.00     0.044 A 
HETATM    2  C2  UNL     1     -34.824  14.537  -5.530  1.00 20.00     0.005 A 
HETATM    3  C3  UNL     1     -34.667  15.825  -3.500  1.00 20.00     0.081 A 
HETATM    4  C4  UNL     1     -37.359  14.389  -5.354  1.00 20.00     0.071 C 
HETATM    5  C5  UNL     1     -34.555  13.783  -6.771  1.00 20.00     0.058 C 
HETATM    6  N10 UNL     1     -35.931  15.550  -3.735  1.00 20.00    -0.249 NA
HETATM    7  S11 UNL     1     -33.531  15.226  -4.639  1.00 20.00    -0.077 SA
ENDROOT
BRANCH   3   8
HETATM    8  C8  UNL     1     -34.166  16.623  -2.303  1.00 20.00     0.059 C 
HETATM    9  C6  UNL     1     -35.349  16.911  -1.364  1.00 20.00     0.018 C 
BRANCH   8  10
HETATM   10  C9  UNL     1     -33.413  17.912  -2.724  1.00 20.00     0.088 C 
HETATM   11  C7  UNL     1     -32.837  18.683  -1.536  1.00 20.00     0.027 C 
HETATM   12 CL12 UNL     1     -34.509  19.027  -3.614  1.00 20.00    -0.125 Cl
ENDBRANCH   8  10
ENDBRANCH   3   8
TORSDOF 2
ENDMDL
MODEL 5
REMARK VINA RESULT:      -4.2     10.835     11.394
REMARK  2 active torsions:
REMARK  status: ('A' for Active; 'I' for Inactive)
REMARK    1  A    between atoms: C3_3  and  C8_8 
REMARK    2  A    between atoms: C8_8  and  C9_9 
ROOT
HETATM    1  C1  UNL     1     -32.100  18.761   1.807  1.00 20.00     0.044 A 
HETATM    2  C2  UNL     1     -33.188  18.603   2.639  1.00 20.00     0.005 A 
HETATM    3  C3  UNL     1     -33.634  18.398   0.281  1.00 20.00     0.081 A 
HETATM    4  C4  UNL     1     -30.712  19.035   2.232  1.00 20.00     0.071 C 
HETATM    5  C5  UNL     1     -33.274  18.661   4.113  1.00 20.00     0.058 C 
HETATM    6  N10 UNL     1     -32.354  18.643   0.454  1.00 20.00    -0.249 NA
HETATM    7  S11 UNL     1     -34.590  18.297   1.702  1.00 20.00    -0.077 SA
ENDROOT
BRANCH   3   8
HETATM    8  C8  UNL     1     -34.299  18.204  -1.076  1.00 20.00     0.059 C 
HETATM    9  C6  UNL     1     -35.366  17.104  -0.957  1.00 20.00     0.018 C 
BRANCH   8  10
HETATM   10  C9  UNL     1     -33.271  17.917  -2.202  1.00 20.00     0.088 C 
HETATM   11  C7  UNL     1     -33.224  19.018  -3.263  1.00 20.00     0.027 C 
HETATM   12 CL12 UNL     1     -33.660  16.374  -3.040  1.00 20.00    -0.125 Cl
ENDBRANCH   8  10
ENDBRANCH   3   8
TORSDOF 2
ENDMDL
MODEL 6
REMARK VINA RESULT:      -4.2     10.819     11.866
REMARK  2 active torsions:
REMARK  status: ('A' for Active; 'I' for Inactive)
REMARK    1  A    between atoms: C3_3  and  C8_8 
REMARK    2  A    between atoms: C8_8  and  C9_9 
ROOT
HETATM    1  C1  UNL     1     -35.208  14.597  -5.340  1.00 20.00     0.044 A 
HETATM    2  C2  UNL     1     -34.379  15.048  -6.346  1.00 20.00     0.005 A 
HETATM    3  C3  UNL     1     -34.522  16.456  -4.397  1.00 20.00     0.081 A 
HETATM    4  C4  UNL     1     -35.995  13.348  -5.356  1.00 20.00     0.071 C 
HETATM    5  C5  UNL     1     -34.059  14.445  -7.656  1.00 20.00     0.058 C 
HETATM    6  N10 UNL     1     -35.291  15.403  -4.222  1.00 20.00    -0.249 NA
HETATM    7  S11 UNL     1     -33.672  16.540  -5.885  1.00 20.00    -0.077 SA
ENDROOT
BRANCH   3   8
HETATM    8  C8  UNL     1     -34.349  17.575  -3.379  1.00 20.00     0.059 C 
HETATM    9  C6  UNL     1     -33.320  18.584  -3.914  1.00 20.00     0.018 C 
BRANCH   8  10
HETATM   10  C9  UNL     1     -33.981  17.041  -1.969  1.00 20.00     0.088 C 
HETATM   11  C7  UNL     1     -35.152  17.091  -0.987  1.00 20.00     0.027 C 
HETATM   12 CL12 UNL     1     -32.636  18.001  -1.257  1.00 20.00    -0.125 Cl
ENDBRANCH   8  10
ENDBRANCH   3   8
TORSDOF 2
ENDMDL
MODEL 7
REMARK VINA RESULT:      -4.1     10.543     11.202
REMARK  2 active torsions:
REMARK  status: ('A' for Active; 'I' for Inactive)
REMARK    1  A    between atoms: C3_3  and  C8_8 
REMARK    2  A    between atoms: C8_8  and  C9_9 
ROOT
HETATM    1  C1  UNL     1     -33.239  18.145  -0.533  1.00 20.00     0.044 A 
HETATM    2  C2  UNL     1     -34.541  17.909  -0.144  1.00 20.00     0.005 A 
HETATM    3  C3  UNL     1     -33.889  16.957  -2.259  1.00 20.00     0.081 A 
HETATM    4  C4  UNL     1     -32.231  18.914   0.225  1.00 20.00     0.071 C 
HETATM    5  C5  UNL     1     -35.262  18.334   1.073  1.00 20.00     0.058 C 
HETATM    6  N10 UNL     1     -32.864  17.600  -1.745  1.00 20.00    -0.249 NA
HETATM    7  S11 UNL     1     -35.337  16.970  -1.337  1.00 20.00    -0.077 SA
ENDROOT
BRANCH   3   8
HETATM    8  C8  UNL     1     -33.865  16.220  -3.592  1.00 20.00     0.059 C 
HETATM    9  C6  UNL     1     -33.490  17.212  -4.705  1.00 20.00     0.018 C 
BRANCH   8  10
HETATM   10  C9  UNL     1     -35.195  15.476  -3.881  1.00 20.00     0.088 C 
HETATM   11  C7  UNL     1     -34.983  14.075  -4.456  1.00 20.00     0.027 C 
HETATM   12 CL12 UNL     1     -36.198  16.397  -5.056  1.00 20.00    -0.125 Cl
ENDBRANCH   8  10
ENDBRANCH   3   8
TORSDOF 2
ENDMDL
MODEL 8
REMARK VINA RESULT:      -3.9     10.550     11.411
REMARK  2 active torsions:
REMARK  status: ('A' for Active; 'I' for Inactive)
REMARK    1  A    between atoms: C3_3  and  C8_8 
REMARK    2  A    between atoms: C8_8  and  C9_9 
ROOT
HETATM    1  C1  UNL     1     -34.971  17.058  -1.400  1.00 20.00     0.044 A 
HETATM    2  C2  UNL     1     -33.710  17.394  -1.847  1.00 20.00     0.005 A 
HETATM    3  C3  UNL     1     -35.077  16.158  -3.398  1.00 20.00     0.081 A 
HETATM    4  C4  UNL     1     -35.542  17.389  -0.079  1.00 20.00     0.071 C 
HETATM    5  C5  UNL     1     -32.629  18.138  -1.170  1.00 20.00     0.058 C 
HETATM    6  N10 UNL     1     -35.757  16.350  -2.289  1.00 20.00    -0.249 NA
HETATM    7  S11 UNL     1     -33.488  16.803  -3.441  1.00 20.00    -0.077 SA
ENDROOT
BRANCH   3   8
HETATM    8  C8  UNL     1     -35.610  15.416  -4.617  1.00 20.00     0.059 C 
HETATM    9  C6  UNL     1     -35.166  13.946  -4.542  1.00 20.00     0.018 C 
BRANCH   8  10
HETATM   10  C9  UNL     1     -35.198  16.095  -5.950  1.00 20.00     0.088 C 
HETATM   11  C7  UNL     1     -36.368  16.272  -6.918  1.00 20.00     0.027 C 
HETATM   12 CL12 UNL     1     -33.940  15.126  -6.795  1.00 20.00    -0.125 Cl
ENDBRANCH   8  10
ENDBRANCH   3   8
TORSDOF 2
ENDMDL
MODEL 9
REMARK VINA RESULT:      -3.9     10.657     11.385
REMARK  2 active torsions:
REMARK  status: ('A' for Active; 'I' for Inactive)
REMARK    1  A    between atoms: C3_3  and  C8_8 
REMARK    2  A    between atoms: C8_8  and  C9_9 
ROOT
HETATM    1  C1  UNL     1     -35.501  16.878  -2.146  1.00 20.00     0.044 A 
HETATM    2  C2  UNL     1     -36.592  17.228  -2.914  1.00 20.00     0.005 A 
HETATM    3  C3  UNL     1     -35.131  15.567  -3.866  1.00 20.00     0.081 A 
HETATM    4  C4  UNL     1     -35.162  17.423  -0.816  1.00 20.00     0.071 C 
HETATM    5  C5  UNL     1     -37.675  18.195  -2.641  1.00 20.00     0.058 C 
HETATM    6  N10 UNL     1     -34.662  15.925  -2.691  1.00 20.00    -0.249 NA
HETATM    7  S11 UNL     1     -36.577  16.336  -4.377  1.00 20.00    -0.077 SA
ENDROOT
BRANCH   3   8
HETATM    8  C8  UNL     1     -34.481  14.532  -4.775  1.00 20.00     0.059 C 
HETATM    9  C6  UNL     1     -32.991  14.415  -4.414  1.00 20.00     0.018 C 
BRANCH   8  10
HETATM   10  C9  UNL     1     -34.707  14.838  -6.278  1.00 20.00     0.088 C 
HETATM   11  C7  UNL     1     -34.504  13.616  -7.175  1.00 20.00     0.027 C 
HETATM   12 CL12 UNL     1     -33.576  16.118  -6.843  1.00 20.00    -0.125 Cl
ENDBRANCH   8  10
ENDBRANCH   3   8
TORSDOF 2
ENDMDL
