MODEL 1
REMARK VINA RESULT:      -6.5      0.000      0.000
REMARK  2 active torsions:
REMARK  status: ('A' for Active; 'I' for Inactive)
REMARK    1  A    between atoms: C2_2  and  C9_9 
REMARK    2  A    between atoms: C4_4  and  C9_9 
ROOT
HETATM    1  C1  UNL     1     -33.491   6.293   2.980  1.00 20.00    -0.004 C 
HETATM    2  C2  UNL     1     -32.847   7.340   3.530  1.00 20.00    -0.079 C 
HETATM    3  C5  UNL     1     -33.098   7.744   4.967  1.00 20.00     0.034 C 
HETATM    4  C6  UNL     1     -33.835   6.688   5.795  1.00 20.00     0.006 C 
HETATM    5  C7  UNL     1     -34.995   6.089   5.004  1.00 20.00     0.024 C 
HETATM    6  C8  UNL     1     -34.520   5.462   3.690  1.00 20.00     0.105 C 
HETATM    7 CL10 UNL     1     -33.815   3.842   3.992  1.00 20.00    -0.121 Cl
ENDROOT
BRANCH   2   8
HETATM    8  C9  UNL     1     -31.844   8.156   2.802  1.00 20.00     0.060 C 
BRANCH   8   9
HETATM    9  C4  UNL     1     -32.383   8.680   1.509  1.00 20.00    -0.033 C 
HETATM   10  C3  UNL     1     -32.536   9.981   1.236  1.00 20.00     0.007 C 
ENDBRANCH   8   9
ENDBRANCH   2   8
TORSDOF 2
ENDMDL
MODEL 2
REMARK VINA RESULT:      -5.5      2.277      4.239
REMARK  2 active torsions:
REMARK  status: ('A' for Active; 'I' for Inactive)
REMARK    1  A    between atoms: C2_2  and  C9_9 
REMARK    2  A    between atoms: C4_4  and  C9_9 
ROOT
HETATM    1  C1  UNL     1     -33.372   7.077   2.532  1.00 20.00    -0.004 C 
HETATM    2  C2  UNL     1     -33.912   6.815   3.738  1.00 20.00    -0.079 C 
HETATM    3  C5  UNL     1     -33.297   7.372   5.005  1.00 20.00     0.034 C 
HETATM    4  C6  UNL     1     -32.282   8.492   4.769  1.00 20.00     0.006 C 
HETATM    5  C7  UNL     1     -31.349   8.147   3.611  1.00 20.00     0.024 C 
HETATM    6  C8  UNL     1     -32.127   7.887   2.317  1.00 20.00     0.105 C 
HETATM    7 CL10 UNL     1     -32.597   9.438   1.550  1.00 20.00    -0.121 Cl
ENDROOT
BRANCH   2   8
HETATM    8  C9  UNL     1     -35.136   5.999   3.926  1.00 20.00     0.060 C 
BRANCH   8   9
HETATM    9  C4  UNL     1     -34.869   4.771   4.737  1.00 20.00    -0.033 C 
HETATM   10  C3  UNL     1     -34.015   3.807   4.373  1.00 20.00     0.007 C 
ENDBRANCH   8   9
ENDBRANCH   2   8
TORSDOF 2
ENDMDL
MODEL 3
REMARK VINA RESULT:      -4.9      1.655      2.215
REMARK  2 active torsions:
REMARK  status: ('A' for Active; 'I' for Inactive)
REMARK    1  A    between atoms: C2_2  and  C9_9 
REMARK    2  A    between atoms: C4_4  and  C9_9 
ROOT
HETATM    1  C1  UNL     1     -32.615   7.287   4.226  1.00 20.00    -0.004 C 
HETATM    2  C2  UNL     1     -32.972   7.207   2.930  1.00 20.00    -0.079 C 
HETATM    3  C5  UNL     1     -34.172   6.390   2.501  1.00 20.00     0.034 C 
HETATM    4  C6  UNL     1     -35.100   5.988   3.650  1.00 20.00     0.006 C 
HETATM    5  C7  UNL     1     -34.296   5.503   4.854  1.00 20.00     0.024 C 
HETATM    6  C8  UNL     1     -33.315   6.571   5.345  1.00 20.00     0.105 C 
HETATM    7 CL10 UNL     1     -34.171   7.794   6.337  1.00 20.00    -0.121 Cl
ENDROOT
BRANCH   2   8
HETATM    8  C9  UNL     1     -32.255   7.912   1.840  1.00 20.00     0.060 C 
BRANCH   8   9
HETATM    9  C4  UNL     1     -32.601   9.366   1.792  1.00 20.00    -0.033 C 
HETATM   10  C3  UNL     1     -32.629  10.090   0.667  1.00 20.00     0.007 C 
ENDBRANCH   8   9
ENDBRANCH   2   8
TORSDOF 2
ENDMDL
MODEL 4
REMARK VINA RESULT:      -4.8      1.383      2.062
REMARK  2 active torsions:
REMARK  status: ('A' for Active; 'I' for Inactive)
REMARK    1  A    between atoms: C2_2  and  C9_9 
REMARK    2  A    between atoms: C4_4  and  C9_9 
ROOT
HETATM    1  C1  UNL     1     -33.809   7.183   4.045  1.00 20.00    -0.004 C 
HETATM    2  C2  UNL     1     -32.727   7.149   3.244  1.00 20.00    -0.079 C 
HETATM    3  C5  UNL     1     -32.279   5.859   2.591  1.00 20.00     0.034 C 
HETATM    4  C6  UNL     1     -33.324   4.741   2.631  1.00 20.00     0.006 C 
HETATM    5  C7  UNL     1     -33.980   4.658   4.007  1.00 20.00     0.024 C 
HETATM    6  C8  UNL     1     -34.640   5.983   4.398  1.00 20.00     0.105 C 
HETATM    7 CL10 UNL     1     -36.231   6.150   3.588  1.00 20.00    -0.121 Cl
ENDROOT
BRANCH   2   8
HETATM    8  C9  UNL     1     -31.912   8.346   2.921  1.00 20.00     0.060 C 
BRANCH   8   9
HETATM    9  C4  UNL     1     -32.027   8.728   1.480  1.00 20.00    -0.033 C 
HETATM   10  C3  UNL     1     -32.532   9.891   1.053  1.00 20.00     0.007 C 
ENDBRANCH   8   9
ENDBRANCH   2   8
TORSDOF 2
ENDMDL
MODEL 5
REMARK VINA RESULT:      -4.3     11.628     12.197
REMARK  2 active torsions:
REMARK  status: ('A' for Active; 'I' for Inactive)
REMARK    1  A    between atoms: C2_2  and  C9_9 
REMARK    2  A    between atoms: C4_4  and  C9_9 
ROOT
HETATM    1  C1  UNL     1     -34.856  17.775  -0.136  1.00 20.00    -0.004 C 
HETATM    2  C2  UNL     1     -33.589  18.230  -0.173  1.00 20.00    -0.079 C 
HETATM    3  C5  UNL     1     -32.722  18.027  -1.398  1.00 20.00     0.034 C 
HETATM    4  C6  UNL     1     -33.495  17.606  -2.650  1.00 20.00     0.006 C 
HETATM    5  C7  UNL     1     -34.528  16.532  -2.316  1.00 20.00     0.024 C 
HETATM    6  C8  UNL     1     -35.515  17.011  -1.248  1.00 20.00     0.105 C 
HETATM    7 CL10 UNL     1     -36.765  18.065  -1.982  1.00 20.00    -0.121 Cl
ENDROOT
BRANCH   2   8
HETATM    8  C9  UNL     1     -32.954  18.969   0.945  1.00 20.00     0.060 C 
BRANCH   8   9
HETATM    9  C4  UNL     1     -31.465  18.834   0.929  1.00 20.00    -0.033 C 
HETATM   10  C3  UNL     1     -30.714  18.715   2.031  1.00 20.00     0.007 C 
ENDBRANCH   8   9
ENDBRANCH   2   8
TORSDOF 2
ENDMDL
MODEL 6
REMARK VINA RESULT:      -4.2     11.220     11.849
REMARK  2 active torsions:
REMARK  status: ('A' for Active; 'I' for Inactive)
REMARK    1  A    between atoms: C2_2  and  C9_9 
REMARK    2  A    between atoms: C4_4  and  C9_9 
ROOT
HETATM    1  C1  UNL     1     -35.629  17.297  -1.229  1.00 20.00    -0.004 C 
HETATM    2  C2  UNL     1     -34.630  16.894  -2.037  1.00 20.00    -0.079 C 
HETATM    3  C5  UNL     1     -33.243  17.490  -1.920  1.00 20.00     0.034 C 
HETATM    4  C6  UNL     1     -33.007  18.281  -0.631  1.00 20.00     0.006 C 
HETATM    5  C7  UNL     1     -34.202  19.177  -0.316  1.00 20.00     0.024 C 
HETATM    6  C8  UNL     1     -35.496  18.369  -0.186  1.00 20.00     0.105 C 
HETATM    7 CL10 UNL     1     -35.585  17.590   1.426  1.00 20.00    -0.121 Cl
ENDROOT
BRANCH   2   8
HETATM    8  C9  UNL     1     -34.789  15.843  -3.071  1.00 20.00     0.060 C 
BRANCH   8   9
HETATM    9  C4  UNL     1     -33.557  15.688  -3.905  1.00 20.00    -0.033 C 
HETATM   10  C3  UNL     1     -33.137  14.522  -4.408  1.00 20.00     0.007 C 
ENDBRANCH   8   9
ENDBRANCH   2   8
TORSDOF 2
ENDMDL
MODEL 7
REMARK VINA RESULT:      -4.2     11.365     12.202
REMARK  2 active torsions:
REMARK  status: ('A' for Active; 'I' for Inactive)
REMARK    1  A    between atoms: C2_2  and  C9_9 
REMARK    2  A    between atoms: C4_4  and  C9_9 
ROOT
HETATM    1  C1  UNL     1     -35.002  14.620  -4.272  1.00 20.00    -0.004 C 
HETATM    2  C2  UNL     1     -34.064  15.583  -4.185  1.00 20.00    -0.079 C 
HETATM    3  C5  UNL     1     -33.249  15.990  -5.393  1.00 20.00     0.034 C 
HETATM    4  C6  UNL     1     -33.811  15.490  -6.726  1.00 20.00     0.006 C 
HETATM    5  C7  UNL     1     -34.255  14.034  -6.618  1.00 20.00     0.024 C 
HETATM    6  C8  UNL     1     -35.306  13.844  -5.521  1.00 20.00     0.105 C 
HETATM    7 CL10 UNL     1     -36.921  14.351  -6.111  1.00 20.00    -0.121 Cl
ENDROOT
BRANCH   2   8
HETATM    8  C9  UNL     1     -33.771  16.326  -2.935  1.00 20.00     0.060 C 
BRANCH   8   9
HETATM    9  C4  UNL     1     -35.011  16.607  -2.148  1.00 20.00    -0.033 C 
HETATM   10  C3  UNL     1     -35.016  17.194  -0.946  1.00 20.00     0.007 C 
ENDBRANCH   8   9
ENDBRANCH   2   8
TORSDOF 2
ENDMDL
MODEL 8
REMARK VINA RESULT:      -4.1     11.439     11.884
REMARK  2 active torsions:
REMARK  status: ('A' for Active; 'I' for Inactive)
REMARK    1  A    between atoms: C2_2  and  C9_9 
REMARK    2  A    between atoms: C4_4  and  C9_9 
ROOT
HETATM    1  C1  UNL     1     -36.048  15.780  -3.605  1.00 20.00    -0.004 C 
HETATM    2  C2  UNL     1     -34.733  15.833  -3.317  1.00 20.00    -0.079 C 
HETATM    3  C5  UNL     1     -33.739  14.950  -4.041  1.00 20.00     0.034 C 
HETATM    4  C6  UNL     1     -34.290  14.296  -5.310  1.00 20.00     0.006 C 
HETATM    5  C7  UNL     1     -35.696  13.750  -5.074  1.00 20.00     0.024 C 
HETATM    6  C8  UNL     1     -36.658  14.847  -4.611  1.00 20.00     0.105 C 
HETATM    7 CL10 UNL     1     -37.211  15.823  -6.009  1.00 20.00    -0.121 Cl
ENDROOT
BRANCH   2   8
HETATM    8  C9  UNL     1     -34.155  16.753  -2.306  1.00 20.00     0.060 C 
BRANCH   8   9
HETATM    9  C4  UNL     1     -35.112  17.029  -1.191  1.00 20.00    -0.033 C 
HETATM   10  C3  UNL     1     -34.816  17.777  -0.121  1.00 20.00     0.007 C 
ENDBRANCH   8   9
ENDBRANCH   2   8
TORSDOF 2
ENDMDL
MODEL 9
REMARK VINA RESULT:      -4.1     11.230     11.729
REMARK  2 active torsions:
REMARK  status: ('A' for Active; 'I' for Inactive)
REMARK    1  A    between atoms: C2_2  and  C9_9 
REMARK    2  A    between atoms: C4_4  and  C9_9 
ROOT
HETATM    1  C1  UNL     1     -33.639  16.014  -3.574  1.00 20.00    -0.004 C 
HETATM    2  C2  UNL     1     -34.933  16.046  -3.203  1.00 20.00    -0.079 C 
HETATM    3  C5  UNL     1     -35.979  15.245  -3.949  1.00 20.00     0.034 C 
HETATM    4  C6  UNL     1     -35.403  14.173  -4.877  1.00 20.00     0.006 C 
HETATM    5  C7  UNL     1     -34.218  14.720  -5.670  1.00 20.00     0.024 C 
HETATM    6  C8  UNL     1     -33.112  15.238  -4.747  1.00 20.00     0.105 C 
HETATM    7 CL10 UNL     1     -32.134  13.874  -4.118  1.00 20.00    -0.121 Cl
ENDROOT
BRANCH   2   8
HETATM    8  C9  UNL     1     -35.433  16.832  -2.049  1.00 20.00     0.060 C 
BRANCH   8   9
HETATM    9  C4  UNL     1     -34.329  17.215  -1.115  1.00 20.00    -0.033 C 
HETATM   10  C3  UNL     1     -34.391  18.251  -0.271  1.00 20.00     0.007 C 
ENDBRANCH   8   9
ENDBRANCH   2   8
TORSDOF 2
ENDMDL
