MODEL 1
REMARK VINA RESULT:      -4.8      0.000      0.000
REMARK  1 active torsions:
REMARK  status: ('A' for Active; 'I' for Inactive)
REMARK    1  A    between atoms: C3_3  and  C5_5 
ROOT
HETATM    1  C1  UNL     1     -34.263  14.466  -7.785  1.00 20.00     0.109 A 
HETATM    2  C2  UNL     1     -34.558  13.299  -7.138  1.00 20.00     0.107 A 
HETATM    3  C3  UNL     1     -34.585  14.932  -5.645  1.00 20.00     0.113 A 
HETATM    4  C10 UNL     1     -34.028  16.863  -7.098  1.00 20.00     0.157 C 
HETATM    5  N11 UNL     1     -34.287  15.460  -6.836  1.00 20.00    -0.346 N 
HETATM    6  N12 UNL     1     -34.753  13.617  -5.817  1.00 20.00    -0.350 N 
HETATM    7  H27 UNL     1     -34.988  12.953  -5.083  1.00 20.00     0.166 HD
ENDROOT
BRANCH   3   8
HETATM    8  C5  UNL     1     -34.715  15.651  -4.353  1.00 20.00    -0.016 C 
HETATM    9  C4  UNL     1     -33.622  16.026  -3.659  1.00 20.00     0.004 C 
HETATM   10  C9  UNL     1     -33.674  16.743  -2.339  1.00 20.00     0.105 C 
HETATM   11  C8  UNL     1     -35.070  16.750  -1.706  1.00 20.00     0.024 C 
HETATM   12 CL13 UNL     1     -33.103  18.421  -2.600  1.00 20.00    -0.121 Cl
HETATM   13  C7  UNL     1     -36.158  16.999  -2.747  1.00 20.00     0.006 C 
HETATM   14  C6  UNL     1     -36.110  15.935  -3.848  1.00 20.00     0.042 C 
ENDBRANCH   3   8
TORSDOF 1
ENDMDL
MODEL 2
REMARK VINA RESULT:      -4.4      0.851      1.670
REMARK  1 active torsions:
REMARK  status: ('A' for Active; 'I' for Inactive)
REMARK    1  A    between atoms: C3_3  and  C5_5 
ROOT
HETATM    1  C1  UNL     1     -34.636  13.893  -7.298  1.00 20.00     0.109 A 
HETATM    2  C2  UNL     1     -33.843  14.935  -7.688  1.00 20.00     0.107 A 
HETATM    3  C3  UNL     1     -34.597  15.375  -5.654  1.00 20.00     0.113 A 
HETATM    4  C10 UNL     1     -35.964  13.346  -5.247  1.00 20.00     0.157 C 
HETATM    5  N11 UNL     1     -35.088  14.192  -6.035  1.00 20.00    -0.346 N 
HETATM    6  N12 UNL     1     -33.836  15.837  -6.652  1.00 20.00    -0.350 N 
HETATM    7  H27 UNL     1     -33.332  16.719  -6.647  1.00 20.00     0.166 HD
ENDROOT
BRANCH   3   8
HETATM    8  C5  UNL     1     -34.833  16.070  -4.364  1.00 20.00    -0.016 C 
HETATM    9  C4  UNL     1     -33.904  16.052  -3.389  1.00 20.00     0.004 C 
HETATM   10  C9  UNL     1     -34.079  16.719  -2.053  1.00 20.00     0.105 C 
HETATM   11  C8  UNL     1     -35.518  17.169  -1.783  1.00 20.00     0.024 C 
HETATM   12 CL13 UNL     1     -32.967  18.123  -1.988  1.00 20.00    -0.121 Cl
HETATM   13  C7  UNL     1     -36.158  17.781  -3.025  1.00 20.00     0.006 C 
HETATM   14  C6  UNL     1     -36.154  16.784  -4.187  1.00 20.00     0.042 C 
ENDBRANCH   3   8
TORSDOF 1
ENDMDL
MODEL 3
REMARK VINA RESULT:      -4.4      3.166      5.291
REMARK  1 active torsions:
REMARK  status: ('A' for Active; 'I' for Inactive)
REMARK    1  A    between atoms: C3_3  and  C5_5 
ROOT
HETATM    1  C1  UNL     1     -34.600  18.004   0.151  1.00 20.00     0.109 A 
HETATM    2  C2  UNL     1     -35.844  17.483  -0.068  1.00 20.00     0.107 A 
HETATM    3  C3  UNL     1     -34.611  17.084  -1.862  1.00 20.00     0.113 A 
HETATM    4  C10 UNL     1     -32.472  18.125  -1.162  1.00 20.00     0.157 C 
HETATM    5  N11 UNL     1     -33.858  17.742  -0.975  1.00 20.00    -0.346 N 
HETATM    6  N12 UNL     1     -35.822  16.920  -1.320  1.00 20.00    -0.350 N 
HETATM    7  H27 UNL     1     -36.607  16.452  -1.766  1.00 20.00     0.166 HD
ENDROOT
BRANCH   3   8
HETATM    8  C5  UNL     1     -34.202  16.609  -3.207  1.00 20.00    -0.016 C 
HETATM    9  C4  UNL     1     -34.090  15.293  -3.471  1.00 20.00     0.004 C 
HETATM   10  C9  UNL     1     -33.668  14.738  -4.803  1.00 20.00     0.105 C 
HETATM   11  C8  UNL     1     -33.089  15.798  -5.746  1.00 20.00     0.024 C 
HETATM   12 CL13 UNL     1     -35.094  13.954  -5.551  1.00 20.00    -0.121 Cl
HETATM   13  C7  UNL     1     -33.884  17.099  -5.685  1.00 20.00     0.006 C 
HETATM   14  C6  UNL     1     -33.908  17.655  -4.258  1.00 20.00     0.042 C 
ENDBRANCH   3   8
TORSDOF 1
ENDMDL
MODEL 4
REMARK VINA RESULT:      -4.3      3.013      4.858
REMARK  1 active torsions:
REMARK  status: ('A' for Active; 'I' for Inactive)
REMARK    1  A    between atoms: C3_3  and  C5_5 
ROOT
HETATM    1  C1  UNL     1     -33.111  18.939  -1.883  1.00 20.00     0.109 A 
HETATM    2  C2  UNL     1     -33.482  18.200  -0.794  1.00 20.00     0.107 A 
HETATM    3  C3  UNL     1     -34.080  17.087  -2.612  1.00 20.00     0.113 A 
HETATM    4  C10 UNL     1     -33.288  18.653  -4.364  1.00 20.00     0.157 C 
HETATM    5  N11 UNL     1     -33.494  18.226  -2.993  1.00 20.00    -0.346 N 
HETATM    6  N12 UNL     1     -34.078  17.060  -1.275  1.00 20.00    -0.350 N 
HETATM    7  H27 UNL     1     -34.459  16.312  -0.701  1.00 20.00     0.166 HD
ENDROOT
BRANCH   3   8
HETATM    8  C5  UNL     1     -34.638  16.029  -3.489  1.00 20.00    -0.016 C 
HETATM    9  C4  UNL     1     -35.964  15.942  -3.709  1.00 20.00     0.004 C 
HETATM   10  C9  UNL     1     -36.603  14.890  -4.573  1.00 20.00     0.105 C 
HETATM   11  C8  UNL     1     -35.651  13.748  -4.943  1.00 20.00     0.024 C 
HETATM   12 CL13 UNL     1     -37.217  15.691  -6.054  1.00 20.00    -0.121 Cl
HETATM   13  C7  UNL     1     -34.257  14.267  -5.287  1.00 20.00     0.006 C 
HETATM   14  C6  UNL     1     -33.666  15.054  -4.113  1.00 20.00     0.042 C 
ENDBRANCH   3   8
TORSDOF 1
ENDMDL
MODEL 5
REMARK VINA RESULT:      -4.3      2.368      3.071
REMARK  1 active torsions:
REMARK  status: ('A' for Active; 'I' for Inactive)
REMARK    1  A    between atoms: C3_3  and  C5_5 
ROOT
HETATM    1  C1  UNL     1     -36.541  14.312  -5.168  1.00 20.00     0.109 A 
HETATM    2  C2  UNL     1     -35.399  13.619  -4.883  1.00 20.00     0.107 A 
HETATM    3  C3  UNL     1     -35.401  15.464  -3.660  1.00 20.00     0.113 A 
HETATM    4  C10 UNL     1     -37.547  16.469  -4.392  1.00 20.00     0.157 C 
HETATM    5  N11 UNL     1     -36.516  15.449  -4.397  1.00 20.00    -0.346 N 
HETATM    6  N12 UNL     1     -34.713  14.354  -3.947  1.00 20.00    -0.350 N 
HETATM    7  H27 UNL     1     -33.820  14.094  -3.537  1.00 20.00     0.166 HD
ENDROOT
BRANCH   3   8
HETATM    8  C5  UNL     1     -34.981  16.507  -2.692  1.00 20.00    -0.016 C 
HETATM    9  C4  UNL     1     -35.865  17.046  -1.830  1.00 20.00     0.004 C 
HETATM   10  C9  UNL     1     -35.517  18.116  -0.832  1.00 20.00     0.105 C 
HETATM   11  C8  UNL     1     -34.145  18.752  -1.079  1.00 20.00     0.024 C 
HETATM   12 CL13 UNL     1     -35.577  17.386   0.803  1.00 20.00    -0.121 Cl
HETATM   13  C7  UNL     1     -33.102  17.708  -1.465  1.00 20.00     0.006 C 
HETATM   14  C6  UNL     1     -33.535  16.946  -2.721  1.00 20.00     0.042 C 
ENDBRANCH   3   8
TORSDOF 1
ENDMDL
MODEL 6
REMARK VINA RESULT:      -4.3     11.515     12.399
REMARK  1 active torsions:
REMARK  status: ('A' for Active; 'I' for Inactive)
REMARK    1  A    between atoms: C3_3  and  C5_5 
ROOT
HETATM    1  C1  UNL     1     -31.494   9.180   1.342  1.00 20.00     0.109 A 
HETATM    2  C2  UNL     1     -32.637   9.070   0.600  1.00 20.00     0.107 A 
HETATM    3  C3  UNL     1     -32.927   7.930   2.475  1.00 20.00     0.113 A 
HETATM    4  C10 UNL     1     -30.734   8.320   3.567  1.00 20.00     0.157 C 
HETATM    5  N11 UNL     1     -31.702   8.465   2.496  1.00 20.00    -0.346 N 
HETATM    6  N12 UNL     1     -33.506   8.292   1.325  1.00 20.00    -0.350 N 
HETATM    7  H27 UNL     1     -34.444   8.032   1.032  1.00 20.00     0.166 HD
ENDROOT
BRANCH   3   8
HETATM    8  C5  UNL     1     -33.554   7.086   3.522  1.00 20.00    -0.016 C 
HETATM    9  C4  UNL     1     -34.107   5.897   3.212  1.00 20.00     0.004 C 
HETATM   10  C9  UNL     1     -34.772   4.996   4.215  1.00 20.00     0.105 C 
HETATM   11  C8  UNL     1     -35.031   5.675   5.564  1.00 20.00     0.024 C 
HETATM   12 CL13 UNL     1     -33.732   3.554   4.436  1.00 20.00    -0.121 Cl
HETATM   13  C7  UNL     1     -33.852   6.544   5.991  1.00 20.00     0.006 C 
HETATM   14  C6  UNL     1     -33.556   7.616   4.938  1.00 20.00     0.042 C 
ENDBRANCH   3   8
TORSDOF 1
ENDMDL
MODEL 7
REMARK VINA RESULT:      -4.2      3.267      5.453
REMARK  1 active torsions:
REMARK  status: ('A' for Active; 'I' for Inactive)
REMARK    1  A    between atoms: C3_3  and  C5_5 
ROOT
HETATM    1  C1  UNL     1     -34.225  18.434   0.017  1.00 20.00     0.109 A 
HETATM    2  C2  UNL     1     -32.872  18.593  -0.088  1.00 20.00     0.107 A 
HETATM    3  C3  UNL     1     -33.587  17.588  -1.926  1.00 20.00     0.113 A 
HETATM    4  C10 UNL     1     -36.013  17.452  -1.434  1.00 20.00     0.157 C 
HETATM    5  N11 UNL     1     -34.641  17.810  -1.134  1.00 20.00    -0.346 N 
HETATM    6  N12 UNL     1     -32.504  18.061  -1.300  1.00 20.00    -0.350 N 
HETATM    7  H27 UNL     1     -31.555  18.032  -1.663  1.00 20.00     0.166 HD
ENDROOT
BRANCH   3   8
HETATM    8  C5  UNL     1     -33.590  16.940  -3.261  1.00 20.00    -0.016 C 
HETATM    9  C4  UNL     1     -33.592  15.597  -3.377  1.00 20.00     0.004 C 
HETATM   10  C9  UNL     1     -33.580  14.870  -4.693  1.00 20.00     0.105 C 
HETATM   11  C8  UNL     1     -33.268  15.779  -5.886  1.00 20.00     0.024 C 
HETATM   12 CL13 UNL     1     -35.181  14.093  -4.907  1.00 20.00    -0.121 Cl
HETATM   13  C7  UNL     1     -33.979  17.124  -5.770  1.00 20.00     0.006 C 
HETATM   14  C6  UNL     1     -33.581  17.840  -4.475  1.00 20.00     0.042 C 
ENDBRANCH   3   8
TORSDOF 1
ENDMDL
MODEL 8
REMARK VINA RESULT:      -4.2      1.544      2.319
REMARK  1 active torsions:
REMARK  status: ('A' for Active; 'I' for Inactive)
REMARK    1  A    between atoms: C3_3  and  C5_5 
ROOT
HETATM    1  C1  UNL     1     -35.175  13.491  -7.346  1.00 20.00     0.109 A 
HETATM    2  C2  UNL     1     -34.040  14.001  -7.911  1.00 20.00     0.107 A 
HETATM    3  C3  UNL     1     -34.448  15.136  -6.055  1.00 20.00     0.113 A 
HETATM    4  C10 UNL     1     -36.514  13.995  -5.291  1.00 20.00     0.157 C 
HETATM    5  N11 UNL     1     -35.404  14.212  -6.199  1.00 20.00    -0.346 N 
HETATM    6  N12 UNL     1     -33.612  15.017  -7.091  1.00 20.00    -0.350 N 
HETATM    7  H27 UNL     1     -32.787  15.589  -7.250  1.00 20.00     0.166 HD
ENDROOT
BRANCH   3   8
HETATM    8  C5  UNL     1     -34.316  16.123  -4.956  1.00 20.00    -0.016 C 
HETATM    9  C4  UNL     1     -34.800  17.374  -5.088  1.00 20.00     0.004 C 
HETATM   10  C9  UNL     1     -34.690  18.431  -4.025  1.00 20.00     0.105 C 
HETATM   11  C8  UNL     1     -33.723  18.060  -2.897  1.00 20.00     0.024 C 
HETATM   12 CL13 UNL     1     -36.330  18.723  -3.366  1.00 20.00    -0.121 Cl
HETATM   13  C7  UNL     1     -33.863  16.595  -2.495  1.00 20.00     0.006 C 
HETATM   14  C6  UNL     1     -33.612  15.676  -3.695  1.00 20.00     0.042 C 
ENDBRANCH   3   8
TORSDOF 1
ENDMDL
MODEL 9
REMARK VINA RESULT:      -4.2     11.276     12.445
REMARK  1 active torsions:
REMARK  status: ('A' for Active; 'I' for Inactive)
REMARK    1  A    between atoms: C3_3  and  C5_5 
ROOT
HETATM    1  C1  UNL     1     -34.636   5.339   5.620  1.00 20.00     0.109 A 
HETATM    2  C2  UNL     1     -34.755   4.485   4.560  1.00 20.00     0.107 A 
HETATM    3  C3  UNL     1     -33.686   6.294   3.864  1.00 20.00     0.113 A 
HETATM    4  C10 UNL     1     -33.632   7.606   5.967  1.00 20.00     0.157 C 
HETATM    5  N11 UNL     1     -33.970   6.449   5.161  1.00 20.00    -0.346 N 
HETATM    6  N12 UNL     1     -34.159   5.101   3.487  1.00 20.00    -0.350 N 
HETATM    7  H27 UNL     1     -34.089   4.710   2.551  1.00 20.00     0.166 HD
ENDROOT
BRANCH   3   8
HETATM    8  C5  UNL     1     -32.975   7.252   2.981  1.00 20.00    -0.016 C 
HETATM    9  C4  UNL     1     -33.606   7.832   1.941  1.00 20.00     0.004 C 
HETATM   10  C9  UNL     1     -32.949   8.799   0.997  1.00 20.00     0.105 C 
HETATM   11  C8  UNL     1     -31.424   8.844   1.137  1.00 20.00     0.024 C 
HETATM   12 CL13 UNL     1     -33.648  10.423   1.296  1.00 20.00    -0.121 Cl
HETATM   13  C7  UNL     1     -30.992   8.802   2.600  1.00 20.00     0.006 C 
HETATM   14  C6  UNL     1     -31.524   7.541   3.287  1.00 20.00     0.042 C 
ENDBRANCH   3   8
TORSDOF 1
ENDMDL
