MODEL 1
REMARK VINA RESULT:      -4.4      0.000      0.000
REMARK  0 active torsions:
REMARK  status: ('A' for Active; 'I' for Inactive)
ROOT
HETATM    1  C1  UNL     1     -35.187  13.685  -4.773  1.00 20.00     0.067 C 
HETATM    2  C2  UNL     1     -34.209  14.602  -4.184  1.00 20.00     0.127 C 
HETATM    3  C3  UNL     1     -34.788  15.665  -3.245  1.00 20.00     0.030 C 
HETATM    4  C4  UNL     1     -33.363  15.406  -5.181  1.00 20.00     0.136 C 
HETATM    5  C5  UNL     1     -33.632  16.669  -3.238  1.00 20.00     0.123 C 
HETATM    6  C6  UNL     1     -36.120  16.266  -3.705  1.00 20.00     0.014 C 
HETATM    7  C7  UNL     1     -33.932  15.606  -6.579  1.00 20.00     0.041 C 
HETATM    8  C8  UNL     1     -33.951  18.076  -2.768  1.00 20.00     0.040 C 
HETATM    9  N9  UNL     1     -35.961  12.959  -5.241  1.00 20.00    -0.197 NA
HETATM   10  O10 UNL     1     -33.162  16.709  -4.595  1.00 20.00    -0.380 OA
ENDROOT
TORSDOF 0
ENDMDL
MODEL 2
REMARK VINA RESULT:      -4.2      1.247      1.370
REMARK  0 active torsions:
REMARK  status: ('A' for Active; 'I' for Inactive)
ROOT
HETATM    1  C1  UNL     1     -34.578  13.811  -6.518  1.00 20.00     0.067 C 
HETATM    2  C2  UNL     1     -33.835  14.468  -5.439  1.00 20.00     0.127 C 
HETATM    3  C3  UNL     1     -34.631  14.728  -4.157  1.00 20.00     0.030 C 
HETATM    4  C4  UNL     1     -33.228  15.836  -5.785  1.00 20.00     0.136 C 
HETATM    5  C5  UNL     1     -33.750  15.801  -3.511  1.00 20.00     0.123 C 
HETATM    6  C6  UNL     1     -36.078  15.178  -4.384  1.00 20.00     0.014 C 
HETATM    7  C7  UNL     1     -33.858  16.610  -6.934  1.00 20.00     0.041 C 
HETATM    8  C8  UNL     1     -34.386  16.646  -2.423  1.00 20.00     0.040 C 
HETATM    9  N9  UNL     1     -35.165  13.291  -7.372  1.00 20.00    -0.197 NA
HETATM   10  O10 UNL     1     -33.333  16.646  -4.595  1.00 20.00    -0.380 OA
ENDROOT
TORSDOF 0
ENDMDL
MODEL 3
REMARK VINA RESULT:      -4.0      1.520      2.101
REMARK  0 active torsions:
REMARK  status: ('A' for Active; 'I' for Inactive)
ROOT
HETATM    1  C1  UNL     1     -35.635  13.894  -4.936  1.00 20.00     0.067 C 
HETATM    2  C2  UNL     1     -35.289  15.249  -4.501  1.00 20.00     0.127 C 
HETATM    3  C3  UNL     1     -35.396  16.332  -5.579  1.00 20.00     0.030 C 
HETATM    4  C4  UNL     1     -33.873  15.427  -3.933  1.00 20.00     0.136 C 
HETATM    5  C5  UNL     1     -34.531  17.424  -4.943  1.00 20.00     0.123 C 
HETATM    6  C6  UNL     1     -34.916  15.900  -6.968  1.00 20.00     0.014 C 
HETATM    7  C7  UNL     1     -32.822  14.407  -4.348  1.00 20.00     0.041 C 
HETATM    8  C8  UNL     1     -34.021  18.516  -5.865  1.00 20.00     0.040 C 
HETATM    9  N9  UNL     1     -35.909  12.821  -5.279  1.00 20.00    -0.197 NA
HETATM   10  O10 UNL     1     -33.419  16.729  -4.358  1.00 20.00    -0.380 OA
ENDROOT
TORSDOF 0
ENDMDL
MODEL 4
REMARK VINA RESULT:      -3.9      1.464      1.733
REMARK  0 active torsions:
REMARK  status: ('A' for Active; 'I' for Inactive)
ROOT
HETATM    1  C1  UNL     1     -35.241  13.859  -5.421  1.00 20.00     0.067 C 
HETATM    2  C2  UNL     1     -34.426  15.049  -5.676  1.00 20.00     0.127 C 
HETATM    3  C3  UNL     1     -33.866  15.740  -4.429  1.00 20.00     0.030 C 
HETATM    4  C4  UNL     1     -35.121  16.180  -6.449  1.00 20.00     0.136 C 
HETATM    5  C5  UNL     1     -33.536  17.116  -5.015  1.00 20.00     0.123 C 
HETATM    6  C6  UNL     1     -34.832  15.795  -3.241  1.00 20.00     0.014 C 
HETATM    7  C7  UNL     1     -36.643  16.223  -6.407  1.00 20.00     0.041 C 
HETATM    8  C8  UNL     1     -33.348  18.253  -4.029  1.00 20.00     0.040 C 
HETATM    9  N9  UNL     1     -35.886  12.916  -5.220  1.00 20.00    -0.197 NA
HETATM   10  O10 UNL     1     -34.628  17.419  -5.898  1.00 20.00    -0.380 OA
ENDROOT
TORSDOF 0
ENDMDL
MODEL 5
REMARK VINA RESULT:      -3.9      2.227      2.843
REMARK  0 active torsions:
REMARK  status: ('A' for Active; 'I' for Inactive)
ROOT
HETATM    1  C1  UNL     1     -37.789  14.392  -5.176  1.00 20.00     0.067 C 
HETATM    2  C2  UNL     1     -36.428  13.899  -4.951  1.00 20.00     0.127 C 
HETATM    3  C3  UNL     1     -35.465  14.901  -4.306  1.00 20.00     0.030 C 
HETATM    4  C4  UNL     1     -35.679  13.414  -6.200  1.00 20.00     0.136 C 
HETATM    5  C5  UNL     1     -34.126  14.258  -4.677  1.00 20.00     0.123 C 
HETATM    6  C6  UNL     1     -35.613  16.341  -4.806  1.00 20.00     0.014 C 
HETATM    7  C7  UNL     1     -36.141  13.955  -7.546  1.00 20.00     0.041 C 
HETATM    8  C8  UNL     1     -32.896  15.143  -4.598  1.00 20.00     0.040 C 
HETATM    9  N9  UNL     1     -38.866  14.781  -5.355  1.00 20.00    -0.197 NA
HETATM   10  O10 UNL     1     -34.296  13.788  -6.023  1.00 20.00    -0.380 OA
ENDROOT
TORSDOF 0
ENDMDL
MODEL 6
REMARK VINA RESULT:      -3.9      2.793      4.201
REMARK  0 active torsions:
REMARK  status: ('A' for Active; 'I' for Inactive)
ROOT
HETATM    1  C1  UNL     1     -33.220  17.890  -2.252  1.00 20.00     0.067 C 
HETATM    2  C2  UNL     1     -33.936  16.628  -2.452  1.00 20.00     0.127 C 
HETATM    3  C3  UNL     1     -33.608  15.886  -3.751  1.00 20.00     0.030 C 
HETATM    4  C4  UNL     1     -35.468  16.723  -2.454  1.00 20.00     0.136 C 
HETATM    5  C5  UNL     1     -34.825  14.963  -3.844  1.00 20.00     0.123 C 
HETATM    6  C6  UNL     1     -33.429  16.790  -4.975  1.00 20.00     0.014 C 
HETATM    7  C7  UNL     1     -36.084  18.075  -2.789  1.00 20.00     0.041 C 
HETATM    8  C8  UNL     1     -35.118  14.349  -5.200  1.00 20.00     0.040 C 
HETATM    9  N9  UNL     1     -32.654  18.890  -2.093  1.00 20.00    -0.197 NA
HETATM   10  O10 UNL     1     -35.939  15.769  -3.429  1.00 20.00    -0.380 OA
ENDROOT
TORSDOF 0
ENDMDL
MODEL 7
REMARK VINA RESULT:      -3.8      2.263      3.787
REMARK  0 active torsions:
REMARK  status: ('A' for Active; 'I' for Inactive)
ROOT
HETATM    1  C1  UNL     1     -33.834  16.211  -3.149  1.00 20.00     0.067 C 
HETATM    2  C2  UNL     1     -33.885  15.120  -4.125  1.00 20.00     0.127 C 
HETATM    3  C3  UNL     1     -33.345  15.460  -5.518  1.00 20.00     0.030 C 
HETATM    4  C4  UNL     1     -35.278  14.534  -4.398  1.00 20.00     0.136 C 
HETATM    5  C5  UNL     1     -33.989  14.335  -6.333  1.00 20.00     0.123 C 
HETATM    6  C6  UNL     1     -33.705  16.862  -6.018  1.00 20.00     0.014 C 
HETATM    7  C7  UNL     1     -36.480  15.418  -4.096  1.00 20.00     0.041 C 
HETATM    8  C8  UNL     1     -34.060  14.532  -7.835  1.00 20.00     0.040 C 
HETATM    9  N9  UNL     1     -33.795  17.074  -2.376  1.00 20.00    -0.197 NA
HETATM   10  O10 UNL     1     -35.317  14.199  -5.801  1.00 20.00    -0.380 OA
ENDROOT
TORSDOF 0
ENDMDL
MODEL 8
REMARK VINA RESULT:      -3.8      2.551      4.109
REMARK  0 active torsions:
REMARK  status: ('A' for Active; 'I' for Inactive)
ROOT
HETATM    1  C1  UNL     1     -33.618  17.428  -5.442  1.00 20.00     0.067 C 
HETATM    2  C2  UNL     1     -33.408  16.022  -5.798  1.00 20.00     0.127 C 
HETATM    3  C3  UNL     1     -34.296  15.492  -6.928  1.00 20.00     0.030 C 
HETATM    4  C4  UNL     1     -33.608  15.010  -4.661  1.00 20.00     0.136 C 
HETATM    5  C5  UNL     1     -34.167  13.987  -6.682  1.00 20.00     0.123 C 
HETATM    6  C6  UNL     1     -35.742  15.997  -6.894  1.00 20.00     0.014 C 
HETATM    7  C7  UNL     1     -34.484  15.436  -3.491  1.00 20.00     0.041 C 
HETATM    8  C8  UNL     1     -35.220  13.096  -7.314  1.00 20.00     0.040 C 
HETATM    9  N9  UNL     1     -33.783  18.540  -5.159  1.00 20.00    -0.197 NA
HETATM   10  O10 UNL     1     -34.201  13.836  -5.254  1.00 20.00    -0.380 OA
ENDROOT
TORSDOF 0
ENDMDL
MODEL 9
REMARK VINA RESULT:      -3.8     11.463     12.382
REMARK  0 active torsions:
REMARK  status: ('A' for Active; 'I' for Inactive)
ROOT
HETATM    1  C1  UNL     1     -34.845   5.096   4.380  1.00 20.00     0.067 C 
HETATM    2  C2  UNL     1     -34.579   6.372   3.713  1.00 20.00     0.127 C 
HETATM    3  C3  UNL     1     -33.563   6.315   2.567  1.00 20.00     0.030 C 
HETATM    4  C4  UNL     1     -34.059   7.501   4.615  1.00 20.00     0.136 C 
HETATM    5  C5  UNL     1     -33.190   7.797   2.470  1.00 20.00     0.123 C 
HETATM    6  C6  UNL     1     -32.364   5.396   2.822  1.00 20.00     0.014 C 
HETATM    7  C7  UNL     1     -33.375   7.099   5.914  1.00 20.00     0.041 C 
HETATM    8  C8  UNL     1     -31.900   8.132   1.745  1.00 20.00     0.040 C 
HETATM    9  N9  UNL     1     -35.056   4.086   4.909  1.00 20.00    -0.197 NA
HETATM   10  O10 UNL     1     -33.111   8.253   3.830  1.00 20.00    -0.380 OA
ENDROOT
TORSDOF 0
ENDMDL
