MODEL 1
REMARK VINA RESULT:      -6.1      0.000      0.000
REMARK  1 active torsions:
REMARK  status: ('A' for Active; 'I' for Inactive)
REMARK    1  A    between atoms: C2_2  and  C9_9 
ROOT
HETATM    1  C1  UNL     1     -33.067   7.655   1.909  1.00 20.00    -0.004 C 
HETATM    2  C2  UNL     1     -33.152   7.384   3.218  1.00 20.00    -0.076 C 
HETATM    3  C3  UNL     1     -32.114   8.124   4.001  1.00 20.00     0.036 C 
HETATM    4  C4  UNL     1     -31.152   8.599   2.910  1.00 20.00     0.028 C 
HETATM    5  C8  UNL     1     -31.964   8.615   1.612  1.00 20.00     0.105 C 
HETATM    6 CL11 UNL     1     -32.642  10.224   1.283  1.00 20.00    -0.121 Cl
ENDROOT
BRANCH   2   7
HETATM    7  C9  UNL     1     -34.145   6.498   3.889  1.00 20.00     0.040 C 
HETATM    8  C5  UNL     1     -33.908   5.021   3.649  1.00 20.00     0.037 C 
HETATM    9  C6  UNL     1     -34.671   4.393   4.795  1.00 20.00     0.168 C 
HETATM   10  O10 UNL     1     -34.554   5.296   5.902  1.00 20.00    -0.390 OA
HETATM   11  C7  UNL     1     -34.108   6.569   5.409  1.00 20.00     0.176 C 
ENDBRANCH   2   7
TORSDOF 1
ENDMDL
MODEL 2
REMARK VINA RESULT:      -5.3      1.009      1.482
REMARK  1 active torsions:
REMARK  status: ('A' for Active; 'I' for Inactive)
REMARK    1  A    between atoms: C2_2  and  C9_9 
ROOT
HETATM    1  C1  UNL     1     -33.429   8.044   1.865  1.00 20.00    -0.004 C 
HETATM    2  C2  UNL     1     -32.729   7.564   2.900  1.00 20.00    -0.076 C 
HETATM    3  C3  UNL     1     -31.353   8.150   2.952  1.00 20.00     0.036 C 
HETATM    4  C4  UNL     1     -31.211   8.783   1.566  1.00 20.00     0.028 C 
HETATM    5  C8  UNL     1     -32.636   9.023   1.065  1.00 20.00     0.105 C 
HETATM    6 CL11 UNL     1     -33.188  10.674   1.422  1.00 20.00    -0.121 Cl
ENDROOT
BRANCH   2   7
HETATM    7  C9  UNL     1     -33.198   6.596   3.931  1.00 20.00     0.040 C 
HETATM    8  C5  UNL     1     -33.641   7.248   5.226  1.00 20.00     0.037 C 
HETATM    9  C6  UNL     1     -34.507   6.168   5.837  1.00 20.00     0.168 C 
HETATM   10  O10 UNL     1     -35.144   5.493   4.746  1.00 20.00    -0.390 OA
HETATM   11  C7  UNL     1     -34.452   5.830   3.533  1.00 20.00     0.176 C 
ENDBRANCH   2   7
TORSDOF 1
ENDMDL
MODEL 3
REMARK VINA RESULT:      -5.2      3.154      4.696
REMARK  1 active torsions:
REMARK  status: ('A' for Active; 'I' for Inactive)
REMARK    1  A    between atoms: C2_2  and  C9_9 
ROOT
HETATM    1  C1  UNL     1     -34.215   6.033   3.095  1.00 20.00    -0.004 C 
HETATM    2  C2  UNL     1     -33.308   6.988   3.335  1.00 20.00    -0.076 C 
HETATM    3  C3  UNL     1     -33.146   7.235   4.802  1.00 20.00     0.036 C 
HETATM    4  C4  UNL     1     -34.371   6.534   5.393  1.00 20.00     0.028 C 
HETATM    5  C8  UNL     1     -34.800   5.493   4.357  1.00 20.00     0.105 C 
HETATM    6 CL11 UNL     1     -34.104   3.896   4.705  1.00 20.00    -0.121 Cl
ENDROOT
BRANCH   2   7
HETATM    7  C9  UNL     1     -32.497   7.730   2.329  1.00 20.00     0.040 C 
HETATM    8  C5  UNL     1     -33.299   8.225   1.142  1.00 20.00     0.037 C 
HETATM    9  C6  UNL     1     -32.407   9.320   0.600  1.00 20.00     0.168 C 
HETATM   10  O10 UNL     1     -31.758   9.913   1.731  1.00 20.00    -0.390 OA
HETATM   11  C7  UNL     1     -31.900   9.029   2.854  1.00 20.00     0.176 C 
ENDBRANCH   2   7
TORSDOF 1
ENDMDL
MODEL 4
REMARK VINA RESULT:      -4.9     11.203     11.642
REMARK  1 active torsions:
REMARK  status: ('A' for Active; 'I' for Inactive)
REMARK    1  A    between atoms: C2_2  and  C9_9 
ROOT
HETATM    1  C1  UNL     1     -33.653  16.493  -3.023  1.00 20.00    -0.004 C 
HETATM    2  C2  UNL     1     -34.950  16.217  -3.214  1.00 20.00    -0.076 C 
HETATM    3  C3  UNL     1     -35.803  16.820  -2.143  1.00 20.00     0.036 C 
HETATM    4  C4  UNL     1     -34.776  17.192  -1.071  1.00 20.00     0.028 C 
HETATM    5  C8  UNL     1     -33.436  17.320  -1.800  1.00 20.00     0.105 C 
HETATM    6 CL11 UNL     1     -33.100  19.002  -2.265  1.00 20.00    -0.121 Cl
ENDROOT
BRANCH   2   7
HETATM    7  C9  UNL     1     -35.548  15.447  -4.340  1.00 20.00     0.040 C 
HETATM    8  C5  UNL     1     -35.003  14.039  -4.476  1.00 20.00     0.037 C 
HETATM    9  C6  UNL     1     -36.087  13.364  -5.286  1.00 20.00     0.168 C 
HETATM   10  O10 UNL     1     -37.326  13.962  -4.884  1.00 20.00    -0.390 OA
HETATM   11  C7  UNL     1     -37.039  15.182  -4.184  1.00 20.00     0.176 C 
ENDBRANCH   2   7
TORSDOF 1
ENDMDL
MODEL 5
REMARK VINA RESULT:      -4.8     11.277     11.897
REMARK  1 active torsions:
REMARK  status: ('A' for Active; 'I' for Inactive)
REMARK    1  A    between atoms: C2_2  and  C9_9 
ROOT
HETATM    1  C1  UNL     1     -33.635  16.035  -3.548  1.00 20.00    -0.004 C 
HETATM    2  C2  UNL     1     -34.873  15.751  -3.972  1.00 20.00    -0.076 C 
HETATM    3  C3  UNL     1     -35.912  16.343  -3.073  1.00 20.00     0.036 C 
HETATM    4  C4  UNL     1     -35.100  16.719  -1.831  1.00 20.00     0.028 C 
HETATM    5  C8  UNL     1     -33.651  16.859  -2.304  1.00 20.00     0.105 C 
HETATM    6 CL11 UNL     1     -33.251  18.546  -2.697  1.00 20.00    -0.121 Cl
ENDROOT
BRANCH   2   7
HETATM    7  C9  UNL     1     -35.249  14.980  -5.191  1.00 20.00     0.040 C 
HETATM    8  C5  UNL     1     -34.089  14.716  -6.130  1.00 20.00     0.037 C 
HETATM    9  C6  UNL     1     -34.605  13.547  -6.940  1.00 20.00     0.168 C 
HETATM   10  O10 UNL     1     -35.420  12.768  -6.054  1.00 20.00    -0.390 OA
HETATM   11  C7  UNL     1     -35.734  13.566  -4.902  1.00 20.00     0.176 C 
ENDBRANCH   2   7
TORSDOF 1
ENDMDL
MODEL 6
REMARK VINA RESULT:      -4.5     11.134     11.690
REMARK  1 active torsions:
REMARK  status: ('A' for Active; 'I' for Inactive)
REMARK    1  A    between atoms: C2_2  and  C9_9 
ROOT
HETATM    1  C1  UNL     1     -35.951  17.262  -2.594  1.00 20.00    -0.004 C 
HETATM    2  C2  UNL     1     -35.244  16.373  -3.302  1.00 20.00    -0.076 C 
HETATM    3  C3  UNL     1     -33.827  16.294  -2.828  1.00 20.00     0.036 C 
HETATM    4  C4  UNL     1     -33.698  17.548  -1.960  1.00 20.00     0.028 C 
HETATM    5  C8  UNL     1     -35.122  17.915  -1.538  1.00 20.00     0.105 C 
HETATM    6 CL11 UNL     1     -35.531  17.234   0.051  1.00 20.00    -0.121 Cl
ENDROOT
BRANCH   2   7
HETATM    7  C9  UNL     1     -35.739  15.510  -4.411  1.00 20.00     0.040 C 
HETATM    8  C5  UNL     1     -35.072  14.151  -4.473  1.00 20.00     0.037 C 
HETATM    9  C6  UNL     1     -36.069  13.352  -5.283  1.00 20.00     0.168 C 
HETATM   10  O10 UNL     1     -37.366  13.855  -4.939  1.00 20.00    -0.390 OA
HETATM   11  C7  UNL     1     -37.206  15.122  -4.283  1.00 20.00     0.176 C 
ENDBRANCH   2   7
TORSDOF 1
ENDMDL
MODEL 7
REMARK VINA RESULT:      -4.5     11.203     11.888
REMARK  1 active torsions:
REMARK  status: ('A' for Active; 'I' for Inactive)
REMARK    1  A    between atoms: C2_2  and  C9_9 
ROOT
HETATM    1  C1  UNL     1     -34.474  16.708  -2.160  1.00 20.00    -0.004 C 
HETATM    2  C2  UNL     1     -34.240  16.219  -3.384  1.00 20.00    -0.076 C 
HETATM    3  C3  UNL     1     -33.531  17.214  -4.247  1.00 20.00     0.036 C 
HETATM    4  C4  UNL     1     -33.704  18.516  -3.462  1.00 20.00     0.028 C 
HETATM    5  C8  UNL     1     -33.960  18.101  -2.012  1.00 20.00     0.105 C 
HETATM    6 CL11 UNL     1     -32.460  18.088  -1.058  1.00 20.00    -0.121 Cl
ENDROOT
BRANCH   2   7
HETATM    7  C9  UNL     1     -34.580  14.859  -3.888  1.00 20.00     0.040 C 
HETATM    8  C5  UNL     1     -35.985  14.746  -4.445  1.00 20.00     0.037 C 
HETATM    9  C6  UNL     1     -35.879  13.509  -5.310  1.00 20.00     0.168 C 
HETATM   10  O10 UNL     1     -34.549  13.501  -5.843  1.00 20.00    -0.390 OA
HETATM   11  C7  UNL     1     -33.745  14.415  -5.081  1.00 20.00     0.176 C 
ENDBRANCH   2   7
TORSDOF 1
ENDMDL
MODEL 8
REMARK VINA RESULT:      -4.5     11.208     11.751
REMARK  1 active torsions:
REMARK  status: ('A' for Active; 'I' for Inactive)
REMARK    1  A    between atoms: C2_2  and  C9_9 
ROOT
HETATM    1  C1  UNL     1     -35.833  16.399  -2.838  1.00 20.00    -0.004 C 
HETATM    2  C2  UNL     1     -34.773  15.770  -3.360  1.00 20.00    -0.076 C 
HETATM    3  C3  UNL     1     -33.496  16.472  -3.021  1.00 20.00     0.036 C 
HETATM    4  C4  UNL     1     -33.988  17.832  -2.521  1.00 20.00     0.028 C 
HETATM    5  C8  UNL     1     -35.434  17.615  -2.070  1.00 20.00     0.105 C 
HETATM    6 CL11 UNL     1     -35.535  17.283  -0.327  1.00 20.00    -0.121 Cl
ENDROOT
BRANCH   2   7
HETATM    7  C9  UNL     1     -34.779  14.512  -4.158  1.00 20.00     0.040 C 
HETATM    8  C5  UNL     1     -36.082  14.256  -4.888  1.00 20.00     0.037 C 
HETATM    9  C6  UNL     1     -35.651  13.279  -5.960  1.00 20.00     0.168 C 
HETATM   10  O10 UNL     1     -34.313  13.641  -6.323  1.00 20.00    -0.390 OA
HETATM   11  C7  UNL     1     -33.780  14.504  -5.307  1.00 20.00     0.176 C 
ENDBRANCH   2   7
TORSDOF 1
ENDMDL
MODEL 9
REMARK VINA RESULT:      -4.4     11.439     11.944
REMARK  1 active torsions:
REMARK  status: ('A' for Active; 'I' for Inactive)
REMARK    1  A    between atoms: C2_2  and  C9_9 
ROOT
HETATM    1  C1  UNL     1     -35.646  16.929  -1.973  1.00 20.00    -0.004 C 
HETATM    2  C2  UNL     1     -34.464  16.562  -2.484  1.00 20.00    -0.076 C 
HETATM    3  C3  UNL     1     -33.338  17.341  -1.879  1.00 20.00     0.036 C 
HETATM    4  C4  UNL     1     -34.068  18.496  -1.189  1.00 20.00     0.028 C 
HETATM    5  C8  UNL     1     -35.498  18.006  -0.950  1.00 20.00     0.105 C 
HETATM    6 CL11 UNL     1     -35.693  17.318   0.677  1.00 20.00    -0.121 Cl
ENDROOT
BRANCH   2   7
HETATM    7  C9  UNL     1     -34.215  15.501  -3.499  1.00 20.00     0.040 C 
HETATM    8  C5  UNL     1     -35.465  15.045  -4.226  1.00 20.00     0.037 C 
HETATM    9  C6  UNL     1     -34.886  14.412  -5.472  1.00 20.00     0.168 C 
HETATM   10  O10 UNL     1     -33.712  15.165  -5.802  1.00 20.00    -0.390 OA
HETATM   11  C7  UNL     1     -33.337  15.950  -4.659  1.00 20.00     0.176 C 
ENDBRANCH   2   7
TORSDOF 1
ENDMDL
