MODEL 1
REMARK VINA RESULT:      -6.2      0.000      0.000
REMARK  1 active torsions:
REMARK  status: ('A' for Active; 'I' for Inactive)
REMARK    1  A    between atoms: C2_2  and  C9_9 
ROOT
HETATM    1  C1  UNL     1     -33.433   6.406   2.894  1.00 20.00    -0.004 C 
HETATM    2  C2  UNL     1     -32.804   7.437   3.488  1.00 20.00    -0.078 C 
HETATM    3  C3  UNL     1     -33.067   7.782   4.939  1.00 20.00     0.034 C 
HETATM    4  C4  UNL     1     -33.795   6.686   5.721  1.00 20.00     0.006 C 
HETATM    5  C5  UNL     1     -34.945   6.104   4.902  1.00 20.00     0.024 C 
HETATM    6  C8  UNL     1     -34.455   5.535   3.567  1.00 20.00     0.105 C 
HETATM    7 CL10 UNL     1     -33.734   3.913   3.808  1.00 20.00    -0.121 Cl
ENDROOT
BRANCH   2   8
HETATM    8  C9  UNL     1     -31.807   8.294   2.798  1.00 20.00     0.014 A 
HETATM    9  C6  UNL     1     -31.748   8.240   1.310  1.00 20.00     0.010 A 
HETATM   10  C7  UNL     1     -32.308   9.448   1.999  1.00 20.00     0.010 A 
ENDBRANCH   2   8
TORSDOF 1
ENDMDL
MODEL 2
REMARK VINA RESULT:      -6.1      2.082      4.048
REMARK  1 active torsions:
REMARK  status: ('A' for Active; 'I' for Inactive)
REMARK    1  A    between atoms: C2_2  and  C9_9 
ROOT
HETATM    1  C1  UNL     1     -33.249   6.873   2.681  1.00 20.00    -0.004 C 
HETATM    2  C2  UNL     1     -33.695   6.654   3.933  1.00 20.00    -0.078 C 
HETATM    3  C3  UNL     1     -33.107   7.400   5.112  1.00 20.00     0.034 C 
HETATM    4  C4  UNL     1     -32.266   8.619   4.726  1.00 20.00     0.006 C 
HETATM    5  C5  UNL     1     -31.346   8.296   3.551  1.00 20.00     0.024 C 
HETATM    6  C8  UNL     1     -32.137   7.818   2.330  1.00 20.00     0.105 C 
HETATM    7 CL10 UNL     1     -32.847   9.215   1.461  1.00 20.00    -0.121 Cl
ENDROOT
BRANCH   2   8
HETATM    8  C9  UNL     1     -34.786   5.703   4.257  1.00 20.00     0.014 A 
HETATM    9  C6  UNL     1     -34.443   4.257   4.380  1.00 20.00     0.010 A 
HETATM   10  C7  UNL     1     -34.778   5.059   5.602  1.00 20.00     0.010 A 
ENDBRANCH   2   8
TORSDOF 1
ENDMDL
MODEL 3
REMARK VINA RESULT:      -4.7      1.675      2.370
REMARK  1 active torsions:
REMARK  status: ('A' for Active; 'I' for Inactive)
REMARK    1  A    between atoms: C2_2  and  C9_9 
ROOT
HETATM    1  C1  UNL     1     -32.346   7.713   3.727  1.00 20.00    -0.004 C 
HETATM    2  C2  UNL     1     -32.658   7.861   2.426  1.00 20.00    -0.078 C 
HETATM    3  C3  UNL     1     -33.730   7.010   1.779  1.00 20.00     0.034 C 
HETATM    4  C4  UNL     1     -34.625   6.266   2.773  1.00 20.00     0.006 C 
HETATM    5  C5  UNL     1     -33.796   5.645   3.894  1.00 20.00     0.024 C 
HETATM    6  C8  UNL     1     -32.976   6.701   4.641  1.00 20.00     0.105 C 
HETATM    7 CL10 UNL     1     -34.008   7.576   5.815  1.00 20.00    -0.121 Cl
ENDROOT
BRANCH   2   8
HETATM    8  C9  UNL     1     -32.011   8.859   1.539  1.00 20.00     0.014 A 
HETATM    9  C6  UNL     1     -32.650   9.143   0.222  1.00 20.00     0.010 A 
HETATM   10  C7  UNL     1     -32.707  10.160   1.322  1.00 20.00     0.010 A 
ENDBRANCH   2   8
TORSDOF 1
ENDMDL
MODEL 4
REMARK VINA RESULT:      -4.5      1.395      2.044
REMARK  1 active torsions:
REMARK  status: ('A' for Active; 'I' for Inactive)
REMARK    1  A    between atoms: C2_2  and  C9_9 
ROOT
HETATM    1  C1  UNL     1     -33.826   7.319   3.869  1.00 20.00    -0.004 C 
HETATM    2  C2  UNL     1     -32.760   7.251   3.049  1.00 20.00    -0.078 C 
HETATM    3  C3  UNL     1     -32.284   5.923   2.496  1.00 20.00     0.034 C 
HETATM    4  C4  UNL     1     -33.290   4.781   2.656  1.00 20.00     0.006 C 
HETATM    5  C5  UNL     1     -33.915   4.796   4.048  1.00 20.00     0.024 C 
HETATM    6  C8  UNL     1     -34.610   6.129   4.341  1.00 20.00     0.105 C 
HETATM    7 CL10 UNL     1     -36.221   6.177   3.558  1.00 20.00    -0.121 Cl
ENDROOT
BRANCH   2   8
HETATM    8  C9  UNL     1     -31.991   8.440   2.608  1.00 20.00     0.014 A 
HETATM    9  C6  UNL     1     -31.541   8.496   1.187  1.00 20.00     0.010 A 
HETATM   10  C7  UNL     1     -32.647   9.389   1.664  1.00 20.00     0.010 A 
ENDBRANCH   2   8
TORSDOF 1
ENDMDL
MODEL 5
REMARK VINA RESULT:      -4.3     11.582     12.201
REMARK  1 active torsions:
REMARK  status: ('A' for Active; 'I' for Inactive)
REMARK    1  A    between atoms: C2_2  and  C9_9 
ROOT
HETATM    1  C1  UNL     1     -34.624  18.077   0.299  1.00 20.00    -0.004 C 
HETATM    2  C2  UNL     1     -33.354  18.463   0.073  1.00 20.00    -0.078 C 
HETATM    3  C3  UNL     1     -32.663  18.143  -1.236  1.00 20.00     0.034 C 
HETATM    4  C4  UNL     1     -33.609  17.688  -2.350  1.00 20.00     0.006 C 
HETATM    5  C5  UNL     1     -34.636  16.692  -1.820  1.00 20.00     0.024 C 
HETATM    6  C8  UNL     1     -35.455  17.285  -0.669  1.00 20.00     0.105 C 
HETATM    7 CL10 UNL     1     -36.742  18.356  -1.307  1.00 20.00    -0.121 Cl
ENDROOT
BRANCH   2   8
HETATM    8  C9  UNL     1     -32.547  19.233   1.051  1.00 20.00     0.014 A 
HETATM    9  C6  UNL     1     -32.181  18.570   2.334  1.00 20.00     0.010 A 
HETATM   10  C7  UNL     1     -31.137  18.809   1.285  1.00 20.00     0.010 A 
ENDBRANCH   2   8
TORSDOF 1
ENDMDL
MODEL 6
REMARK VINA RESULT:      -4.2     11.387     11.931
REMARK  1 active torsions:
REMARK  status: ('A' for Active; 'I' for Inactive)
REMARK    1  A    between atoms: C2_2  and  C9_9 
ROOT
HETATM    1  C1  UNL     1     -36.537  15.773  -3.912  1.00 20.00    -0.004 C 
HETATM    2  C2  UNL     1     -35.340  16.091  -3.383  1.00 20.00    -0.078 C 
HETATM    3  C3  UNL     1     -34.100  15.289  -3.721  1.00 20.00     0.034 C 
HETATM    4  C4  UNL     1     -34.261  14.367  -4.932  1.00 20.00     0.006 C 
HETATM    5  C5  UNL     1     -35.598  13.633  -4.885  1.00 20.00     0.024 C 
HETATM    6  C8  UNL     1     -36.777  14.610  -4.831  1.00 20.00     0.105 C 
HETATM    7 CL10 UNL     1     -37.126  15.255  -6.466  1.00 20.00    -0.121 Cl
ENDROOT
BRANCH   2   8
HETATM    8  C9  UNL     1     -35.130  17.237  -2.465  1.00 20.00     0.014 A 
HETATM    9  C6  UNL     1     -35.322  17.008  -1.004  1.00 20.00     0.010 A 
HETATM   10  C7  UNL     1     -33.944  17.203  -1.562  1.00 20.00     0.010 A 
ENDBRANCH   2   8
TORSDOF 1
ENDMDL
MODEL 7
REMARK VINA RESULT:      -4.2     11.366     11.931
REMARK  1 active torsions:
REMARK  status: ('A' for Active; 'I' for Inactive)
REMARK    1  A    between atoms: C2_2  and  C9_9 
ROOT
HETATM    1  C1  UNL     1     -35.658  17.046  -1.617  1.00 20.00    -0.004 C 
HETATM    2  C2  UNL     1     -34.600  16.667  -2.358  1.00 20.00    -0.078 C 
HETATM    3  C3  UNL     1     -33.244  17.318  -2.173  1.00 20.00     0.034 C 
HETATM    4  C4  UNL     1     -33.114  18.141  -0.889  1.00 20.00     0.006 C 
HETATM    5  C5  UNL     1     -34.358  18.996  -0.661  1.00 20.00     0.024 C 
HETATM    6  C8  UNL     1     -35.626  18.141  -0.589  1.00 20.00     0.105 C 
HETATM    7 CL10 UNL     1     -35.780  17.389   1.030  1.00 20.00    -0.121 Cl
ENDROOT
BRANCH   2   8
HETATM    8  C9  UNL     1     -34.659  15.592  -3.379  1.00 20.00     0.014 A 
HETATM    9  C6  UNL     1     -34.517  15.979  -4.811  1.00 20.00     0.010 A 
HETATM   10  C7  UNL     1     -33.406  15.253  -4.113  1.00 20.00     0.010 A 
ENDBRANCH   2   8
TORSDOF 1
ENDMDL
MODEL 8
REMARK VINA RESULT:      -4.2     11.426     12.273
REMARK  1 active torsions:
REMARK  status: ('A' for Active; 'I' for Inactive)
REMARK    1  A    between atoms: C2_2  and  C9_9 
ROOT
HETATM    1  C1  UNL     1     -35.105  14.367  -4.498  1.00 20.00    -0.004 C 
HETATM    2  C2  UNL     1     -34.090  15.249  -4.417  1.00 20.00    -0.078 C 
HETATM    3  C3  UNL     1     -33.275  15.616  -5.640  1.00 20.00     0.034 C 
HETATM    4  C4  UNL     1     -33.910  15.192  -6.966  1.00 20.00     0.006 C 
HETATM    5  C5  UNL     1     -34.469  13.775  -6.876  1.00 20.00     0.024 C 
HETATM    6  C8  UNL     1     -35.504  13.647  -5.754  1.00 20.00     0.105 C 
HETATM    7 CL10 UNL     1     -37.086  14.295  -6.289  1.00 20.00    -0.121 Cl
ENDROOT
BRANCH   2   8
HETATM    8  C9  UNL     1     -33.704  15.938  -3.161  1.00 20.00     0.014 A 
HETATM    9  C6  UNL     1     -33.845  17.421  -3.104  1.00 20.00     0.010 A 
HETATM   10  C7  UNL     1     -34.786  16.545  -2.334  1.00 20.00     0.010 A 
ENDBRANCH   2   8
TORSDOF 1
ENDMDL
MODEL 9
REMARK VINA RESULT:      -4.2     11.263     11.956
REMARK  1 active torsions:
REMARK  status: ('A' for Active; 'I' for Inactive)
REMARK    1  A    between atoms: C2_2  and  C9_9 
ROOT
HETATM    1  C1  UNL     1     -33.423  16.752  -2.565  1.00 20.00    -0.004 C 
HETATM    2  C2  UNL     1     -34.523  16.248  -3.155  1.00 20.00    -0.078 C 
HETATM    3  C3  UNL     1     -35.904  16.520  -2.595  1.00 20.00     0.034 C 
HETATM    4  C4  UNL     1     -35.951  17.656  -1.570  1.00 20.00     0.006 C 
HETATM    5  C5  UNL     1     -34.787  17.555  -0.589  1.00 20.00     0.024 C 
HETATM    6  C8  UNL     1     -33.436  17.580  -1.312  1.00 20.00     0.105 C 
HETATM    7 CL10 UNL     1     -32.994  19.260  -1.749  1.00 20.00    -0.121 Cl
ENDROOT
BRANCH   2   8
HETATM    8  C9  UNL     1     -34.484  15.420  -4.385  1.00 20.00     0.014 A 
HETATM    9  C6  UNL     1     -33.364  14.448  -4.541  1.00 20.00     0.010 A 
HETATM   10  C7  UNL     1     -34.752  13.959  -4.256  1.00 20.00     0.010 A 
ENDBRANCH   2   8
TORSDOF 1
ENDMDL
