MODEL 1
REMARK VINA RESULT:      -6.4      0.000      0.000
REMARK  1 active torsions:
REMARK  status: ('A' for Active; 'I' for Inactive)
REMARK    1  A    between atoms: C2_2  and  C10_10 
ROOT
HETATM    1  C1  UNL     1     -33.140   7.887   1.684  1.00 20.00    -0.004 C 
HETATM    2  C2  UNL     1     -33.090   7.529   2.973  1.00 20.00    -0.078 C 
HETATM    3  C3  UNL     1     -31.946   8.186   3.681  1.00 20.00     0.036 C 
HETATM    4  C4  UNL     1     -31.094   8.706   2.521  1.00 20.00     0.028 C 
HETATM    5  C9  UNL     1     -32.043   8.833   1.327  1.00 20.00     0.105 C 
HETATM    6 CL12 UNL     1     -32.696  10.480   1.180  1.00 20.00    -0.121 Cl
ENDROOT
BRANCH   2   7
HETATM    7  C10 UNL     1     -34.050   6.613   3.706  1.00 20.00     0.018 C 
HETATM    8  C5  UNL     1     -33.662   5.172   3.401  1.00 20.00     0.035 C 
HETATM    9  C7  UNL     1     -34.434   4.214   4.300  1.00 20.00     0.168 C 
HETATM   10  O11 UNL     1     -34.230   4.535   5.676  1.00 20.00    -0.391 OA
HETATM   11  C8  UNL     1     -34.695   5.846   5.998  1.00 20.00     0.168 C 
HETATM   12  C6  UNL     1     -33.937   6.898   5.199  1.00 20.00     0.035 C 
ENDBRANCH   2   7
TORSDOF 1
ENDMDL
MODEL 2
REMARK VINA RESULT:      -5.7      1.300      2.105
REMARK  1 active torsions:
REMARK  status: ('A' for Active; 'I' for Inactive)
REMARK    1  A    between atoms: C2_2  and  C10_10 
ROOT
HETATM    1  C1  UNL     1     -31.798   8.064   1.343  1.00 20.00    -0.004 C 
HETATM    2  C2  UNL     1     -32.635   8.116   2.387  1.00 20.00    -0.078 C 
HETATM    3  C3  UNL     1     -33.401   9.401   2.415  1.00 20.00     0.036 C 
HETATM    4  C4  UNL     1     -32.620  10.272   1.428  1.00 20.00     0.028 C 
HETATM    5  C9  UNL     1     -31.871   9.302   0.512  1.00 20.00     0.105 C 
HETATM    6 CL12 UNL     1     -32.781   8.970  -0.978  1.00 20.00    -0.121 Cl
ENDROOT
BRANCH   2   7
HETATM    7  C10 UNL     1     -32.863   7.038   3.429  1.00 20.00     0.018 C 
HETATM    8  C5  UNL     1     -33.525   7.680   4.642  1.00 20.00     0.035 C 
HETATM    9  C7  UNL     1     -33.999   6.608   5.616  1.00 20.00     0.168 C 
HETATM   10  O11 UNL     1     -34.872   5.683   4.967  1.00 20.00    -0.391 OA
HETATM   11  C8  UNL     1     -34.226   4.993   3.897  1.00 20.00     0.168 C 
HETATM   12  C6  UNL     1     -33.766   5.971   2.823  1.00 20.00     0.035 C 
ENDBRANCH   2   7
TORSDOF 1
ENDMDL
MODEL 3
REMARK VINA RESULT:      -5.2      3.222      4.957
REMARK  1 active torsions:
REMARK  status: ('A' for Active; 'I' for Inactive)
REMARK    1  A    between atoms: C2_2  and  C10_10 
ROOT
HETATM    1  C1  UNL     1     -34.280   6.457   3.201  1.00 20.00    -0.004 C 
HETATM    2  C2  UNL     1     -33.407   7.364   3.657  1.00 20.00    -0.078 C 
HETATM    3  C3  UNL     1     -33.249   7.276   5.143  1.00 20.00     0.036 C 
HETATM    4  C4  UNL     1     -34.448   6.417   5.552  1.00 20.00     0.028 C 
HETATM    5  C9  UNL     1     -34.843   5.624   4.304  1.00 20.00     0.105 C 
HETATM    6 CL12 UNL     1     -34.089   4.015   4.283  1.00 20.00    -0.121 Cl
ENDROOT
BRANCH   2   7
HETATM    7  C10 UNL     1     -32.613   8.361   2.836  1.00 20.00     0.018 C 
HETATM    8  C5  UNL     1     -31.908   7.604   1.717  1.00 20.00     0.035 C 
HETATM    9  C7  UNL     1     -31.296   8.582   0.721  1.00 20.00     0.168 C 
HETATM   10  O11 UNL     1     -32.289   9.473   0.210  1.00 20.00    -0.391 OA
HETATM   11  C8  UNL     1     -32.878  10.269   1.240  1.00 20.00     0.168 C 
HETATM   12  C6  UNL     1     -33.582   9.390   2.265  1.00 20.00     0.035 C 
ENDBRANCH   2   7
TORSDOF 1
ENDMDL
MODEL 4
REMARK VINA RESULT:      -5.2     11.206     11.770
REMARK  1 active torsions:
REMARK  status: ('A' for Active; 'I' for Inactive)
REMARK    1  A    between atoms: C2_2  and  C10_10 
ROOT
HETATM    1  C1  UNL     1     -33.661  16.611  -2.914  1.00 20.00    -0.004 C 
HETATM    2  C2  UNL     1     -34.968  16.380  -3.085  1.00 20.00    -0.078 C 
HETATM    3  C3  UNL     1     -35.779  16.950  -1.964  1.00 20.00     0.036 C 
HETATM    4  C4  UNL     1     -34.717  17.239  -0.901  1.00 20.00     0.028 C 
HETATM    5  C9  UNL     1     -33.392  17.369  -1.656  1.00 20.00     0.105 C 
HETATM    6 CL12 UNL     1     -33.021  19.063  -2.045  1.00 20.00    -0.121 Cl
ENDROOT
BRANCH   2   7
HETATM    7  C10 UNL     1     -35.625  15.672  -4.254  1.00 20.00     0.018 C 
HETATM    8  C5  UNL     1     -35.098  14.243  -4.304  1.00 20.00     0.035 C 
HETATM    9  C7  UNL     1     -35.902  13.417  -5.302  1.00 20.00     0.168 C 
HETATM   10  O11 UNL     1     -37.294  13.455  -4.986  1.00 20.00    -0.391 OA
HETATM   11  C8  UNL     1     -37.824  14.780  -5.046  1.00 20.00     0.168 C 
HETATM   12  C6  UNL     1     -37.133  15.684  -4.033  1.00 20.00     0.035 C 
ENDBRANCH   2   7
TORSDOF 1
ENDMDL
MODEL 5
REMARK VINA RESULT:      -4.9     11.419     12.139
REMARK  1 active torsions:
REMARK  status: ('A' for Active; 'I' for Inactive)
REMARK    1  A    between atoms: C2_2  and  C10_10 
ROOT
HETATM    1  C1  UNL     1     -33.595  16.462  -3.072  1.00 20.00    -0.004 C 
HETATM    2  C2  UNL     1     -34.804  16.196  -3.580  1.00 20.00    -0.078 C 
HETATM    3  C3  UNL     1     -35.897  16.674  -2.676  1.00 20.00     0.036 C 
HETATM    4  C4  UNL     1     -35.150  16.939  -1.366  1.00 20.00     0.028 C 
HETATM    5  C9  UNL     1     -33.686  17.156  -1.754  1.00 20.00     0.105 C 
HETATM    6 CL12 UNL     1     -33.310  18.881  -1.957  1.00 20.00    -0.121 Cl
ENDROOT
BRANCH   2   7
HETATM    7  C10 UNL     1     -35.112  15.533  -4.908  1.00 20.00     0.018 C 
HETATM    8  C5  UNL     1     -33.837  15.517  -5.741  1.00 20.00     0.035 C 
HETATM    9  C7  UNL     1     -34.024  14.650  -6.980  1.00 20.00     0.168 C 
HETATM   10  O11 UNL     1     -34.433  13.330  -6.617  1.00 20.00    -0.391 OA
HETATM   11  C8  UNL     1     -35.686  13.324  -5.933  1.00 20.00     0.168 C 
HETATM   12  C6  UNL     1     -35.595  14.114  -4.634  1.00 20.00     0.035 C 
ENDBRANCH   2   7
TORSDOF 1
ENDMDL
MODEL 6
REMARK VINA RESULT:      -4.8     11.506     12.121
REMARK  1 active torsions:
REMARK  status: ('A' for Active; 'I' for Inactive)
REMARK    1  A    between atoms: C2_2  and  C10_10 
ROOT
HETATM    1  C1  UNL     1     -35.591  17.053  -1.776  1.00 20.00    -0.004 C 
HETATM    2  C2  UNL     1     -34.378  16.782  -2.275  1.00 20.00    -0.078 C 
HETATM    3  C3  UNL     1     -33.312  17.580  -1.592  1.00 20.00     0.036 C 
HETATM    4  C4  UNL     1     -34.121  18.650  -0.856  1.00 20.00     0.028 C 
HETATM    5  C9  UNL     1     -35.528  18.073  -0.688  1.00 20.00     0.105 C 
HETATM    6 CL12 UNL     1     -35.726  17.278   0.890  1.00 20.00    -0.121 Cl
ENDROOT
BRANCH   2   7
HETATM    7  C10 UNL     1     -34.041  15.781  -3.363  1.00 20.00     0.018 C 
HETATM    8  C5  UNL     1     -35.337  15.132  -3.833  1.00 20.00     0.035 C 
HETATM    9  C7  UNL     1     -35.089  14.303  -5.087  1.00 20.00     0.168 C 
HETATM   10  O11 UNL     1     -34.497  15.100  -6.113  1.00 20.00    -0.391 OA
HETATM   11  C8  UNL     1     -33.227  15.623  -5.723  1.00 20.00     0.168 C 
HETATM   12  C6  UNL     1     -33.367  16.529  -4.507  1.00 20.00     0.035 C 
ENDBRANCH   2   7
TORSDOF 1
ENDMDL
MODEL 7
REMARK VINA RESULT:      -4.7     11.170     11.863
REMARK  1 active torsions:
REMARK  status: ('A' for Active; 'I' for Inactive)
REMARK    1  A    between atoms: C2_2  and  C10_10 
ROOT
HETATM    1  C1  UNL     1     -35.837  15.639  -3.600  1.00 20.00    -0.004 C 
HETATM    2  C2  UNL     1     -34.718  16.218  -3.149  1.00 20.00    -0.078 C 
HETATM    3  C3  UNL     1     -33.496  15.589  -3.743  1.00 20.00     0.036 C 
HETATM    4  C4  UNL     1     -34.049  14.292  -4.339  1.00 20.00     0.028 C 
HETATM    5  C9  UNL     1     -35.544  14.536  -4.561  1.00 20.00     0.105 C 
HETATM    6 CL12 UNL     1     -35.881  15.080  -6.219  1.00 20.00    -0.121 Cl
ENDROOT
BRANCH   2   7
HETATM    7  C10 UNL     1     -34.616  17.387  -2.190  1.00 20.00     0.018 C 
HETATM    8  C5  UNL     1     -35.417  17.050  -0.939  1.00 20.00     0.035 C 
HETATM    9  C7  UNL     1     -35.152  18.078   0.154  1.00 20.00     0.168 C 
HETATM   10  O11 UNL     1     -33.754  18.171   0.433  1.00 20.00    -0.391 OA
HETATM   11  C8  UNL     1     -33.005  18.597  -0.706  1.00 20.00     0.168 C 
HETATM   12  C6  UNL     1     -33.146  17.598  -1.848  1.00 20.00     0.035 C 
ENDBRANCH   2   7
TORSDOF 1
ENDMDL
MODEL 8
REMARK VINA RESULT:      -4.6     11.295     11.758
REMARK  1 active torsions:
REMARK  status: ('A' for Active; 'I' for Inactive)
REMARK    1  A    between atoms: C2_2  and  C10_10 
ROOT
HETATM    1  C1  UNL     1     -35.785  17.636  -1.768  1.00 20.00    -0.004 C 
HETATM    2  C2  UNL     1     -34.763  17.077  -2.427  1.00 20.00    -0.078 C 
HETATM    3  C3  UNL     1     -33.463  17.303  -1.719  1.00 20.00     0.036 C 
HETATM    4  C4  UNL     1     -33.819  18.407  -0.720  1.00 20.00     0.028 C 
HETATM    5  C9  UNL     1     -35.334  18.322  -0.521  1.00 20.00     0.105 C 
HETATM    6 CL12 UNL     1     -35.756  17.332   0.894  1.00 20.00    -0.121 Cl
ENDROOT
BRANCH   2   7
HETATM    7  C10 UNL     1     -34.833  16.272  -3.710  1.00 20.00     0.018 C 
HETATM    8  C5  UNL     1     -33.599  15.382  -3.784  1.00 20.00     0.035 C 
HETATM    9  C7  UNL     1     -33.737  14.379  -4.922  1.00 20.00     0.168 C 
HETATM   10  O11 UNL     1     -34.932  13.611  -4.778  1.00 20.00    -0.391 OA
HETATM   11  C8  UNL     1     -36.104  14.426  -4.821  1.00 20.00     0.168 C 
HETATM   12  C6  UNL     1     -36.104  15.431  -3.676  1.00 20.00     0.035 C 
ENDBRANCH   2   7
TORSDOF 1
ENDMDL
MODEL 9
REMARK VINA RESULT:      -4.6     11.457     11.909
REMARK  1 active torsions:
REMARK  status: ('A' for Active; 'I' for Inactive)
REMARK    1  A    between atoms: C2_2  and  C10_10 
ROOT
HETATM    1  C1  UNL     1     -35.504  17.020  -1.429  1.00 20.00    -0.004 C 
HETATM    2  C2  UNL     1     -34.408  17.686  -1.048  1.00 20.00    -0.078 C 
HETATM    3  C3  UNL     1     -33.297  17.530  -2.039  1.00 20.00     0.036 C 
HETATM    4  C4  UNL     1     -33.781  16.357  -2.894  1.00 20.00     0.028 C 
HETATM    5  C9  UNL     1     -35.301  16.314  -2.728  1.00 20.00     0.105 C 
HETATM    6 CL12 UNL     1     -36.129  17.202  -4.027  1.00 20.00    -0.121 Cl
ENDROOT
BRANCH   2   7
HETATM    7  C10 UNL     1     -34.243  18.542   0.193  1.00 20.00     0.018 C 
HETATM    8  C5  UNL     1     -35.023  17.891   1.329  1.00 20.00     0.035 C 
HETATM    9  C7  UNL     1     -34.696  18.570   2.653  1.00 20.00     0.168 C 
HETATM   10  O11 UNL     1     -33.290  18.548   2.900  1.00 20.00    -0.391 OA
HETATM   11  C8  UNL     1     -32.556  19.254   1.898  1.00 20.00     0.168 C 
HETATM   12  C6  UNL     1     -32.759  18.614   0.530  1.00 20.00     0.035 C 
ENDBRANCH   2   7
TORSDOF 1
ENDMDL
