MODEL 1
REMARK VINA RESULT:      -6.4      0.000      0.000
REMARK  1 active torsions:
REMARK  status: ('A' for Active; 'I' for Inactive)
REMARK    1  A    between atoms: C4_4  and  C8_8 
ROOT
HETATM    1  C1  UNL     1     -32.164   9.243   0.952  1.00 20.00     0.012 C 
HETATM    2  C2  UNL     1     -31.984   8.701   2.008  1.00 20.00    -0.113 C 
HETATM    3  C8  UNL     1     -31.757   8.043   3.298  1.00 20.00     0.126 C 
ENDROOT
BRANCH   3   4
HETATM    4  C4  UNL     1     -32.942   7.228   3.673  1.00 20.00    -0.071 C 
HETATM    5  C3  UNL     1     -33.583   7.230   4.849  1.00 20.00    -0.003 C 
HETATM    6  C7  UNL     1     -34.709   6.250   4.868  1.00 20.00     0.105 C 
HETATM    7  C6  UNL     1     -34.880   5.913   3.385  1.00 20.00     0.028 C 
HETATM    8 CL9  UNL     1     -34.242   4.821   5.816  1.00 20.00    -0.121 Cl
HETATM    9  C5  UNL     1     -33.540   6.241   2.721  1.00 20.00     0.036 C 
ENDBRANCH   3   4
TORSDOF 1
ENDMDL
MODEL 2
REMARK VINA RESULT:      -5.8      1.181      1.761
REMARK  1 active torsions:
REMARK  status: ('A' for Active; 'I' for Inactive)
REMARK    1  A    between atoms: C4_4  and  C8_8 
ROOT
HETATM    1  C1  UNL     1     -32.545   9.299   0.901  1.00 20.00     0.012 C 
HETATM    2  C2  UNL     1     -32.152   8.802   1.921  1.00 20.00    -0.113 C 
HETATM    3  C8  UNL     1     -31.664   8.201   3.165  1.00 20.00     0.126 C 
ENDROOT
BRANCH   3   4
HETATM    4  C4  UNL     1     -32.715   7.339   3.764  1.00 20.00    -0.071 C 
HETATM    5  C3  UNL     1     -33.288   6.262   3.211  1.00 20.00    -0.003 C 
HETATM    6  C7  UNL     1     -34.333   5.672   4.098  1.00 20.00     0.105 C 
HETATM    7  C6  UNL     1     -34.046   6.346   5.442  1.00 20.00     0.028 C 
HETATM    8 CL9  UNL     1     -35.947   6.091   3.485  1.00 20.00    -0.121 Cl
HETATM    9  C5  UNL     1     -33.292   7.637   5.113  1.00 20.00     0.036 C 
ENDBRANCH   3   4
TORSDOF 1
ENDMDL
MODEL 3
REMARK VINA RESULT:      -5.6      2.446      4.239
REMARK  1 active torsions:
REMARK  status: ('A' for Active; 'I' for Inactive)
REMARK    1  A    between atoms: C4_4  and  C8_8 
ROOT
HETATM    1  C1  UNL     1     -34.767   4.870   5.769  1.00 20.00     0.012 C 
HETATM    2  C2  UNL     1     -34.249   5.950   5.687  1.00 20.00    -0.113 C 
HETATM    3  C8  UNL     1     -33.618   7.270   5.595  1.00 20.00     0.126 C 
ENDROOT
BRANCH   3   4
HETATM    4  C4  UNL     1     -33.076   7.484   4.228  1.00 20.00    -0.071 C 
HETATM    5  C3  UNL     1     -32.027   8.243   3.886  1.00 20.00    -0.003 C 
HETATM    6  C7  UNL     1     -31.801   8.245   2.410  1.00 20.00     0.105 C 
HETATM    7  C6  UNL     1     -32.659   7.067   1.943  1.00 20.00     0.028 C 
HETATM    8 CL9  UNL     1     -32.364   9.783   1.720  1.00 20.00    -0.121 Cl
HETATM    9  C5  UNL     1     -33.717   6.859   3.029  1.00 20.00     0.036 C 
ENDBRANCH   3   4
TORSDOF 1
ENDMDL
MODEL 4
REMARK VINA RESULT:      -4.7      2.598      4.475
REMARK  1 active torsions:
REMARK  status: ('A' for Active; 'I' for Inactive)
REMARK    1  A    between atoms: C4_4  and  C8_8 
ROOT
HETATM    1  C1  UNL     1     -34.624   5.583   5.573  1.00 20.00     0.012 C 
HETATM    2  C2  UNL     1     -34.384   5.702   4.403  1.00 20.00    -0.113 C 
HETATM    3  C8  UNL     1     -34.095   5.842   2.973  1.00 20.00     0.126 C 
ENDROOT
BRANCH   3   4
HETATM    4  C4  UNL     1     -33.226   7.024   2.738  1.00 20.00    -0.071 C 
HETATM    5  C3  UNL     1     -33.416   8.000   1.841  1.00 20.00    -0.003 C 
HETATM    6  C7  UNL     1     -32.311   9.003   1.870  1.00 20.00     0.105 C 
HETATM    7  C6  UNL     1     -31.604   8.678   3.188  1.00 20.00     0.028 C 
HETATM    8 CL9  UNL     1     -31.241   8.758   0.473  1.00 20.00    -0.121 Cl
HETATM    9  C5  UNL     1     -31.959   7.224   3.510  1.00 20.00     0.036 C 
ENDBRANCH   3   4
TORSDOF 1
ENDMDL
MODEL 5
REMARK VINA RESULT:      -4.3     11.043     11.642
REMARK  1 active torsions:
REMARK  status: ('A' for Active; 'I' for Inactive)
REMARK    1  A    between atoms: C4_4  and  C8_8 
ROOT
HETATM    1  C1  UNL     1     -35.393  17.084  -0.969  1.00 20.00     0.012 C 
HETATM    2  C2  UNL     1     -34.810  16.690  -1.943  1.00 20.00    -0.113 C 
HETATM    3  C8  UNL     1     -34.093  16.213  -3.128  1.00 20.00     0.126 C 
ENDROOT
BRANCH   3   4
HETATM    4  C4  UNL     1     -34.964  15.312  -3.927  1.00 20.00    -0.071 C 
HETATM    5  C3  UNL     1     -34.698  14.054  -4.299  1.00 20.00    -0.003 C 
HETATM    6  C7  UNL     1     -35.798  13.476  -5.128  1.00 20.00     0.105 C 
HETATM    7  C6  UNL     1     -36.944  14.463  -4.890  1.00 20.00     0.028 C 
HETATM    8 CL9  UNL     1     -35.306  13.440  -6.835  1.00 20.00    -0.121 Cl
HETATM    9  C5  UNL     1     -36.287  15.774  -4.452  1.00 20.00     0.036 C 
ENDBRANCH   3   4
TORSDOF 1
ENDMDL
MODEL 6
REMARK VINA RESULT:      -4.2     11.579     11.885
REMARK  1 active torsions:
REMARK  status: ('A' for Active; 'I' for Inactive)
REMARK    1  A    between atoms: C4_4  and  C8_8 
ROOT
HETATM    1  C1  UNL     1     -32.735  18.085  -1.319  1.00 20.00     0.012 C 
HETATM    2  C2  UNL     1     -33.720  17.454  -1.591  1.00 20.00    -0.113 C 
HETATM    3  C8  UNL     1     -34.926  16.688  -1.917  1.00 20.00     0.126 C 
ENDROOT
BRANCH   3   4
HETATM    4  C4  UNL     1     -34.711  15.896  -3.156  1.00 20.00    -0.071 C 
HETATM    5  C3  UNL     1     -33.537  15.532  -3.688  1.00 20.00    -0.003 C 
HETATM    6  C7  UNL     1     -33.716  14.773  -4.960  1.00 20.00     0.105 C 
HETATM    7  C6  UNL     1     -35.203  14.413  -4.925  1.00 20.00     0.028 C 
HETATM    8 CL9  UNL     1     -33.326  15.819  -6.343  1.00 20.00    -0.121 Cl
HETATM    9  C5  UNL     1     -35.862  15.435  -3.995  1.00 20.00     0.036 C 
ENDBRANCH   3   4
TORSDOF 1
ENDMDL
MODEL 7
REMARK VINA RESULT:      -4.2     11.214     11.718
REMARK  1 active torsions:
REMARK  status: ('A' for Active; 'I' for Inactive)
REMARK    1  A    between atoms: C4_4  and  C8_8 
ROOT
HETATM    1  C1  UNL     1     -32.794  18.059  -1.348  1.00 20.00     0.012 C 
HETATM    2  C2  UNL     1     -33.790  17.420  -1.550  1.00 20.00    -0.113 C 
HETATM    3  C8  UNL     1     -35.009  16.642  -1.789  1.00 20.00     0.126 C 
ENDROOT
BRANCH   3   4
HETATM    4  C4  UNL     1     -34.961  16.014  -3.135  1.00 20.00    -0.071 C 
HETATM    5  C3  UNL     1     -35.997  15.755  -3.942  1.00 20.00    -0.003 C 
HETATM    6  C7  UNL     1     -35.564  15.082  -5.203  1.00 20.00     0.105 C 
HETATM    7  C6  UNL     1     -34.050  15.306  -5.194  1.00 20.00     0.028 C 
HETATM    8 CL9  UNL     1     -35.971  13.354  -5.130  1.00 20.00    -0.121 Cl
HETATM    9  C5  UNL     1     -33.668  15.552  -3.732  1.00 20.00     0.036 C 
ENDBRANCH   3   4
TORSDOF 1
ENDMDL
MODEL 8
REMARK VINA RESULT:      -4.0      2.948      4.637
REMARK  1 active torsions:
REMARK  status: ('A' for Active; 'I' for Inactive)
REMARK    1  A    between atoms: C4_4  and  C8_8 
ROOT
HETATM    1  C1  UNL     1     -33.672   5.089   2.975  1.00 20.00     0.012 C 
HETATM    2  C2  UNL     1     -33.382   6.221   3.252  1.00 20.00    -0.113 C 
HETATM    3  C8  UNL     1     -33.030   7.601   3.598  1.00 20.00     0.126 C 
ENDROOT
BRANCH   3   4
HETATM    4  C4  UNL     1     -32.599   8.340   2.384  1.00 20.00    -0.071 C 
HETATM    5  C3  UNL     1     -33.087   9.502   1.930  1.00 20.00    -0.003 C 
HETATM    6  C7  UNL     1     -32.429   9.920   0.657  1.00 20.00     0.105 C 
HETATM    7  C6  UNL     1     -31.202   9.008   0.602  1.00 20.00     0.028 C 
HETATM    8 CL9  UNL     1     -33.527   9.625  -0.710  1.00 20.00    -0.121 Cl
HETATM    9  C5  UNL     1     -31.536   7.798   1.479  1.00 20.00     0.036 C 
ENDBRANCH   3   4
TORSDOF 1
ENDMDL
MODEL 9
REMARK VINA RESULT:      -3.9     11.481     11.807
REMARK  1 active torsions:
REMARK  status: ('A' for Active; 'I' for Inactive)
REMARK    1  A    between atoms: C4_4  and  C8_8 
ROOT
HETATM    1  C1  UNL     1     -35.752  13.686  -4.941  1.00 20.00     0.012 C 
HETATM    2  C2  UNL     1     -34.895  14.401  -4.497  1.00 20.00    -0.113 C 
HETATM    3  C8  UNL     1     -33.844  15.269  -3.959  1.00 20.00     0.126 C 
ENDROOT
BRANCH   3   4
HETATM    4  C4  UNL     1     -34.405  16.168  -2.917  1.00 20.00    -0.071 C 
HETATM    5  C3  UNL     1     -35.697  16.337  -2.607  1.00 20.00    -0.003 C 
HETATM    6  C7  UNL     1     -35.880  17.353  -1.529  1.00 20.00     0.105 C 
HETATM    7  C6  UNL     1     -34.462  17.506  -0.974  1.00 20.00     0.028 C 
HETATM    8 CL9  UNL     1     -36.478  18.872  -2.231  1.00 20.00    -0.121 Cl
HETATM    9  C5  UNL     1     -33.520  17.048  -2.091  1.00 20.00     0.036 C 
ENDBRANCH   3   4
TORSDOF 1
ENDMDL
