MODEL 1
REMARK VINA RESULT:      -6.7      0.000      0.000
REMARK  1 active torsions:
REMARK  status: ('A' for Active; 'I' for Inactive)
REMARK    1  A    between atoms: C2_2  and  C11_11 
ROOT
HETATM    1  C1  UNL     1     -32.960   7.765   4.303  1.00 20.00     0.053 C 
HETATM    2  C2  UNL     1     -32.627   7.624   3.011  1.00 20.00    -0.072 C 
HETATM    3  C3  UNL     1     -33.882   6.801   4.956  1.00 20.00     0.149 C 
HETATM    4  C4  UNL     1     -33.099   6.469   2.165  1.00 20.00     0.035 C 
HETATM    5  C5  UNL     1     -34.509   5.718   4.109  1.00 20.00     0.083 C 
HETATM    6  C6  UNL     1     -33.565   5.281   3.002  1.00 20.00     0.012 C 
HETATM    7  O12 UNL     1     -34.166   6.938   6.144  1.00 20.00    -0.293 OA
ENDROOT
BRANCH   2   8
HETATM    8  C11 UNL     1     -31.742   8.639   2.310  1.00 20.00     0.014 C 
HETATM    9  C9  UNL     1     -32.406  10.014   2.374  1.00 20.00     0.009 C 
HETATM   10  C7  UNL     1     -32.584  10.455   0.924  1.00 20.00     0.001 C 
HETATM   11  C8  UNL     1     -32.683   9.154   0.149  1.00 20.00     0.001 C 
HETATM   12  C10 UNL     1     -31.653   8.267   0.833  1.00 20.00     0.009 C 
ENDBRANCH   2   8
TORSDOF 1
ENDMDL
MODEL 2
REMARK VINA RESULT:      -5.7      2.173      4.825
REMARK  1 active torsions:
REMARK  status: ('A' for Active; 'I' for Inactive)
REMARK    1  A    between atoms: C2_2  and  C11_11 
ROOT
HETATM    1  C1  UNL     1     -33.667   7.693   2.345  1.00 20.00     0.053 C 
HETATM    2  C2  UNL     1     -33.620   7.467   3.666  1.00 20.00    -0.072 C 
HETATM    3  C3  UNL     1     -32.586   8.453   1.668  1.00 20.00     0.149 C 
HETATM    4  C4  UNL     1     -32.462   7.899   4.530  1.00 20.00     0.035 C 
HETATM    5  C5  UNL     1     -31.484   9.045   2.515  1.00 20.00     0.083 C 
HETATM    6  C6  UNL     1     -31.196   8.168   3.722  1.00 20.00     0.012 C 
HETATM    7  O12 UNL     1     -32.638   8.639   0.454  1.00 20.00    -0.293 OA
ENDROOT
BRANCH   2   8
HETATM    8  C11 UNL     1     -34.751   6.754   4.384  1.00 20.00     0.014 C 
HETATM    9  C9  UNL     1     -34.276   6.330   5.773  1.00 20.00     0.009 C 
HETATM   10  C7  UNL     1     -34.444   4.814   5.823  1.00 20.00     0.001 C 
HETATM   11  C8  UNL     1     -34.325   4.379   4.374  1.00 20.00     0.001 C 
HETATM   12  C10 UNL     1     -35.076   5.471   3.625  1.00 20.00     0.009 C 
ENDBRANCH   2   8
TORSDOF 1
ENDMDL
MODEL 3
REMARK VINA RESULT:      -5.6      1.384      2.120
REMARK  1 active torsions:
REMARK  status: ('A' for Active; 'I' for Inactive)
REMARK    1  A    between atoms: C2_2  and  C11_11 
ROOT
HETATM    1  C1  UNL     1     -33.700   5.805   3.306  1.00 20.00     0.053 C 
HETATM    2  C2  UNL     1     -32.977   6.925   3.454  1.00 20.00    -0.072 C 
HETATM    3  C3  UNL     1     -34.418   5.209   4.462  1.00 20.00     0.149 C 
HETATM    4  C4  UNL     1     -32.896   7.682   4.755  1.00 20.00     0.035 C 
HETATM    5  C5  UNL     1     -34.238   5.840   5.823  1.00 20.00     0.083 C 
HETATM    6  C6  UNL     1     -34.043   7.342   5.703  1.00 20.00     0.012 C 
HETATM    7  O12 UNL     1     -35.086   4.189   4.306  1.00 20.00    -0.293 OA
ENDROOT
BRANCH   2   8
HETATM    8  C11 UNL     1     -32.181   7.506   2.300  1.00 20.00     0.014 C 
HETATM    9  C9  UNL     1     -31.507   8.799   2.756  1.00 20.00     0.009 C 
HETATM   10  C7  UNL     1     -32.020   9.888   1.818  1.00 20.00     0.001 C 
HETATM   11  C8  UNL     1     -33.381   9.384   1.374  1.00 20.00     0.001 C 
HETATM   12  C10 UNL     1     -33.150   7.891   1.186  1.00 20.00     0.009 C 
ENDBRANCH   2   8
TORSDOF 1
ENDMDL
MODEL 4
REMARK VINA RESULT:      -5.4     10.106     11.010
REMARK  1 active torsions:
REMARK  status: ('A' for Active; 'I' for Inactive)
REMARK    1  A    between atoms: C2_2  and  C11_11 
ROOT
HETATM    1  C1  UNL     1     -33.219  17.429  -2.354  1.00 20.00     0.053 C 
HETATM    2  C2  UNL     1     -34.447  17.023  -2.706  1.00 20.00    -0.072 C 
HETATM    3  C3  UNL     1     -32.981  18.061  -1.032  1.00 20.00     0.149 C 
HETATM    4  C4  UNL     1     -35.636  17.112  -1.782  1.00 20.00     0.035 C 
HETATM    5  C5  UNL     1     -34.167  18.319  -0.133  1.00 20.00     0.083 C 
HETATM    6  C6  UNL     1     -35.230  17.248  -0.317  1.00 20.00     0.012 C 
HETATM    7  O12 UNL     1     -31.845  18.416  -0.721  1.00 20.00    -0.293 OA
ENDROOT
BRANCH   2   8
HETATM    8  C11 UNL     1     -34.722  16.440  -4.081  1.00 20.00     0.014 C 
HETATM    9  C9  UNL     1     -35.720  15.292  -3.950  1.00 20.00     0.009 C 
HETATM   10  C7  UNL     1     -35.017  14.064  -4.521  1.00 20.00     0.001 C 
HETATM   11  C8  UNL     1     -33.541  14.348  -4.306  1.00 20.00     0.001 C 
HETATM   12  C10 UNL     1     -33.429  15.834  -4.618  1.00 20.00     0.009 C 
ENDBRANCH   2   8
TORSDOF 1
ENDMDL
MODEL 5
REMARK VINA RESULT:      -5.3      9.854     10.959
REMARK  1 active torsions:
REMARK  status: ('A' for Active; 'I' for Inactive)
REMARK    1  A    between atoms: C2_2  and  C11_11 
ROOT
HETATM    1  C1  UNL     1     -36.622  15.702  -3.924  1.00 20.00     0.053 C 
HETATM    2  C2  UNL     1     -35.364  16.078  -3.653  1.00 20.00    -0.072 C 
HETATM    3  C3  UNL     1     -36.895  14.429  -4.638  1.00 20.00     0.149 C 
HETATM    4  C4  UNL     1     -34.165  15.226  -3.985  1.00 20.00     0.035 C 
HETATM    5  C5  UNL     1     -35.721  13.617  -5.134  1.00 20.00     0.083 C 
HETATM    6  C6  UNL     1     -34.530  13.760  -4.202  1.00 20.00     0.012 C 
HETATM    7  O12 UNL     1     -38.055  14.094  -4.866  1.00 20.00    -0.293 OA
ENDROOT
BRANCH   2   8
HETATM    8  C11 UNL     1     -35.064  17.409  -2.987  1.00 20.00     0.014 C 
HETATM    9  C9  UNL     1     -33.699  17.334  -2.305  1.00 20.00     0.009 C 
HETATM   10  C7  UNL     1     -33.956  17.636  -0.831  1.00 20.00     0.001 C 
HETATM   11  C8  UNL     1     -35.391  17.196  -0.606  1.00 20.00     0.001 C 
HETATM   12  C10 UNL     1     -36.091  17.641  -1.882  1.00 20.00     0.009 C 
ENDBRANCH   2   8
TORSDOF 1
ENDMDL
MODEL 6
REMARK VINA RESULT:      -5.2     10.501     11.266
REMARK  1 active torsions:
REMARK  status: ('A' for Active; 'I' for Inactive)
REMARK    1  A    between atoms: C2_2  and  C11_11 
ROOT
HETATM    1  C1  UNL     1     -32.320  18.798   0.465  1.00 20.00     0.053 C 
HETATM    2  C2  UNL     1     -33.648  18.638   0.546  1.00 20.00    -0.072 C 
HETATM    3  C3  UNL     1     -31.494  18.907   1.694  1.00 20.00     0.149 C 
HETATM    4  C4  UNL     1     -34.377  18.492   1.858  1.00 20.00     0.035 C 
HETATM    5  C5  UNL     1     -32.195  18.929   3.032  1.00 20.00     0.083 C 
HETATM    6  C6  UNL     1     -33.453  18.077   2.999  1.00 20.00     0.012 C 
HETATM    7  O12 UNL     1     -30.275  19.041   1.601  1.00 20.00    -0.293 OA
ENDROOT
BRANCH   2   8
HETATM    8  C11 UNL     1     -34.515  18.595  -0.700  1.00 20.00     0.014 C 
HETATM    9  C9  UNL     1     -35.399  17.350  -0.655  1.00 20.00     0.009 C 
HETATM   10  C7  UNL     1     -35.059  16.555  -1.912  1.00 20.00     0.001 C 
HETATM   11  C8  UNL     1     -33.629  16.951  -2.227  1.00 20.00     0.001 C 
HETATM   12  C10 UNL     1     -33.608  18.441  -1.917  1.00 20.00     0.009 C 
ENDBRANCH   2   8
TORSDOF 1
ENDMDL
MODEL 7
REMARK VINA RESULT:      -5.2     10.135     11.350
REMARK  1 active torsions:
REMARK  status: ('A' for Active; 'I' for Inactive)
REMARK    1  A    between atoms: C2_2  and  C11_11 
ROOT
HETATM    1  C1  UNL     1     -34.645  14.756  -3.827  1.00 20.00     0.053 C 
HETATM    2  C2  UNL     1     -33.976  15.918  -3.834  1.00 20.00    -0.072 C 
HETATM    3  C3  UNL     1     -34.945  14.048  -5.098  1.00 20.00     0.149 C 
HETATM    4  C4  UNL     1     -33.432  16.543  -5.093  1.00 20.00     0.035 C 
HETATM    5  C5  UNL     1     -34.563  14.713  -6.399  1.00 20.00     0.083 C 
HETATM    6  C6  UNL     1     -33.298  15.540  -6.235  1.00 20.00     0.012 C 
HETATM    7  O12 UNL     1     -35.549  12.977  -5.072  1.00 20.00    -0.293 OA
ENDROOT
BRANCH   2   8
HETATM    8  C11 UNL     1     -33.723  16.689  -2.551  1.00 20.00     0.014 C 
HETATM    9  C9  UNL     1     -35.002  16.708  -1.715  1.00 20.00     0.009 C 
HETATM   10  C7  UNL     1     -35.344  18.181  -1.515  1.00 20.00     0.001 C 
HETATM   11  C8  UNL     1     -34.738  18.871  -2.723  1.00 20.00     0.001 C 
HETATM   12  C10 UNL     1     -33.416  18.140  -2.909  1.00 20.00     0.009 C 
ENDBRANCH   2   8
TORSDOF 1
ENDMDL
MODEL 8
REMARK VINA RESULT:      -5.0     10.000     10.921
REMARK  1 active torsions:
REMARK  status: ('A' for Active; 'I' for Inactive)
REMARK    1  A    between atoms: C2_2  and  C11_11 
ROOT
HETATM    1  C1  UNL     1     -33.809  15.718  -3.502  1.00 20.00     0.053 C 
HETATM    2  C2  UNL     1     -34.914  16.434  -3.248  1.00 20.00    -0.072 C 
HETATM    3  C3  UNL     1     -33.899  14.407  -4.193  1.00 20.00     0.149 C 
HETATM    4  C4  UNL     1     -36.289  16.003  -3.693  1.00 20.00     0.035 C 
HETATM    5  C5  UNL     1     -35.268  13.856  -4.516  1.00 20.00     0.083 C 
HETATM    6  C6  UNL     1     -36.245  14.978  -4.823  1.00 20.00     0.012 C 
HETATM    7  O12 UNL     1     -32.874  13.770  -4.429  1.00 20.00    -0.293 OA
ENDROOT
BRANCH   2   8
HETATM    8  C11 UNL     1     -34.848  17.742  -2.481  1.00 20.00     0.014 C 
HETATM    9  C9  UNL     1     -33.611  17.736  -1.583  1.00 20.00     0.009 C 
HETATM   10  C7  UNL     1     -34.131  17.927  -0.161  1.00 20.00     0.001 C 
HETATM   11  C8  UNL     1     -35.538  17.361  -0.201  1.00 20.00     0.001 C 
HETATM   12  C10 UNL     1     -36.057  17.824  -1.554  1.00 20.00     0.009 C 
ENDBRANCH   2   8
TORSDOF 1
ENDMDL
MODEL 9
REMARK VINA RESULT:      -5.0     10.460     11.117
REMARK  1 active torsions:
REMARK  status: ('A' for Active; 'I' for Inactive)
REMARK    1  A    between atoms: C2_2  and  C11_11 
ROOT
HETATM    1  C1  UNL     1     -35.533  16.972  -1.169  1.00 20.00     0.053 C 
HETATM    2  C2  UNL     1     -34.522  16.775  -2.028  1.00 20.00    -0.072 C 
HETATM    3  C3  UNL     1     -35.333  17.775   0.064  1.00 20.00     0.149 C 
HETATM    4  C4  UNL     1     -33.159  17.394  -1.844  1.00 20.00     0.035 C 
HETATM    5  C5  UNL     1     -33.944  18.283   0.375  1.00 20.00     0.083 C 
HETATM    6  C6  UNL     1     -33.182  18.595  -0.902  1.00 20.00     0.012 C 
HETATM    7  O12 UNL     1     -36.274  17.956   0.834  1.00 20.00    -0.293 OA
ENDROOT
BRANCH   2   8
HETATM    8  C11 UNL     1     -34.690  15.900  -3.256  1.00 20.00     0.014 C 
HETATM    9  C9  UNL     1     -33.328  15.693  -3.917  1.00 20.00     0.009 C 
HETATM   10  C7  UNL     1     -33.472  16.224  -5.339  1.00 20.00     0.001 C 
HETATM   11  C8  UNL     1     -34.563  17.275  -5.235  1.00 20.00     0.001 C 
HETATM   12  C10 UNL     1     -35.555  16.644  -4.268  1.00 20.00     0.009 C 
ENDBRANCH   2   8
TORSDOF 1
ENDMDL
