MODEL 1
REMARK VINA RESULT:      -5.5      0.000      0.000
REMARK  1 active torsions:
REMARK  status: ('A' for Active; 'I' for Inactive)
REMARK    1  A    between atoms: C2_2  and  C8_8 
ROOT
HETATM    1  C1  UNL     1     -33.590   7.095   4.681  1.00 20.00    -0.004 C 
HETATM    2  C2  UNL     1     -33.185   6.991   3.410  1.00 20.00    -0.079 C 
HETATM    3  C3  UNL     1     -34.023   6.014   2.644  1.00 20.00     0.036 C 
HETATM    4  C4  UNL     1     -35.232   5.824   3.563  1.00 20.00     0.028 C 
HETATM    5  C5  UNL     1     -34.759   6.210   4.966  1.00 20.00     0.105 C 
HETATM    6 CL9  UNL     1     -34.222   4.791   5.892  1.00 20.00    -0.121 Cl
ENDROOT
BRANCH   2   7
HETATM    7  C8  UNL     1     -32.040   7.691   2.774  1.00 20.00     0.006 C 
HETATM    8  C6  UNL     1     -32.521   8.611   1.651  1.00 20.00     0.014 C 
HETATM    9  C7  UNL     1     -31.233   8.486   3.805  1.00 20.00     0.014 C 
ENDBRANCH   2   7
TORSDOF 1
ENDMDL
MODEL 2
REMARK VINA RESULT:      -5.0      2.321      3.765
REMARK  1 active torsions:
REMARK  status: ('A' for Active; 'I' for Inactive)
REMARK    1  A    between atoms: C2_2  and  C8_8 
ROOT
HETATM    1  C1  UNL     1     -32.673   7.643   3.875  1.00 20.00    -0.004 C 
HETATM    2  C2  UNL     1     -33.665   6.752   3.992  1.00 20.00    -0.079 C 
HETATM    3  C3  UNL     1     -33.924   6.044   2.698  1.00 20.00     0.036 C 
HETATM    4  C4  UNL     1     -32.679   6.389   1.878  1.00 20.00     0.028 C 
HETATM    5  C5  UNL     1     -32.113   7.672   2.491  1.00 20.00     0.105 C 
HETATM    6 CL9  UNL     1     -32.696   9.119   1.640  1.00 20.00    -0.121 Cl
ENDROOT
BRANCH   2   7
HETATM    7  C8  UNL     1     -34.477   6.470   5.203  1.00 20.00     0.006 C 
HETATM    8  C6  UNL     1     -34.553   4.964   5.467  1.00 20.00     0.014 C 
HETATM    9  C7  UNL     1     -33.918   7.198   6.429  1.00 20.00     0.014 C 
ENDBRANCH   2   7
TORSDOF 1
ENDMDL
MODEL 3
REMARK VINA RESULT:      -4.6      1.223      1.793
REMARK  1 active torsions:
REMARK  status: ('A' for Active; 'I' for Inactive)
REMARK    1  A    between atoms: C2_2  and  C8_8 
ROOT
HETATM    1  C1  UNL     1     -33.750   6.001   2.952  1.00 20.00    -0.004 C 
HETATM    2  C2  UNL     1     -33.037   7.024   3.439  1.00 20.00    -0.079 C 
HETATM    3  C3  UNL     1     -33.476   7.390   4.823  1.00 20.00     0.036 C 
HETATM    4  C4  UNL     1     -34.319   6.181   5.234  1.00 20.00     0.028 C 
HETATM    5  C5  UNL     1     -34.773   5.521   3.929  1.00 20.00     0.105 C 
HETATM    6 CL9  UNL     1     -36.383   6.087   3.434  1.00 20.00    -0.121 Cl
ENDROOT
BRANCH   2   7
HETATM    7  C8  UNL     1     -31.961   7.776   2.746  1.00 20.00     0.006 C 
HETATM    8  C6  UNL     1     -32.547   8.708   1.684  1.00 20.00     0.014 C 
HETATM    9  C7  UNL     1     -31.109   8.571   3.740  1.00 20.00     0.014 C 
ENDBRANCH   2   7
TORSDOF 1
ENDMDL
MODEL 4
REMARK VINA RESULT:      -4.5      2.598      4.222
REMARK  1 active torsions:
REMARK  status: ('A' for Active; 'I' for Inactive)
REMARK    1  A    between atoms: C2_2  and  C8_8 
ROOT
HETATM    1  C1  UNL     1     -33.362   8.075   1.802  1.00 20.00    -0.004 C 
HETATM    2  C2  UNL     1     -33.178   7.264   2.851  1.00 20.00    -0.079 C 
HETATM    3  C3  UNL     1     -31.948   7.633   3.621  1.00 20.00     0.036 C 
HETATM    4  C4  UNL     1     -31.624   9.027   3.080  1.00 20.00     0.028 C 
HETATM    5  C5  UNL     1     -32.290   9.110   1.704  1.00 20.00     0.105 C 
HETATM    6 CL9  UNL     1     -31.160   8.679   0.402  1.00 20.00    -0.121 Cl
ENDROOT
BRANCH   2   7
HETATM    7  C8  UNL     1     -34.019   6.106   3.247  1.00 20.00     0.006 C 
HETATM    8  C6  UNL     1     -33.322   4.787   2.904  1.00 20.00     0.014 C 
HETATM    9  C7  UNL     1     -34.365   6.153   4.738  1.00 20.00     0.014 C 
ENDBRANCH   2   7
TORSDOF 1
ENDMDL
MODEL 5
REMARK VINA RESULT:      -4.4      2.435      3.938
REMARK  1 active torsions:
REMARK  status: ('A' for Active; 'I' for Inactive)
REMARK    1  A    between atoms: C2_2  and  C8_8 
ROOT
HETATM    1  C1  UNL     1     -32.102   8.062   3.616  1.00 20.00    -0.004 C 
HETATM    2  C2  UNL     1     -33.038   7.106   3.669  1.00 20.00    -0.079 C 
HETATM    3  C3  UNL     1     -33.540   6.752   2.304  1.00 20.00     0.036 C 
HETATM    4  C4  UNL     1     -32.489   7.387   1.390  1.00 20.00     0.028 C 
HETATM    5  C5  UNL     1     -31.830   8.496   2.213  1.00 20.00     0.105 C 
HETATM    6 CL9  UNL     1     -32.592  10.074   1.918  1.00 20.00    -0.121 Cl
ENDROOT
BRANCH   2   7
HETATM    7  C8  UNL     1     -33.587   6.457   4.886  1.00 20.00     0.006 C 
HETATM    8  C6  UNL     1     -33.801   7.484   6.000  1.00 20.00     0.014 C 
HETATM    9  C7  UNL     1     -34.895   5.720   4.582  1.00 20.00     0.014 C 
ENDBRANCH   2   7
TORSDOF 1
ENDMDL
MODEL 6
REMARK VINA RESULT:      -4.3      1.807      3.032
REMARK  1 active torsions:
REMARK  status: ('A' for Active; 'I' for Inactive)
REMARK    1  A    between atoms: C2_2  and  C8_8 
ROOT
HETATM    1  C1  UNL     1     -32.906   7.297   1.722  1.00 20.00    -0.004 C 
HETATM    2  C2  UNL     1     -32.345   8.508   1.825  1.00 20.00    -0.079 C 
HETATM    3  C3  UNL     1     -31.894   8.787   3.225  1.00 20.00     0.036 C 
HETATM    4  C4  UNL     1     -31.940   7.400   3.871  1.00 20.00     0.028 C 
HETATM    5  C5  UNL     1     -32.919   6.577   3.031  1.00 20.00     0.105 C 
HETATM    6 CL9  UNL     1     -34.559   6.609   3.714  1.00 20.00    -0.121 Cl
ENDROOT
BRANCH   2   7
HETATM    7  C8  UNL     1     -32.185   9.516   0.747  1.00 20.00     0.006 C 
HETATM    8  C6  UNL     1     -33.076   9.175  -0.450  1.00 20.00     0.014 C 
HETATM    9  C7  UNL     1     -32.494  10.927   1.255  1.00 20.00     0.014 C 
ENDBRANCH   2   7
TORSDOF 1
ENDMDL
MODEL 7
REMARK VINA RESULT:      -4.1     11.828     12.158
REMARK  1 active torsions:
REMARK  status: ('A' for Active; 'I' for Inactive)
REMARK    1  A    between atoms: C2_2  and  C8_8 
ROOT
HETATM    1  C1  UNL     1     -33.298  15.265  -4.159  1.00 20.00    -0.004 C 
HETATM    2  C2  UNL     1     -34.195  15.874  -3.374  1.00 20.00    -0.079 C 
HETATM    3  C3  UNL     1     -35.597  15.585  -3.814  1.00 20.00     0.036 C 
HETATM    4  C4  UNL     1     -35.407  14.403  -4.768  1.00 20.00     0.028 C 
HETATM    5  C5  UNL     1     -33.954  14.475  -5.244  1.00 20.00     0.105 C 
HETATM    6 CL9  UNL     1     -33.812  15.345  -6.787  1.00 20.00    -0.121 Cl
ENDROOT
BRANCH   2   7
HETATM    7  C8  UNL     1     -33.916  16.766  -2.220  1.00 20.00     0.006 C 
HETATM    8  C6  UNL     1     -33.360  18.110  -2.695  1.00 20.00     0.014 C 
HETATM    9  C7  UNL     1     -35.170  16.980  -1.367  1.00 20.00     0.014 C 
ENDBRANCH   2   7
TORSDOF 1
ENDMDL
MODEL 8
REMARK VINA RESULT:      -4.1      2.206      3.871
REMARK  1 active torsions:
REMARK  status: ('A' for Active; 'I' for Inactive)
REMARK    1  A    between atoms: C2_2  and  C8_8 
ROOT
HETATM    1  C1  UNL     1     -32.939   6.144   2.913  1.00 20.00    -0.004 C 
HETATM    2  C2  UNL     1     -33.958   6.129   3.782  1.00 20.00    -0.079 C 
HETATM    3  C3  UNL     1     -34.413   7.514   4.120  1.00 20.00     0.036 C 
HETATM    4  C4  UNL     1     -33.747   8.357   3.030  1.00 20.00     0.028 C 
HETATM    5  C5  UNL     1     -32.554   7.537   2.533  1.00 20.00     0.105 C 
HETATM    6 CL9  UNL     1     -31.052   7.990   3.369  1.00 20.00    -0.121 Cl
ENDROOT
BRANCH   2   7
HETATM    7  C8  UNL     1     -34.586   4.936   4.403  1.00 20.00     0.006 C 
HETATM    8  C6  UNL     1     -33.848   3.659   3.996  1.00 20.00     0.014 C 
HETATM    9  C7  UNL     1     -34.630   5.062   5.929  1.00 20.00     0.014 C 
ENDBRANCH   2   7
TORSDOF 1
ENDMDL
MODEL 9
REMARK VINA RESULT:      -4.0     11.657     12.058
REMARK  1 active torsions:
REMARK  status: ('A' for Active; 'I' for Inactive)
REMARK    1  A    between atoms: C2_2  and  C8_8 
ROOT
HETATM    1  C1  UNL     1     -33.331  15.792  -3.758  1.00 20.00    -0.004 C 
HETATM    2  C2  UNL     1     -34.426  16.279  -3.162  1.00 20.00    -0.079 C 
HETATM    3  C3  UNL     1     -35.669  15.619  -3.673  1.00 20.00     0.036 C 
HETATM    4  C4  UNL     1     -35.116  14.394  -4.405  1.00 20.00     0.028 C 
HETATM    5  C5  UNL     1     -33.665  14.732  -4.756  1.00 20.00     0.105 C 
HETATM    6 CL9  UNL     1     -33.524  15.394  -6.399  1.00 20.00    -0.121 Cl
ENDROOT
BRANCH   2   7
HETATM    7  C8  UNL     1     -34.487  17.360  -2.146  1.00 20.00     0.006 C 
HETATM    8  C6  UNL     1     -35.436  16.980  -1.007  1.00 20.00     0.014 C 
HETATM    9  C7  UNL     1     -33.096  17.683  -1.594  1.00 20.00     0.014 C 
ENDBRANCH   2   7
TORSDOF 1
ENDMDL
