MODEL 1
REMARK VINA RESULT:      -5.3      0.000      0.000
REMARK  1 active torsions:
REMARK  status: ('A' for Active; 'I' for Inactive)
REMARK    1  A    between atoms: C4_4  and  C6_6 
ROOT
HETATM    1  C5  UNL     1     -33.330   7.831   2.048  1.00 20.00     0.001 C 
HETATM    2  C6  UNL     1     -32.999   7.283   3.229  1.00 20.00    -0.048 C 
HETATM    3  C7  UNL     1     -31.789   7.967   3.802  1.00 20.00     0.041 C 
HETATM    4  C8  UNL     1     -31.706   9.256   2.983  1.00 20.00     0.028 C 
HETATM    5  C9  UNL     1     -32.417   8.951   1.666  1.00 20.00     0.106 C 
HETATM    6 CL11 UNL     1     -31.282   8.397   0.416  1.00 20.00    -0.121 Cl
ENDROOT
BRANCH   2   7
HETATM    7  C4  UNL     1     -33.660   6.148   3.896  1.00 20.00    -0.006 A 
HETATM    8  C1  UNL     1     -34.321   6.131   5.147  1.00 20.00     0.038 A 
HETATM    9  C2  UNL     1     -34.767   4.842   5.325  1.00 20.00     0.142 A 
HETATM   10  O10 UNL     1     -34.423   4.066   4.264  1.00 20.00    -0.334 OA
HETATM   11  C3  UNL     1     -33.749   4.869   3.398  1.00 20.00     0.153 A 
ENDBRANCH   2   7
TORSDOF 1
ENDMDL
MODEL 2
REMARK VINA RESULT:      -5.1      1.515      1.811
REMARK  1 active torsions:
REMARK  status: ('A' for Active; 'I' for Inactive)
REMARK    1  A    between atoms: C4_4  and  C6_6 
ROOT
HETATM    1  C5  UNL     1     -33.478   9.078   2.193  1.00 20.00     0.001 C 
HETATM    2  C6  UNL     1     -33.014   7.935   2.726  1.00 20.00    -0.048 C 
HETATM    3  C7  UNL     1     -31.726   7.534   2.061  1.00 20.00     0.041 C 
HETATM    4  C8  UNL     1     -31.297   8.817   1.348  1.00 20.00     0.028 C 
HETATM    5  C9  UNL     1     -32.582   9.610   1.122  1.00 20.00     0.106 C 
HETATM    6 CL11 UNL     1     -33.292   9.277  -0.472  1.00 20.00    -0.121 Cl
ENDROOT
BRANCH   2   7
HETATM    7  C4  UNL     1     -33.650   7.125   3.779  1.00 20.00    -0.006 A 
HETATM    8  C1  UNL     1     -34.488   5.995   3.629  1.00 20.00     0.038 A 
HETATM    9  C2  UNL     1     -34.824   5.597   4.902  1.00 20.00     0.142 A 
HETATM   10  O10 UNL     1     -34.245   6.409   5.825  1.00 20.00    -0.334 OA
HETATM   11  C3  UNL     1     -33.532   7.337   5.133  1.00 20.00     0.153 A 
ENDBRANCH   2   7
TORSDOF 1
ENDMDL
MODEL 3
REMARK VINA RESULT:      -5.1      3.061      4.851
REMARK  1 active torsions:
REMARK  status: ('A' for Active; 'I' for Inactive)
REMARK    1  A    between atoms: C4_4  and  C6_6 
ROOT
HETATM    1  C5  UNL     1     -34.543   6.461   3.892  1.00 20.00     0.001 C 
HETATM    2  C6  UNL     1     -33.417   6.467   3.159  1.00 20.00    -0.048 C 
HETATM    3  C7  UNL     1     -32.864   5.075   3.038  1.00 20.00     0.041 C 
HETATM    4  C8  UNL     1     -34.046   4.201   3.462  1.00 20.00     0.028 C 
HETATM    5  C9  UNL     1     -34.913   5.088   4.352  1.00 20.00     0.106 C 
HETATM    6 CL11 UNL     1     -34.501   4.902   6.071  1.00 20.00    -0.121 Cl
ENDROOT
BRANCH   2   7
HETATM    7  C4  UNL     1     -32.749   7.641   2.570  1.00 20.00    -0.006 A 
HETATM    8  C1  UNL     1     -33.028   8.284   1.341  1.00 20.00     0.038 A 
HETATM    9  C2  UNL     1     -32.134   9.324   1.243  1.00 20.00     0.142 A 
HETATM   10  O10 UNL     1     -31.323   9.362   2.333  1.00 20.00    -0.334 OA
HETATM   11  C3  UNL     1     -31.704   8.334   3.136  1.00 20.00     0.153 A 
ENDBRANCH   2   7
TORSDOF 1
ENDMDL
MODEL 4
REMARK VINA RESULT:      -4.7     11.268     11.733
REMARK  1 active torsions:
REMARK  status: ('A' for Active; 'I' for Inactive)
REMARK    1  A    between atoms: C4_4  and  C6_6 
ROOT
HETATM    1  C5  UNL     1     -33.322  17.702  -2.750  1.00 20.00     0.001 C 
HETATM    2  C6  UNL     1     -34.210  16.697  -2.654  1.00 20.00    -0.048 C 
HETATM    3  C7  UNL     1     -35.009  16.825  -1.387  1.00 20.00     0.041 C 
HETATM    4  C8  UNL     1     -34.741  18.269  -0.960  1.00 20.00     0.028 C 
HETATM    5  C9  UNL     1     -33.401  18.642  -1.592  1.00 20.00     0.106 C 
HETATM    6 CL11 UNL     1     -32.044  18.342  -0.485  1.00 20.00    -0.121 Cl
ENDROOT
BRANCH   2   7
HETATM    7  C4  UNL     1     -34.391  15.580  -3.598  1.00 20.00    -0.006 A 
HETATM    8  C1  UNL     1     -35.601  15.029  -4.082  1.00 20.00     0.038 A 
HETATM    9  C2  UNL     1     -35.242  14.010  -4.933  1.00 20.00     0.142 A 
HETATM   10  O10 UNL     1     -33.890  13.901  -5.005  1.00 20.00    -0.334 OA
HETATM   11  C3  UNL     1     -33.379  14.861  -4.189  1.00 20.00     0.153 A 
ENDBRANCH   2   7
TORSDOF 1
ENDMDL
MODEL 5
REMARK VINA RESULT:      -4.7     11.566     11.860
REMARK  1 active torsions:
REMARK  status: ('A' for Active; 'I' for Inactive)
REMARK    1  A    between atoms: C4_4  and  C6_6 
ROOT
HETATM    1  C5  UNL     1     -33.423  15.292  -4.036  1.00 20.00     0.001 C 
HETATM    2  C6  UNL     1     -34.436  15.839  -3.344  1.00 20.00    -0.048 C 
HETATM    3  C7  UNL     1     -35.754  15.474  -3.968  1.00 20.00     0.041 C 
HETATM    4  C8  UNL     1     -35.384  14.304  -4.882  1.00 20.00     0.028 C 
HETATM    5  C9  UNL     1     -33.901  14.483  -5.197  1.00 20.00     0.106 C 
HETATM    6 CL11 UNL     1     -33.652  15.393  -6.704  1.00 20.00    -0.121 Cl
ENDROOT
BRANCH   2   7
HETATM    7  C4  UNL     1     -34.333  16.715  -2.163  1.00 20.00    -0.006 A 
HETATM    8  C1  UNL     1     -35.303  16.954  -1.161  1.00 20.00     0.038 A 
HETATM    9  C2  UNL     1     -34.731  17.843  -0.281  1.00 20.00     0.142 A 
HETATM   10  O10 UNL     1     -33.472  18.164  -0.677  1.00 20.00    -0.334 OA
HETATM   11  C3  UNL     1     -33.237  17.474  -1.823  1.00 20.00     0.153 A 
ENDBRANCH   2   7
TORSDOF 1
ENDMDL
MODEL 6
REMARK VINA RESULT:      -4.6     11.212     11.684
REMARK  1 active torsions:
REMARK  status: ('A' for Active; 'I' for Inactive)
REMARK    1  A    between atoms: C4_4  and  C6_6 
ROOT
HETATM    1  C5  UNL     1     -35.201  16.643  -1.545  1.00 20.00     0.001 C 
HETATM    2  C6  UNL     1     -34.574  16.327  -2.690  1.00 20.00    -0.048 C 
HETATM    3  C7  UNL     1     -33.380  17.218  -2.896  1.00 20.00     0.041 C 
HETATM    4  C8  UNL     1     -33.165  17.825  -1.508  1.00 20.00     0.028 C 
HETATM    5  C9  UNL     1     -34.527  17.761  -0.818  1.00 20.00     0.106 C 
HETATM    6 CL11 UNL     1     -35.450  19.263  -1.042  1.00 20.00    -0.121 Cl
ENDROOT
BRANCH   2   7
HETATM    7  C4  UNL     1     -34.975  15.299  -3.667  1.00 20.00    -0.006 A 
HETATM    8  C1  UNL     1     -36.252  15.078  -4.232  1.00 20.00     0.038 A 
HETATM    9  C2  UNL     1     -36.113  14.006  -5.082  1.00 20.00     0.142 A 
HETATM   10  O10 UNL     1     -34.831  13.555  -5.077  1.00 20.00    -0.334 OA
HETATM   11  C3  UNL     1     -34.144  14.348  -4.212  1.00 20.00     0.153 A 
ENDBRANCH   2   7
TORSDOF 1
ENDMDL
MODEL 7
REMARK VINA RESULT:      -4.6      3.098      4.768
REMARK  1 active torsions:
REMARK  status: ('A' for Active; 'I' for Inactive)
REMARK    1  A    between atoms: C4_4  and  C6_6 
ROOT
HETATM    1  C5  UNL     1     -33.324   6.303   2.951  1.00 20.00     0.001 C 
HETATM    2  C6  UNL     1     -33.094   7.621   3.066  1.00 20.00    -0.048 C 
HETATM    3  C7  UNL     1     -33.427   8.090   4.455  1.00 20.00     0.041 C 
HETATM    4  C8  UNL     1     -33.496   6.784   5.248  1.00 20.00     0.028 C 
HETATM    5  C9  UNL     1     -33.823   5.700   4.223  1.00 20.00     0.106 C 
HETATM    6 CL11 UNL     1     -35.572   5.411   4.103  1.00 20.00    -0.121 Cl
ENDROOT
BRANCH   2   7
HETATM    7  C4  UNL     1     -32.625   8.536   2.010  1.00 20.00    -0.006 A 
HETATM    8  C1  UNL     1     -33.184   9.773   1.611  1.00 20.00     0.038 A 
HETATM    9  C2  UNL     1     -32.388  10.239   0.591  1.00 20.00     0.142 A 
HETATM   10  O10 UNL     1     -31.376   9.369   0.338  1.00 20.00    -0.334 OA
HETATM   11  C3  UNL     1     -31.527   8.335   1.207  1.00 20.00     0.153 A 
ENDBRANCH   2   7
TORSDOF 1
ENDMDL
MODEL 8
REMARK VINA RESULT:      -4.6     11.378     11.805
REMARK  1 active torsions:
REMARK  status: ('A' for Active; 'I' for Inactive)
REMARK    1  A    between atoms: C4_4  and  C6_6 
ROOT
HETATM    1  C5  UNL     1     -35.562  15.805  -4.270  1.00 20.00     0.001 C 
HETATM    2  C6  UNL     1     -34.486  15.939  -3.476  1.00 20.00    -0.048 C 
HETATM    3  C7  UNL     1     -33.339  15.126  -4.009  1.00 20.00     0.041 C 
HETATM    4  C8  UNL     1     -33.774  14.824  -5.444  1.00 20.00     0.028 C 
HETATM    5  C9  UNL     1     -35.299  14.910  -5.437  1.00 20.00     0.106 C 
HETATM    6 CL11 UNL     1     -36.049  13.324  -5.156  1.00 20.00    -0.121 Cl
ENDROOT
BRANCH   2   7
HETATM    7  C4  UNL     1     -34.395  16.719  -2.230  1.00 20.00    -0.006 A 
HETATM    8  C1  UNL     1     -35.390  16.914  -1.243  1.00 20.00     0.038 A 
HETATM    9  C2  UNL     1     -34.821  17.715  -0.280  1.00 20.00     0.142 A 
HETATM   10  O10 UNL     1     -33.539  18.023  -0.611  1.00 20.00    -0.334 OA
HETATM   11  C3  UNL     1     -33.288  17.413  -1.799  1.00 20.00     0.153 A 
ENDBRANCH   2   7
TORSDOF 1
ENDMDL
MODEL 9
REMARK VINA RESULT:      -4.6     11.256     12.036
REMARK  1 active torsions:
REMARK  status: ('A' for Active; 'I' for Inactive)
REMARK    1  A    between atoms: C4_4  and  C6_6 
ROOT
HETATM    1  C5  UNL     1     -35.489  16.629  -1.908  1.00 20.00     0.001 C 
HETATM    2  C6  UNL     1     -34.319  16.591  -2.568  1.00 20.00    -0.048 C 
HETATM    3  C7  UNL     1     -33.325  17.516  -1.923  1.00 20.00     0.041 C 
HETATM    4  C8  UNL     1     -33.953  17.790  -0.556  1.00 20.00     0.028 C 
HETATM    5  C9  UNL     1     -35.451  17.557  -0.738  1.00 20.00     0.106 C 
HETATM    6 CL11 UNL     1     -36.310  19.060  -1.139  1.00 20.00    -0.121 Cl
ENDROOT
BRANCH   2   7
HETATM    7  C4  UNL     1     -34.008  15.810  -3.778  1.00 20.00    -0.006 A 
HETATM    8  C1  UNL     1     -33.308  16.227  -4.934  1.00 20.00     0.038 A 
HETATM    9  C2  UNL     1     -33.281  15.140  -5.777  1.00 20.00     0.142 A 
HETATM   10  O10 UNL     1     -33.919  14.081  -5.212  1.00 20.00    -0.334 OA
HETATM   11  C3  UNL     1     -34.359  14.498  -3.995  1.00 20.00     0.153 A 
ENDBRANCH   2   7
TORSDOF 1
ENDMDL
