MODEL 1
REMARK VINA RESULT:      -5.2      0.000      0.000
REMARK  1 active torsions:
REMARK  status: ('A' for Active; 'I' for Inactive)
REMARK    1  A    between atoms: C2_2  and  C10_10 
ROOT
HETATM    1  C1  UNL     1     -33.013   6.842   2.714  1.00 20.00    -0.003 C 
HETATM    2  C2  UNL     1     -33.470   6.637   3.965  1.00 20.00    -0.075 C 
HETATM    3  C3  UNL     1     -32.962   7.465   5.126  1.00 20.00     0.034 C 
HETATM    4  C4  UNL     1     -32.201   8.726   4.712  1.00 20.00     0.006 C 
HETATM    5  C5  UNL     1     -31.234   8.428   3.569  1.00 20.00     0.024 C 
HETATM    6  C6  UNL     1     -31.963   7.852   2.351  1.00 20.00     0.105 C 
HETATM    7 CL11 UNL     1     -32.749   9.163   1.417  1.00 20.00    -0.121 Cl
ENDROOT
BRANCH   2   8
HETATM    8  C10 UNL     1     -34.499   5.623   4.302  1.00 20.00    -0.028 C 
HETATM    9  C7  UNL     1     -35.816   5.982   3.597  1.00 20.00     0.019 C 
HETATM   10  C8  UNL     1     -34.724   5.596   5.823  1.00 20.00     0.019 C 
HETATM   11  C9  UNL     1     -34.033   4.234   3.838  1.00 20.00     0.019 C 
ENDBRANCH   2   8
TORSDOF 1
ENDMDL
MODEL 2
REMARK VINA RESULT:      -4.5      2.106      4.053
REMARK  1 active torsions:
REMARK  status: ('A' for Active; 'I' for Inactive)
REMARK    1  A    between atoms: C2_2  and  C10_10 
ROOT
HETATM    1  C1  UNL     1     -33.933   6.187   3.149  1.00 20.00    -0.003 C 
HETATM    2  C2  UNL     1     -33.235   7.268   3.550  1.00 20.00    -0.075 C 
HETATM    3  C3  UNL     1     -33.222   7.692   5.003  1.00 20.00     0.034 C 
HETATM    4  C4  UNL     1     -33.745   6.629   5.972  1.00 20.00     0.006 C 
HETATM    5  C5  UNL     1     -35.012   5.973   5.430  1.00 20.00     0.024 C 
HETATM    6  C6  UNL     1     -34.772   5.336   4.057  1.00 20.00     0.105 C 
HETATM    7 CL11 UNL     1     -33.962   3.748   4.240  1.00 20.00    -0.121 Cl
ENDROOT
BRANCH   2   8
HETATM    8  C10 UNL     1     -32.423   8.103   2.632  1.00 20.00    -0.028 C 
HETATM    9  C7  UNL     1     -31.133   8.534   3.345  1.00 20.00     0.019 C 
HETATM   10  C8  UNL     1     -33.221   9.351   2.220  1.00 20.00     0.019 C 
HETATM   11  C9  UNL     1     -32.066   7.296   1.373  1.00 20.00     0.019 C 
ENDBRANCH   2   8
TORSDOF 1
ENDMDL
MODEL 3
REMARK VINA RESULT:      -4.4      2.271      4.408
REMARK  1 active torsions:
REMARK  status: ('A' for Active; 'I' for Inactive)
REMARK    1  A    between atoms: C2_2  and  C10_10 
ROOT
HETATM    1  C1  UNL     1     -33.554   7.120   1.796  1.00 20.00    -0.003 C 
HETATM    2  C2  UNL     1     -32.827   8.240   1.978  1.00 20.00    -0.075 C 
HETATM    3  C3  UNL     1     -32.372   8.658   3.359  1.00 20.00     0.034 C 
HETATM    4  C4  UNL     1     -32.494   7.561   4.420  1.00 20.00     0.006 C 
HETATM    5  C5  UNL     1     -33.829   6.831   4.296  1.00 20.00     0.024 C 
HETATM    6  C6  UNL     1     -34.007   6.215   2.905  1.00 20.00     0.105 C 
HETATM    7 CL11 UNL     1     -33.093   4.680   2.782  1.00 20.00    -0.121 Cl
ENDROOT
BRANCH   2   8
HETATM    8  C10 UNL     1     -32.401   9.127   0.867  1.00 20.00    -0.028 C 
HETATM    9  C7  UNL     1     -30.957   8.785   0.469  1.00 20.00     0.019 C 
HETATM   10  C8  UNL     1     -32.474  10.595   1.316  1.00 20.00     0.019 C 
HETATM   11  C9  UNL     1     -33.326   8.925  -0.344  1.00 20.00     0.019 C 
ENDBRANCH   2   8
TORSDOF 1
ENDMDL
MODEL 4
REMARK VINA RESULT:      -4.4     11.492     12.168
REMARK  1 active torsions:
REMARK  status: ('A' for Active; 'I' for Inactive)
REMARK    1  A    between atoms: C2_2  and  C10_10 
ROOT
HETATM    1  C1  UNL     1     -33.504  16.657  -2.611  1.00 20.00    -0.003 C 
HETATM    2  C2  UNL     1     -34.525  16.114  -3.303  1.00 20.00    -0.075 C 
HETATM    3  C3  UNL     1     -35.960  16.340  -2.880  1.00 20.00     0.034 C 
HETATM    4  C4  UNL     1     -36.146  17.477  -1.871  1.00 20.00     0.006 C 
HETATM    5  C5  UNL     1     -35.079  17.417  -0.781  1.00 20.00     0.024 C 
HETATM    6  C6  UNL     1     -33.667  17.486  -1.370  1.00 20.00     0.105 C 
HETATM    7 CL11 UNL     1     -33.241  19.180  -1.771  1.00 20.00    -0.121 Cl
ENDROOT
BRANCH   2   8
HETATM    8  C10 UNL     1     -34.338  15.286  -4.520  1.00 20.00    -0.028 C 
HETATM    9  C7  UNL     1     -32.985  14.563  -4.439  1.00 20.00     0.019 C 
HETATM   10  C8  UNL     1     -34.366  16.181  -5.768  1.00 20.00     0.019 C 
HETATM   11  C9  UNL     1     -35.467  14.247  -4.620  1.00 20.00     0.019 C 
ENDBRANCH   2   8
TORSDOF 1
ENDMDL
MODEL 5
REMARK VINA RESULT:      -4.4     11.492     12.142
REMARK  1 active torsions:
REMARK  status: ('A' for Active; 'I' for Inactive)
REMARK    1  A    between atoms: C2_2  and  C10_10 
ROOT
HETATM    1  C1  UNL     1     -33.498  16.663  -2.597  1.00 20.00    -0.003 C 
HETATM    2  C2  UNL     1     -34.518  16.122  -3.291  1.00 20.00    -0.075 C 
HETATM    3  C3  UNL     1     -35.954  16.347  -2.867  1.00 20.00     0.034 C 
HETATM    4  C4  UNL     1     -36.140  17.479  -1.855  1.00 20.00     0.006 C 
HETATM    5  C5  UNL     1     -35.074  17.416  -0.765  1.00 20.00     0.024 C 
HETATM    6  C6  UNL     1     -33.661  17.488  -1.354  1.00 20.00     0.105 C 
HETATM    7 CL11 UNL     1     -33.237  19.183  -1.748  1.00 20.00    -0.121 Cl
ENDROOT
BRANCH   2   8
HETATM    8  C10 UNL     1     -34.332  15.299  -4.511  1.00 20.00    -0.028 C 
HETATM    9  C7  UNL     1     -35.472  14.273  -4.610  1.00 20.00     0.019 C 
HETATM   10  C8  UNL     1     -32.986  14.560  -4.439  1.00 20.00     0.019 C 
HETATM   11  C9  UNL     1     -34.345  16.200  -5.756  1.00 20.00     0.019 C 
ENDBRANCH   2   8
TORSDOF 1
ENDMDL
MODEL 6
REMARK VINA RESULT:      -4.3     11.433     12.351
REMARK  1 active torsions:
REMARK  status: ('A' for Active; 'I' for Inactive)
REMARK    1  A    between atoms: C2_2  and  C10_10 
ROOT
HETATM    1  C1  UNL     1     -36.151  16.059  -3.499  1.00 20.00    -0.003 C 
HETATM    2  C2  UNL     1     -34.930  16.368  -3.021  1.00 20.00    -0.075 C 
HETATM    3  C3  UNL     1     -33.700  15.614  -3.480  1.00 20.00     0.034 C 
HETATM    4  C4  UNL     1     -33.915  14.766  -4.736  1.00 20.00     0.006 C 
HETATM    5  C5  UNL     1     -35.235  14.003  -4.658  1.00 20.00     0.024 C 
HETATM    6  C6  UNL     1     -36.424  14.952  -4.476  1.00 20.00     0.105 C 
HETATM    7 CL11 UNL     1     -36.879  15.689  -6.044  1.00 20.00    -0.121 Cl
ENDROOT
BRANCH   2   8
HETATM    8  C10 UNL     1     -34.686  17.458  -2.045  1.00 20.00    -0.028 C 
HETATM    9  C7  UNL     1     -33.179  17.564  -1.769  1.00 20.00     0.019 C 
HETATM   10  C8  UNL     1     -35.427  17.157  -0.732  1.00 20.00     0.019 C 
HETATM   11  C9  UNL     1     -35.196  18.791  -2.616  1.00 20.00     0.019 C 
ENDBRANCH   2   8
TORSDOF 1
ENDMDL
MODEL 7
REMARK VINA RESULT:      -4.3     11.430     12.334
REMARK  1 active torsions:
REMARK  status: ('A' for Active; 'I' for Inactive)
REMARK    1  A    between atoms: C2_2  and  C10_10 
ROOT
HETATM    1  C1  UNL     1     -36.168  15.990  -3.559  1.00 20.00    -0.003 C 
HETATM    2  C2  UNL     1     -34.946  16.304  -3.088  1.00 20.00    -0.075 C 
HETATM    3  C3  UNL     1     -33.716  15.552  -3.549  1.00 20.00     0.034 C 
HETATM    4  C4  UNL     1     -33.935  14.698  -4.800  1.00 20.00     0.006 C 
HETATM    5  C5  UNL     1     -35.252  13.932  -4.713  1.00 20.00     0.024 C 
HETATM    6  C6  UNL     1     -36.442  14.878  -4.530  1.00 20.00     0.105 C 
HETATM    7 CL11 UNL     1     -36.906  15.608  -6.098  1.00 20.00    -0.121 Cl
ENDROOT
BRANCH   2   8
HETATM    8  C10 UNL     1     -34.700  17.400  -2.118  1.00 20.00    -0.028 C 
HETATM    9  C7  UNL     1     -35.460  17.104  -0.815  1.00 20.00     0.019 C 
HETATM   10  C8  UNL     1     -35.190  18.734  -2.703  1.00 20.00     0.019 C 
HETATM   11  C9  UNL     1     -33.196  17.503  -1.819  1.00 20.00     0.019 C 
ENDBRANCH   2   8
TORSDOF 1
ENDMDL
MODEL 8
REMARK VINA RESULT:      -4.2     11.422     12.678
REMARK  1 active torsions:
REMARK  status: ('A' for Active; 'I' for Inactive)
REMARK    1  A    between atoms: C2_2  and  C10_10 
ROOT
HETATM    1  C1  UNL     1     -33.978  15.646  -3.303  1.00 20.00    -0.003 C 
HETATM    2  C2  UNL     1     -33.909  16.991  -3.283  1.00 20.00    -0.075 C 
HETATM    3  C3  UNL     1     -33.614  17.776  -4.543  1.00 20.00     0.034 C 
HETATM    4  C4  UNL     1     -33.758  16.966  -5.834  1.00 20.00     0.006 C 
HETATM    5  C5  UNL     1     -33.124  15.586  -5.686  1.00 20.00     0.024 C 
HETATM    6  C6  UNL     1     -33.744  14.804  -4.524  1.00 20.00     0.105 C 
HETATM    7 CL11 UNL     1     -35.311  14.091  -5.018  1.00 20.00    -0.121 Cl
ENDROOT
BRANCH   2   8
HETATM    8  C10 UNL     1     -34.130  17.803  -2.061  1.00 20.00    -0.028 C 
HETATM    9  C7  UNL     1     -34.759  19.149  -2.452  1.00 20.00     0.019 C 
HETATM   10  C8  UNL     1     -32.789  18.052  -1.351  1.00 20.00     0.019 C 
HETATM   11  C9  UNL     1     -35.074  17.056  -1.104  1.00 20.00     0.019 C 
ENDBRANCH   2   8
TORSDOF 1
ENDMDL
MODEL 9
REMARK VINA RESULT:      -3.9     11.222     12.240
REMARK  1 active torsions:
REMARK  status: ('A' for Active; 'I' for Inactive)
REMARK    1  A    between atoms: C2_2  and  C10_10 
ROOT
HETATM    1  C1  UNL     1     -35.850  17.322  -1.956  1.00 20.00    -0.003 C 
HETATM    2  C2  UNL     1     -34.939  16.838  -2.824  1.00 20.00    -0.075 C 
HETATM    3  C3  UNL     1     -33.467  17.155  -2.665  1.00 20.00     0.034 C 
HETATM    4  C4  UNL     1     -33.094  17.736  -1.299  1.00 20.00     0.006 C 
HETATM    5  C5  UNL     1     -34.104  18.793  -0.862  1.00 20.00     0.024 C 
HETATM    6  C6  UNL     1     -35.525  18.222  -0.800  1.00 20.00     0.105 C 
HETATM    7 CL11 UNL     1     -35.758  17.294   0.714  1.00 20.00    -0.121 Cl
ENDROOT
BRANCH   2   8
HETATM    8  C10 UNL     1     -35.285  15.960  -3.968  1.00 20.00    -0.028 C 
HETATM    9  C7  UNL     1     -36.781  15.614  -3.908  1.00 20.00     0.019 C 
HETATM   10  C8  UNL     1     -34.458  14.666  -3.901  1.00 20.00     0.019 C 
HETATM   11  C9  UNL     1     -34.981  16.683  -5.290  1.00 20.00     0.019 C 
ENDBRANCH   2   8
TORSDOF 1
ENDMDL
