MODEL 1
REMARK VINA RESULT:      -6.2      0.000      0.000
REMARK  2 active torsions:
REMARK  status: ('A' for Active; 'I' for Inactive)
REMARK    1  A    between atoms: C4_4  and  C12_12 
REMARK    2  A    between atoms: C11_11  and  C12_12 
ROOT
HETATM    1  C1  UNL     1     -33.271   9.657  -0.398  1.00 20.00     0.012 C 
HETATM    2  C2  UNL     1     -32.528   9.184   0.418  1.00 20.00    -0.117 C 
HETATM    3  C11 UNL     1     -31.614   8.605   1.413  1.00 20.00     0.097 C 
ENDROOT
BRANCH   3   4
HETATM    4  C12 UNL     1     -32.226   8.585   2.807  1.00 20.00     0.046 C 
BRANCH   4   5
HETATM    5  C4  UNL     1     -32.752   7.218   3.135  1.00 20.00    -0.075 C 
HETATM    6  C3  UNL     1     -32.570   6.184   2.301  1.00 20.00     0.053 C 
HETATM    7  C5  UNL     1     -33.045   4.827   2.664  1.00 20.00     0.150 C 
HETATM    8  C7  UNL     1     -33.665   4.614   4.028  1.00 20.00     0.092 C 
HETATM    9  O13 UNL     1     -32.876   3.894   1.881  1.00 20.00    -0.293 OA
HETATM   10  C8  UNL     1     -34.405   5.859   4.542  1.00 20.00    -0.037 C 
HETATM   11  C6  UNL     1     -33.476   7.091   4.453  1.00 20.00     0.043 C 
HETATM   12  C9  UNL     1     -34.810   5.639   6.010  1.00 20.00     0.015 C 
HETATM   13  C10 UNL     1     -35.692   6.092   3.721  1.00 20.00     0.015 C 
ENDBRANCH   4   5
ENDBRANCH   3   4
TORSDOF 2
ENDMDL
MODEL 2
REMARK VINA RESULT:      -5.4     10.898     11.902
REMARK  2 active torsions:
REMARK  status: ('A' for Active; 'I' for Inactive)
REMARK    1  A    between atoms: C4_4  and  C12_12 
REMARK    2  A    between atoms: C11_11  and  C12_12 
ROOT
HETATM    1  C1  UNL     1     -32.413  18.505  -0.635  1.00 20.00     0.012 C 
HETATM    2  C2  UNL     1     -33.257  17.828  -1.154  1.00 20.00    -0.117 C 
HETATM    3  C11 UNL     1     -34.294  16.999  -1.787  1.00 20.00     0.097 C 
ENDROOT
BRANCH   3   4
HETATM    4  C12 UNL     1     -33.755  16.219  -2.977  1.00 20.00     0.046 C 
BRANCH   4   5
HETATM    5  C4  UNL     1     -34.870  15.541  -3.717  1.00 20.00    -0.075 C 
HETATM    6  C3  UNL     1     -34.671  14.385  -4.368  1.00 20.00     0.053 C 
HETATM    7  C5  UNL     1     -35.796  13.697  -5.046  1.00 20.00     0.150 C 
HETATM    8  C7  UNL     1     -37.188  14.278  -4.922  1.00 20.00     0.092 C 
HETATM    9  O13 UNL     1     -35.590  12.642  -5.645  1.00 20.00    -0.293 OA
HETATM   10  C8  UNL     1     -37.178  15.810  -4.794  1.00 20.00    -0.037 C 
HETATM   11  C6  UNL     1     -36.210  16.233  -3.666  1.00 20.00     0.043 C 
HETATM   12  C9  UNL     1     -38.597  16.299  -4.451  1.00 20.00     0.015 C 
HETATM   13  C10 UNL     1     -36.762  16.455  -6.134  1.00 20.00     0.015 C 
ENDBRANCH   4   5
ENDBRANCH   3   4
TORSDOF 2
ENDMDL
MODEL 3
REMARK VINA RESULT:      -5.3     11.159     12.450
REMARK  2 active torsions:
REMARK  status: ('A' for Active; 'I' for Inactive)
REMARK    1  A    between atoms: C4_4  and  C12_12 
REMARK    2  A    between atoms: C11_11  and  C12_12 
ROOT
HETATM    1  C1  UNL     1     -32.918  18.040  -1.586  1.00 20.00     0.012 C 
HETATM    2  C2  UNL     1     -33.964  17.451  -1.601  1.00 20.00    -0.117 C 
HETATM    3  C11 UNL     1     -35.244  16.727  -1.616  1.00 20.00     0.097 C 
ENDROOT
BRANCH   3   4
HETATM    4  C12 UNL     1     -36.082  17.074  -2.839  1.00 20.00     0.046 C 
BRANCH   4   5
HETATM    5  C4  UNL     1     -35.706  16.205  -4.003  1.00 20.00    -0.075 C 
HETATM    6  C3  UNL     1     -35.987  14.894  -4.011  1.00 20.00     0.053 C 
HETATM    7  C5  UNL     1     -35.661  14.058  -5.192  1.00 20.00     0.150 C 
HETATM    8  C7  UNL     1     -35.082  14.727  -6.420  1.00 20.00     0.092 C 
HETATM    9  O13 UNL     1     -35.920  12.855  -5.176  1.00 20.00    -0.293 OA
HETATM   10  C8  UNL     1     -34.221  15.952  -6.074  1.00 20.00    -0.037 C 
HETATM   11  C6  UNL     1     -35.014  16.902  -5.148  1.00 20.00     0.043 C 
HETATM   12  C9  UNL     1     -33.857  16.699  -7.370  1.00 20.00     0.015 C 
HETATM   13  C10 UNL     1     -32.908  15.507  -5.395  1.00 20.00     0.015 C 
ENDBRANCH   4   5
ENDBRANCH   3   4
TORSDOF 2
ENDMDL
MODEL 4
REMARK VINA RESULT:      -5.3     10.776     12.443
REMARK  2 active torsions:
REMARK  status: ('A' for Active; 'I' for Inactive)
REMARK    1  A    between atoms: C4_4  and  C12_12 
REMARK    2  A    between atoms: C11_11  and  C12_12 
ROOT
HETATM    1  C1  UNL     1     -34.013  18.144   0.060  1.00 20.00     0.012 C 
HETATM    2  C2  UNL     1     -34.473  17.477  -0.825  1.00 20.00    -0.117 C 
HETATM    3  C11 UNL     1     -35.041  16.660  -1.908  1.00 20.00     0.097 C 
ENDROOT
BRANCH   3   4
HETATM    4  C12 UNL     1     -34.000  16.300  -2.958  1.00 20.00     0.046 C 
BRANCH   4   5
HETATM    5  C4  UNL     1     -34.649  15.663  -4.152  1.00 20.00    -0.075 C 
HETATM    6  C3  UNL     1     -34.935  14.353  -4.172  1.00 20.00     0.053 C 
HETATM    7  C5  UNL     1     -35.628  13.749  -5.335  1.00 20.00     0.150 C 
HETATM    8  C7  UNL     1     -36.081  14.651  -6.463  1.00 20.00     0.092 C 
HETATM    9  O13 UNL     1     -35.873  12.543  -5.337  1.00 20.00    -0.293 OA
HETATM   10  C8  UNL     1     -35.159  15.866  -6.653  1.00 20.00    -0.037 C 
HETATM   11  C6  UNL     1     -34.963  16.588  -5.302  1.00 20.00     0.043 C 
HETATM   12  C9  UNL     1     -35.803  16.839  -7.657  1.00 20.00     0.015 C 
HETATM   13  C10 UNL     1     -33.798  15.418  -7.230  1.00 20.00     0.015 C 
ENDBRANCH   4   5
ENDBRANCH   3   4
TORSDOF 2
ENDMDL
MODEL 5
REMARK VINA RESULT:      -5.1     10.702     11.763
REMARK  2 active torsions:
REMARK  status: ('A' for Active; 'I' for Inactive)
REMARK    1  A    between atoms: C4_4  and  C12_12 
REMARK    2  A    between atoms: C11_11  and  C12_12 
ROOT
HETATM    1  C1  UNL     1     -32.543  18.543  -0.489  1.00 20.00     0.012 C 
HETATM    2  C2  UNL     1     -33.549  17.932  -0.724  1.00 20.00    -0.117 C 
HETATM    3  C11 UNL     1     -34.782  17.183  -1.007  1.00 20.00     0.097 C 
ENDROOT
BRANCH   3   4
HETATM    4  C12 UNL     1     -35.330  17.488  -2.394  1.00 20.00     0.046 C 
BRANCH   4   5
HETATM    5  C4  UNL     1     -35.333  16.254  -3.247  1.00 20.00    -0.075 C 
HETATM    6  C3  UNL     1     -34.212  15.545  -3.447  1.00 20.00     0.053 C 
HETATM    7  C5  UNL     1     -34.240  14.296  -4.245  1.00 20.00     0.150 C 
HETATM    8  C7  UNL     1     -35.570  13.790  -4.760  1.00 20.00     0.092 C 
HETATM    9  O13 UNL     1     -33.199  13.665  -4.425  1.00 20.00    -0.293 OA
HETATM   10  C8  UNL     1     -36.556  14.930  -5.065  1.00 20.00    -0.037 C 
HETATM   11  C6  UNL     1     -36.664  15.867  -3.842  1.00 20.00     0.043 C 
HETATM   12  C9  UNL     1     -37.943  14.333  -5.367  1.00 20.00     0.015 C 
HETATM   13  C10 UNL     1     -36.094  15.717  -6.311  1.00 20.00     0.015 C 
ENDBRANCH   4   5
ENDBRANCH   3   4
TORSDOF 2
ENDMDL
MODEL 6
REMARK VINA RESULT:      -5.1     10.826     12.284
REMARK  2 active torsions:
REMARK  status: ('A' for Active; 'I' for Inactive)
REMARK    1  A    between atoms: C4_4  and  C12_12 
REMARK    2  A    between atoms: C11_11  and  C12_12 
ROOT
HETATM    1  C1  UNL     1     -31.736  18.927   0.828  1.00 20.00     0.012 C 
HETATM    2  C2  UNL     1     -32.241  18.559  -0.197  1.00 20.00    -0.117 C 
HETATM    3  C11 UNL     1     -32.856  18.111  -1.456  1.00 20.00     0.097 C 
ENDROOT
BRANCH   3   4
HETATM    4  C12 UNL     1     -34.125  17.306  -1.216  1.00 20.00     0.046 C 
BRANCH   4   5
HETATM    5  C4  UNL     1     -34.679  16.790  -2.512  1.00 20.00    -0.075 C 
HETATM    6  C3  UNL     1     -35.993  16.569  -2.667  1.00 20.00     0.053 C 
HETATM    7  C5  UNL     1     -36.534  16.115  -3.970  1.00 20.00     0.150 C 
HETATM    8  C7  UNL     1     -35.589  15.984  -5.145  1.00 20.00     0.092 C 
HETATM    9  O13 UNL     1     -37.741  15.909  -4.090  1.00 20.00    -0.293 OA
HETATM   10  C8  UNL     1     -34.164  15.594  -4.717  1.00 20.00    -0.037 C 
HETATM   11  C6  UNL     1     -33.673  16.555  -3.611  1.00 20.00     0.043 C 
HETATM   12  C9  UNL     1     -33.223  15.699  -5.930  1.00 20.00     0.015 C 
HETATM   13  C10 UNL     1     -34.138  14.134  -4.216  1.00 20.00     0.015 C 
ENDBRANCH   4   5
ENDBRANCH   3   4
TORSDOF 2
ENDMDL
MODEL 7
REMARK VINA RESULT:      -4.8     11.375     12.439
REMARK  2 active torsions:
REMARK  status: ('A' for Active; 'I' for Inactive)
REMARK    1  A    between atoms: C4_4  and  C12_12 
REMARK    2  A    between atoms: C11_11  and  C12_12 
ROOT
HETATM    1  C1  UNL     1     -34.009  18.383   0.647  1.00 20.00     0.012 C 
HETATM    2  C2  UNL     1     -34.291  17.789  -0.357  1.00 20.00    -0.117 C 
HETATM    3  C11 UNL     1     -34.641  17.062  -1.587  1.00 20.00     0.097 C 
ENDROOT
BRANCH   3   4
HETATM    4  C12 UNL     1     -33.427  16.824  -2.474  1.00 20.00     0.046 C 
BRANCH   4   5
HETATM    5  C4  UNL     1     -33.849  16.336  -3.830  1.00 20.00    -0.075 C 
HETATM    6  C3  UNL     1     -33.513  17.003  -4.943  1.00 20.00     0.053 C 
HETATM    7  C5  UNL     1     -33.887  16.480  -6.279  1.00 20.00     0.150 C 
HETATM    8  C7  UNL     1     -34.582  15.138  -6.368  1.00 20.00     0.092 C 
HETATM    9  O13 UNL     1     -33.577  17.112  -7.289  1.00 20.00    -0.293 OA
HETATM   10  C8  UNL     1     -35.468  14.851  -5.145  1.00 20.00    -0.037 C 
HETATM   11  C6  UNL     1     -34.652  15.059  -3.850  1.00 20.00     0.043 C 
HETATM   12  C9  UNL     1     -35.957  13.392  -5.203  1.00 20.00     0.015 C 
HETATM   13  C10 UNL     1     -36.708  15.771  -5.156  1.00 20.00     0.015 C 
ENDBRANCH   4   5
ENDBRANCH   3   4
TORSDOF 2
ENDMDL
MODEL 8
REMARK VINA RESULT:      -4.7     11.224     12.266
REMARK  2 active torsions:
REMARK  status: ('A' for Active; 'I' for Inactive)
REMARK    1  A    between atoms: C4_4  and  C12_12 
REMARK    2  A    between atoms: C11_11  and  C12_12 
ROOT
HETATM    1  C1  UNL     1     -33.318  16.021  -6.557  1.00 20.00     0.012 C 
HETATM    2  C2  UNL     1     -33.389  15.593  -5.438  1.00 20.00    -0.117 C 
HETATM    3  C11 UNL     1     -33.471  15.068  -4.067  1.00 20.00     0.097 C 
ENDROOT
BRANCH   3   4
HETATM    4  C12 UNL     1     -34.769  15.466  -3.380  1.00 20.00     0.046 C 
BRANCH   4   5
HETATM    5  C4  UNL     1     -34.558  16.666  -2.503  1.00 20.00    -0.075 C 
HETATM    6  C3  UNL     1     -33.328  17.041  -2.122  1.00 20.00     0.053 C 
HETATM    7  C5  UNL     1     -33.130  18.261  -1.303  1.00 20.00     0.150 C 
HETATM    8  C7  UNL     1     -34.331  19.121  -0.974  1.00 20.00     0.092 C 
HETATM    9  O13 UNL     1     -31.994  18.583  -0.956  1.00 20.00    -0.293 OA
HETATM   10  C8  UNL     1     -35.626  18.302  -0.848  1.00 20.00    -0.037 C 
HETATM   11  C6  UNL     1     -35.805  17.414  -2.099  1.00 20.00     0.043 C 
HETATM   12  C9  UNL     1     -36.824  19.262  -0.736  1.00 20.00     0.015 C 
HETATM   13  C10 UNL     1     -35.588  17.436   0.430  1.00 20.00     0.015 C 
ENDBRANCH   4   5
ENDBRANCH   3   4
TORSDOF 2
ENDMDL
MODEL 9
REMARK VINA RESULT:      -4.6     11.517     12.617
REMARK  2 active torsions:
REMARK  status: ('A' for Active; 'I' for Inactive)
REMARK    1  A    between atoms: C4_4  and  C12_12 
REMARK    2  A    between atoms: C11_11  and  C12_12 
ROOT
HETATM    1  C1  UNL     1     -33.224  18.396  -0.279  1.00 20.00     0.012 C 
HETATM    2  C2  UNL     1     -33.831  17.660  -1.008  1.00 20.00    -0.117 C 
HETATM    3  C11 UNL     1     -34.578  16.759  -1.899  1.00 20.00     0.097 C 
ENDROOT
BRANCH   3   4
HETATM    4  C12 UNL     1     -33.729  16.275  -3.064  1.00 20.00     0.046 C 
BRANCH   4   5
HETATM    5  C4  UNL     1     -34.582  16.016  -4.272  1.00 20.00    -0.075 C 
HETATM    6  C3  UNL     1     -35.693  16.731  -4.503  1.00 20.00     0.053 C 
HETATM    7  C5  UNL     1     -36.495  16.505  -5.729  1.00 20.00     0.150 C 
HETATM    8  C7  UNL     1     -35.993  15.511  -6.755  1.00 20.00     0.092 C 
HETATM    9  O13 UNL     1     -37.516  17.165  -5.919  1.00 20.00    -0.293 OA
HETATM   10  C8  UNL     1     -35.202  14.356  -6.120  1.00 20.00    -0.037 C 
HETATM   11  C6  UNL     1     -34.102  14.925  -5.196  1.00 20.00     0.043 C 
HETATM   12  C9  UNL     1     -34.544  13.521  -7.232  1.00 20.00     0.015 C 
HETATM   13  C10 UNL     1     -36.151  13.432  -5.326  1.00 20.00     0.015 C 
ENDBRANCH   4   5
ENDBRANCH   3   4
TORSDOF 2
ENDMDL
