MODEL 1
REMARK VINA RESULT:      -5.6      0.000      0.000
REMARK  1 active torsions:
REMARK  status: ('A' for Active; 'I' for Inactive)
REMARK    1  A    between atoms: C2_2  and  C8_8 
ROOT
HETATM    1  C1  UNL     1     -32.911   8.024   4.500  1.00 20.00     0.053 C 
HETATM    2  C2  UNL     1     -32.642   7.371   3.359  1.00 20.00    -0.072 C 
HETATM    3  C3  UNL     1     -33.586   7.333   5.624  1.00 20.00     0.150 C 
HETATM    4  C4  UNL     1     -33.035   5.933   3.125  1.00 20.00     0.043 C 
HETATM    5  C5  UNL     1     -33.890   5.856   5.495  1.00 20.00     0.092 C 
HETATM    6  C9  UNL     1     -34.174   5.436   4.043  1.00 20.00    -0.037 C 
HETATM    7  C10 UNL     1     -35.531   6.008   3.578  1.00 20.00     0.015 C 
HETATM    8  C11 UNL     1     -34.253   3.901   3.965  1.00 20.00     0.015 C 
HETATM    9  O12 UNL     1     -33.833   7.953   6.658  1.00 20.00    -0.293 OA
ENDROOT
BRANCH   2  10
HETATM   10  C8  UNL     1     -31.909   8.040   2.233  1.00 20.00     0.014 A 
HETATM   11  C6  UNL     1     -32.685   8.412   1.019  1.00 20.00     0.010 A 
HETATM   12  C7  UNL     1     -32.205   9.473   1.962  1.00 20.00     0.010 A 
ENDBRANCH   2  10
TORSDOF 1
ENDMDL
MODEL 2
REMARK VINA RESULT:      -5.0     11.264     12.885
REMARK  1 active torsions:
REMARK  status: ('A' for Active; 'I' for Inactive)
REMARK    1  A    between atoms: C2_2  and  C8_8 
ROOT
HETATM    1  C1  UNL     1     -34.847  14.482  -4.074  1.00 20.00     0.053 C 
HETATM    2  C2  UNL     1     -34.154  15.630  -4.124  1.00 20.00    -0.072 C 
HETATM    3  C3  UNL     1     -35.279  13.805  -5.320  1.00 20.00     0.150 C 
HETATM    4  C4  UNL     1     -33.807  16.322  -5.419  1.00 20.00     0.043 C 
HETATM    5  C5  UNL     1     -34.850  14.386  -6.650  1.00 20.00     0.092 C 
HETATM    6  C9  UNL     1     -34.707  15.917  -6.608  1.00 20.00    -0.037 C 
HETATM    7  C10 UNL     1     -36.095  16.580  -6.486  1.00 20.00     0.015 C 
HETATM    8  C11 UNL     1     -34.061  16.402  -7.918  1.00 20.00     0.015 C 
HETATM    9  O12 UNL     1     -35.922  12.759  -5.252  1.00 20.00    -0.293 OA
ENDROOT
BRANCH   2  10
HETATM   10  C8  UNL     1     -33.661  16.297  -2.873  1.00 20.00     0.014 A 
HETATM   11  C6  UNL     1     -33.847  17.768  -2.748  1.00 20.00     0.010 A 
HETATM   12  C7  UNL     1     -34.675  16.831  -1.922  1.00 20.00     0.010 A 
ENDBRANCH   2  10
TORSDOF 1
ENDMDL
MODEL 3
REMARK VINA RESULT:      -4.8     11.421     12.162
REMARK  1 active torsions:
REMARK  status: ('A' for Active; 'I' for Inactive)
REMARK    1  A    between atoms: C2_2  and  C8_8 
ROOT
HETATM    1  C1  UNL     1     -33.292  17.262  -2.378  1.00 20.00     0.053 C 
HETATM    2  C2  UNL     1     -34.478  16.636  -2.443  1.00 20.00    -0.072 C 
HETATM    3  C3  UNL     1     -32.932  18.077  -1.193  1.00 20.00     0.150 C 
HETATM    4  C4  UNL     1     -35.523  16.747  -1.361  1.00 20.00     0.043 C 
HETATM    5  C5  UNL     1     -33.889  18.121  -0.022  1.00 20.00     0.092 C 
HETATM    6  C9  UNL     1     -35.359  17.987  -0.454  1.00 20.00    -0.037 C 
HETATM    7  C10 UNL     1     -35.816  19.263  -1.193  1.00 20.00     0.015 C 
HETATM    8  C11 UNL     1     -36.241  17.819   0.796  1.00 20.00     0.015 C 
HETATM    9  O12 UNL     1     -31.845  18.650  -1.158  1.00 20.00    -0.293 OA
ENDROOT
BRANCH   2  10
HETATM   10  C8  UNL     1     -34.834  15.762  -3.609  1.00 20.00     0.014 A 
HETATM   11  C6  UNL     1     -34.221  16.076  -4.929  1.00 20.00     0.010 A 
HETATM   12  C7  UNL     1     -33.777  14.869  -4.160  1.00 20.00     0.010 A 
ENDBRANCH   2  10
TORSDOF 1
ENDMDL
MODEL 4
REMARK VINA RESULT:      -4.7     11.294     12.139
REMARK  1 active torsions:
REMARK  status: ('A' for Active; 'I' for Inactive)
REMARK    1  A    between atoms: C2_2  and  C8_8 
ROOT
HETATM    1  C1  UNL     1     -36.352  16.241  -3.358  1.00 20.00     0.053 C 
HETATM    2  C2  UNL     1     -35.212  16.614  -2.758  1.00 20.00    -0.072 C 
HETATM    3  C3  UNL     1     -36.368  15.104  -4.310  1.00 20.00     0.150 C 
HETATM    4  C4  UNL     1     -33.886  15.949  -3.033  1.00 20.00     0.043 C 
HETATM    5  C5  UNL     1     -35.093  14.319  -4.527  1.00 20.00     0.092 C 
HETATM    6  C9  UNL     1     -33.832  15.185  -4.375  1.00 20.00    -0.037 C 
HETATM    7  C10 UNL     1     -33.717  16.174  -5.555  1.00 20.00     0.015 C 
HETATM    8  C11 UNL     1     -32.589  14.278  -4.391  1.00 20.00     0.015 C 
HETATM    9  O12 UNL     1     -37.422  14.784  -4.856  1.00 20.00    -0.293 OA
ENDROOT
BRANCH   2  10
HETATM   10  C8  UNL     1     -35.190  17.726  -1.750  1.00 20.00     0.014 A 
HETATM   11  C6  UNL     1     -35.470  17.384  -0.329  1.00 20.00     0.010 A 
HETATM   12  C7  UNL     1     -34.080  17.745  -0.758  1.00 20.00     0.010 A 
ENDBRANCH   2  10
TORSDOF 1
ENDMDL
MODEL 5
REMARK VINA RESULT:      -4.6     11.303     12.319
REMARK  1 active torsions:
REMARK  status: ('A' for Active; 'I' for Inactive)
REMARK    1  A    between atoms: C2_2  and  C8_8 
ROOT
HETATM    1  C1  UNL     1     -33.674  15.442  -3.430  1.00 20.00     0.053 C 
HETATM    2  C2  UNL     1     -34.610  16.388  -3.601  1.00 20.00    -0.072 C 
HETATM    3  C3  UNL     1     -33.384  14.464  -4.506  1.00 20.00     0.150 C 
HETATM    4  C4  UNL     1     -35.445  16.499  -4.852  1.00 20.00     0.043 C 
HETATM    5  C5  UNL     1     -34.102  14.605  -5.831  1.00 20.00     0.092 C 
HETATM    6  C9  UNL     1     -35.514  15.195  -5.679  1.00 20.00    -0.037 C 
HETATM    7  C10 UNL     1     -36.449  14.172  -4.999  1.00 20.00     0.015 C 
HETATM    8  C11 UNL     1     -36.084  15.510  -7.073  1.00 20.00     0.015 C 
HETATM    9  O12 UNL     1     -32.530  13.598  -4.326  1.00 20.00    -0.293 OA
ENDROOT
BRANCH   2  10
HETATM   10  C8  UNL     1     -34.875  17.420  -2.544  1.00 20.00     0.014 A 
HETATM   11  C6  UNL     1     -35.394  16.954  -1.229  1.00 20.00     0.010 A 
HETATM   12  C7  UNL     1     -33.983  17.443  -1.352  1.00 20.00     0.010 A 
ENDBRANCH   2  10
TORSDOF 1
ENDMDL
MODEL 6
REMARK VINA RESULT:      -4.5     11.622     12.752
REMARK  1 active torsions:
REMARK  status: ('A' for Active; 'I' for Inactive)
REMARK    1  A    between atoms: C2_2  and  C8_8 
ROOT
HETATM    1  C1  UNL     1     -33.496  16.691  -4.720  1.00 20.00     0.053 C 
HETATM    2  C2  UNL     1     -34.118  16.522  -3.543  1.00 20.00    -0.072 C 
HETATM    3  C3  UNL     1     -34.191  16.382  -5.993  1.00 20.00     0.150 C 
HETATM    4  C4  UNL     1     -35.520  15.979  -3.428  1.00 20.00     0.043 C 
HETATM    5  C5  UNL     1     -35.642  15.955  -5.944  1.00 20.00     0.092 C 
HETATM    6  C9  UNL     1     -35.987  15.177  -4.663  1.00 20.00    -0.037 C 
HETATM    7  C10 UNL     1     -35.321  13.785  -4.688  1.00 20.00     0.015 C 
HETATM    8  C11 UNL     1     -37.511  14.975  -4.588  1.00 20.00     0.015 C 
HETATM    9  O12 UNL     1     -33.600  16.534  -7.060  1.00 20.00    -0.293 OA
ENDROOT
BRANCH   2  10
HETATM   10  C8  UNL     1     -33.447  16.883  -2.250  1.00 20.00     0.014 A 
HETATM   11  C6  UNL     1     -33.444  18.315  -1.843  1.00 20.00     0.010 A 
HETATM   12  C7  UNL     1     -34.308  17.328  -1.119  1.00 20.00     0.010 A 
ENDBRANCH   2  10
TORSDOF 1
ENDMDL
MODEL 7
REMARK VINA RESULT:      -4.4     11.632     12.711
REMARK  1 active torsions:
REMARK  status: ('A' for Active; 'I' for Inactive)
REMARK    1  A    between atoms: C2_2  and  C8_8 
ROOT
HETATM    1  C1  UNL     1     -35.615  16.496  -4.663  1.00 20.00     0.053 C 
HETATM    2  C2  UNL     1     -34.702  15.659  -4.145  1.00 20.00    -0.072 C 
HETATM    3  C3  UNL     1     -35.685  17.907  -4.216  1.00 20.00     0.150 C 
HETATM    4  C4  UNL     1     -33.732  16.071  -3.065  1.00 20.00     0.043 C 
HETATM    5  C5  UNL     1     -34.654  18.410  -3.228  1.00 20.00     0.092 C 
HETATM    6  C9  UNL     1     -34.177  17.313  -2.262  1.00 20.00    -0.037 C 
HETATM    7  C10 UNL     1     -35.304  16.944  -1.274  1.00 20.00     0.015 C 
HETATM    8  C11 UNL     1     -32.983  17.841  -1.446  1.00 20.00     0.015 C 
HETATM    9  O12 UNL     1     -36.535  18.655  -4.696  1.00 20.00    -0.293 OA
ENDROOT
BRANCH   2  10
HETATM   10  C8  UNL     1     -34.582  14.243  -4.628  1.00 20.00     0.014 A 
HETATM   11  C6  UNL     1     -35.821  13.551  -5.076  1.00 20.00     0.010 A 
HETATM   12  C7  UNL     1     -34.793  13.981  -6.078  1.00 20.00     0.010 A 
ENDBRANCH   2  10
TORSDOF 1
ENDMDL
MODEL 8
REMARK VINA RESULT:      -4.2     11.795     12.845
REMARK  1 active torsions:
REMARK  status: ('A' for Active; 'I' for Inactive)
REMARK    1  A    between atoms: C2_2  and  C8_8 
ROOT
HETATM    1  C1  UNL     1     -34.903  17.542  -4.256  1.00 20.00     0.053 C 
HETATM    2  C2  UNL     1     -34.474  16.526  -3.491  1.00 20.00    -0.072 C 
HETATM    3  C3  UNL     1     -35.805  17.293  -5.405  1.00 20.00     0.150 C 
HETATM    4  C4  UNL     1     -34.835  15.087  -3.763  1.00 20.00     0.043 C 
HETATM    5  C5  UNL     1     -36.303  15.885  -5.649  1.00 20.00     0.092 C 
HETATM    6  C9  UNL     1     -35.286  14.816  -5.216  1.00 20.00    -0.037 C 
HETATM    7  C10 UNL     1     -34.071  14.817  -6.169  1.00 20.00     0.015 C 
HETATM    8  C11 UNL     1     -35.947  13.428  -5.289  1.00 20.00     0.015 C 
HETATM    9  O12 UNL     1     -36.179  18.237  -6.099  1.00 20.00    -0.293 OA
ENDROOT
BRANCH   2  10
HETATM   10  C8  UNL     1     -33.606  16.767  -2.291  1.00 20.00     0.014 A 
HETATM   11  C6  UNL     1     -33.238  18.173  -1.968  1.00 20.00     0.010 A 
HETATM   12  C7  UNL     1     -34.220  17.435  -1.110  1.00 20.00     0.010 A 
ENDBRANCH   2  10
TORSDOF 1
ENDMDL
MODEL 9
REMARK VINA RESULT:      -4.2     11.165     13.322
REMARK  1 active torsions:
REMARK  status: ('A' for Active; 'I' for Inactive)
REMARK    1  A    between atoms: C2_2  and  C8_8 
ROOT
HETATM    1  C1  UNL     1     -36.536  14.764  -5.908  1.00 20.00     0.053 C 
HETATM    2  C2  UNL     1     -36.446  16.091  -5.731  1.00 20.00    -0.072 C 
HETATM    3  C3  UNL     1     -35.718  13.836  -5.090  1.00 20.00     0.150 C 
HETATM    4  C4  UNL     1     -35.499  16.724  -4.743  1.00 20.00     0.043 C 
HETATM    5  C5  UNL     1     -34.844  14.409  -3.995  1.00 20.00     0.092 C 
HETATM    6  C9  UNL     1     -34.320  15.815  -4.331  1.00 20.00    -0.037 C 
HETATM    7  C10 UNL     1     -33.275  15.738  -5.466  1.00 20.00     0.015 C 
HETATM    8  C11 UNL     1     -33.632  16.410  -3.090  1.00 20.00     0.015 C 
HETATM    9  O12 UNL     1     -35.807  12.624  -5.274  1.00 20.00    -0.293 OA
ENDROOT
BRANCH   2  10
HETATM   10  C8  UNL     1     -37.309  17.040  -6.511  1.00 20.00     0.014 A 
HETATM   11  C6  UNL     1     -36.817  18.431  -6.705  1.00 20.00     0.010 A 
HETATM   12  C7  UNL     1     -36.834  17.470  -7.855  1.00 20.00     0.010 A 
ENDBRANCH   2  10
TORSDOF 1
ENDMDL
