MODEL 1
REMARK VINA RESULT:      -6.2      0.000      0.000
REMARK  2 active torsions:
REMARK  status: ('A' for Active; 'I' for Inactive)
REMARK    1  A    between atoms: C2_2  and  C8_8 
REMARK    2  A    between atoms: C4_4  and  C8_8 
ROOT
HETATM    1  C1  UNL     1     -33.817   6.300   3.041  1.00 20.00    -0.004 C 
HETATM    2  C2  UNL     1     -33.008   7.199   3.615  1.00 20.00    -0.079 C 
HETATM    3  C5  UNL     1     -33.220   7.264   5.096  1.00 20.00     0.036 C 
HETATM    4  C6  UNL     1     -34.550   6.527   5.272  1.00 20.00     0.028 C 
HETATM    5  C7  UNL     1     -34.697   5.627   4.042  1.00 20.00     0.105 C 
HETATM    6 CL9  UNL     1     -34.098   3.983   4.357  1.00 20.00    -0.121 Cl
ENDROOT
BRANCH   2   7
HETATM    7  C8  UNL     1     -31.979   8.034   2.945  1.00 20.00     0.060 C 
BRANCH   7   8
HETATM    8  C4  UNL     1     -32.443   8.550   1.614  1.00 20.00    -0.033 C 
HETATM    9  C3  UNL     1     -32.420   9.840   1.259  1.00 20.00     0.007 C 
ENDBRANCH   7   8
ENDBRANCH   2   7
TORSDOF 2
ENDMDL
MODEL 2
REMARK VINA RESULT:      -5.6      2.440      4.325
REMARK  2 active torsions:
REMARK  status: ('A' for Active; 'I' for Inactive)
REMARK    1  A    between atoms: C2_2  and  C8_8 
REMARK    2  A    between atoms: C4_4  and  C8_8 
ROOT
HETATM    1  C1  UNL     1     -32.780   7.275   1.753  1.00 20.00    -0.004 C 
HETATM    2  C2  UNL     1     -33.216   6.854   2.947  1.00 20.00    -0.079 C 
HETATM    3  C5  UNL     1     -32.647   7.677   4.062  1.00 20.00     0.036 C 
HETATM    4  C6  UNL     1     -31.506   8.426   3.371  1.00 20.00     0.028 C 
HETATM    5  C7  UNL     1     -31.853   8.439   1.880  1.00 20.00     0.105 C 
HETATM    6 CL9  UNL     1     -32.701   9.932   1.417  1.00 20.00    -0.121 Cl
ENDROOT
BRANCH   2   7
HETATM    7  C8  UNL     1     -34.169   5.747   3.213  1.00 20.00     0.060 C 
BRANCH   7   8
HETATM    8  C4  UNL     1     -34.763   5.824   4.589  1.00 20.00    -0.033 C 
HETATM    9  C3  UNL     1     -34.604   4.885   5.529  1.00 20.00     0.007 C 
ENDBRANCH   7   8
ENDBRANCH   2   7
TORSDOF 2
ENDMDL
MODEL 3
REMARK VINA RESULT:      -5.2      1.227      1.774
REMARK  2 active torsions:
REMARK  status: ('A' for Active; 'I' for Inactive)
REMARK    1  A    between atoms: C2_2  and  C8_8 
REMARK    2  A    between atoms: C4_4  and  C8_8 
ROOT
HETATM    1  C1  UNL     1     -33.544   7.138   4.215  1.00 20.00    -0.004 C 
HETATM    2  C2  UNL     1     -32.699   7.204   3.179  1.00 20.00    -0.079 C 
HETATM    3  C5  UNL     1     -32.730   5.949   2.362  1.00 20.00     0.036 C 
HETATM    4  C6  UNL     1     -33.456   4.971   3.288  1.00 20.00     0.028 C 
HETATM    5  C7  UNL     1     -34.269   5.833   4.257  1.00 20.00     0.105 C 
HETATM    6 CL9  UNL     1     -35.939   6.058   3.692  1.00 20.00    -0.121 Cl
ENDROOT
BRANCH   2   7
HETATM    7  C8  UNL     1     -31.838   8.352   2.798  1.00 20.00     0.060 C 
BRANCH   7   8
HETATM    8  C4  UNL     1     -32.124   8.844   1.409  1.00 20.00    -0.033 C 
HETATM    9  C3  UNL     1     -32.593  10.065   1.126  1.00 20.00     0.007 C 
ENDBRANCH   7   8
ENDBRANCH   2   7
TORSDOF 2
ENDMDL
MODEL 4
REMARK VINA RESULT:      -4.6      1.589      2.322
REMARK  2 active torsions:
REMARK  status: ('A' for Active; 'I' for Inactive)
REMARK    1  A    between atoms: C2_2  and  C8_8 
REMARK    2  A    between atoms: C4_4  and  C8_8 
ROOT
HETATM    1  C1  UNL     1     -32.058   7.659   3.747  1.00 20.00    -0.004 C 
HETATM    2  C2  UNL     1     -32.433   7.864   2.478  1.00 20.00    -0.079 C 
HETATM    3  C5  UNL     1     -33.664   7.082   2.136  1.00 20.00     0.036 C 
HETATM    4  C6  UNL     1     -33.754   6.085   3.293  1.00 20.00     0.028 C 
HETATM    5  C7  UNL     1     -32.972   6.711   4.450  1.00 20.00     0.105 C 
HETATM    6 CL9  UNL     1     -34.038   7.613   5.550  1.00 20.00    -0.121 Cl
ENDROOT
BRANCH   2   7
HETATM    7  C8  UNL     1     -31.788   8.762   1.487  1.00 20.00     0.060 C 
BRANCH   7   8
HETATM    8  C4  UNL     1     -32.779   9.653   0.797  1.00 20.00    -0.033 C 
HETATM    9  C3  UNL     1     -33.142   9.521  -0.485  1.00 20.00     0.007 C 
ENDBRANCH   7   8
ENDBRANCH   2   7
TORSDOF 2
ENDMDL
MODEL 5
REMARK VINA RESULT:      -4.5      2.709      4.616
REMARK  2 active torsions:
REMARK  status: ('A' for Active; 'I' for Inactive)
REMARK    1  A    between atoms: C2_2  and  C8_8 
REMARK    2  A    between atoms: C4_4  and  C8_8 
ROOT
HETATM    1  C1  UNL     1     -31.656   8.367   1.192  1.00 20.00    -0.004 C 
HETATM    2  C2  UNL     1     -32.395   8.326   2.309  1.00 20.00    -0.079 C 
HETATM    3  C5  UNL     1     -33.322   9.499   2.398  1.00 20.00     0.036 C 
HETATM    4  C6  UNL     1     -32.758  10.448   1.338  1.00 20.00     0.028 C 
HETATM    5  C7  UNL     1     -31.969   9.569   0.364  1.00 20.00     0.105 C 
HETATM    6 CL9  UNL     1     -32.957   9.090  -1.035  1.00 20.00    -0.121 Cl
ENDROOT
BRANCH   2   7
HETATM    7  C8  UNL     1     -32.382   7.270   3.352  1.00 20.00     0.060 C 
BRANCH   7   8
HETATM    8  C4  UNL     1     -33.658   7.234   4.142  1.00 20.00    -0.033 C 
HETATM    9  C3  UNL     1     -33.715   7.247   5.479  1.00 20.00     0.007 C 
ENDBRANCH   7   8
ENDBRANCH   2   7
TORSDOF 2
ENDMDL
MODEL 6
REMARK VINA RESULT:      -4.1      2.880      4.773
REMARK  2 active torsions:
REMARK  status: ('A' for Active; 'I' for Inactive)
REMARK    1  A    between atoms: C2_2  and  C8_8 
REMARK    2  A    between atoms: C4_4  and  C8_8 
ROOT
HETATM    1  C1  UNL     1     -33.428   9.130   2.187  1.00 20.00    -0.004 C 
HETATM    2  C2  UNL     1     -32.575   8.101   2.268  1.00 20.00    -0.079 C 
HETATM    3  C5  UNL     1     -31.435   8.255   1.309  1.00 20.00     0.036 C 
HETATM    4  C6  UNL     1     -31.936   9.358   0.374  1.00 20.00     0.028 C 
HETATM    5  C7  UNL     1     -32.997  10.129   1.164  1.00 20.00     0.105 C 
HETATM    6 CL9  UNL     1     -32.306  11.554   1.972  1.00 20.00    -0.121 Cl
ENDROOT
BRANCH   2   7
HETATM    7  C8  UNL     1     -32.658   6.940   3.190  1.00 20.00     0.060 C 
BRANCH   7   8
HETATM    8  C4  UNL     1     -33.815   7.049   4.140  1.00 20.00    -0.033 C 
HETATM    9  C3  UNL     1     -33.688   7.225   5.461  1.00 20.00     0.007 C 
ENDBRANCH   7   8
ENDBRANCH   2   7
TORSDOF 2
ENDMDL
MODEL 7
REMARK VINA RESULT:      -4.1      2.130      4.187
REMARK  2 active torsions:
REMARK  status: ('A' for Active; 'I' for Inactive)
REMARK    1  A    between atoms: C2_2  and  C8_8 
REMARK    2  A    between atoms: C4_4  and  C8_8 
ROOT
HETATM    1  C1  UNL     1     -33.856   7.533   3.412  1.00 20.00    -0.004 C 
HETATM    2  C2  UNL     1     -34.024   6.206   3.477  1.00 20.00    -0.079 C 
HETATM    3  C5  UNL     1     -33.037   5.484   2.612  1.00 20.00     0.036 C 
HETATM    4  C6  UNL     1     -32.490   6.605   1.727  1.00 20.00     0.028 C 
HETATM    5  C7  UNL     1     -32.738   7.906   2.496  1.00 20.00     0.105 C 
HETATM    6 CL9  UNL     1     -31.316   8.385   3.450  1.00 20.00    -0.121 Cl
ENDROOT
BRANCH   2   7
HETATM    7  C8  UNL     1     -35.011   5.468   4.304  1.00 20.00     0.060 C 
BRANCH   7   8
HETATM    8  C4  UNL     1     -34.694   5.539   5.770  1.00 20.00    -0.033 C 
HETATM    9  C3  UNL     1     -34.138   6.600   6.367  1.00 20.00     0.007 C 
ENDBRANCH   7   8
ENDBRANCH   2   7
TORSDOF 2
ENDMDL
MODEL 8
REMARK VINA RESULT:      -4.0     11.256     11.692
REMARK  2 active torsions:
REMARK  status: ('A' for Active; 'I' for Inactive)
REMARK    1  A    between atoms: C2_2  and  C8_8 
REMARK    2  A    between atoms: C4_4  and  C8_8 
ROOT
HETATM    1  C1  UNL     1     -33.603  16.644  -3.491  1.00 20.00    -0.004 C 
HETATM    2  C2  UNL     1     -33.832  17.097  -2.251  1.00 20.00    -0.079 C 
HETATM    3  C5  UNL     1     -35.199  16.716  -1.771  1.00 20.00     0.036 C 
HETATM    4  C6  UNL     1     -35.894  16.282  -3.063  1.00 20.00     0.028 C 
HETATM    5  C7  UNL     1     -34.775  15.895  -4.033  1.00 20.00     0.105 C 
HETATM    6 CL9  UNL     1     -34.442  14.149  -3.989  1.00 20.00    -0.121 Cl
ENDROOT
BRANCH   2   7
HETATM    7  C8  UNL     1     -32.891  17.851  -1.386  1.00 20.00     0.060 C 
BRANCH   7   8
HETATM    8  C4  UNL     1     -33.545  18.343  -0.127  1.00 20.00    -0.033 C 
HETATM    9  C3  UNL     1     -32.875  18.819   0.930  1.00 20.00     0.007 C 
ENDBRANCH   7   8
ENDBRANCH   2   7
TORSDOF 2
ENDMDL
MODEL 9
REMARK VINA RESULT:      -4.0     11.621     12.033
REMARK  2 active torsions:
REMARK  status: ('A' for Active; 'I' for Inactive)
REMARK    1  A    between atoms: C2_2  and  C8_8 
REMARK    2  A    between atoms: C4_4  and  C8_8 
ROOT
HETATM    1  C1  UNL     1     -35.235  17.325  -0.662  1.00 20.00    -0.004 C 
HETATM    2  C2  UNL     1     -34.004  17.845  -0.576  1.00 20.00    -0.079 C 
HETATM    3  C5  UNL     1     -33.228  17.634  -1.840  1.00 20.00     0.036 C 
HETATM    4  C6  UNL     1     -34.062  16.576  -2.566  1.00 20.00     0.028 C 
HETATM    5  C7  UNL     1     -35.475  16.685  -1.989  1.00 20.00     0.105 C 
HETATM    6 CL9  UNL     1     -36.509  17.736  -2.982  1.00 20.00    -0.121 Cl
ENDROOT
BRANCH   2   7
HETATM    7  C8  UNL     1     -33.422  18.583   0.573  1.00 20.00     0.060 C 
BRANCH   7   8
HETATM    8  C4  UNL     1     -31.947  18.814   0.414  1.00 20.00    -0.033 C 
HETATM    9  C3  UNL     1     -31.068  18.771   1.422  1.00 20.00     0.007 C 
ENDBRANCH   7   8
ENDBRANCH   2   7
TORSDOF 2
ENDMDL
