MODEL 1
REMARK VINA RESULT:      -3.9      0.000      0.000
REMARK  1 active torsions:
REMARK  status: ('A' for Active; 'I' for Inactive)
REMARK    1  A    between atoms: C2_2  and  C8_8 
ROOT
HETATM    1  C1  UNL     1     -33.899  17.064  -1.510  1.00 20.00     0.018 C 
HETATM    2  C2  UNL     1     -33.806  16.624  -2.975  1.00 20.00     0.034 C 
HETATM    3  C3  UNL     1     -32.791  18.120  -1.475  1.00 20.00     0.122 C 
HETATM    4  C4  UNL     1     -33.390  17.902  -3.720  1.00 20.00     0.123 C 
HETATM    5  C5  UNL     1     -35.273  17.585  -1.090  1.00 20.00     0.013 C 
HETATM    6  C6  UNL     1     -32.834  19.119  -0.333  1.00 20.00     0.040 C 
HETATM    7  C7  UNL     1     -34.467  18.620  -4.520  1.00 20.00     0.040 C 
HETATM    8  O9  UNL     1     -32.885  18.816  -2.727  1.00 20.00    -0.381 OA
ENDROOT
BRANCH   2   9
HETATM    9  C8  UNL     1     -34.997  15.864  -3.538  1.00 20.00     0.122 C 
HETATM   10 CL10 UNL     1     -34.502  14.236  -4.029  1.00 20.00    -0.130 Cl
ENDBRANCH   2   9
TORSDOF 1
ENDMDL
MODEL 2
REMARK VINA RESULT:      -3.8      2.683      4.467
REMARK  1 active torsions:
REMARK  status: ('A' for Active; 'I' for Inactive)
REMARK    1  A    between atoms: C2_2  and  C8_8 
ROOT
HETATM    1  C1  UNL     1     -34.586  14.641  -3.899  1.00 20.00     0.018 C 
HETATM    2  C2  UNL     1     -34.888  16.028  -3.320  1.00 20.00     0.034 C 
HETATM    3  C3  UNL     1     -35.758  14.495  -4.873  1.00 20.00     0.122 C 
HETATM    4  C4  UNL     1     -35.532  16.786  -4.491  1.00 20.00     0.123 C 
HETATM    5  C5  UNL     1     -33.210  14.513  -4.552  1.00 20.00     0.013 C 
HETATM    6  C6  UNL     1     -35.608  13.460  -5.973  1.00 20.00     0.040 C 
HETATM    7  C7  UNL     1     -34.672  17.817  -5.207  1.00 20.00     0.040 C 
HETATM    8  O9  UNL     1     -35.938  15.794  -5.455  1.00 20.00    -0.381 OA
ENDROOT
BRANCH   2   9
HETATM    9  C8  UNL     1     -33.749  16.730  -2.598  1.00 20.00     0.122 C 
HETATM   10 CL10 UNL     1     -34.291  17.289  -1.007  1.00 20.00    -0.130 Cl
ENDBRANCH   2   9
TORSDOF 1
ENDMDL
MODEL 3
REMARK VINA RESULT:      -3.8      2.198      2.944
REMARK  1 active torsions:
REMARK  status: ('A' for Active; 'I' for Inactive)
REMARK    1  A    between atoms: C2_2  and  C8_8 
ROOT
HETATM    1  C1  UNL     1     -34.787  15.227  -3.795  1.00 20.00     0.018 C 
HETATM    2  C2  UNL     1     -34.216  14.920  -5.184  1.00 20.00     0.034 C 
HETATM    3  C3  UNL     1     -33.684  16.135  -3.245  1.00 20.00     0.122 C 
HETATM    4  C4  UNL     1     -33.463  16.204  -5.567  1.00 20.00     0.123 C 
HETATM    5  C5  UNL     1     -36.176  15.867  -3.808  1.00 20.00     0.013 C 
HETATM    6  C6  UNL     1     -34.050  17.019  -2.066  1.00 20.00     0.040 C 
HETATM    7  C7  UNL     1     -34.126  17.119  -6.586  1.00 20.00     0.040 C 
HETATM    8  O9  UNL     1     -33.273  16.952  -4.350  1.00 20.00    -0.381 OA
ENDROOT
BRANCH   2   9
HETATM    9  C8  UNL     1     -35.186  14.366  -6.215  1.00 20.00     0.122 C 
HETATM   10 CL10 UNL     1     -34.293  13.610  -7.545  1.00 20.00    -0.130 Cl
ENDBRANCH   2   9
TORSDOF 1
ENDMDL
MODEL 4
REMARK VINA RESULT:      -3.8      3.602      5.356
REMARK  1 active torsions:
REMARK  status: ('A' for Active; 'I' for Inactive)
REMARK    1  A    between atoms: C2_2  and  C8_8 
ROOT
HETATM    1  C1  UNL     1     -34.165  15.295  -5.577  1.00 20.00     0.018 C 
HETATM    2  C2  UNL     1     -34.937  14.859  -4.327  1.00 20.00     0.034 C 
HETATM    3  C3  UNL     1     -34.293  14.029  -6.427  1.00 20.00     0.122 C 
HETATM    4  C4  UNL     1     -36.030  13.927  -4.872  1.00 20.00     0.123 C 
HETATM    5  C5  UNL     1     -34.706  16.557  -6.249  1.00 20.00     0.013 C 
HETATM    6  C6  UNL     1     -34.049  14.178  -7.918  1.00 20.00     0.040 C 
HETATM    7  C7  UNL     1     -37.444  14.485  -4.947  1.00 20.00     0.040 C 
HETATM    8  O9  UNL     1     -35.627  13.549  -6.203  1.00 20.00    -0.381 OA
ENDROOT
BRANCH   2   9
HETATM    9  C8  UNL     1     -35.391  15.963  -3.384  1.00 20.00     0.122 C 
HETATM   10 CL10 UNL     1     -34.011  16.580  -2.461  1.00 20.00    -0.130 Cl
ENDBRANCH   2   9
TORSDOF 1
ENDMDL
MODEL 5
REMARK VINA RESULT:      -3.7      3.996      5.024
REMARK  1 active torsions:
REMARK  status: ('A' for Active; 'I' for Inactive)
REMARK    1  A    between atoms: C2_2  and  C8_8 
ROOT
HETATM    1  C1  UNL     1     -35.757  15.080  -4.403  1.00 20.00     0.018 C 
HETATM    2  C2  UNL     1     -36.704  14.109  -5.119  1.00 20.00     0.034 C 
HETATM    3  C3  UNL     1     -34.471  14.250  -4.403  1.00 20.00     0.122 C 
HETATM    4  C4  UNL     1     -35.795  13.369  -6.111  1.00 20.00     0.123 C 
HETATM    5  C5  UNL     1     -35.621  16.445  -5.077  1.00 20.00     0.013 C 
HETATM    6  C6  UNL     1     -33.171  15.002  -4.185  1.00 20.00     0.040 C 
HETATM    7  C7  UNL     1     -35.896  13.768  -7.576  1.00 20.00     0.040 C 
HETATM    8  O9  UNL     1     -34.438  13.592  -5.679  1.00 20.00    -0.381 OA
ENDROOT
BRANCH   2   9
HETATM    9  C8  UNL     1     -37.989  14.697  -5.680  1.00 20.00     0.122 C 
HETATM   10 CL10 UNL     1     -38.984  15.348  -4.367  1.00 20.00    -0.130 Cl
ENDBRANCH   2   9
TORSDOF 1
ENDMDL
MODEL 6
REMARK VINA RESULT:      -3.7      1.398      1.711
REMARK  1 active torsions:
REMARK  status: ('A' for Active; 'I' for Inactive)
REMARK    1  A    between atoms: C2_2  and  C8_8 
ROOT
HETATM    1  C1  UNL     1     -35.489  16.567  -2.230  1.00 20.00     0.018 C 
HETATM    2  C2  UNL     1     -34.942  15.639  -3.321  1.00 20.00     0.034 C 
HETATM    3  C3  UNL     1     -34.180  17.006  -1.568  1.00 20.00     0.122 C 
HETATM    4  C4  UNL     1     -33.596  16.273  -3.706  1.00 20.00     0.123 C 
HETATM    5  C5  UNL     1     -36.344  17.723  -2.751  1.00 20.00     0.013 C 
HETATM    6  C6  UNL     1     -34.229  18.266  -0.724  1.00 20.00     0.040 C 
HETATM    7  C7  UNL     1     -33.540  17.037  -5.021  1.00 20.00     0.040 C 
HETATM    8  O9  UNL     1     -33.246  17.183  -2.644  1.00 20.00    -0.381 OA
ENDROOT
BRANCH   2   9
HETATM    9  C8  UNL     1     -35.885  15.296  -4.463  1.00 20.00     0.122 C 
HETATM   10 CL10 UNL     1     -35.670  13.604  -4.941  1.00 20.00    -0.130 Cl
ENDBRANCH   2   9
TORSDOF 1
ENDMDL
MODEL 7
REMARK VINA RESULT:      -3.5      3.747      5.546
REMARK  1 active torsions:
REMARK  status: ('A' for Active; 'I' for Inactive)
REMARK    1  A    between atoms: C2_2  and  C8_8 
ROOT
HETATM    1  C1  UNL     1     -34.616  15.546  -7.050  1.00 20.00     0.018 C 
HETATM    2  C2  UNL     1     -33.592  16.233  -6.139  1.00 20.00     0.034 C 
HETATM    3  C3  UNL     1     -34.204  14.084  -6.863  1.00 20.00     0.122 C 
HETATM    4  C4  UNL     1     -33.368  15.221  -5.004  1.00 20.00     0.123 C 
HETATM    5  C5  UNL     1     -36.075  15.836  -6.697  1.00 20.00     0.013 C 
HETATM    6  C6  UNL     1     -35.230  13.030  -7.240  1.00 20.00     0.040 C 
HETATM    7  C7  UNL     1     -34.025  15.524  -3.666  1.00 20.00     0.040 C 
HETATM    8  O9  UNL     1     -33.870  13.954  -5.473  1.00 20.00    -0.381 OA
ENDROOT
BRANCH   2   9
HETATM    9  C8  UNL     1     -33.897  17.664  -5.726  1.00 20.00     0.122 C 
HETATM   10 CL10 UNL     1     -33.898  18.720  -7.148  1.00 20.00    -0.130 Cl
ENDBRANCH   2   9
TORSDOF 1
ENDMDL
MODEL 8
REMARK VINA RESULT:      -3.4      3.069      4.884
REMARK  1 active torsions:
REMARK  status: ('A' for Active; 'I' for Inactive)
REMARK    1  A    between atoms: C2_2  and  C8_8 
ROOT
HETATM    1  C1  UNL     1     -35.757  15.739  -5.338  1.00 20.00     0.018 C 
HETATM    2  C2  UNL     1     -34.594  16.204  -4.453  1.00 20.00     0.034 C 
HETATM    3  C3  UNL     1     -35.044  15.642  -6.689  1.00 20.00     0.122 C 
HETATM    4  C4  UNL     1     -33.362  15.529  -5.075  1.00 20.00     0.123 C 
HETATM    5  C5  UNL     1     -36.417  14.437  -4.883  1.00 20.00     0.013 C 
HETATM    6  C6  UNL     1     -35.715  14.797  -7.757  1.00 20.00     0.040 C 
HETATM    7  C7  UNL     1     -32.787  14.326  -4.344  1.00 20.00     0.040 C 
HETATM    8  O9  UNL     1     -33.743  15.108  -6.400  1.00 20.00    -0.381 OA
ENDROOT
BRANCH   2   9
HETATM    9  C8  UNL     1     -34.772  16.046  -2.951  1.00 20.00     0.122 C 
HETATM   10 CL10 UNL     1     -33.589  17.044  -2.091  1.00 20.00    -0.130 Cl
ENDBRANCH   2   9
TORSDOF 1
ENDMDL
MODEL 9
REMARK VINA RESULT:      -3.4     11.353     12.179
REMARK  1 active torsions:
REMARK  status: ('A' for Active; 'I' for Inactive)
REMARK    1  A    between atoms: C2_2  and  C8_8 
ROOT
HETATM    1  C1  UNL     1     -33.175   8.052   3.740  1.00 20.00     0.018 C 
HETATM    2  C2  UNL     1     -33.534   7.410   2.395  1.00 20.00     0.034 C 
HETATM    3  C3  UNL     1     -34.084   7.248   4.673  1.00 20.00     0.122 C 
HETATM    4  C4  UNL     1     -33.837   5.946   2.752  1.00 20.00     0.123 C 
HETATM    5  C5  UNL     1     -31.690   7.981   4.100  1.00 20.00     0.013 C 
HETATM    6  C6  UNL     1     -33.729   7.255   6.148  1.00 20.00     0.040 C 
HETATM    7  C7  UNL     1     -32.777   4.913   2.400  1.00 20.00     0.040 C 
HETATM    8  O9  UNL     1     -34.051   5.902   4.176  1.00 20.00    -0.381 OA
ENDROOT
BRANCH   2   9
HETATM    9  C8  UNL     1     -32.566   7.645   1.246  1.00 20.00     0.122 C 
HETATM   10 CL10 UNL     1     -32.518   9.367   0.834  1.00 20.00    -0.130 Cl
ENDBRANCH   2   9
TORSDOF 1
ENDMDL
