MODEL 1
REMARK VINA RESULT:      -7.4      0.000      0.000
REMARK  3 active torsions:
REMARK  status: ('A' for Active; 'I' for Inactive)
REMARK    1  A    between atoms: C4_4  and  C10_10 
REMARK    2  A    between atoms: C8_8  and  O11_11 
REMARK    3  A    between atoms: C9_9  and  C10_10 
ROOT
HETATM    1  C1  UNL     1     -32.890   9.909  -0.070  1.00 20.00     0.012 C 
HETATM    2  C2  UNL     1     -32.545   9.422   0.972  1.00 20.00    -0.117 C 
HETATM    3  C9  UNL     1     -32.122   8.829   2.250  1.00 20.00     0.097 C 
ENDROOT
BRANCH   3   4
HETATM    4  C10 UNL     1     -32.314   7.319   2.270  1.00 20.00     0.046 C 
BRANCH   4   5
HETATM    5  C4  UNL     1     -33.146   6.906   3.448  1.00 20.00    -0.080 C 
HETATM    6  C3  UNL     1     -34.108   5.972   3.347  1.00 20.00     0.007 C 
HETATM    7  C8  UNL     1     -34.939   5.508   4.508  1.00 20.00     0.141 C 
HETATM    8  C7  UNL     1     -34.368   5.934   5.862  1.00 20.00     0.036 C 
HETATM    9  C6  UNL     1     -33.907   7.386   5.828  1.00 20.00     0.007 C 
HETATM   10  C5  UNL     1     -32.838   7.598   4.753  1.00 20.00     0.034 C 
BRANCH   7  11
HETATM   11  O11 UNL     1     -35.023   4.086   4.468  1.00 20.00    -0.392 OA
HETATM   12  H25 UNL     1     -34.432   3.794   3.756  1.00 20.00     0.210 HD
ENDBRANCH   7  11
ENDBRANCH   4   5
ENDBRANCH   3   4
TORSDOF 3
ENDMDL
MODEL 2
REMARK VINA RESULT:      -6.2      1.448      2.129
REMARK  3 active torsions:
REMARK  status: ('A' for Active; 'I' for Inactive)
REMARK    1  A    between atoms: C4_4  and  C10_10 
REMARK    2  A    between atoms: C8_8  and  O11_11 
REMARK    3  A    between atoms: C9_9  and  C10_10 
ROOT
HETATM    1  C1  UNL     1     -33.157   9.459  -0.726  1.00 20.00     0.012 C 
HETATM    2  C2  UNL     1     -32.833   9.470   0.430  1.00 20.00    -0.117 C 
HETATM    3  C9  UNL     1     -32.439   9.486   1.847  1.00 20.00     0.097 C 
ENDROOT
BRANCH   3   4
HETATM    4  C10 UNL     1     -31.722   8.206   2.255  1.00 20.00     0.046 C 
BRANCH   4   5
HETATM    5  C4  UNL     1     -32.592   7.374   3.150  1.00 20.00    -0.080 C 
HETATM    6  C3  UNL     1     -32.655   7.585   4.476  1.00 20.00     0.007 C 
HETATM    7  C8  UNL     1     -33.536   6.796   5.401  1.00 20.00     0.141 C 
HETATM    8  C7  UNL     1     -34.597   5.976   4.663  1.00 20.00     0.036 C 
HETATM    9  C6  UNL     1     -34.000   5.276   3.450  1.00 20.00     0.007 C 
HETATM   10  C5  UNL     1     -33.393   6.287   2.474  1.00 20.00     0.034 C 
BRANCH   7  11
HETATM   11  O11 UNL     1     -34.186   7.699   6.292  1.00 20.00    -0.392 OA
HETATM   12  H25 UNL     1     -33.497   8.055   6.874  1.00 20.00     0.210 HD
ENDBRANCH   7  11
ENDBRANCH   4   5
ENDBRANCH   3   4
TORSDOF 3
ENDMDL
MODEL 3
REMARK VINA RESULT:      -5.0     11.064     11.694
REMARK  3 active torsions:
REMARK  status: ('A' for Active; 'I' for Inactive)
REMARK    1  A    between atoms: C4_4  and  C10_10 
REMARK    2  A    between atoms: C8_8  and  O11_11 
REMARK    3  A    between atoms: C9_9  and  C10_10 
ROOT
HETATM    1  C1  UNL     1     -32.455  18.618  -0.676  1.00 20.00     0.012 C 
HETATM    2  C2  UNL     1     -33.297  17.898  -1.139  1.00 20.00    -0.117 C 
HETATM    3  C9  UNL     1     -34.331  17.017  -1.705  1.00 20.00     0.097 C 
ENDROOT
BRANCH   3   4
HETATM    4  C10 UNL     1     -33.850  16.307  -2.963  1.00 20.00     0.046 C 
BRANCH   4   5
HETATM    5  C4  UNL     1     -35.009  15.733  -3.724  1.00 20.00    -0.080 C 
HETATM    6  C3  UNL     1     -34.893  14.608  -4.452  1.00 20.00     0.007 C 
HETATM    7  C8  UNL     1     -36.036  13.984  -5.200  1.00 20.00     0.141 C 
HETATM    8  C7  UNL     1     -37.399  14.540  -4.784  1.00 20.00     0.036 C 
HETATM    9  C6  UNL     1     -37.354  16.057  -4.654  1.00 20.00     0.007 C 
HETATM   10  C5  UNL     1     -36.310  16.490  -3.621  1.00 20.00     0.034 C 
BRANCH   7  11
HETATM   11  O11 UNL     1     -36.018  12.578  -4.967  1.00 20.00    -0.392 OA
HETATM   12  H25 UNL     1     -35.836  12.457  -4.023  1.00 20.00     0.210 HD
ENDBRANCH   7  11
ENDBRANCH   4   5
ENDBRANCH   3   4
TORSDOF 3
ENDMDL
MODEL 4
REMARK VINA RESULT:      -4.9     11.031     11.642
REMARK  3 active torsions:
REMARK  status: ('A' for Active; 'I' for Inactive)
REMARK    1  A    between atoms: C4_4  and  C10_10 
REMARK    2  A    between atoms: C8_8  and  O11_11 
REMARK    3  A    between atoms: C9_9  and  C10_10 
ROOT
HETATM    1  C1  UNL     1     -31.969  18.888   0.587  1.00 20.00     0.012 C 
HETATM    2  C2  UNL     1     -32.397  18.493  -0.463  1.00 20.00    -0.117 C 
HETATM    3  C9  UNL     1     -32.918  18.009  -1.751  1.00 20.00     0.097 C 
ENDROOT
BRANCH   3   4
HETATM    4  C10 UNL     1     -34.214  17.227  -1.586  1.00 20.00     0.046 C 
BRANCH   4   5
HETATM    5  C4  UNL     1     -34.410  16.277  -2.730  1.00 20.00    -0.080 C 
HETATM    6  C3  UNL     1     -33.373  15.789  -3.434  1.00 20.00     0.007 C 
HETATM    7  C8  UNL     1     -33.524  14.812  -4.563  1.00 20.00     0.141 C 
HETATM    8  C7  UNL     1     -34.911  14.166  -4.615  1.00 20.00     0.036 C 
HETATM    9  C6  UNL     1     -36.005  15.202  -4.396  1.00 20.00     0.007 C 
HETATM   10  C5  UNL     1     -35.838  15.901  -3.043  1.00 20.00     0.034 C 
BRANCH   7  11
HETATM   11  O11 UNL     1     -32.543  13.790  -4.416  1.00 20.00    -0.392 OA
HETATM   12  H25 UNL     1     -31.961  13.852  -5.190  1.00 20.00     0.210 HD
ENDBRANCH   7  11
ENDBRANCH   4   5
ENDBRANCH   3   4
TORSDOF 3
ENDMDL
MODEL 5
REMARK VINA RESULT:      -4.8     10.914     11.514
REMARK  3 active torsions:
REMARK  status: ('A' for Active; 'I' for Inactive)
REMARK    1  A    between atoms: C4_4  and  C10_10 
REMARK    2  A    between atoms: C8_8  and  O11_11 
REMARK    3  A    between atoms: C9_9  and  C10_10 
ROOT
HETATM    1  C1  UNL     1     -34.918  14.093  -4.436  1.00 20.00     0.012 C 
HETATM    2  C2  UNL     1     -34.582  15.075  -3.834  1.00 20.00    -0.117 C 
HETATM    3  C9  UNL     1     -34.167  16.281  -3.099  1.00 20.00     0.097 C 
ENDROOT
BRANCH   3   4
HETATM    4  C10 UNL     1     -35.148  16.639  -1.991  1.00 20.00     0.046 C 
BRANCH   4   5
HETATM    5  C4  UNL     1     -34.471  17.448  -0.925  1.00 20.00    -0.080 C 
HETATM    6  C3  UNL     1     -35.091  17.770   0.224  1.00 20.00     0.007 C 
HETATM    7  C8  UNL     1     -34.438  18.549   1.329  1.00 20.00     0.141 C 
HETATM    8  C7  UNL     1     -32.918  18.643   1.179  1.00 20.00     0.036 C 
HETATM    9  C6  UNL     1     -32.530  18.953  -0.261  1.00 20.00     0.007 C 
HETATM   10  C5  UNL     1     -33.054  17.877  -1.216  1.00 20.00     0.034 C 
BRANCH   7  11
HETATM   11  O11 UNL     1     -34.743  17.921   2.571  1.00 20.00    -0.392 OA
HETATM   12  H25 UNL     1     -34.734  18.620   3.243  1.00 20.00     0.210 HD
ENDBRANCH   7  11
ENDBRANCH   4   5
ENDBRANCH   3   4
TORSDOF 3
ENDMDL
MODEL 6
REMARK VINA RESULT:      -4.8      2.483      4.905
REMARK  3 active torsions:
REMARK  status: ('A' for Active; 'I' for Inactive)
REMARK    1  A    between atoms: C4_4  and  C10_10 
REMARK    2  A    between atoms: C8_8  and  O11_11 
REMARK    3  A    between atoms: C9_9  and  C10_10 
ROOT
HETATM    1  C1  UNL     1     -34.620   4.986   6.047  1.00 20.00     0.012 C 
HETATM    2  C2  UNL     1     -34.794   5.417   4.939  1.00 20.00    -0.117 C 
HETATM    3  C9  UNL     1     -35.010   5.946   3.583  1.00 20.00     0.097 C 
ENDROOT
BRANCH   3   4
HETATM    4  C10 UNL     1     -33.801   5.723   2.685  1.00 20.00     0.046 C 
BRANCH   4   5
HETATM    5  C4  UNL     1     -33.022   6.995   2.520  1.00 20.00    -0.080 C 
HETATM    6  C3  UNL     1     -32.920   7.617   1.332  1.00 20.00     0.007 C 
HETATM    7  C8  UNL     1     -32.178   8.906   1.132  1.00 20.00     0.141 C 
HETATM    8  C7  UNL     1     -31.848   9.618   2.446  1.00 20.00     0.036 C 
HETATM    9  C6  UNL     1     -31.331   8.632   3.486  1.00 20.00     0.007 C 
HETATM   10  C5  UNL     1     -32.363   7.536   3.765  1.00 20.00     0.034 C 
BRANCH   7  11
HETATM   11  O11 UNL     1     -32.974   9.769   0.325  1.00 20.00    -0.392 OA
HETATM   12  H25 UNL     1     -32.543   9.812  -0.543  1.00 20.00     0.210 HD
ENDBRANCH   7  11
ENDBRANCH   4   5
ENDBRANCH   3   4
TORSDOF 3
ENDMDL
MODEL 7
REMARK VINA RESULT:      -4.8     10.884     11.557
REMARK  3 active torsions:
REMARK  status: ('A' for Active; 'I' for Inactive)
REMARK    1  A    between atoms: C4_4  and  C10_10 
REMARK    2  A    between atoms: C8_8  and  O11_11 
REMARK    3  A    between atoms: C9_9  and  C10_10 
ROOT
HETATM    1  C1  UNL     1     -34.486  18.425   1.353  1.00 20.00     0.012 C 
HETATM    2  C2  UNL     1     -34.842  17.878   0.346  1.00 20.00    -0.117 C 
HETATM    3  C9  UNL     1     -35.283  17.209  -0.888  1.00 20.00     0.097 C 
ENDROOT
BRANCH   3   4
HETATM    4  C10 UNL     1     -34.225  17.274  -1.982  1.00 20.00     0.046 C 
BRANCH   4   5
HETATM    5  C4  UNL     1     -34.468  16.216  -3.018  1.00 20.00    -0.080 C 
HETATM    6  C3  UNL     1     -33.459  15.640  -3.694  1.00 20.00     0.007 C 
HETATM    7  C8  UNL     1     -33.657  14.556  -4.714  1.00 20.00     0.141 C 
HETATM    8  C7  UNL     1     -35.054  13.934  -4.664  1.00 20.00     0.036 C 
HETATM    9  C6  UNL     1     -36.125  15.007  -4.523  1.00 20.00     0.007 C 
HETATM   10  C5  UNL     1     -35.909  15.836  -3.254  1.00 20.00     0.034 C 
BRANCH   7  11
HETATM   11  O11 UNL     1     -32.687  13.536  -4.489  1.00 20.00    -0.392 OA
HETATM   12  H25 UNL     1     -32.570  13.074  -5.334  1.00 20.00     0.210 HD
ENDBRANCH   7  11
ENDBRANCH   4   5
ENDBRANCH   3   4
TORSDOF 3
ENDMDL
MODEL 8
REMARK VINA RESULT:      -4.8     10.704     11.875
REMARK  3 active torsions:
REMARK  status: ('A' for Active; 'I' for Inactive)
REMARK    1  A    between atoms: C4_4  and  C10_10 
REMARK    2  A    between atoms: C8_8  and  O11_11 
REMARK    3  A    between atoms: C9_9  and  C10_10 
ROOT
HETATM    1  C1  UNL     1     -34.884  17.905   0.277  1.00 20.00     0.012 C 
HETATM    2  C2  UNL     1     -35.026  17.298  -0.749  1.00 20.00    -0.117 C 
HETATM    3  C9  UNL     1     -35.202  16.554  -2.006  1.00 20.00     0.097 C 
ENDROOT
BRANCH   3   4
HETATM    4  C10 UNL     1     -33.919  16.505  -2.825  1.00 20.00     0.046 C 
BRANCH   4   5
HETATM    5  C4  UNL     1     -34.113  15.682  -4.065  1.00 20.00    -0.080 C 
HETATM    6  C3  UNL     1     -34.527  14.404  -4.012  1.00 20.00     0.007 C 
HETATM    7  C8  UNL     1     -34.765  13.559  -5.230  1.00 20.00     0.141 C 
HETATM    8  C7  UNL     1     -34.826  14.374  -6.523  1.00 20.00     0.036 C 
HETATM    9  C6  UNL     1     -33.716  15.417  -6.564  1.00 20.00     0.007 C 
HETATM   10  C5  UNL     1     -33.817  16.374  -5.373  1.00 20.00     0.034 C 
BRANCH   7  11
HETATM   11  O11 UNL     1     -35.994  12.858  -5.065  1.00 20.00    -0.392 OA
HETATM   12  H25 UNL     1     -35.778  12.018  -4.633  1.00 20.00     0.210 HD
ENDBRANCH   7  11
ENDBRANCH   4   5
ENDBRANCH   3   4
TORSDOF 3
ENDMDL
MODEL 9
REMARK VINA RESULT:      -4.7     11.129     11.626
REMARK  3 active torsions:
REMARK  status: ('A' for Active; 'I' for Inactive)
REMARK    1  A    between atoms: C4_4  and  C10_10 
REMARK    2  A    between atoms: C8_8  and  O11_11 
REMARK    3  A    between atoms: C9_9  and  C10_10 
ROOT
HETATM    1  C1  UNL     1     -33.665  16.311  -6.379  1.00 20.00     0.012 C 
HETATM    2  C2  UNL     1     -33.585  16.011  -5.219  1.00 20.00    -0.117 C 
HETATM    3  C9  UNL     1     -33.483  15.644  -3.798  1.00 20.00     0.097 C 
ENDROOT
BRANCH   3   4
HETATM    4  C10 UNL     1     -34.785  15.896  -3.049  1.00 20.00     0.046 C 
BRANCH   4   5
HETATM    5  C4  UNL     1     -34.562  16.833  -1.898  1.00 20.00    -0.080 C 
HETATM    6  C3  UNL     1     -35.516  17.072  -0.982  1.00 20.00     0.007 C 
HETATM    7  C8  UNL     1     -35.322  17.977   0.201  1.00 20.00     0.141 C 
HETATM    8  C7  UNL     1     -33.853  18.323   0.455  1.00 20.00     0.036 C 
HETATM    9  C6  UNL     1     -33.138  18.661  -0.847  1.00 20.00     0.007 C 
HETATM   10  C5  UNL     1     -33.204  17.489  -1.830  1.00 20.00     0.034 C 
BRANCH   7  11
HETATM   11  O11 UNL     1     -35.853  17.336   1.356  1.00 20.00    -0.392 OA
HETATM   12  H25 UNL     1     -36.098  16.437   1.086  1.00 20.00     0.210 HD
ENDBRANCH   7  11
ENDBRANCH   4   5
ENDBRANCH   3   4
TORSDOF 3
ENDMDL
