MODEL 1
REMARK VINA RESULT:      -5.5      0.000      0.000
REMARK  1 active torsions:
REMARK  status: ('A' for Active; 'I' for Inactive)
REMARK    1  A    between atoms: C2_2  and  C10_10 
ROOT
HETATM    1  C1  UNL     1     -33.940   6.128   3.035  1.00 20.00    -0.004 C 
HETATM    2  C2  UNL     1     -33.170   7.205   3.291  1.00 20.00    -0.076 C 
HETATM    3  C3  UNL     1     -33.019   7.738   4.700  1.00 20.00     0.034 C 
HETATM    4  C4  UNL     1     -33.501   6.776   5.789  1.00 20.00     0.006 C 
HETATM    5  C5  UNL     1     -34.832   6.139   5.403  1.00 20.00     0.024 C 
HETATM    6  C9  UNL     1     -34.734   5.388   4.071  1.00 20.00     0.105 C 
HETATM    7 CL12 UNL     1     -33.972   3.784   4.315  1.00 20.00    -0.121 Cl
ENDROOT
BRANCH   2   8
HETATM    8  C10 UNL     1     -32.403   7.933   2.242  1.00 20.00     0.040 C 
HETATM    9  C6  UNL     1     -33.150   8.085   0.933  1.00 20.00     0.037 C 
HETATM   10  C7  UNL     1     -32.414   9.239   0.288  1.00 20.00     0.168 C 
HETATM   11  O11 UNL     1     -32.002  10.104   1.355  1.00 20.00    -0.390 OA
HETATM   12  C8  UNL     1     -32.103   9.384   2.593  1.00 20.00     0.176 C 
ENDBRANCH   2   8
TORSDOF 1
ENDMDL
MODEL 2
REMARK VINA RESULT:      -5.1      3.114      4.847
REMARK  1 active torsions:
REMARK  status: ('A' for Active; 'I' for Inactive)
REMARK    1  A    between atoms: C2_2  and  C10_10 
ROOT
HETATM    1  C1  UNL     1     -33.650   8.013   1.896  1.00 20.00    -0.004 C 
HETATM    2  C2  UNL     1     -33.301   7.417   3.053  1.00 20.00    -0.076 C 
HETATM    3  C3  UNL     1     -31.905   7.566   3.618  1.00 20.00     0.034 C 
HETATM    4  C4  UNL     1     -31.086   8.689   2.976  1.00 20.00     0.006 C 
HETATM    5  C5  UNL     1     -31.249   8.685   1.460  1.00 20.00     0.024 C 
HETATM    6  C9  UNL     1     -32.718   8.830   1.049  1.00 20.00     0.105 C 
HETATM    7 CL12 UNL     1     -33.228  10.545   1.156  1.00 20.00    -0.121 Cl
ENDROOT
BRANCH   2   8
HETATM    8  C10 UNL     1     -34.240   6.598   3.870  1.00 20.00     0.040 C 
HETATM    9  C6  UNL     1     -34.047   5.104   3.709  1.00 20.00     0.037 C 
HETATM   10  C7  UNL     1     -34.709   4.569   4.959  1.00 20.00     0.168 C 
HETATM   11  O11 UNL     1     -34.478   5.540   5.988  1.00 20.00    -0.390 OA
HETATM   12  C8  UNL     1     -34.062   6.768   5.372  1.00 20.00     0.176 C 
ENDBRANCH   2   8
TORSDOF 1
ENDMDL
MODEL 3
REMARK VINA RESULT:      -5.0     11.173     11.767
REMARK  1 active torsions:
REMARK  status: ('A' for Active; 'I' for Inactive)
REMARK    1  A    between atoms: C2_2  and  C10_10 
ROOT
HETATM    1  C1  UNL     1     -33.933  16.016  -3.687  1.00 20.00    -0.004 C 
HETATM    2  C2  UNL     1     -35.155  15.680  -4.145  1.00 20.00    -0.076 C 
HETATM    3  C3  UNL     1     -36.408  16.101  -3.408  1.00 20.00     0.034 C 
HETATM    4  C4  UNL     1     -36.180  17.190  -2.357  1.00 20.00     0.006 C 
HETATM    5  C5  UNL     1     -34.928  16.902  -1.535  1.00 20.00     0.024 C 
HETATM    6  C9  UNL     1     -33.685  16.785  -2.422  1.00 20.00     0.105 C 
HETATM    7 CL12 UNL     1     -33.083  18.413  -2.869  1.00 20.00    -0.121 Cl
ENDROOT
BRANCH   2   8
HETATM    8  C10 UNL     1     -35.377  14.903  -5.397  1.00 20.00     0.040 C 
HETATM    9  C6  UNL     1     -34.116  14.671  -6.204  1.00 20.00     0.037 C 
HETATM   10  C7  UNL     1     -34.509  13.491  -7.064  1.00 20.00     0.168 C 
HETATM   11  O11 UNL     1     -35.395  12.690  -6.272  1.00 20.00    -0.390 OA
HETATM   12  C8  UNL     1     -35.853  13.476  -5.161  1.00 20.00     0.176 C 
ENDBRANCH   2   8
TORSDOF 1
ENDMDL
MODEL 4
REMARK VINA RESULT:      -4.8     11.239     11.929
REMARK  1 active torsions:
REMARK  status: ('A' for Active; 'I' for Inactive)
REMARK    1  A    between atoms: C2_2  and  C10_10 
ROOT
HETATM    1  C1  UNL     1     -34.784  17.821  -0.023  1.00 20.00    -0.004 C 
HETATM    2  C2  UNL     1     -33.516  18.269  -0.114  1.00 20.00    -0.076 C 
HETATM    3  C3  UNL     1     -32.703  18.060  -1.373  1.00 20.00     0.034 C 
HETATM    4  C4  UNL     1     -33.530  17.641  -2.591  1.00 20.00     0.006 C 
HETATM    5  C5  UNL     1     -34.554  16.575  -2.214  1.00 20.00     0.024 C 
HETATM    6  C9  UNL     1     -35.493  17.061  -1.106  1.00 20.00     0.105 C 
HETATM    7 CL12 UNL     1     -36.766  18.121  -1.788  1.00 20.00    -0.121 Cl
ENDROOT
BRANCH   2   8
HETATM    8  C10 UNL     1     -32.828  19.009   0.980  1.00 20.00     0.040 C 
HETATM    9  C6  UNL     1     -33.225  18.555   2.370  1.00 20.00     0.037 C 
HETATM   10  C7  UNL     1     -32.067  19.056   3.204  1.00 20.00     0.168 C 
HETATM   11  O11 UNL     1     -30.900  18.962   2.376  1.00 20.00    -0.390 OA
HETATM   12  C8  UNL     1     -31.320  18.802   1.012  1.00 20.00     0.176 C 
ENDBRANCH   2   8
TORSDOF 1
ENDMDL
MODEL 5
REMARK VINA RESULT:      -4.8     10.728     11.433
REMARK  1 active torsions:
REMARK  status: ('A' for Active; 'I' for Inactive)
REMARK    1  A    between atoms: C2_2  and  C10_10 
ROOT
HETATM    1  C1  UNL     1     -35.731  16.543  -2.260  1.00 20.00    -0.004 C 
HETATM    2  C2  UNL     1     -34.714  16.020  -2.973  1.00 20.00    -0.076 C 
HETATM    3  C3  UNL     1     -33.357  16.689  -3.003  1.00 20.00     0.034 C 
HETATM    4  C4  UNL     1     -33.158  17.751  -1.919  1.00 20.00     0.006 C 
HETATM    5  C5  UNL     1     -34.391  18.639  -1.792  1.00 20.00     0.024 C 
HETATM    6  C9  UNL     1     -35.647  17.819  -1.475  1.00 20.00     0.105 C 
HETATM    7 CL12 UNL     1     -35.697  17.405   0.268  1.00 20.00    -0.121 Cl
ENDROOT
BRANCH   2   8
HETATM    8  C10 UNL     1     -34.826  14.758  -3.757  1.00 20.00     0.040 C 
HETATM    9  C6  UNL     1     -36.053  14.696  -4.644  1.00 20.00     0.037 C 
HETATM   10  C7  UNL     1     -35.658  13.636  -5.648  1.00 20.00     0.168 C 
HETATM   11  O11 UNL     1     -34.244  13.767  -5.841  1.00 20.00    -0.390 OA
HETATM   12  C8  UNL     1     -33.708  14.561  -4.772  1.00 20.00     0.176 C 
ENDBRANCH   2   8
TORSDOF 1
ENDMDL
MODEL 6
REMARK VINA RESULT:      -4.6     10.990     11.563
REMARK  1 active torsions:
REMARK  status: ('A' for Active; 'I' for Inactive)
REMARK    1  A    between atoms: C2_2  and  C10_10 
ROOT
HETATM    1  C1  UNL     1     -36.379  15.854  -3.750  1.00 20.00    -0.004 C 
HETATM    2  C2  UNL     1     -35.137  16.117  -3.298  1.00 20.00    -0.076 C 
HETATM    3  C3  UNL     1     -33.951  15.294  -3.753  1.00 20.00     0.034 C 
HETATM    4  C4  UNL     1     -34.227  14.424  -4.982  1.00 20.00     0.006 C 
HETATM    5  C5  UNL     1     -35.579  13.728  -4.866  1.00 20.00     0.024 C 
HETATM    6  C9  UNL     1     -36.720  14.736  -4.691  1.00 20.00     0.105 C 
HETATM    7 CL12 UNL     1     -37.164  15.454  -6.272  1.00 20.00    -0.121 Cl
ENDROOT
BRANCH   2   8
HETATM    8  C10 UNL     1     -34.826  17.224  -2.351  1.00 20.00     0.040 C 
HETATM    9  C6  UNL     1     -35.409  17.027  -0.967  1.00 20.00     0.037 C 
HETATM   10  C7  UNL     1     -34.551  17.952  -0.133  1.00 20.00     0.168 C 
HETATM   11  O11 UNL     1     -33.243  17.931  -0.720  1.00 20.00    -0.390 OA
HETATM   12  C8  UNL     1     -33.343  17.370  -2.038  1.00 20.00     0.176 C 
ENDBRANCH   2   8
TORSDOF 1
ENDMDL
MODEL 7
REMARK VINA RESULT:      -4.5     10.945     12.026
REMARK  1 active torsions:
REMARK  status: ('A' for Active; 'I' for Inactive)
REMARK    1  A    between atoms: C2_2  and  C10_10 
ROOT
HETATM    1  C1  UNL     1     -34.403  14.925  -3.874  1.00 20.00    -0.004 C 
HETATM    2  C2  UNL     1     -34.372  16.182  -3.390  1.00 20.00    -0.076 C 
HETATM    3  C3  UNL     1     -33.887  17.336  -4.242  1.00 20.00     0.034 C 
HETATM    4  C4  UNL     1     -33.788  17.013  -5.735  1.00 20.00     0.006 C 
HETATM    5  C5  UNL     1     -33.154  15.643  -5.956  1.00 20.00     0.024 C 
HETATM    6  C9  UNL     1     -33.942  14.536  -5.249  1.00 20.00     0.105 C 
HETATM    7 CL12 UNL     1     -35.384  14.085  -6.212  1.00 20.00    -0.121 Cl
ENDROOT
BRANCH   2   8
HETATM    8  C10 UNL     1     -34.821  16.543  -2.016  1.00 20.00     0.040 C 
HETATM    9  C6  UNL     1     -33.846  17.428  -1.266  1.00 20.00     0.037 C 
HETATM   10  C7  UNL     1     -34.731  18.034  -0.200  1.00 20.00     0.168 C 
HETATM   11  O11 UNL     1     -36.029  18.187  -0.790  1.00 20.00    -0.390 OA
HETATM   12  C8  UNL     1     -36.087  17.389  -1.982  1.00 20.00     0.176 C 
ENDBRANCH   2   8
TORSDOF 1
ENDMDL
MODEL 8
REMARK VINA RESULT:      -4.4     10.858     11.974
REMARK  1 active torsions:
REMARK  status: ('A' for Active; 'I' for Inactive)
REMARK    1  A    between atoms: C2_2  and  C10_10 
ROOT
HETATM    1  C1  UNL     1     -33.790  15.719  -3.205  1.00 20.00    -0.004 C 
HETATM    2  C2  UNL     1     -33.795  17.066  -3.248  1.00 20.00    -0.076 C 
HETATM    3  C3  UNL     1     -33.617  17.806  -4.556  1.00 20.00     0.034 C 
HETATM    4  C4  UNL     1     -33.788  16.930  -5.800  1.00 20.00     0.006 C 
HETATM    5  C5  UNL     1     -33.071  15.595  -5.629  1.00 20.00     0.024 C 
HETATM    6  C9  UNL     1     -33.578  14.835  -4.399  1.00 20.00     0.105 C 
HETATM    7 CL12 UNL     1     -35.130  14.017  -4.768  1.00 20.00    -0.121 Cl
ENDROOT
BRANCH   2   8
HETATM    8  C10 UNL     1     -33.993  17.924  -2.046  1.00 20.00     0.040 C 
HETATM    9  C6  UNL     1     -34.869  17.294  -0.983  1.00 20.00     0.037 C 
HETATM   10  C7  UNL     1     -34.483  18.086   0.247  1.00 20.00     0.168 C 
HETATM   11  O11 UNL     1     -33.094  18.406   0.104  1.00 20.00    -0.390 OA
HETATM   12  C8  UNL     1     -32.715  18.196  -1.265  1.00 20.00     0.176 C 
ENDBRANCH   2   8
TORSDOF 1
ENDMDL
MODEL 9
REMARK VINA RESULT:      -4.4     10.817     11.464
REMARK  1 active torsions:
REMARK  status: ('A' for Active; 'I' for Inactive)
REMARK    1  A    between atoms: C2_2  and  C10_10 
ROOT
HETATM    1  C1  UNL     1     -33.334  16.221  -3.657  1.00 20.00    -0.004 C 
HETATM    2  C2  UNL     1     -34.506  16.543  -3.074  1.00 20.00    -0.076 C 
HETATM    3  C3  UNL     1     -35.800  15.891  -3.513  1.00 20.00     0.034 C 
HETATM    4  C4  UNL     1     -35.611  14.642  -4.377  1.00 20.00     0.006 C 
HETATM    5  C5  UNL     1     -34.529  14.865  -5.428  1.00 20.00     0.024 C 
HETATM    6  C9  UNL     1     -33.190  15.246  -4.789  1.00 20.00     0.105 C 
HETATM    7 CL12 UNL     1     -32.360  13.786  -4.163  1.00 20.00    -0.121 Cl
ENDROOT
BRANCH   2   8
HETATM    8  C10 UNL     1     -34.627  17.526  -1.962  1.00 20.00     0.040 C 
HETATM    9  C6  UNL     1     -35.485  17.043  -0.810  1.00 20.00     0.037 C 
HETATM   10  C7  UNL     1     -35.024  17.939   0.318  1.00 20.00     0.168 C 
HETATM   11  O11 UNL     1     -33.630  18.187   0.096  1.00 20.00    -0.390 OA
HETATM   12  C8  UNL     1     -33.311  17.824  -1.256  1.00 20.00     0.176 C 
ENDBRANCH   2   8
TORSDOF 1
ENDMDL
