MODEL 1
REMARK VINA RESULT:      -4.6      0.000      0.000
REMARK  1 active torsions:
REMARK  status: ('A' for Active; 'I' for Inactive)
REMARK    1  A    between atoms: C2_2  and  C10_10 
ROOT
HETATM    1  C1  UNL     1     -33.468  16.039  -3.408  1.00 20.00    -0.003 C 
HETATM    2  C2  UNL     1     -34.563  16.538  -2.809  1.00 20.00    -0.075 C 
HETATM    3  C3  UNL     1     -35.949  16.036  -3.125  1.00 20.00     0.034 C 
HETATM    4  C4  UNL     1     -36.021  15.163  -4.381  1.00 20.00     0.006 C 
HETATM    5  C5  UNL     1     -34.846  14.190  -4.446  1.00 20.00     0.024 C 
HETATM    6  C6  UNL     1     -33.500  14.922  -4.411  1.00 20.00     0.105 C 
HETATM    7 CL11 UNL     1     -33.117  15.605  -6.022  1.00 20.00    -0.121 Cl
ENDROOT
BRANCH   2   8
HETATM    8  C10 UNL     1     -34.475  17.627  -1.780  1.00 20.00    -0.028 C 
HETATM    9  C7  UNL     1     -33.005  17.832  -1.383  1.00 20.00     0.019 C 
HETATM   10  C8  UNL     1     -35.292  17.236  -0.538  1.00 20.00     0.019 C 
HETATM   11  C9  UNL     1     -35.036  18.936  -2.360  1.00 20.00     0.019 C 
ENDBRANCH   2   8
TORSDOF 1
ENDMDL
MODEL 2
REMARK VINA RESULT:      -4.3      2.063      4.079
REMARK  1 active torsions:
REMARK  status: ('A' for Active; 'I' for Inactive)
REMARK    1  A    between atoms: C2_2  and  C10_10 
ROOT
HETATM    1  C1  UNL     1     -33.388  17.535  -3.058  1.00 20.00    -0.003 C 
HETATM    2  C2  UNL     1     -34.287  16.551  -3.236  1.00 20.00    -0.075 C 
HETATM    3  C3  UNL     1     -35.428  16.326  -2.276  1.00 20.00     0.034 C 
HETATM    4  C4  UNL     1     -35.288  17.086  -0.955  1.00 20.00     0.006 C 
HETATM    5  C5  UNL     1     -34.783  18.508  -1.187  1.00 20.00     0.024 C 
HETATM    6  C6  UNL     1     -33.441  18.521  -1.927  1.00 20.00     0.105 C 
HETATM    7 CL11 UNL     1     -32.100  18.151  -0.799  1.00 20.00    -0.121 Cl
ENDROOT
BRANCH   2   8
HETATM    8  C10 UNL     1     -34.216  15.615  -4.407  1.00 20.00    -0.028 C 
HETATM    9  C7  UNL     1     -34.032  16.430  -5.697  1.00 20.00     0.019 C 
HETATM   10  C8  UNL     1     -35.513  14.797  -4.498  1.00 20.00     0.019 C 
HETATM   11  C9  UNL     1     -33.027  14.656  -4.233  1.00 20.00     0.019 C 
ENDBRANCH   2   8
TORSDOF 1
ENDMDL
MODEL 3
REMARK VINA RESULT:      -4.2      2.285      4.375
REMARK  1 active torsions:
REMARK  status: ('A' for Active; 'I' for Inactive)
REMARK    1  A    between atoms: C2_2  and  C10_10 
ROOT
HETATM    1  C1  UNL     1     -35.813  16.729  -2.493  1.00 20.00    -0.003 C 
HETATM    2  C2  UNL     1     -34.636  16.466  -3.088  1.00 20.00    -0.075 C 
HETATM    3  C3  UNL     1     -33.323  16.918  -2.500  1.00 20.00     0.034 C 
HETATM    4  C4  UNL     1     -33.467  17.944  -1.374  1.00 20.00     0.006 C 
HETATM    5  C5  UNL     1     -34.614  17.578  -0.435  1.00 20.00     0.024 C 
HETATM    6  C6  UNL     1     -35.945  17.454  -1.185  1.00 20.00     0.105 C 
HETATM    7 CL11 UNL     1     -36.634  19.075  -1.511  1.00 20.00    -0.121 Cl
ENDROOT
BRANCH   2   8
HETATM    8  C10 UNL     1     -34.553  15.700  -4.376  1.00 20.00    -0.028 C 
HETATM    9  C7  UNL     1     -33.250  16.069  -5.101  1.00 20.00     0.019 C 
HETATM   10  C8  UNL     1     -35.754  16.052  -5.268  1.00 20.00     0.019 C 
HETATM   11  C9  UNL     1     -34.567  14.191  -4.084  1.00 20.00     0.019 C 
ENDBRANCH   2   8
TORSDOF 1
ENDMDL
MODEL 4
REMARK VINA RESULT:      -4.2      2.257      4.366
REMARK  1 active torsions:
REMARK  status: ('A' for Active; 'I' for Inactive)
REMARK    1  A    between atoms: C2_2  and  C10_10 
ROOT
HETATM    1  C1  UNL     1     -35.815  16.730  -2.569  1.00 20.00    -0.003 C 
HETATM    2  C2  UNL     1     -34.629  16.441  -3.133  1.00 20.00    -0.075 C 
HETATM    3  C3  UNL     1     -33.322  16.869  -2.513  1.00 20.00     0.034 C 
HETATM    4  C4  UNL     1     -33.474  17.904  -1.395  1.00 20.00     0.006 C 
HETATM    5  C5  UNL     1     -34.652  17.564  -0.484  1.00 20.00     0.024 C 
HETATM    6  C6  UNL     1     -35.965  17.462  -1.267  1.00 20.00     0.105 C 
HETATM    7 CL11 UNL     1     -36.613  19.095  -1.616  1.00 20.00    -0.121 Cl
ENDROOT
BRANCH   2   8
HETATM    8  C10 UNL     1     -34.528  15.668  -4.415  1.00 20.00    -0.028 C 
HETATM    9  C7  UNL     1     -34.567  14.165  -4.105  1.00 20.00     0.019 C 
HETATM   10  C8  UNL     1     -33.210  16.012  -5.127  1.00 20.00     0.019 C 
HETATM   11  C9  UNL     1     -35.706  16.032  -5.334  1.00 20.00     0.019 C 
ENDBRANCH   2   8
TORSDOF 1
ENDMDL
MODEL 5
REMARK VINA RESULT:      -4.1      1.502      2.466
REMARK  1 active torsions:
REMARK  status: ('A' for Active; 'I' for Inactive)
REMARK    1  A    between atoms: C2_2  and  C10_10 
ROOT
HETATM    1  C1  UNL     1     -35.707  16.334  -4.218  1.00 20.00    -0.003 C 
HETATM    2  C2  UNL     1     -34.630  16.455  -3.422  1.00 20.00    -0.075 C 
HETATM    3  C3  UNL     1     -33.392  15.617  -3.617  1.00 20.00     0.034 C 
HETATM    4  C4  UNL     1     -33.587  14.433  -4.568  1.00 20.00     0.006 C 
HETATM    5  C5  UNL     1     -34.412  14.834  -5.788  1.00 20.00     0.024 C 
HETATM    6  C6  UNL     1     -35.780  15.398  -5.389  1.00 20.00     0.105 C 
HETATM    7 CL11 UNL     1     -36.907  14.069  -4.974  1.00 20.00    -0.121 Cl
ENDROOT
BRANCH   2   8
HETATM    8  C10 UNL     1     -34.589  17.437  -2.287  1.00 20.00    -0.028 C 
HETATM    9  C7  UNL     1     -35.499  16.939  -1.154  1.00 20.00     0.019 C 
HETATM   10  C8  UNL     1     -35.079  18.810  -2.771  1.00 20.00     0.019 C 
HETATM   11  C9  UNL     1     -33.149  17.570  -1.768  1.00 20.00     0.019 C 
ENDBRANCH   2   8
TORSDOF 1
ENDMDL
MODEL 6
REMARK VINA RESULT:      -4.0      2.090      4.484
REMARK  1 active torsions:
REMARK  status: ('A' for Active; 'I' for Inactive)
REMARK    1  A    between atoms: C2_2  and  C10_10 
ROOT
HETATM    1  C1  UNL     1     -36.267  16.375  -3.623  1.00 20.00    -0.003 C 
HETATM    2  C2  UNL     1     -35.237  15.717  -4.182  1.00 20.00    -0.075 C 
HETATM    3  C3  UNL     1     -33.851  15.745  -3.587  1.00 20.00     0.034 C 
HETATM    4  C4  UNL     1     -33.660  16.815  -2.509  1.00 20.00     0.006 C 
HETATM    5  C5  UNL     1     -34.868  16.886  -1.580  1.00 20.00     0.024 C 
HETATM    6  C6  UNL     1     -36.163  17.164  -2.350  1.00 20.00     0.105 C 
HETATM    7 CL11 UNL     1     -36.286  18.904  -2.760  1.00 20.00    -0.121 Cl
ENDROOT
BRANCH   2   8
HETATM    8  C10 UNL     1     -35.400  14.905  -5.434  1.00 20.00    -0.028 C 
HETATM    9  C7  UNL     1     -34.047  14.806  -6.153  1.00 20.00     0.019 C 
HETATM   10  C8  UNL     1     -36.425  15.579  -6.359  1.00 20.00     0.019 C 
HETATM   11  C9  UNL     1     -35.895  13.494  -5.076  1.00 20.00     0.019 C 
ENDBRANCH   2   8
TORSDOF 1
ENDMDL
MODEL 7
REMARK VINA RESULT:      -4.0     10.105     10.898
REMARK  1 active torsions:
REMARK  status: ('A' for Active; 'I' for Inactive)
REMARK    1  A    between atoms: C2_2  and  C10_10 
ROOT
HETATM    1  C1  UNL     1     -33.687   8.320   3.288  1.00 20.00    -0.003 C 
HETATM    2  C2  UNL     1     -33.057   7.960   2.155  1.00 20.00    -0.075 C 
HETATM    3  C3  UNL     1     -32.853   6.515   1.778  1.00 20.00     0.034 C 
HETATM    4  C4  UNL     1     -33.131   5.530   2.916  1.00 20.00     0.006 C 
HETATM    5  C5  UNL     1     -34.384   5.924   3.694  1.00 20.00     0.024 C 
HETATM    6  C6  UNL     1     -34.278   7.343   4.262  1.00 20.00     0.105 C 
HETATM    7 CL11 UNL     1     -33.269   7.351   5.742  1.00 20.00    -0.121 Cl
ENDROOT
BRANCH   2   8
HETATM    8  C10 UNL     1     -32.520   8.976   1.190  1.00 20.00    -0.028 C 
HETATM    9  C7  UNL     1     -31.043   8.669   0.901  1.00 20.00     0.019 C 
HETATM   10  C8  UNL     1     -32.642  10.383   1.796  1.00 20.00     0.019 C 
HETATM   11  C9  UNL     1     -33.321   8.921  -0.121  1.00 20.00     0.019 C 
ENDBRANCH   2   8
TORSDOF 1
ENDMDL
MODEL 8
REMARK VINA RESULT:      -4.0      1.544      2.093
REMARK  1 active torsions:
REMARK  status: ('A' for Active; 'I' for Inactive)
REMARK    1  A    between atoms: C2_2  and  C10_10 
ROOT
HETATM    1  C1  UNL     1     -35.877  16.514  -4.079  1.00 20.00    -0.003 C 
HETATM    2  C2  UNL     1     -34.783  16.529  -3.297  1.00 20.00    -0.075 C 
HETATM    3  C3  UNL     1     -33.630  15.581  -3.515  1.00 20.00     0.034 C 
HETATM    4  C4  UNL     1     -33.947  14.427  -4.470  1.00 20.00     0.006 C 
HETATM    5  C5  UNL     1     -34.747  14.912  -5.676  1.00 20.00     0.024 C 
HETATM    6  C6  UNL     1     -36.052  15.597  -5.254  1.00 20.00     0.105 C 
HETATM    7 CL11 UNL     1     -37.292  14.376  -4.831  1.00 20.00    -0.121 Cl
ENDROOT
BRANCH   2   8
HETATM    8  C10 UNL     1     -34.636  17.495  -2.158  1.00 20.00    -0.028 C 
HETATM    9  C7  UNL     1     -33.157  17.581  -1.754  1.00 20.00     0.019 C 
HETATM   10  C8  UNL     1     -35.468  17.014  -0.959  1.00 20.00     0.019 C 
HETATM   11  C9  UNL     1     -35.132  18.885  -2.589  1.00 20.00     0.019 C 
ENDBRANCH   2   8
TORSDOF 1
ENDMDL
MODEL 9
REMARK VINA RESULT:      -4.0     10.103     10.939
REMARK  1 active torsions:
REMARK  status: ('A' for Active; 'I' for Inactive)
REMARK    1  A    between atoms: C2_2  and  C10_10 
ROOT
HETATM    1  C1  UNL     1     -33.688   8.321   3.285  1.00 20.00    -0.003 C 
HETATM    2  C2  UNL     1     -33.057   7.961   2.154  1.00 20.00    -0.075 C 
HETATM    3  C3  UNL     1     -32.852   6.515   1.776  1.00 20.00     0.034 C 
HETATM    4  C4  UNL     1     -33.133   5.530   2.914  1.00 20.00     0.006 C 
HETATM    5  C5  UNL     1     -34.387   5.925   3.690  1.00 20.00     0.024 C 
HETATM    6  C6  UNL     1     -34.281   7.344   4.259  1.00 20.00     0.105 C 
HETATM    7 CL11 UNL     1     -33.274   7.352   5.740  1.00 20.00    -0.121 Cl
ENDROOT
BRANCH   2   8
HETATM    8  C10 UNL     1     -32.518   8.976   1.189  1.00 20.00    -0.028 C 
HETATM    9  C7  UNL     1     -32.634  10.376   1.810  1.00 20.00     0.019 C 
HETATM   10  C8  UNL     1     -33.321   8.927  -0.120  1.00 20.00     0.019 C 
HETATM   11  C9  UNL     1     -31.042   8.671   0.885  1.00 20.00     0.019 C 
ENDBRANCH   2   8
TORSDOF 1
ENDMDL
