MODEL 1
REMARK VINA RESULT:      -4.3      0.000      0.000
REMARK  0 active torsions:
REMARK  status: ('A' for Active; 'I' for Inactive)
ROOT
HETATM    1  C1  UNL     1     -34.601  14.321  -4.261  1.00 20.00     0.067 C 
HETATM    2  C2  UNL     1     -33.916  15.541  -3.798  1.00 20.00     0.127 C 
HETATM    3  C3  UNL     1     -34.781  16.289  -2.783  1.00 20.00     0.030 C 
HETATM    4  C4  UNL     1     -33.744  16.588  -4.896  1.00 20.00     0.136 C 
HETATM    5  C5  UNL     1     -35.596  17.265  -3.648  1.00 20.00     0.123 C 
HETATM    6  C6  UNL     1     -33.919  17.045  -1.767  1.00 20.00     0.014 C 
HETATM    7  C7  UNL     1     -33.387  16.076  -6.281  1.00 20.00     0.041 C 
HETATM    8  C8  UNL     1     -37.044  16.833  -3.832  1.00 20.00     0.040 C 
HETATM    9  N9  UNL     1     -35.142  13.360  -4.625  1.00 20.00    -0.197 NA
HETATM   10  O10 UNL     1     -34.981  17.313  -4.948  1.00 20.00    -0.380 OA
ENDROOT
TORSDOF 0
ENDMDL
MODEL 2
REMARK VINA RESULT:      -4.1      2.111      2.544
REMARK  0 active torsions:
REMARK  status: ('A' for Active; 'I' for Inactive)
ROOT
HETATM    1  C1  UNL     1     -36.761  14.070  -4.987  1.00 20.00     0.067 C 
HETATM    2  C2  UNL     1     -35.306  14.275  -4.865  1.00 20.00     0.127 C 
HETATM    3  C3  UNL     1     -35.003  15.703  -4.412  1.00 20.00     0.030 C 
HETATM    4  C4  UNL     1     -34.574  14.209  -6.204  1.00 20.00     0.136 C 
HETATM    5  C5  UNL     1     -34.842  16.479  -5.730  1.00 20.00     0.123 C 
HETATM    6  C6  UNL     1     -33.717  15.762  -3.581  1.00 20.00     0.014 C 
HETATM    7  C7  UNL     1     -35.045  13.155  -7.190  1.00 20.00     0.041 C 
HETATM    8  C8  UNL     1     -36.042  17.357  -6.056  1.00 20.00     0.040 C 
HETATM    9  N9  UNL     1     -37.906  13.909  -5.083  1.00 20.00    -0.197 NA
HETATM   10  O10 UNL     1     -34.701  15.514  -6.788  1.00 20.00    -0.380 OA
ENDROOT
TORSDOF 0
ENDMDL
MODEL 3
REMARK VINA RESULT:      -4.1      1.871      2.820
REMARK  0 active torsions:
REMARK  status: ('A' for Active; 'I' for Inactive)
ROOT
HETATM    1  C1  UNL     1     -35.422  13.914  -4.959  1.00 20.00     0.067 C 
HETATM    2  C2  UNL     1     -34.900  15.232  -4.555  1.00 20.00     0.127 C 
HETATM    3  C3  UNL     1     -35.306  16.302  -5.569  1.00 20.00     0.030 C 
HETATM    4  C4  UNL     1     -33.376  15.317  -4.603  1.00 20.00     0.136 C 
HETATM    5  C5  UNL     1     -34.136  16.321  -6.567  1.00 20.00     0.123 C 
HETATM    6  C6  UNL     1     -35.476  17.669  -4.898  1.00 20.00     0.014 C 
HETATM    7  C7  UNL     1     -32.608  14.093  -4.134  1.00 20.00     0.041 C 
HETATM    8  C8  UNL     1     -34.467  15.639  -7.888  1.00 20.00     0.040 C 
HETATM    9  N9  UNL     1     -35.833  12.876  -5.278  1.00 20.00    -0.197 NA
HETATM   10  O10 UNL     1     -33.039  15.610  -5.966  1.00 20.00    -0.380 OA
ENDROOT
TORSDOF 0
ENDMDL
MODEL 4
REMARK VINA RESULT:      -4.0      1.755      2.345
REMARK  0 active torsions:
REMARK  status: ('A' for Active; 'I' for Inactive)
ROOT
HETATM    1  C1  UNL     1     -36.710  14.277  -5.098  1.00 20.00     0.067 C 
HETATM    2  C2  UNL     1     -35.308  14.633  -5.385  1.00 20.00     0.127 C 
HETATM    3  C3  UNL     1     -34.503  14.724  -4.088  1.00 20.00     0.030 C 
HETATM    4  C4  UNL     1     -35.149  16.042  -5.952  1.00 20.00     0.136 C 
HETATM    5  C5  UNL     1     -34.630  16.202  -3.683  1.00 20.00     0.123 C 
HETATM    6  C6  UNL     1     -33.037  14.342  -4.315  1.00 20.00     0.014 C 
HETATM    7  C7  UNL     1     -36.198  16.501  -6.950  1.00 20.00     0.041 C 
HETATM    8  C8  UNL     1     -35.595  16.423  -2.526  1.00 20.00     0.040 C 
HETATM    9  N9  UNL     1     -37.813  13.998  -4.872  1.00 20.00    -0.197 NA
HETATM   10  O10 UNL     1     -35.133  16.924  -4.821  1.00 20.00    -0.380 OA
ENDROOT
TORSDOF 0
ENDMDL
MODEL 5
REMARK VINA RESULT:      -3.9      2.606      3.893
REMARK  0 active torsions:
REMARK  status: ('A' for Active; 'I' for Inactive)
ROOT
HETATM    1  C1  UNL     1     -33.189  18.023  -2.063  1.00 20.00     0.067 C 
HETATM    2  C2  UNL     1     -33.956  16.766  -2.153  1.00 20.00     0.127 C 
HETATM    3  C3  UNL     1     -34.376  16.497  -3.599  1.00 20.00     0.030 C 
HETATM    4  C4  UNL     1     -35.305  16.832  -1.442  1.00 20.00     0.136 C 
HETATM    5  C5  UNL     1     -35.758  17.163  -3.707  1.00 20.00     0.123 C 
HETATM    6  C6  UNL     1     -34.468  14.995  -3.881  1.00 20.00     0.014 C 
HETATM    7  C7  UNL     1     -35.345  17.575  -0.118  1.00 20.00     0.041 C 
HETATM    8  C8  UNL     1     -35.728  18.478  -4.474  1.00 20.00     0.040 C 
HETATM    9  N9  UNL     1     -32.586  19.012  -1.994  1.00 20.00    -0.197 NA
HETATM   10  O10 UNL     1     -36.212  17.442  -2.370  1.00 20.00    -0.380 OA
ENDROOT
TORSDOF 0
ENDMDL
MODEL 6
REMARK VINA RESULT:      -3.9      2.162      3.583
REMARK  0 active torsions:
REMARK  status: ('A' for Active; 'I' for Inactive)
ROOT
HETATM    1  C1  UNL     1     -35.222  13.430  -6.795  1.00 20.00     0.067 C 
HETATM    2  C2  UNL     1     -35.369  14.893  -6.682  1.00 20.00     0.127 C 
HETATM    3  C3  UNL     1     -34.009  15.550  -6.445  1.00 20.00     0.030 C 
HETATM    4  C4  UNL     1     -36.148  15.326  -5.442  1.00 20.00     0.136 C 
HETATM    5  C5  UNL     1     -33.892  15.603  -4.912  1.00 20.00     0.123 C 
HETATM    6  C6  UNL     1     -33.960  16.958  -7.047  1.00 20.00     0.014 C 
HETATM    7  C7  UNL     1     -37.347  14.477  -5.056  1.00 20.00     0.041 C 
HETATM    8  C8  UNL     1     -32.938  14.558  -4.351  1.00 20.00     0.040 C 
HETATM    9  N9  UNL     1     -35.106  12.279  -6.883  1.00 20.00    -0.197 NA
HETATM   10  O10 UNL     1     -35.199  15.347  -4.367  1.00 20.00    -0.380 OA
ENDROOT
TORSDOF 0
ENDMDL
MODEL 7
REMARK VINA RESULT:      -3.8      2.265      3.784
REMARK  0 active torsions:
REMARK  status: ('A' for Active; 'I' for Inactive)
ROOT
HETATM    1  C1  UNL     1     -37.070  14.396  -5.699  1.00 20.00     0.067 C 
HETATM    2  C2  UNL     1     -36.092  14.881  -6.690  1.00 20.00     0.127 C 
HETATM    3  C3  UNL     1     -34.770  14.128  -6.551  1.00 20.00     0.030 C 
HETATM    4  C4  UNL     1     -35.658  16.325  -6.449  1.00 20.00     0.136 C 
HETATM    5  C5  UNL     1     -33.961  14.989  -5.566  1.00 20.00     0.123 C 
HETATM    6  C6  UNL     1     -34.050  14.014  -7.898  1.00 20.00     0.014 C 
HETATM    7  C7  UNL     1     -36.734  17.299  -6.003  1.00 20.00     0.041 C 
HETATM    8  C8  UNL     1     -33.888  14.388  -4.168  1.00 20.00     0.040 C 
HETATM    9  N9  UNL     1     -37.839  14.013  -4.918  1.00 20.00    -0.197 NA
HETATM   10  O10 UNL     1     -34.616  16.265  -5.464  1.00 20.00    -0.380 OA
ENDROOT
TORSDOF 0
ENDMDL
MODEL 8
REMARK VINA RESULT:      -3.8      2.195      3.325
REMARK  0 active torsions:
REMARK  status: ('A' for Active; 'I' for Inactive)
ROOT
HETATM    1  C1  UNL     1     -33.892  14.328  -4.330  1.00 20.00     0.067 C 
HETATM    2  C2  UNL     1     -35.155  15.040  -4.598  1.00 20.00     0.127 C 
HETATM    3  C3  UNL     1     -36.171  14.101  -5.249  1.00 20.00     0.030 C 
HETATM    4  C4  UNL     1     -35.017  16.134  -5.655  1.00 20.00     0.136 C 
HETATM    5  C5  UNL     1     -35.929  14.290  -6.756  1.00 20.00     0.123 C 
HETATM    6  C6  UNL     1     -37.605  14.485  -4.872  1.00 20.00     0.014 C 
HETATM    7  C7  UNL     1     -33.747  16.966  -5.617  1.00 20.00     0.041 C 
HETATM    8  C8  UNL     1     -35.179  13.126  -7.390  1.00 20.00     0.040 C 
HETATM    9  N9  UNL     1     -32.898  13.767  -4.120  1.00 20.00    -0.197 NA
HETATM   10  O10 UNL     1     -35.130  15.474  -6.923  1.00 20.00    -0.380 OA
ENDROOT
TORSDOF 0
ENDMDL
MODEL 9
REMARK VINA RESULT:      -3.7      2.369      3.546
REMARK  0 active torsions:
REMARK  status: ('A' for Active; 'I' for Inactive)
ROOT
HETATM    1  C1  UNL     1     -35.701  13.207  -5.988  1.00 20.00     0.067 C 
HETATM    2  C2  UNL     1     -36.582  14.004  -5.115  1.00 20.00     0.127 C 
HETATM    3  C3  UNL     1     -37.639  14.736  -5.943  1.00 20.00     0.030 C 
HETATM    4  C4  UNL     1     -35.863  15.163  -4.429  1.00 20.00     0.136 C 
HETATM    5  C5  UNL     1     -36.984  16.092  -6.253  1.00 20.00     0.123 C 
HETATM    6  C6  UNL     1     -38.936  14.922  -5.151  1.00 20.00     0.014 C 
HETATM    7  C7  UNL     1     -34.452  14.896  -3.933  1.00 20.00     0.041 C 
HETATM    8  C8  UNL     1     -36.486  16.201  -7.688  1.00 20.00     0.040 C 
HETATM    9  N9  UNL     1     -35.008  12.581  -6.677  1.00 20.00    -0.197 NA
HETATM   10  O10 UNL     1     -35.849  16.237  -5.380  1.00 20.00    -0.380 OA
ENDROOT
TORSDOF 0
ENDMDL
