MODEL 1
REMARK VINA RESULT:      -5.0      0.000      0.000
REMARK  0 active torsions:
REMARK  status: ('A' for Active; 'I' for Inactive)
ROOT
HETATM    1  C1  UNL     1     -33.598   5.074   3.228  1.00 20.00     0.019 A 
HETATM    2  C2  UNL     1     -34.194   4.304   4.203  1.00 20.00     0.050 A 
HETATM    3  C3  UNL     1     -34.094   6.679   4.834  1.00 20.00     0.061 A 
HETATM    4  C4  UNL     1     -33.540   6.449   3.593  1.00 20.00    -0.023 A 
HETATM    5  C5  UNL     1     -33.607   8.234   1.886  1.00 20.00     0.058 A 
HETATM    6  C6  UNL     1     -32.989   7.474   2.800  1.00 20.00    -0.043 A 
HETATM    7  C7  UNL     1     -32.594   9.149   1.345  1.00 20.00     0.150 A 
HETATM    8  C8  UNL     1     -31.528   7.802   2.959  1.00 20.00     0.047 A 
HETATM    9  C9  UNL     1     -31.254   8.932   1.974  1.00 20.00     0.087 A 
HETATM   10  O10 UNL     1     -32.837   9.981   0.483  1.00 20.00    -0.293 OA
HETATM   11  S11 UNL     1     -34.681   5.240   5.552  1.00 20.00    -0.113 SA
ENDROOT
TORSDOF 0
ENDMDL
MODEL 2
REMARK VINA RESULT:      -5.0      3.161      4.793
REMARK  0 active torsions:
REMARK  status: ('A' for Active; 'I' for Inactive)
ROOT
HETATM    1  C1  UNL     1     -31.468   7.984   1.945  1.00 20.00     0.019 A 
HETATM    2  C2  UNL     1     -31.182   8.923   0.978  1.00 20.00     0.050 A 
HETATM    3  C3  UNL     1     -33.559   8.939   1.606  1.00 20.00     0.061 A 
HETATM    4  C4  UNL     1     -32.845   7.994   2.309  1.00 20.00    -0.023 A 
HETATM    5  C5  UNL     1     -33.575   7.367   4.584  1.00 20.00     0.058 A 
HETATM    6  C6  UNL     1     -33.434   7.150   3.270  1.00 20.00    -0.043 A 
HETATM    7  C7  UNL     1     -34.251   6.186   5.136  1.00 20.00     0.150 A 
HETATM    8  C8  UNL     1     -33.993   5.825   2.820  1.00 20.00     0.047 A 
HETATM    9  C9  UNL     1     -34.544   5.167   4.080  1.00 20.00     0.087 A 
HETATM   10  O10 UNL     1     -34.532   6.068   6.320  1.00 20.00    -0.293 OA
HETATM   11  S11 UNL     1     -32.571   9.810   0.512  1.00 20.00    -0.113 SA
ENDROOT
TORSDOF 0
ENDMDL
MODEL 3
REMARK VINA RESULT:      -4.9     10.805     11.534
REMARK  0 active torsions:
REMARK  status: ('A' for Active; 'I' for Inactive)
ROOT
HETATM    1  C1  UNL     1     -34.903  14.261  -4.065  1.00 20.00     0.019 A 
HETATM    2  C2  UNL     1     -35.601  13.746  -5.136  1.00 20.00     0.050 A 
HETATM    3  C3  UNL     1     -35.947  16.168  -4.886  1.00 20.00     0.061 A 
HETATM    4  C4  UNL     1     -35.103  15.663  -3.920  1.00 20.00    -0.023 A 
HETATM    5  C5  UNL     1     -33.351  17.117  -2.962  1.00 20.00     0.058 A 
HETATM    6  C6  UNL     1     -34.520  16.465  -2.920  1.00 20.00    -0.043 A 
HETATM    7  C7  UNL     1     -33.205  17.803  -1.671  1.00 20.00     0.150 A 
HETATM    8  C8  UNL     1     -35.260  16.648  -1.621  1.00 20.00     0.047 A 
HETATM    9  C9  UNL     1     -34.373  17.550  -0.771  1.00 20.00     0.087 A 
HETATM   10  O10 UNL     1     -32.238  18.494  -1.386  1.00 20.00    -0.293 OA
HETATM   11  S11 UNL     1     -36.494  14.953  -5.960  1.00 20.00    -0.113 SA
ENDROOT
TORSDOF 0
ENDMDL
MODEL 4
REMARK VINA RESULT:      -4.8     10.493     11.536
REMARK  0 active torsions:
REMARK  status: ('A' for Active; 'I' for Inactive)
ROOT
HETATM    1  C1  UNL     1     -33.358  17.073  -2.724  1.00 20.00     0.019 A 
HETATM    2  C2  UNL     1     -33.227  17.817  -1.571  1.00 20.00     0.050 A 
HETATM    3  C3  UNL     1     -35.401  16.674  -1.691  1.00 20.00     0.061 A 
HETATM    4  C4  UNL     1     -34.617  16.412  -2.793  1.00 20.00    -0.023 A 
HETATM    5  C5  UNL     1     -34.871  14.258  -3.977  1.00 20.00     0.058 A 
HETATM    6  C6  UNL     1     -35.037  15.581  -3.850  1.00 20.00    -0.043 A 
HETATM    7  C7  UNL     1     -35.489  13.876  -5.253  1.00 20.00     0.150 A 
HETATM    8  C8  UNL     1     -35.772  16.204  -5.008  1.00 20.00     0.047 A 
HETATM    9  C9  UNL     1     -36.077  15.055  -5.962  1.00 20.00     0.087 A 
HETATM   10  O10 UNL     1     -35.510  12.727  -5.669  1.00 20.00    -0.293 OA
HETATM   11  S11 UNL     1     -34.619  17.715  -0.579  1.00 20.00    -0.113 SA
ENDROOT
TORSDOF 0
ENDMDL
MODEL 5
REMARK VINA RESULT:      -4.8     10.757     11.810
REMARK  0 active torsions:
REMARK  status: ('A' for Active; 'I' for Inactive)
ROOT
HETATM    1  C1  UNL     1     -33.769  17.695  -3.734  1.00 20.00     0.019 A 
HETATM    2  C2  UNL     1     -33.188  18.538  -2.811  1.00 20.00     0.050 A 
HETATM    3  C3  UNL     1     -34.472  16.736  -1.736  1.00 20.00     0.061 A 
HETATM    4  C4  UNL     1     -34.512  16.652  -3.111  1.00 20.00    -0.023 A 
HETATM    5  C5  UNL     1     -34.764  14.440  -4.183  1.00 20.00     0.058 A 
HETATM    6  C6  UNL     1     -35.215  15.640  -3.794  1.00 20.00    -0.043 A 
HETATM    7  C7  UNL     1     -35.884  13.766  -4.852  1.00 20.00     0.150 A 
HETATM    8  C8  UNL     1     -36.656  15.882  -4.157  1.00 20.00     0.047 A 
HETATM    9  C9  UNL     1     -37.113  14.618  -4.876  1.00 20.00     0.087 A 
HETATM   10  O10 UNL     1     -35.801  12.642  -5.326  1.00 20.00    -0.293 OA
HETATM   11  S11 UNL     1     -33.540  18.069  -1.202  1.00 20.00    -0.113 SA
ENDROOT
TORSDOF 0
ENDMDL
MODEL 6
REMARK VINA RESULT:      -4.7     10.666     11.576
REMARK  0 active torsions:
REMARK  status: ('A' for Active; 'I' for Inactive)
ROOT
HETATM    1  C1  UNL     1     -33.287  17.406  -1.904  1.00 20.00     0.019 A 
HETATM    2  C2  UNL     1     -33.556  17.981  -0.681  1.00 20.00     0.050 A 
HETATM    3  C3  UNL     1     -35.520  16.832  -1.611  1.00 20.00     0.061 A 
HETATM    4  C4  UNL     1     -34.425  16.740  -2.443  1.00 20.00    -0.023 A 
HETATM    5  C5  UNL     1     -34.182  14.772  -3.916  1.00 20.00     0.058 A 
HETATM    6  C6  UNL     1     -34.456  16.061  -3.676  1.00 20.00    -0.043 A 
HETATM    7  C7  UNL     1     -34.360  14.564  -5.359  1.00 20.00     0.150 A 
HETATM    8  C8  UNL     1     -34.840  16.829  -4.913  1.00 20.00     0.047 A 
HETATM    9  C9  UNL     1     -34.775  15.822  -6.055  1.00 20.00     0.087 A 
HETATM   10  O10 UNL     1     -34.187  13.485  -5.906  1.00 20.00    -0.293 OA
HETATM   11  S11 UNL     1     -35.174  17.717  -0.187  1.00 20.00    -0.113 SA
ENDROOT
TORSDOF 0
ENDMDL
MODEL 7
REMARK VINA RESULT:      -4.6     10.990     11.825
REMARK  0 active torsions:
REMARK  status: ('A' for Active; 'I' for Inactive)
ROOT
HETATM    1  C1  UNL     1     -34.637  16.727  -1.662  1.00 20.00     0.019 A 
HETATM    2  C2  UNL     1     -33.920  17.833  -1.258  1.00 20.00     0.050 A 
HETATM    3  C3  UNL     1     -34.106  17.697  -3.706  1.00 20.00     0.061 A 
HETATM    4  C4  UNL     1     -34.744  16.649  -3.080  1.00 20.00    -0.023 A 
HETATM    5  C5  UNL     1     -36.702  15.601  -4.162  1.00 20.00     0.058 A 
HETATM    6  C6  UNL     1     -35.418  15.632  -3.785  1.00 20.00    -0.043 A 
HETATM    7  C7  UNL     1     -36.904  14.327  -4.866  1.00 20.00     0.150 A 
HETATM    8  C8  UNL     1     -34.645  14.406  -4.194  1.00 20.00     0.047 A 
HETATM    9  C9  UNL     1     -35.647  13.518  -4.923  1.00 20.00     0.087 A 
HETATM   10  O10 UNL     1     -37.978  13.988  -5.341  1.00 20.00    -0.293 OA
HETATM   11  S11 UNL     1     -33.381  18.770  -2.586  1.00 20.00    -0.113 SA
ENDROOT
TORSDOF 0
ENDMDL
MODEL 8
REMARK VINA RESULT:      -4.5     10.848     11.727
REMARK  0 active torsions:
REMARK  status: ('A' for Active; 'I' for Inactive)
ROOT
HETATM    1  C1  UNL     1     -34.890  16.837  -4.862  1.00 20.00     0.019 A 
HETATM    2  C2  UNL     1     -34.767  16.010  -5.957  1.00 20.00     0.050 A 
HETATM    3  C3  UNL     1     -34.072  14.897  -3.877  1.00 20.00     0.061 A 
HETATM    4  C4  UNL     1     -34.487  16.193  -3.658  1.00 20.00    -0.023 A 
HETATM    5  C5  UNL     1     -35.497  16.790  -1.484  1.00 20.00     0.058 A 
HETATM    6  C6  UNL     1     -34.502  16.785  -2.380  1.00 20.00    -0.043 A 
HETATM    7  C7  UNL     1     -35.010  17.538  -0.318  1.00 20.00     0.150 A 
HETATM    8  C8  UNL     1     -33.271  17.514  -1.909  1.00 20.00     0.047 A 
HETATM    9  C9  UNL     1     -33.610  18.028  -0.515  1.00 20.00     0.087 A 
HETATM   10  O10 UNL     1     -35.683  17.726   0.685  1.00 20.00    -0.293 OA
HETATM   11  S11 UNL     1     -34.169  14.463  -5.531  1.00 20.00    -0.113 SA
ENDROOT
TORSDOF 0
ENDMDL
MODEL 9
REMARK VINA RESULT:      -4.2     11.112     11.825
REMARK  0 active torsions:
REMARK  status: ('A' for Active; 'I' for Inactive)
ROOT
HETATM    1  C1  UNL     1     -35.481  16.900  -1.612  1.00 20.00     0.019 A 
HETATM    2  C2  UNL     1     -35.492  17.423  -0.337  1.00 20.00     0.050 A 
HETATM    3  C3  UNL     1     -33.349  17.815  -1.476  1.00 20.00     0.061 A 
HETATM    4  C4  UNL     1     -34.239  17.127  -2.272  1.00 20.00    -0.023 A 
HETATM    5  C5  UNL     1     -34.117  17.379  -4.726  1.00 20.00     0.058 A 
HETATM    6  C6  UNL     1     -33.930  16.710  -3.581  1.00 20.00    -0.043 A 
HETATM    7  C7  UNL     1     -33.630  16.510  -5.806  1.00 20.00     0.150 A 
HETATM    8  C8  UNL     1     -33.309  15.353  -3.777  1.00 20.00     0.047 A 
HETATM    9  C9  UNL     1     -33.106  15.211  -5.281  1.00 20.00     0.087 A 
HETATM   10  O10 UNL     1     -33.658  16.830  -6.985  1.00 20.00    -0.293 OA
HETATM   11  S11 UNL     1     -34.011  18.185   0.059  1.00 20.00    -0.113 SA
ENDROOT
TORSDOF 0
ENDMDL
