MODEL 1
REMARK VINA RESULT:      -5.3      0.000      0.000
REMARK  1 active torsions:
REMARK  status: ('A' for Active; 'I' for Inactive)
REMARK    1  A    between atoms: C6_6  and  O11_11 
ROOT
HETATM    1  C1  UNL     1     -32.167   8.050   2.065  1.00 20.00     0.095 C 
HETATM    2  C2  UNL     1     -33.033   8.077   4.290  1.00 20.00     0.022 C 
HETATM    3  C3  UNL     1     -32.797   7.389   3.160  1.00 20.00     0.021 C 
HETATM    4  C4  UNL     1     -33.187   5.936   3.009  1.00 20.00     0.058 C 
HETATM    5  C5  UNL     1     -33.806   5.956   5.446  1.00 20.00     0.045 C 
HETATM    6  C6  UNL     1     -33.689   7.483   5.503  1.00 20.00     0.143 C 
HETATM    7  C7  UNL     1     -34.218   5.437   4.054  1.00 20.00    -0.041 C 
HETATM    8  C8  UNL     1     -35.636   5.919   3.686  1.00 20.00     0.015 C 
HETATM    9  C9  UNL     1     -34.224   3.898   4.065  1.00 20.00     0.015 C 
HETATM   10  N10 UNL     1     -31.655   8.587   1.173  1.00 20.00    -0.192 NA
ENDROOT
BRANCH   6  11
HETATM   11  O11 UNL     1     -32.930   7.848   6.653  1.00 20.00    -0.392 OA
HETATM   12  H24 UNL     1     -33.062   8.800   6.780  1.00 20.00     0.210 HD
ENDBRANCH   6  11
TORSDOF 1
ENDMDL
MODEL 2
REMARK VINA RESULT:      -4.7     11.867     12.511
REMARK  1 active torsions:
REMARK  status: ('A' for Active; 'I' for Inactive)
REMARK    1  A    between atoms: C6_6  and  O11_11 
ROOT
HETATM    1  C1  UNL     1     -37.198  14.409  -4.796  1.00 20.00     0.095 C 
HETATM    2  C2  UNL     1     -34.820  14.445  -5.015  1.00 20.00     0.022 C 
HETATM    3  C3  UNL     1     -35.923  14.903  -4.396  1.00 20.00     0.021 C 
HETATM    4  C4  UNL     1     -35.853  15.935  -3.294  1.00 20.00     0.058 C 
HETATM    5  C5  UNL     1     -33.350  15.704  -3.376  1.00 20.00     0.045 C 
HETATM    6  C6  UNL     1     -33.429  14.895  -4.676  1.00 20.00     0.143 C 
HETATM    7  C7  UNL     1     -34.510  16.708  -3.222  1.00 20.00    -0.041 C 
HETATM    8  C8  UNL     1     -34.450  17.789  -4.320  1.00 20.00     0.015 C 
HETATM    9  C9  UNL     1     -34.401  17.408  -1.856  1.00 20.00     0.015 C 
HETATM   10  N10 UNL     1     -38.236  14.007  -5.123  1.00 20.00    -0.192 NA
ENDROOT
BRANCH   6  11
HETATM   11  O11 UNL     1     -32.596  13.744  -4.558  1.00 20.00    -0.392 OA
HETATM   12  H24 UNL     1     -31.718  14.065  -4.300  1.00 20.00     0.210 HD
ENDBRANCH   6  11
TORSDOF 1
ENDMDL
MODEL 3
REMARK VINA RESULT:      -4.6     11.810     12.873
REMARK  1 active torsions:
REMARK  status: ('A' for Active; 'I' for Inactive)
REMARK    1  A    between atoms: C6_6  and  O11_11 
ROOT
HETATM    1  C1  UNL     1     -38.825  16.016  -4.213  1.00 20.00     0.095 C 
HETATM    2  C2  UNL     1     -37.156  14.527  -5.049  1.00 20.00     0.022 C 
HETATM    3  C3  UNL     1     -37.473  15.567  -4.258  1.00 20.00     0.021 C 
HETATM    4  C4  UNL     1     -36.439  16.283  -3.421  1.00 20.00     0.058 C 
HETATM    5  C5  UNL     1     -34.799  14.505  -4.110  1.00 20.00     0.045 C 
HETATM    6  C6  UNL     1     -35.767  13.972  -5.173  1.00 20.00     0.143 C 
HETATM    7  C7  UNL     1     -34.972  16.015  -3.846  1.00 20.00    -0.041 C 
HETATM    8  C8  UNL     1     -34.613  16.836  -5.101  1.00 20.00     0.015 C 
HETATM    9  C9  UNL     1     -34.028  16.444  -2.708  1.00 20.00     0.015 C 
HETATM   10  N10 UNL     1     -39.926  16.382  -4.178  1.00 20.00    -0.192 NA
ENDROOT
BRANCH   6  11
HETATM   11  O11 UNL     1     -35.835  12.552  -5.067  1.00 20.00    -0.392 OA
HETATM   12  H24 UNL     1     -36.693  12.346  -4.665  1.00 20.00     0.210 HD
ENDBRANCH   6  11
TORSDOF 1
ENDMDL
MODEL 4
REMARK VINA RESULT:      -4.6     12.076     13.236
REMARK  1 active torsions:
REMARK  status: ('A' for Active; 'I' for Inactive)
REMARK    1  A    between atoms: C6_6  and  O11_11 
ROOT
HETATM    1  C1  UNL     1     -35.466  13.874  -5.059  1.00 20.00     0.095 C 
HETATM    2  C2  UNL     1     -34.839  16.041  -5.844  1.00 20.00     0.022 C 
HETATM    3  C3  UNL     1     -34.924  15.171  -4.822  1.00 20.00     0.021 C 
HETATM    4  C4  UNL     1     -34.471  15.529  -3.425  1.00 20.00     0.058 C 
HETATM    5  C5  UNL     1     -33.567  17.673  -4.377  1.00 20.00     0.045 C 
HETATM    6  C6  UNL     1     -34.287  17.430  -5.708  1.00 20.00     0.143 C 
HETATM    7  C7  UNL     1     -34.304  17.050  -3.174  1.00 20.00    -0.041 C 
HETATM    8  C8  UNL     1     -35.677  17.718  -2.965  1.00 20.00     0.015 C 
HETATM    9  C9  UNL     1     -33.469  17.264  -1.899  1.00 20.00     0.015 C 
HETATM   10  N10 UNL     1     -35.907  12.819  -5.252  1.00 20.00    -0.192 NA
ENDROOT
BRANCH   6  11
HETATM   11  O11 UNL     1     -33.374  17.661  -6.779  1.00 20.00    -0.392 OA
HETATM   12  H24 UNL     1     -32.831  18.421  -6.518  1.00 20.00     0.210 HD
ENDBRANCH   6  11
TORSDOF 1
ENDMDL
MODEL 5
REMARK VINA RESULT:      -4.4     11.903     13.344
REMARK  1 active torsions:
REMARK  status: ('A' for Active; 'I' for Inactive)
REMARK    1  A    between atoms: C6_6  and  O11_11 
ROOT
HETATM    1  C1  UNL     1     -37.205  16.724  -6.800  1.00 20.00     0.095 C 
HETATM    2  C2  UNL     1     -36.170  14.657  -6.203  1.00 20.00     0.022 C 
HETATM    3  C3  UNL     1     -36.315  15.975  -5.977  1.00 20.00     0.021 C 
HETATM    4  C4  UNL     1     -35.555  16.689  -4.884  1.00 20.00     0.058 C 
HETATM    5  C5  UNL     1     -34.732  14.437  -4.124  1.00 20.00     0.045 C 
HETATM    6  C6  UNL     1     -35.261  13.772  -5.400  1.00 20.00     0.143 C 
HETATM    7  C7  UNL     1     -34.329  15.910  -4.339  1.00 20.00    -0.041 C 
HETATM    8  C8  UNL     1     -33.142  16.017  -5.317  1.00 20.00     0.015 C 
HETATM    9  C9  UNL     1     -33.897  16.522  -2.994  1.00 20.00     0.015 C 
HETATM   10  N10 UNL     1     -37.929  17.335  -7.469  1.00 20.00    -0.192 NA
ENDROOT
BRANCH   6  11
HETATM   11  O11 UNL     1     -35.977  12.591  -5.045  1.00 20.00    -0.392 OA
HETATM   12  H24 UNL     1     -35.550  12.239  -4.248  1.00 20.00     0.210 HD
ENDBRANCH   6  11
TORSDOF 1
ENDMDL
MODEL 6
REMARK VINA RESULT:      -4.4     11.725     13.089
REMARK  1 active torsions:
REMARK  status: ('A' for Active; 'I' for Inactive)
REMARK    1  A    between atoms: C6_6  and  O11_11 
ROOT
HETATM    1  C1  UNL     1     -34.204  16.446  -2.935  1.00 20.00     0.095 C 
HETATM    2  C2  UNL     1     -35.483  14.777  -4.068  1.00 20.00     0.022 C 
HETATM    3  C3  UNL     1     -34.570  15.763  -4.131  1.00 20.00     0.021 C 
HETATM    4  C4  UNL     1     -33.925  16.175  -5.434  1.00 20.00     0.058 C 
HETATM    5  C5  UNL     1     -35.075  14.214  -6.508  1.00 20.00     0.045 C 
HETATM    6  C6  UNL     1     -35.942  13.992  -5.262  1.00 20.00     0.143 C 
HETATM    7  C7  UNL     1     -34.672  15.690  -6.703  1.00 20.00    -0.041 C 
HETATM    8  C8  UNL     1     -35.912  16.567  -6.969  1.00 20.00     0.015 C 
HETATM    9  C9  UNL     1     -33.735  15.806  -7.918  1.00 20.00     0.015 C 
HETATM   10  N10 UNL     1     -33.907  17.003  -1.961  1.00 20.00    -0.192 NA
ENDROOT
BRANCH   6  11
HETATM   11  O11 UNL     1     -35.926  12.607  -4.927  1.00 20.00    -0.392 OA
HETATM   12  H24 UNL     1     -34.994  12.358  -4.825  1.00 20.00     0.210 HD
ENDBRANCH   6  11
TORSDOF 1
ENDMDL
MODEL 7
REMARK VINA RESULT:      -4.3     11.642     12.547
REMARK  1 active torsions:
REMARK  status: ('A' for Active; 'I' for Inactive)
REMARK    1  A    between atoms: C6_6  and  O11_11 
ROOT
HETATM    1  C1  UNL     1     -36.320  17.401  -2.319  1.00 20.00     0.095 C 
HETATM    2  C2  UNL     1     -36.921  15.842  -4.024  1.00 20.00     0.022 C 
HETATM    3  C3  UNL     1     -35.975  16.346  -3.213  1.00 20.00     0.021 C 
HETATM    4  C4  UNL     1     -34.553  15.834  -3.225  1.00 20.00     0.058 C 
HETATM    5  C5  UNL     1     -35.323  14.030  -4.799  1.00 20.00     0.045 C 
HETATM    6  C6  UNL     1     -36.671  14.732  -5.003  1.00 20.00     0.143 C 
HETATM    7  C7  UNL     1     -34.177  15.013  -4.486  1.00 20.00    -0.041 C 
HETATM    8  C8  UNL     1     -33.915  15.950  -5.683  1.00 20.00     0.015 C 
HETATM    9  C9  UNL     1     -32.887  14.220  -4.208  1.00 20.00     0.015 C 
HETATM   10  N10 UNL     1     -36.600  18.261  -1.591  1.00 20.00    -0.192 NA
ENDROOT
BRANCH   6  11
HETATM   11  O11 UNL     1     -37.717  13.772  -4.878  1.00 20.00    -0.392 OA
HETATM   12  H24 UNL     1     -38.358  13.969  -5.578  1.00 20.00     0.210 HD
ENDBRANCH   6  11
TORSDOF 1
ENDMDL
MODEL 8
REMARK VINA RESULT:      -4.3     11.855     13.148
REMARK  1 active torsions:
REMARK  status: ('A' for Active; 'I' for Inactive)
REMARK    1  A    between atoms: C6_6  and  O11_11 
ROOT
HETATM    1  C1  UNL     1     -37.269  14.443  -5.120  1.00 20.00     0.095 C 
HETATM    2  C2  UNL     1     -35.712  15.988  -6.065  1.00 20.00     0.022 C 
HETATM    3  C3  UNL     1     -35.935  14.920  -5.279  1.00 20.00     0.021 C 
HETATM    4  C4  UNL     1     -34.816  14.215  -4.548  1.00 20.00     0.058 C 
HETATM    5  C5  UNL     1     -33.208  15.683  -5.805  1.00 20.00     0.045 C 
HETATM    6  C6  UNL     1     -34.351  16.574  -6.303  1.00 20.00     0.143 C 
HETATM    7  C7  UNL     1     -33.505  15.035  -4.438  1.00 20.00    -0.041 C 
HETATM    8  C8  UNL     1     -33.629  16.107  -3.337  1.00 20.00     0.015 C 
HETATM    9  C9  UNL     1     -32.348  14.092  -4.059  1.00 20.00     0.015 C 
HETATM   10  N10 UNL     1     -38.355  14.054  -4.991  1.00 20.00    -0.192 NA
ENDROOT
BRANCH   6  11
HETATM   11  O11 UNL     1     -34.191  16.795  -7.703  1.00 20.00    -0.392 OA
HETATM   12  H24 UNL     1     -33.737  17.647  -7.797  1.00 20.00     0.210 HD
ENDBRANCH   6  11
TORSDOF 1
ENDMDL
MODEL 9
REMARK VINA RESULT:      -4.3     11.828     12.678
REMARK  1 active torsions:
REMARK  status: ('A' for Active; 'I' for Inactive)
REMARK    1  A    between atoms: C6_6  and  O11_11 
ROOT
HETATM    1  C1  UNL     1     -35.170  16.489  -2.171  1.00 20.00     0.095 C 
HETATM    2  C2  UNL     1     -33.769  15.518  -3.843  1.00 20.00     0.022 C 
HETATM    3  C3  UNL     1     -34.989  15.948  -3.478  1.00 20.00     0.021 C 
HETATM    4  C4  UNL     1     -36.179  15.868  -4.406  1.00 20.00     0.058 C 
HETATM    5  C5  UNL     1     -34.592  15.128  -6.211  1.00 20.00     0.045 C 
HETATM    6  C6  UNL     1     -33.464  14.932  -5.191  1.00 20.00     0.143 C 
HETATM    7  C7  UNL     1     -35.993  14.904  -5.606  1.00 20.00    -0.041 C 
HETATM    8  C8  UNL     1     -36.169  13.440  -5.156  1.00 20.00     0.015 C 
HETATM    9  C9  UNL     1     -37.062  15.209  -6.671  1.00 20.00     0.015 C 
HETATM   10  N10 UNL     1     -35.318  16.929  -1.108  1.00 20.00    -0.192 NA
ENDROOT
BRANCH   6  11
HETATM   11  O11 UNL     1     -32.276  15.539  -5.692  1.00 20.00    -0.392 OA
HETATM   12  H24 UNL     1     -32.341  15.516  -6.659  1.00 20.00     0.210 HD
ENDBRANCH   6  11
TORSDOF 1
ENDMDL
