MODEL 1
REMARK VINA RESULT:      -4.8      0.000      0.000
REMARK  2 active torsions:
REMARK  status: ('A' for Active; 'I' for Inactive)
REMARK    1  A    between atoms: C4_4  and  C5_5 
REMARK    2  A    between atoms: C4_4  and  C6_6 
ROOT
HETATM    1  C1  UNL     1     -32.669   7.405   2.480  1.00 20.00     0.063 C 
HETATM    2  C2  UNL     1     -32.923   4.969   2.327  1.00 20.00     0.025 C 
HETATM    3  C5  UNL     1     -33.088   6.201   3.220  1.00 20.00     0.090 C 
HETATM    4  N7  UNL     1     -32.338   8.354   1.897  1.00 20.00    -0.197 NA
ENDROOT
BRANCH   3   5
HETATM    5  C4  UNL     1     -34.551   6.317   3.696  1.00 20.00     0.038 C 
BRANCH   5   6
HETATM    6  C6  UNL     1     -34.755   6.192   5.216  1.00 20.00     0.079 C 
HETATM    7  C3  UNL     1     -34.488   4.765   5.685  1.00 20.00     0.026 C 
HETATM    8 CL8  UNL     1     -33.669   7.302   6.104  1.00 20.00    -0.125 Cl
ENDBRANCH   5   6
ENDBRANCH   3   5
TORSDOF 2
ENDMDL
MODEL 2
REMARK VINA RESULT:      -4.7      2.664      3.647
REMARK  2 active torsions:
REMARK  status: ('A' for Active; 'I' for Inactive)
REMARK    1  A    between atoms: C4_4  and  C5_5 
REMARK    2  A    between atoms: C4_4  and  C6_6 
ROOT
HETATM    1  C1  UNL     1     -34.036   6.727   5.081  1.00 20.00     0.063 C 
HETATM    2  C2  UNL     1     -34.173   4.530   3.995  1.00 20.00     0.025 C 
HETATM    3  C5  UNL     1     -34.191   6.046   3.782  1.00 20.00     0.090 C 
HETATM    4  N7  UNL     1     -33.916   7.264   6.104  1.00 20.00    -0.197 NA
ENDROOT
BRANCH   3   5
HETATM    5  C4  UNL     1     -33.074   6.454   2.800  1.00 20.00     0.038 C 
BRANCH   5   6
HETATM    6  C6  UNL     1     -32.721   7.952   2.800  1.00 20.00     0.079 C 
HETATM    7  C3  UNL     1     -31.375   8.194   3.476  1.00 20.00     0.026 C 
HETATM    8 CL8  UNL     1     -32.651   8.596   1.132  1.00 20.00    -0.125 Cl
ENDBRANCH   5   6
ENDBRANCH   3   5
TORSDOF 2
ENDMDL
MODEL 3
REMARK VINA RESULT:      -4.6      1.238      1.933
REMARK  2 active torsions:
REMARK  status: ('A' for Active; 'I' for Inactive)
REMARK    1  A    between atoms: C4_4  and  C5_5 
REMARK    2  A    between atoms: C4_4  and  C6_6 
ROOT
HETATM    1  C1  UNL     1     -32.618   8.645   1.597  1.00 20.00     0.063 C 
HETATM    2  C2  UNL     1     -31.316   8.162   3.621  1.00 20.00     0.025 C 
HETATM    3  C5  UNL     1     -32.696   8.093   2.962  1.00 20.00     0.090 C 
HETATM    4  N7  UNL     1     -32.557   9.082   0.523  1.00 20.00    -0.197 NA
ENDROOT
BRANCH   3   5
HETATM    5  C4  UNL     1     -33.203   6.637   2.948  1.00 20.00     0.038 C 
BRANCH   5   6
HETATM    6  C6  UNL     1     -34.290   6.314   3.988  1.00 20.00     0.079 C 
HETATM    7  C3  UNL     1     -34.412   4.809   4.200  1.00 20.00     0.026 C 
HETATM    8 CL8  UNL     1     -33.926   7.088   5.560  1.00 20.00    -0.125 Cl
ENDBRANCH   5   6
ENDBRANCH   3   5
TORSDOF 2
ENDMDL
MODEL 4
REMARK VINA RESULT:      -4.6      2.506      3.704
REMARK  2 active torsions:
REMARK  status: ('A' for Active; 'I' for Inactive)
REMARK    1  A    between atoms: C4_4  and  C5_5 
REMARK    2  A    between atoms: C4_4  and  C6_6 
ROOT
HETATM    1  C1  UNL     1     -34.487   5.351   4.646  1.00 20.00     0.063 C 
HETATM    2  C2  UNL     1     -33.074   5.024   2.666  1.00 20.00     0.025 C 
HETATM    3  C5  UNL     1     -34.175   5.875   3.303  1.00 20.00     0.090 C 
HETATM    4  N7  UNL     1     -34.735   4.938   5.702  1.00 20.00    -0.197 NA
ENDROOT
BRANCH   3   5
HETATM    5  C4  UNL     1     -33.731   7.351   3.368  1.00 20.00     0.038 C 
BRANCH   5   6
HETATM    6  C6  UNL     1     -32.391   7.660   2.679  1.00 20.00     0.079 C 
HETATM    7  C3  UNL     1     -32.581   8.656   1.540  1.00 20.00     0.026 C 
HETATM    8 CL8  UNL     1     -31.211   8.336   3.842  1.00 20.00    -0.125 Cl
ENDBRANCH   5   6
ENDBRANCH   3   5
TORSDOF 2
ENDMDL
MODEL 5
REMARK VINA RESULT:      -4.6      3.113      4.395
REMARK  2 active torsions:
REMARK  status: ('A' for Active; 'I' for Inactive)
REMARK    1  A    between atoms: C4_4  and  C5_5 
REMARK    2  A    between atoms: C4_4  and  C6_6 
ROOT
HETATM    1  C1  UNL     1     -33.559   7.260   4.740  1.00 20.00     0.063 C 
HETATM    2  C2  UNL     1     -33.197   5.798   2.802  1.00 20.00     0.025 C 
HETATM    3  C5  UNL     1     -33.442   7.234   3.270  1.00 20.00     0.090 C 
HETATM    4  N7  UNL     1     -33.653   7.280   5.897  1.00 20.00    -0.197 NA
ENDROOT
BRANCH   3   5
HETATM    5  C4  UNL     1     -32.300   8.151   2.784  1.00 20.00     0.038 C 
BRANCH   5   6
HETATM    6  C6  UNL     1     -32.509   8.770   1.391  1.00 20.00     0.079 C 
HETATM    7  C3  UNL     1     -32.783  10.267   1.497  1.00 20.00     0.026 C 
HETATM    8 CL8  UNL     1     -31.073   8.520   0.355  1.00 20.00    -0.125 Cl
ENDBRANCH   5   6
ENDBRANCH   3   5
TORSDOF 2
ENDMDL
MODEL 6
REMARK VINA RESULT:      -4.4      2.250      3.390
REMARK  2 active torsions:
REMARK  status: ('A' for Active; 'I' for Inactive)
REMARK    1  A    between atoms: C4_4  and  C5_5 
REMARK    2  A    between atoms: C4_4  and  C6_6 
ROOT
HETATM    1  C1  UNL     1     -34.057   6.907   5.713  1.00 20.00     0.063 C 
HETATM    2  C2  UNL     1     -34.549   4.511   5.510  1.00 20.00     0.025 C 
HETATM    3  C5  UNL     1     -34.879   5.914   4.997  1.00 20.00     0.090 C 
HETATM    4  N7  UNL     1     -33.412   7.689   6.279  1.00 20.00    -0.197 NA
ENDROOT
BRANCH   3   5
HETATM    5  C4  UNL     1     -34.645   5.989   3.474  1.00 20.00     0.038 C 
BRANCH   5   6
HETATM    6  C6  UNL     1     -33.169   5.967   3.039  1.00 20.00     0.079 C 
HETATM    7  C3  UNL     1     -32.883   4.766   2.144  1.00 20.00     0.026 C 
HETATM    8 CL8  UNL     1     -32.739   7.460   2.152  1.00 20.00    -0.125 Cl
ENDBRANCH   5   6
ENDBRANCH   3   5
TORSDOF 2
ENDMDL
MODEL 7
REMARK VINA RESULT:      -4.4      2.663      4.008
REMARK  2 active torsions:
REMARK  status: ('A' for Active; 'I' for Inactive)
REMARK    1  A    between atoms: C4_4  and  C5_5 
REMARK    2  A    between atoms: C4_4  and  C6_6 
ROOT
HETATM    1  C1  UNL     1     -34.241   5.219   4.532  1.00 20.00     0.063 C 
HETATM    2  C2  UNL     1     -33.926   7.258   5.861  1.00 20.00     0.025 C 
HETATM    3  C5  UNL     1     -33.491   6.485   4.614  1.00 20.00     0.090 C 
HETATM    4  N7  UNL     1     -34.831   4.220   4.468  1.00 20.00    -0.197 NA
ENDROOT
BRANCH   3   5
HETATM    5  C4  UNL     1     -33.710   7.348   3.354  1.00 20.00     0.038 C 
BRANCH   5   6
HETATM    6  C6  UNL     1     -32.430   7.715   2.583  1.00 20.00     0.079 C 
HETATM    7  C3  UNL     1     -32.714   8.785   1.534  1.00 20.00     0.026 C 
HETATM    8 CL8  UNL     1     -31.162   8.318   3.692  1.00 20.00    -0.125 Cl
ENDBRANCH   5   6
ENDBRANCH   3   5
TORSDOF 2
ENDMDL
MODEL 8
REMARK VINA RESULT:      -4.3      2.186      2.686
REMARK  2 active torsions:
REMARK  status: ('A' for Active; 'I' for Inactive)
REMARK    1  A    between atoms: C4_4  and  C5_5 
REMARK    2  A    between atoms: C4_4  and  C6_6 
ROOT
HETATM    1  C1  UNL     1     -32.463   7.899   3.767  1.00 20.00     0.063 C 
HETATM    2  C2  UNL     1     -33.649   7.342   5.842  1.00 20.00     0.025 C 
HETATM    3  C5  UNL     1     -33.784   7.573   4.336  1.00 20.00     0.090 C 
HETATM    4  N7  UNL     1     -31.423   8.159   3.320  1.00 20.00    -0.197 NA
ENDROOT
BRANCH   3   5
HETATM    5  C4  UNL     1     -34.389   6.324   3.662  1.00 20.00     0.038 C 
BRANCH   5   6
HETATM    6  C6  UNL     1     -33.555   5.039   3.801  1.00 20.00     0.079 C 
HETATM    7  C3  UNL     1     -34.366   3.933   4.469  1.00 20.00     0.026 C 
HETATM    8 CL8  UNL     1     -32.998   4.458   2.203  1.00 20.00    -0.125 Cl
ENDBRANCH   5   6
ENDBRANCH   3   5
TORSDOF 2
ENDMDL
MODEL 9
REMARK VINA RESULT:      -4.1      3.051      4.624
REMARK  2 active torsions:
REMARK  status: ('A' for Active; 'I' for Inactive)
REMARK    1  A    between atoms: C4_4  and  C5_5 
REMARK    2  A    between atoms: C4_4  and  C6_6 
ROOT
HETATM    1  C1  UNL     1     -33.388   7.061   4.026  1.00 20.00     0.063 C 
HETATM    2  C2  UNL     1     -31.345   8.295   3.454  1.00 20.00     0.025 C 
HETATM    3  C5  UNL     1     -32.527   7.492   2.908  1.00 20.00     0.090 C 
HETATM    4  N7  UNL     1     -34.065   6.719   4.905  1.00 20.00    -0.197 NA
ENDROOT
BRANCH   3   5
HETATM    5  C4  UNL     1     -33.317   8.339   1.889  1.00 20.00     0.038 C 
BRANCH   5   6
HETATM    6  C6  UNL     1     -32.460   9.263   1.006  1.00 20.00     0.079 C 
HETATM    7  C3  UNL     1     -32.875   9.156  -0.458  1.00 20.00     0.026 C 
HETATM    8 CL8  UNL     1     -32.612  10.969   1.524  1.00 20.00    -0.125 Cl
ENDBRANCH   5   6
ENDBRANCH   3   5
TORSDOF 2
ENDMDL
