MODEL 1
REMARK VINA RESULT:      -4.8      0.000      0.000
REMARK  0 active torsions:
REMARK  status: ('A' for Active; 'I' for Inactive)
ROOT
HETATM    1  C1  UNL     1     -32.239   7.965   3.412  1.00 20.00     0.064 C 
HETATM    2  C2  UNL     1     -33.909   7.493   5.198  1.00 20.00     0.021 C 
HETATM    3  C3  UNL     1     -34.036   6.035   5.629  1.00 20.00     0.021 C 
HETATM    4  C4  UNL     1     -33.730   5.985   3.271  1.00 20.00     0.039 C 
HETATM    5  C5  UNL     1     -33.587   7.455   3.694  1.00 20.00     0.094 C 
HETATM    6  C6  UNL     1     -34.566   5.356   4.377  1.00 20.00     0.083 C 
HETATM    7  N7  UNL     1     -31.174   8.368   3.188  1.00 20.00    -0.197 NA
HETATM    8 CL8  UNL     1     -34.392   3.597   4.440  1.00 20.00    -0.125 Cl
ENDROOT
TORSDOF 0
ENDMDL
MODEL 2
REMARK VINA RESULT:      -4.7      2.019      2.605
REMARK  0 active torsions:
REMARK  status: ('A' for Active; 'I' for Inactive)
ROOT
HETATM    1  C1  UNL     1     -32.403   8.629   1.735  1.00 20.00     0.064 C 
HETATM    2  C2  UNL     1     -33.439   6.461   2.391  1.00 20.00     0.021 C 
HETATM    3  C3  UNL     1     -34.293   6.480   3.655  1.00 20.00     0.021 C 
HETATM    4  C4  UNL     1     -32.438   7.899   4.108  1.00 20.00     0.039 C 
HETATM    5  C5  UNL     1     -32.307   7.473   2.638  1.00 20.00     0.094 C 
HETATM    6  C6  UNL     1     -33.280   6.801   4.742  1.00 20.00     0.083 C 
HETATM    7  N7  UNL     1     -32.478   9.541   1.022  1.00 20.00    -0.197 NA
HETATM    8 CL8  UNL     1     -34.051   7.323   6.247  1.00 20.00    -0.125 Cl
ENDROOT
TORSDOF 0
ENDMDL
MODEL 3
REMARK VINA RESULT:      -4.6      3.054      3.908
REMARK  0 active torsions:
REMARK  status: ('A' for Active; 'I' for Inactive)
ROOT
HETATM    1  C1  UNL     1     -34.663   5.391   5.203  1.00 20.00     0.064 C 
HETATM    2  C2  UNL     1     -34.041   5.564   2.797  1.00 20.00     0.021 C 
HETATM    3  C3  UNL     1     -32.686   6.197   2.498  1.00 20.00     0.021 C 
HETATM    4  C4  UNL     1     -33.596   7.446   4.306  1.00 20.00     0.039 C 
HETATM    5  C5  UNL     1     -34.574   6.290   4.044  1.00 20.00     0.094 C 
HETATM    6  C6  UNL     1     -32.866   7.626   2.982  1.00 20.00     0.083 C 
HETATM    7  N7  UNL     1     -34.734   4.681   6.118  1.00 20.00    -0.197 NA
HETATM    8 CL8  UNL     1     -31.324   8.472   3.170  1.00 20.00    -0.125 Cl
ENDROOT
TORSDOF 0
ENDMDL
MODEL 4
REMARK VINA RESULT:      -4.0      2.056      2.516
REMARK  0 active torsions:
REMARK  status: ('A' for Active; 'I' for Inactive)
ROOT
HETATM    1  C1  UNL     1     -33.830   7.228   5.607  1.00 20.00     0.064 C 
HETATM    2  C2  UNL     1     -34.860   5.006   5.152  1.00 20.00     0.021 C 
HETATM    3  C3  UNL     1     -34.016   4.029   4.338  1.00 20.00     0.021 C 
HETATM    4  C4  UNL     1     -33.641   6.169   3.369  1.00 20.00     0.039 C 
HETATM    5  C5  UNL     1     -34.522   6.404   4.606  1.00 20.00     0.094 C 
HETATM    6  C6  UNL     1     -33.909   4.719   2.988  1.00 20.00     0.083 C 
HETATM    7  N7  UNL     1     -33.285   7.880   6.397  1.00 20.00    -0.197 NA
HETATM    8 CL8  UNL     1     -32.623   4.036   1.983  1.00 20.00    -0.125 Cl
ENDROOT
TORSDOF 0
ENDMDL
MODEL 5
REMARK VINA RESULT:      -3.9     12.124     12.496
REMARK  0 active torsions:
REMARK  status: ('A' for Active; 'I' for Inactive)
ROOT
HETATM    1  C1  UNL     1     -35.679  13.953  -5.033  1.00 20.00     0.064 C 
HETATM    2  C2  UNL     1     -33.930  15.670  -4.588  1.00 20.00     0.021 C 
HETATM    3  C3  UNL     1     -33.756  16.089  -3.131  1.00 20.00     0.021 C 
HETATM    4  C4  UNL     1     -36.098  15.818  -3.449  1.00 20.00     0.039 C 
HETATM    5  C5  UNL     1     -35.430  15.375  -4.759  1.00 20.00     0.094 C 
HETATM    6  C6  UNL     1     -35.083  16.757  -2.810  1.00 20.00     0.083 C 
HETATM    7  N7  UNL     1     -35.876  12.830  -5.249  1.00 20.00    -0.197 NA
HETATM    8 CL8  UNL     1     -35.338  16.945  -1.069  1.00 20.00    -0.125 Cl
ENDROOT
TORSDOF 0
ENDMDL
MODEL 6
REMARK VINA RESULT:      -3.9      3.337      4.257
REMARK  0 active torsions:
REMARK  status: ('A' for Active; 'I' for Inactive)
ROOT
HETATM    1  C1  UNL     1     -33.639   6.723   4.063  1.00 20.00     0.064 C 
HETATM    2  C2  UNL     1     -31.596   8.080   3.630  1.00 20.00     0.021 C 
HETATM    3  C3  UNL     1     -31.781   9.308   2.743  1.00 20.00     0.021 C 
HETATM    4  C4  UNL     1     -33.158   7.615   1.797  1.00 20.00     0.039 C 
HETATM    5  C5  UNL     1     -32.579   7.026   3.092  1.00 20.00     0.094 C 
HETATM    6  C6  UNL     1     -32.167   8.702   1.404  1.00 20.00     0.083 C 
HETATM    7  N7  UNL     1     -34.476   6.483   4.830  1.00 20.00    -0.197 NA
HETATM    8 CL8  UNL     1     -32.873   9.895   0.304  1.00 20.00    -0.125 Cl
ENDROOT
TORSDOF 0
ENDMDL
MODEL 7
REMARK VINA RESULT:      -3.7     11.848     12.282
REMARK  0 active torsions:
REMARK  status: ('A' for Active; 'I' for Inactive)
ROOT
HETATM    1  C1  UNL     1     -34.572  14.819  -3.973  1.00 20.00     0.064 C 
HETATM    2  C2  UNL     1     -33.497  16.941  -3.234  1.00 20.00     0.021 C 
HETATM    3  C3  UNL     1     -33.587  17.255  -1.744  1.00 20.00     0.021 C 
HETATM    4  C4  UNL     1     -35.689  16.309  -2.331  1.00 20.00     0.039 C 
HETATM    5  C5  UNL     1     -34.808  16.217  -3.586  1.00 20.00     0.094 C 
HETATM    6  C6  UNL     1     -35.079  17.450  -1.528  1.00 20.00     0.083 C 
HETATM    7  N7  UNL     1     -34.386  13.716  -4.279  1.00 20.00    -0.197 NA
HETATM    8 CL8  UNL     1     -35.525  17.387   0.183  1.00 20.00    -0.125 Cl
ENDROOT
TORSDOF 0
ENDMDL
MODEL 8
REMARK VINA RESULT:      -3.7     11.917     12.519
REMARK  0 active torsions:
REMARK  status: ('A' for Active; 'I' for Inactive)
ROOT
HETATM    1  C1  UNL     1     -32.118  18.422  -0.681  1.00 20.00     0.064 C 
HETATM    2  C2  UNL     1     -34.593  18.150  -0.603  1.00 20.00     0.021 C 
HETATM    3  C3  UNL     1     -35.145  16.856  -1.194  1.00 20.00     0.021 C 
HETATM    4  C4  UNL     1     -33.361  17.510  -2.626  1.00 20.00     0.039 C 
HETATM    5  C5  UNL     1     -33.363  18.505  -1.456  1.00 20.00     0.094 C 
HETATM    6  C6  UNL     1     -34.787  16.977  -2.666  1.00 20.00     0.083 C 
HETATM    7  N7  UNL     1     -31.134  18.356  -0.068  1.00 20.00    -0.197 NA
HETATM    8 CL8  UNL     1     -34.908  15.430  -3.517  1.00 20.00    -0.125 Cl
ENDROOT
TORSDOF 0
ENDMDL
MODEL 9
REMARK VINA RESULT:      -3.5     12.299     13.249
REMARK  0 active torsions:
REMARK  status: ('A' for Active; 'I' for Inactive)
ROOT
HETATM    1  C1  UNL     1     -36.748  14.113  -5.188  1.00 20.00     0.064 C 
HETATM    2  C2  UNL     1     -34.497  14.149  -4.121  1.00 20.00     0.021 C 
HETATM    3  C3  UNL     1     -33.935  15.527  -3.785  1.00 20.00     0.021 C 
HETATM    4  C4  UNL     1     -35.035  15.771  -5.880  1.00 20.00     0.039 C 
HETATM    5  C5  UNL     1     -35.312  14.335  -5.412  1.00 20.00     0.094 C 
HETATM    6  C6  UNL     1     -33.754  16.161  -5.155  1.00 20.00     0.083 C 
HETATM    7  N7  UNL     1     -37.881  13.938  -5.011  1.00 20.00    -0.197 NA
HETATM    8 CL8  UNL     1     -33.537  17.914  -5.061  1.00 20.00    -0.125 Cl
ENDROOT
TORSDOF 0
ENDMDL
