MODEL 1
REMARK VINA RESULT:      -4.7      0.000      0.000
REMARK  2 active torsions:
REMARK  status: ('A' for Active; 'I' for Inactive)
REMARK    1  A    between atoms: C3_3  and  C4_4 
REMARK    2  A    between atoms: C4_4  and  C5_5 
ROOT
HETATM    1  C1  UNL     1     -32.312   8.334   2.200  1.00 20.00     0.059 C 
HETATM    2  C3  UNL     1     -32.503   7.461   3.366  1.00 20.00     0.125 C 
HETATM    3  N6  UNL     1     -32.159   9.023   1.279  1.00 20.00    -0.197 NA
ENDROOT
BRANCH   2   4
HETATM    4  C4  UNL     1     -33.624   6.439   3.150  1.00 20.00     0.034 C 
BRANCH   4   5
HETATM    5  C5  UNL     1     -34.485   6.143   4.389  1.00 20.00     0.079 C 
HETATM    6  C2  UNL     1     -33.960   6.889   5.610  1.00 20.00     0.026 C 
HETATM    7 CL7  UNL     1     -34.510   4.391   4.751  1.00 20.00    -0.125 Cl
ENDBRANCH   4   5
ENDBRANCH   2   4
TORSDOF 2
ENDMDL
MODEL 2
REMARK VINA RESULT:      -4.4      1.450      1.576
REMARK  2 active torsions:
REMARK  status: ('A' for Active; 'I' for Inactive)
REMARK    1  A    between atoms: C3_3  and  C4_4 
REMARK    2  A    between atoms: C4_4  and  C5_5 
ROOT
HETATM    1  C1  UNL     1     -32.125   8.749   1.853  1.00 20.00     0.059 C 
HETATM    2  C3  UNL     1     -32.162   7.837   3.005  1.00 20.00     0.125 C 
HETATM    3  N6  UNL     1     -32.094   9.468   0.944  1.00 20.00    -0.197 NA
ENDROOT
BRANCH   2   4
HETATM    4  C4  UNL     1     -33.293   6.808   2.896  1.00 20.00     0.034 C 
BRANCH   4   5
HETATM    5  C5  UNL     1     -33.744   6.190   4.229  1.00 20.00     0.079 C 
HETATM    6  C2  UNL     1     -35.178   5.682   4.138  1.00 20.00     0.026 C 
HETATM    7 CL7  UNL     1     -33.638   7.381   5.560  1.00 20.00    -0.125 Cl
ENDBRANCH   4   5
ENDBRANCH   2   4
TORSDOF 2
ENDMDL
MODEL 3
REMARK VINA RESULT:      -4.2      2.928      3.657
REMARK  2 active torsions:
REMARK  status: ('A' for Active; 'I' for Inactive)
REMARK    1  A    between atoms: C3_3  and  C4_4 
REMARK    2  A    between atoms: C4_4  and  C5_5 
ROOT
HETATM    1  C1  UNL     1     -34.027   6.724   5.742  1.00 20.00     0.059 C 
HETATM    2  C3  UNL     1     -34.641   5.582   5.051  1.00 20.00     0.125 C 
HETATM    3  N6  UNL     1     -33.542   7.625   6.290  1.00 20.00    -0.197 NA
ENDROOT
BRANCH   2   4
HETATM    4  C4  UNL     1     -35.068   5.930   3.621  1.00 20.00     0.034 C 
BRANCH   4   5
HETATM    5  C5  UNL     1     -33.936   5.921   2.581  1.00 20.00     0.079 C 
HETATM    6  C2  UNL     1     -33.012   4.727   2.789  1.00 20.00     0.026 C 
HETATM    7 CL7  UNL     1     -32.966   7.422   2.672  1.00 20.00    -0.125 Cl
ENDBRANCH   4   5
ENDBRANCH   2   4
TORSDOF 2
ENDMDL
MODEL 4
REMARK VINA RESULT:      -4.2      2.879      3.922
REMARK  2 active torsions:
REMARK  status: ('A' for Active; 'I' for Inactive)
REMARK    1  A    between atoms: C3_3  and  C4_4 
REMARK    2  A    between atoms: C4_4  and  C5_5 
ROOT
HETATM    1  C1  UNL     1     -34.337   5.741   5.633  1.00 20.00     0.059 C 
HETATM    2  C3  UNL     1     -33.866   7.129   5.518  1.00 20.00     0.125 C 
HETATM    3  N6  UNL     1     -34.709   4.646   5.726  1.00 20.00    -0.197 NA
ENDROOT
BRANCH   2   4
HETATM    4  C4  UNL     1     -33.806   7.603   4.062  1.00 20.00     0.034 C 
BRANCH   4   5
HETATM    5  C5  UNL     1     -32.592   7.107   3.262  1.00 20.00     0.079 C 
HETATM    6  C2  UNL     1     -32.241   8.079   2.143  1.00 20.00     0.026 C 
HETATM    7 CL7  UNL     1     -32.906   5.496   2.548  1.00 20.00    -0.125 Cl
ENDBRANCH   4   5
ENDBRANCH   2   4
TORSDOF 2
ENDMDL
MODEL 5
REMARK VINA RESULT:      -4.1      3.478      4.596
REMARK  2 active torsions:
REMARK  status: ('A' for Active; 'I' for Inactive)
REMARK    1  A    between atoms: C3_3  and  C4_4 
REMARK    2  A    between atoms: C4_4  and  C5_5 
ROOT
HETATM    1  C1  UNL     1     -32.950   6.866   2.838  1.00 20.00     0.059 C 
HETATM    2  C3  UNL     1     -32.310   8.186   2.747  1.00 20.00     0.125 C 
HETATM    3  N6  UNL     1     -33.456   5.825   2.910  1.00 20.00    -0.197 NA
ENDROOT
BRANCH   2   4
HETATM    4  C4  UNL     1     -31.624   8.408   1.395  1.00 20.00     0.034 C 
BRANCH   4   5
HETATM    5  C5  UNL     1     -32.099   9.645   0.616  1.00 20.00     0.079 C 
HETATM    6  C2  UNL     1     -32.789  10.641   1.542  1.00 20.00     0.026 C 
HETATM    7 CL7  UNL     1     -33.236   9.188  -0.687  1.00 20.00    -0.125 Cl
ENDBRANCH   4   5
ENDBRANCH   2   4
TORSDOF 2
ENDMDL
MODEL 6
REMARK VINA RESULT:      -4.1      3.539      4.697
REMARK  2 active torsions:
REMARK  status: ('A' for Active; 'I' for Inactive)
REMARK    1  A    between atoms: C3_3  and  C4_4 
REMARK    2  A    between atoms: C4_4  and  C5_5 
ROOT
HETATM    1  C1  UNL     1     -33.097   6.785   2.934  1.00 20.00     0.059 C 
HETATM    2  C3  UNL     1     -32.076   7.839   3.027  1.00 20.00     0.125 C 
HETATM    3  N6  UNL     1     -33.903   5.954   2.863  1.00 20.00    -0.197 NA
ENDROOT
BRANCH   2   4
HETATM    4  C4  UNL     1     -31.782   8.484   1.669  1.00 20.00     0.034 C 
BRANCH   4   5
HETATM    5  C5  UNL     1     -32.876   9.428   1.143  1.00 20.00     0.079 C 
HETATM    6  C2  UNL     1     -32.968   9.363  -0.376  1.00 20.00     0.026 C 
HETATM    7 CL7  UNL     1     -32.555  11.120   1.629  1.00 20.00    -0.125 Cl
ENDBRANCH   4   5
ENDBRANCH   2   4
TORSDOF 2
ENDMDL
MODEL 7
REMARK VINA RESULT:      -4.1      2.921      3.945
REMARK  2 active torsions:
REMARK  status: ('A' for Active; 'I' for Inactive)
REMARK    1  A    between atoms: C3_3  and  C4_4 
REMARK    2  A    between atoms: C4_4  and  C5_5 
ROOT
HETATM    1  C1  UNL     1     -34.138   6.576   4.887  1.00 20.00     0.059 C 
HETATM    2  C3  UNL     1     -34.251   6.101   3.500  1.00 20.00     0.125 C 
HETATM    3  N6  UNL     1     -34.050   6.949   5.981  1.00 20.00    -0.197 NA
ENDROOT
BRANCH   2   4
HETATM    4  C4  UNL     1     -33.059   6.530   2.640  1.00 20.00     0.034 C 
BRANCH   4   5
HETATM    5  C5  UNL     1     -32.704   8.024   2.713  1.00 20.00     0.079 C 
HETATM    6  C2  UNL     1     -32.402   8.582   1.328  1.00 20.00     0.026 C 
HETATM    7 CL7  UNL     1     -31.284   8.298   3.766  1.00 20.00    -0.125 Cl
ENDBRANCH   4   5
ENDBRANCH   2   4
TORSDOF 2
ENDMDL
MODEL 8
REMARK VINA RESULT:      -4.1      3.247      4.248
REMARK  2 active torsions:
REMARK  status: ('A' for Active; 'I' for Inactive)
REMARK    1  A    between atoms: C3_3  and  C4_4 
REMARK    2  A    between atoms: C4_4  and  C5_5 
ROOT
HETATM    1  C1  UNL     1     -34.341   5.038   4.114  1.00 20.00     0.059 C 
HETATM    2  C3  UNL     1     -34.278   6.451   3.717  1.00 20.00     0.125 C 
HETATM    3  N6  UNL     1     -34.391   3.922   4.428  1.00 20.00    -0.197 NA
ENDROOT
BRANCH   2   4
HETATM    4  C4  UNL     1     -33.191   6.713   2.670  1.00 20.00     0.034 C 
BRANCH   4   5
HETATM    5  C5  UNL     1     -32.633   8.146   2.651  1.00 20.00     0.079 C 
HETATM    6  C2  UNL     1     -32.098   8.505   1.270  1.00 20.00     0.026 C 
HETATM    7 CL7  UNL     1     -31.317   8.340   3.848  1.00 20.00    -0.125 Cl
ENDBRANCH   4   5
ENDBRANCH   2   4
TORSDOF 2
ENDMDL
MODEL 9
REMARK VINA RESULT:      -4.1      3.441      4.158
REMARK  2 active torsions:
REMARK  status: ('A' for Active; 'I' for Inactive)
REMARK    1  A    between atoms: C3_3  and  C4_4 
REMARK    2  A    between atoms: C4_4  and  C5_5 
ROOT
HETATM    1  C1  UNL     1     -34.349   5.331   4.306  1.00 20.00     0.059 C 
HETATM    2  C3  UNL     1     -33.920   6.697   3.974  1.00 20.00     0.125 C 
HETATM    3  N6  UNL     1     -34.689   4.253   4.569  1.00 20.00    -0.197 NA
ENDROOT
BRANCH   2   4
HETATM    4  C4  UNL     1     -33.303   6.789   2.575  1.00 20.00     0.034 C 
BRANCH   4   5
HETATM    5  C5  UNL     1     -32.140   7.784   2.438  1.00 20.00     0.079 C 
HETATM    6  C2  UNL     1     -31.640   8.231   3.807  1.00 20.00     0.026 C 
HETATM    7 CL7  UNL     1     -32.635   9.229   1.505  1.00 20.00    -0.125 Cl
ENDBRANCH   4   5
ENDBRANCH   2   4
TORSDOF 2
ENDMDL
