MODEL 1
REMARK VINA RESULT:      -4.9      0.000      0.000
REMARK  2 active torsions:
REMARK  status: ('A' for Active; 'I' for Inactive)
REMARK    1  A    between atoms: C4_4  and  C5_5 
REMARK    2  A    between atoms: C4_4  and  C6_6 
ROOT
HETATM    1  C1  UNL     1     -32.693   7.279   2.629  1.00 20.00     0.063 C 
HETATM    2  C2  UNL     1     -32.966   4.842   2.509  1.00 20.00     0.025 C 
HETATM    3  C5  UNL     1     -33.687   6.191   2.567  1.00 20.00     0.090 C 
HETATM    4  N7  UNL     1     -31.911   8.136   2.675  1.00 20.00    -0.197 NA
ENDROOT
BRANCH   3   5
HETATM    5  C4  UNL     1     -34.635   6.231   3.782  1.00 20.00     0.038 C 
BRANCH   5   6
HETATM    6  C6  UNL     1     -33.966   5.966   5.142  1.00 20.00     0.079 C 
HETATM    7  C3  UNL     1     -34.733   4.911   5.932  1.00 20.00     0.026 C 
HETATM    8 CL8  UNL     1     -33.880   7.464   6.118  1.00 20.00    -0.125 Cl
ENDBRANCH   5   6
ENDBRANCH   3   5
TORSDOF 2
ENDMDL
MODEL 2
REMARK VINA RESULT:      -4.8      2.551      3.933
REMARK  2 active torsions:
REMARK  status: ('A' for Active; 'I' for Inactive)
REMARK    1  A    between atoms: C4_4  and  C5_5 
REMARK    2  A    between atoms: C4_4  and  C6_6 
ROOT
HETATM    1  C1  UNL     1     -34.364   4.979   4.202  1.00 20.00     0.063 C 
HETATM    2  C2  UNL     1     -33.871   7.155   5.226  1.00 20.00     0.025 C 
HETATM    3  C5  UNL     1     -34.240   6.424   3.933  1.00 20.00     0.090 C 
HETATM    4  N7  UNL     1     -34.464   3.843   4.413  1.00 20.00    -0.197 NA
ENDROOT
BRANCH   3   5
HETATM    5  C4  UNL     1     -33.179   6.701   2.849  1.00 20.00     0.038 C 
BRANCH   5   6
HETATM    6  C6  UNL     1     -32.670   8.152   2.789  1.00 20.00     0.079 C 
HETATM    7  C3  UNL     1     -32.481   8.605   1.345  1.00 20.00     0.026 C 
HETATM    8 CL8  UNL     1     -31.112   8.322   3.653  1.00 20.00    -0.125 Cl
ENDBRANCH   5   6
ENDBRANCH   3   5
TORSDOF 2
ENDMDL
MODEL 3
REMARK VINA RESULT:      -4.7      1.612      2.123
REMARK  2 active torsions:
REMARK  status: ('A' for Active; 'I' for Inactive)
REMARK    1  A    between atoms: C4_4  and  C5_5 
REMARK    2  A    between atoms: C4_4  and  C6_6 
ROOT
HETATM    1  C1  UNL     1     -32.437   8.750   1.541  1.00 20.00     0.063 C 
HETATM    2  C2  UNL     1     -31.371   8.210   3.685  1.00 20.00     0.025 C 
HETATM    3  C5  UNL     1     -32.370   7.749   2.621  1.00 20.00     0.090 C 
HETATM    4  N7  UNL     1     -32.488   9.536   0.689  1.00 20.00    -0.197 NA
ENDROOT
BRANCH   3   5
HETATM    5  C4  UNL     1     -33.755   7.524   3.261  1.00 20.00     0.038 C 
BRANCH   5   6
HETATM    6  C6  UNL     1     -33.792   6.480   4.391  1.00 20.00     0.079 C 
HETATM    7  C3  UNL     1     -34.992   5.552   4.237  1.00 20.00     0.026 C 
HETATM    8 CL8  UNL     1     -33.877   7.270   5.994  1.00 20.00    -0.125 Cl
ENDBRANCH   5   6
ENDBRANCH   3   5
TORSDOF 2
ENDMDL
MODEL 4
REMARK VINA RESULT:      -4.7      2.108      2.623
REMARK  2 active torsions:
REMARK  status: ('A' for Active; 'I' for Inactive)
REMARK    1  A    between atoms: C4_4  and  C5_5 
REMARK    2  A    between atoms: C4_4  and  C6_6 
ROOT
HETATM    1  C1  UNL     1     -32.541   8.690   1.629  1.00 20.00     0.063 C 
HETATM    2  C2  UNL     1     -31.367   8.163   3.720  1.00 20.00     0.025 C 
HETATM    3  C5  UNL     1     -32.398   7.682   2.696  1.00 20.00     0.090 C 
HETATM    4  N7  UNL     1     -32.652   9.482   0.788  1.00 20.00    -0.197 NA
ENDROOT
BRANCH   3   5
HETATM    5  C4  UNL     1     -33.746   7.412   3.393  1.00 20.00     0.038 C 
BRANCH   5   6
HETATM    6  C6  UNL     1     -34.254   5.962   3.296  1.00 20.00     0.079 C 
HETATM    7  C3  UNL     1     -34.707   5.450   4.659  1.00 20.00     0.026 C 
HETATM    8 CL8  UNL     1     -32.977   4.876   2.669  1.00 20.00    -0.125 Cl
ENDBRANCH   5   6
ENDBRANCH   3   5
TORSDOF 2
ENDMDL
MODEL 5
REMARK VINA RESULT:      -4.4      3.396      4.912
REMARK  2 active torsions:
REMARK  status: ('A' for Active; 'I' for Inactive)
REMARK    1  A    between atoms: C4_4  and  C5_5 
REMARK    2  A    between atoms: C4_4  and  C6_6 
ROOT
HETATM    1  C1  UNL     1     -33.096   6.821   2.734  1.00 20.00     0.063 C 
HETATM    2  C2  UNL     1     -31.424   8.243   3.833  1.00 20.00     0.025 C 
HETATM    3  C5  UNL     1     -32.438   8.140   2.691  1.00 20.00     0.090 C 
HETATM    4  N7  UNL     1     -33.616   5.785   2.769  1.00 20.00    -0.197 NA
ENDROOT
BRANCH   3   5
HETATM    5  C4  UNL     1     -31.734   8.369   1.338  1.00 20.00     0.038 C 
BRANCH   5   6
HETATM    6  C6  UNL     1     -32.150   9.649   0.593  1.00 20.00     0.079 C 
HETATM    7  C3  UNL     1     -32.846  10.627   1.533  1.00 20.00     0.026 C 
HETATM    8 CL8  UNL     1     -33.254   9.271  -0.764  1.00 20.00    -0.125 Cl
ENDBRANCH   5   6
ENDBRANCH   3   5
TORSDOF 2
ENDMDL
MODEL 6
REMARK VINA RESULT:      -4.4      2.770      4.333
REMARK  2 active torsions:
REMARK  status: ('A' for Active; 'I' for Inactive)
REMARK    1  A    between atoms: C4_4  and  C5_5 
REMARK    2  A    between atoms: C4_4  and  C6_6 
ROOT
HETATM    1  C1  UNL     1     -33.181   5.932   2.951  1.00 20.00     0.063 C 
HETATM    2  C2  UNL     1     -33.403   7.403   4.904  1.00 20.00     0.025 C 
HETATM    3  C5  UNL     1     -33.369   7.332   3.375  1.00 20.00     0.090 C 
HETATM    4  N7  UNL     1     -33.036   4.831   2.616  1.00 20.00    -0.197 NA
ENDROOT
BRANCH   3   5
HETATM    5  C4  UNL     1     -32.244   8.236   2.830  1.00 20.00     0.038 C 
BRANCH   5   6
HETATM    6  C6  UNL     1     -32.500   8.829   1.433  1.00 20.00     0.079 C 
HETATM    7  C3  UNL     1     -31.304   8.602   0.516  1.00 20.00     0.026 C 
HETATM    8 CL8  UNL     1     -32.825  10.586   1.531  1.00 20.00    -0.125 Cl
ENDBRANCH   5   6
ENDBRANCH   3   5
TORSDOF 2
ENDMDL
MODEL 7
REMARK VINA RESULT:      -4.3      2.849      4.308
REMARK  2 active torsions:
REMARK  status: ('A' for Active; 'I' for Inactive)
REMARK    1  A    between atoms: C4_4  and  C5_5 
REMARK    2  A    between atoms: C4_4  and  C6_6 
ROOT
HETATM    1  C1  UNL     1     -33.231   7.292   4.753  1.00 20.00     0.063 C 
HETATM    2  C2  UNL     1     -33.627   6.557   2.444  1.00 20.00     0.025 C 
HETATM    3  C5  UNL     1     -32.598   7.109   3.434  1.00 20.00     0.090 C 
HETATM    4  N7  UNL     1     -33.728   7.435   5.792  1.00 20.00    -0.197 NA
ENDROOT
BRANCH   3   5
HETATM    5  C4  UNL     1     -32.017   8.436   2.904  1.00 20.00     0.038 C 
BRANCH   5   6
HETATM    6  C6  UNL     1     -32.440   8.809   1.472  1.00 20.00     0.079 C 
HETATM    7  C3  UNL     1     -31.288   8.607   0.493  1.00 20.00     0.026 C 
HETATM    8 CL8  UNL     1     -32.977  10.514   1.385  1.00 20.00    -0.125 Cl
ENDBRANCH   5   6
ENDBRANCH   3   5
TORSDOF 2
ENDMDL
MODEL 8
REMARK VINA RESULT:      -4.3      2.735      3.964
REMARK  2 active torsions:
REMARK  status: ('A' for Active; 'I' for Inactive)
REMARK    1  A    between atoms: C4_4  and  C5_5 
REMARK    2  A    between atoms: C4_4  and  C6_6 
ROOT
HETATM    1  C1  UNL     1     -34.553   5.235   4.939  1.00 20.00     0.063 C 
HETATM    2  C2  UNL     1     -33.606   7.212   6.045  1.00 20.00     0.025 C 
HETATM    3  C5  UNL     1     -34.553   6.710   4.952  1.00 20.00     0.090 C 
HETATM    4  N7  UNL     1     -34.556   4.075   4.931  1.00 20.00    -0.197 NA
ENDROOT
BRANCH   3   5
HETATM    5  C4  UNL     1     -34.127   7.280   3.584  1.00 20.00     0.038 C 
BRANCH   5   6
HETATM    6  C6  UNL     1     -32.725   6.860   3.107  1.00 20.00     0.079 C 
HETATM    7  C3  UNL     1     -32.098   7.941   2.235  1.00 20.00     0.026 C 
HETATM    8 CL8  UNL     1     -32.795   5.335   2.173  1.00 20.00    -0.125 Cl
ENDBRANCH   5   6
ENDBRANCH   3   5
TORSDOF 2
ENDMDL
MODEL 9
REMARK VINA RESULT:      -4.2      2.449      3.519
REMARK  2 active torsions:
REMARK  status: ('A' for Active; 'I' for Inactive)
REMARK    1  A    between atoms: C4_4  and  C5_5 
REMARK    2  A    between atoms: C4_4  and  C6_6 
ROOT
HETATM    1  C1  UNL     1     -33.566   5.203   3.078  1.00 20.00     0.063 C 
HETATM    2  C2  UNL     1     -34.529   5.837   5.245  1.00 20.00     0.025 C 
HETATM    3  C5  UNL     1     -34.399   6.207   3.765  1.00 20.00     0.090 C 
HETATM    4  N7  UNL     1     -32.913   4.412   2.535  1.00 20.00    -0.197 NA
ENDROOT
BRANCH   3   5
HETATM    5  C4  UNL     1     -33.798   7.620   3.627  1.00 20.00     0.038 C 
BRANCH   5   6
HETATM    6  C6  UNL     1     -32.483   7.697   2.832  1.00 20.00     0.079 C 
HETATM    7  C3  UNL     1     -31.350   8.232   3.701  1.00 20.00     0.026 C 
HETATM    8 CL8  UNL     1     -32.659   8.756   1.400  1.00 20.00    -0.125 Cl
ENDBRANCH   5   6
ENDBRANCH   3   5
TORSDOF 2
ENDMDL
