MODEL 1
REMARK VINA RESULT:      -5.2      0.000      0.000
REMARK  0 active torsions:
REMARK  status: ('A' for Active; 'I' for Inactive)
ROOT
HETATM    1  C1  UNL     1     -32.534   7.963   2.345  1.00 20.00     0.064 C 
HETATM    2  C2  UNL     1     -33.096   7.165   4.639  1.00 20.00     0.021 C 
HETATM    3  C3  UNL     1     -34.532   6.746   4.954  1.00 20.00     0.021 C 
HETATM    4  C4  UNL     1     -34.154   6.113   2.695  1.00 20.00     0.039 C 
HETATM    5  C5  UNL     1     -32.859   6.790   3.167  1.00 20.00     0.094 C 
HETATM    6  C6  UNL     1     -34.834   5.624   3.970  1.00 20.00     0.083 C 
HETATM    7  N7  UNL     1     -32.277   8.890   1.696  1.00 20.00    -0.197 NA
HETATM    8 CL8  UNL     1     -34.121   4.082   4.522  1.00 20.00    -0.125 Cl
ENDROOT
TORSDOF 0
ENDMDL
MODEL 2
REMARK VINA RESULT:      -4.8      3.041      3.679
REMARK  0 active torsions:
REMARK  status: ('A' for Active; 'I' for Inactive)
ROOT
HETATM    1  C1  UNL     1     -34.477   5.155   4.226  1.00 20.00     0.064 C 
HETATM    2  C2  UNL     1     -33.681   7.481   4.639  1.00 20.00     0.021 C 
HETATM    3  C3  UNL     1     -32.248   7.859   4.263  1.00 20.00     0.021 C 
HETATM    4  C4  UNL     1     -32.954   6.290   2.625  1.00 20.00     0.039 C 
HETATM    5  C5  UNL     1     -34.129   6.439   3.602  1.00 20.00     0.094 C 
HETATM    6  C6  UNL     1     -32.152   7.579   2.770  1.00 20.00     0.083 C 
HETATM    7  N7  UNL     1     -34.750   4.141   4.719  1.00 20.00    -0.197 NA
HETATM    8 CL8  UNL     1     -32.892   8.901   1.823  1.00 20.00    -0.125 Cl
ENDROOT
TORSDOF 0
ENDMDL
MODEL 3
REMARK VINA RESULT:      -4.2     11.265     12.045
REMARK  0 active torsions:
REMARK  status: ('A' for Active; 'I' for Inactive)
ROOT
HETATM    1  C1  UNL     1     -35.289  13.643  -4.691  1.00 20.00     0.064 C 
HETATM    2  C2  UNL     1     -33.237  15.057  -4.614  1.00 20.00     0.021 C 
HETATM    3  C3  UNL     1     -33.367  16.571  -4.780  1.00 20.00     0.021 C 
HETATM    4  C4  UNL     1     -35.316  15.880  -3.612  1.00 20.00     0.039 C 
HETATM    5  C5  UNL     1     -34.514  14.600  -3.890  1.00 20.00     0.094 C 
HETATM    6  C6  UNL     1     -34.290  17.008  -3.652  1.00 20.00     0.083 C 
HETATM    7  N7  UNL     1     -35.901  12.887  -5.324  1.00 20.00    -0.197 NA
HETATM    8 CL8  UNL     1     -33.402  17.118  -2.106  1.00 20.00    -0.125 Cl
ENDROOT
TORSDOF 0
ENDMDL
MODEL 4
REMARK VINA RESULT:      -3.9     11.829     12.139
REMARK  0 active torsions:
REMARK  status: ('A' for Active; 'I' for Inactive)
ROOT
HETATM    1  C1  UNL     1     -35.538  13.938  -4.972  1.00 20.00     0.064 C 
HETATM    2  C2  UNL     1     -36.011  16.001  -3.654  1.00 20.00     0.021 C 
HETATM    3  C3  UNL     1     -35.125  16.341  -2.454  1.00 20.00     0.021 C 
HETATM    4  C4  UNL     1     -33.691  15.318  -4.047  1.00 20.00     0.039 C 
HETATM    5  C5  UNL     1     -35.093  15.306  -4.673  1.00 20.00     0.094 C 
HETATM    6  C6  UNL     1     -33.720  16.452  -3.028  1.00 20.00     0.083 C 
HETATM    7  N7  UNL     1     -35.890  12.858  -5.207  1.00 20.00    -0.197 NA
HETATM    8 CL8  UNL     1     -33.479  18.033  -3.825  1.00 20.00    -0.125 Cl
ENDROOT
TORSDOF 0
ENDMDL
MODEL 5
REMARK VINA RESULT:      -3.8      1.563      2.004
REMARK  0 active torsions:
REMARK  status: ('A' for Active; 'I' for Inactive)
ROOT
HETATM    1  C1  UNL     1     -31.912   7.906   3.340  1.00 20.00     0.064 C 
HETATM    2  C2  UNL     1     -33.109   5.857   2.577  1.00 20.00     0.021 C 
HETATM    3  C3  UNL     1     -33.657   4.880   3.617  1.00 20.00     0.021 C 
HETATM    4  C4  UNL     1     -33.885   7.041   4.577  1.00 20.00     0.039 C 
HETATM    5  C5  UNL     1     -33.221   7.254   3.208  1.00 20.00     0.094 C 
HETATM    6  C6  UNL     1     -34.616   5.708   4.460  1.00 20.00     0.083 C 
HETATM    7  N7  UNL     1     -30.877   8.420   3.444  1.00 20.00    -0.197 NA
HETATM    8 CL8  UNL     1     -36.185   5.912   3.629  1.00 20.00    -0.125 Cl
ENDROOT
TORSDOF 0
ENDMDL
MODEL 6
REMARK VINA RESULT:      -3.7     11.385     12.049
REMARK  0 active torsions:
REMARK  status: ('A' for Active; 'I' for Inactive)
ROOT
HETATM    1  C1  UNL     1     -36.826  13.934  -5.010  1.00 20.00     0.064 C 
HETATM    2  C2  UNL     1     -34.676  14.048  -6.268  1.00 20.00     0.021 C 
HETATM    3  C3  UNL     1     -33.743  15.239  -6.047  1.00 20.00     0.021 C 
HETATM    4  C4  UNL     1     -34.764  14.819  -3.943  1.00 20.00     0.039 C 
HETATM    5  C5  UNL     1     -35.366  13.795  -4.917  1.00 20.00     0.094 C 
HETATM    6  C6  UNL     1     -33.425  15.212  -4.559  1.00 20.00     0.083 C 
HETATM    7  N7  UNL     1     -37.978  14.045  -5.083  1.00 20.00    -0.197 NA
HETATM    8 CL8  UNL     1     -32.172  13.991  -4.195  1.00 20.00    -0.125 Cl
ENDROOT
TORSDOF 0
ENDMDL
MODEL 7
REMARK VINA RESULT:      -3.7     11.939     12.361
REMARK  0 active torsions:
REMARK  status: ('A' for Active; 'I' for Inactive)
ROOT
HETATM    1  C1  UNL     1     -32.233  18.333  -0.734  1.00 20.00     0.064 C 
HETATM    2  C2  UNL     1     -33.485  17.551  -2.743  1.00 20.00     0.021 C 
HETATM    3  C3  UNL     1     -34.464  16.384  -2.607  1.00 20.00     0.021 C 
HETATM    4  C4  UNL     1     -34.594  17.580  -0.559  1.00 20.00     0.039 C 
HETATM    5  C5  UNL     1     -33.539  18.307  -1.406  1.00 20.00     0.094 C 
HETATM    6  C6  UNL     1     -35.473  16.844  -1.564  1.00 20.00     0.083 C 
HETATM    7  N7  UNL     1     -31.201  18.352  -0.204  1.00 20.00    -0.197 NA
HETATM    8 CL8  UNL     1     -36.679  17.948  -2.286  1.00 20.00    -0.125 Cl
ENDROOT
TORSDOF 0
ENDMDL
MODEL 8
REMARK VINA RESULT:      -3.7     11.655     12.105
REMARK  0 active torsions:
REMARK  status: ('A' for Active; 'I' for Inactive)
ROOT
HETATM    1  C1  UNL     1     -33.036  18.133  -1.942  1.00 20.00     0.064 C 
HETATM    2  C2  UNL     1     -35.026  16.631  -1.902  1.00 20.00     0.021 C 
HETATM    3  C3  UNL     1     -35.857  16.458  -3.174  1.00 20.00     0.021 C 
HETATM    4  C4  UNL     1     -33.609  16.715  -3.900  1.00 20.00     0.039 C 
HETATM    5  C5  UNL     1     -33.575  16.835  -2.369  1.00 20.00     0.094 C 
HETATM    6  C6  UNL     1     -34.876  15.923  -4.208  1.00 20.00     0.083 C 
HETATM    7  N7  UNL     1     -32.610  19.158  -1.605  1.00 20.00    -0.197 NA
HETATM    8 CL8  UNL     1     -34.603  14.172  -3.985  1.00 20.00    -0.125 Cl
ENDROOT
TORSDOF 0
ENDMDL
MODEL 9
REMARK VINA RESULT:      -3.6     11.644     12.196
REMARK  0 active torsions:
REMARK  status: ('A' for Active; 'I' for Inactive)
ROOT
HETATM    1  C1  UNL     1     -37.432  14.546  -5.011  1.00 20.00     0.064 C 
HETATM    2  C2  UNL     1     -35.821  16.259  -4.181  1.00 20.00     0.021 C 
HETATM    3  C3  UNL     1     -34.699  15.833  -3.234  1.00 20.00     0.021 C 
HETATM    4  C4  UNL     1     -35.026  14.003  -4.713  1.00 20.00     0.039 C 
HETATM    5  C5  UNL     1     -36.061  15.063  -5.117  1.00 20.00     0.094 C 
HETATM    6  C6  UNL     1     -33.919  14.778  -4.006  1.00 20.00     0.083 C 
HETATM    7  N7  UNL     1     -38.515  14.138  -4.926  1.00 20.00    -0.197 NA
HETATM    8 CL8  UNL     1     -32.816  15.537  -5.189  1.00 20.00    -0.125 Cl
ENDROOT
TORSDOF 0
ENDMDL
