MODEL 1
REMARK VINA RESULT:      -4.7      0.000      0.000
REMARK  2 active torsions:
REMARK  status: ('A' for Active; 'I' for Inactive)
REMARK    1  A    between atoms: C5_5  and  C6_6 
REMARK    2  A    between atoms: C5_5  and  C7_7 
ROOT
HETATM    1  C1  UNL     1     -34.044   6.655   5.212  1.00 20.00     0.068 C 
HETATM    2  C3  UNL     1     -34.031   4.431   4.207  1.00 20.00     0.031 C 
HETATM    3  C4  UNL     1     -35.641   6.163   3.404  1.00 20.00     0.031 C 
HETATM    4  C7  UNL     1     -34.215   5.937   3.928  1.00 20.00     0.043 C 
HETATM    5  N8  UNL     1     -33.915   7.204   6.226  1.00 20.00    -0.196 NA
ENDROOT
BRANCH   4   6
HETATM    6  C5  UNL     1     -33.136   6.373   2.893  1.00 20.00     0.043 C 
BRANCH   6   7
HETATM    7  C6  UNL     1     -32.750   7.864   2.822  1.00 20.00     0.080 C 
HETATM    8  C2  UNL     1     -32.511   8.288   1.374  1.00 20.00     0.026 C 
HETATM    9 CL9  UNL     1     -31.278   8.231   3.764  1.00 20.00    -0.125 Cl
ENDBRANCH   6   7
ENDBRANCH   4   6
TORSDOF 2
ENDMDL
MODEL 2
REMARK VINA RESULT:      -4.6      1.403      2.010
REMARK  2 active torsions:
REMARK  status: ('A' for Active; 'I' for Inactive)
REMARK    1  A    between atoms: C5_5  and  C6_6 
REMARK    2  A    between atoms: C5_5  and  C7_7 
ROOT
HETATM    1  C1  UNL     1     -34.133   4.594   4.206  1.00 20.00     0.068 C 
HETATM    2  C3  UNL     1     -35.597   6.377   3.411  1.00 20.00     0.031 C 
HETATM    3  C4  UNL     1     -34.023   6.793   5.307  1.00 20.00     0.031 C 
HETATM    4  C7  UNL     1     -34.195   6.054   3.971  1.00 20.00     0.043 C 
HETATM    5  N8  UNL     1     -34.099   3.448   4.391  1.00 20.00    -0.196 NA
ENDROOT
BRANCH   4   6
HETATM    6  C5  UNL     1     -33.139   6.500   2.917  1.00 20.00     0.043 C 
BRANCH   6   7
HETATM    7  C6  UNL     1     -32.734   7.987   2.870  1.00 20.00     0.080 C 
HETATM    8  C2  UNL     1     -32.513   8.438   1.429  1.00 20.00     0.026 C 
HETATM    9 CL9  UNL     1     -31.242   8.314   3.796  1.00 20.00    -0.125 Cl
ENDBRANCH   6   7
ENDBRANCH   4   6
TORSDOF 2
ENDMDL
MODEL 3
REMARK VINA RESULT:      -4.1      2.188      2.878
REMARK  2 active torsions:
REMARK  status: ('A' for Active; 'I' for Inactive)
REMARK    1  A    between atoms: C5_5  and  C6_6 
REMARK    2  A    between atoms: C5_5  and  C7_7 
ROOT
HETATM    1  C1  UNL     1     -33.463   7.393   4.453  1.00 20.00     0.068 C 
HETATM    2  C3  UNL     1     -31.321   7.946   3.423  1.00 20.00     0.031 C 
HETATM    3  C4  UNL     1     -32.698   6.064   2.527  1.00 20.00     0.031 C 
HETATM    4  C7  UNL     1     -32.762   7.467   3.151  1.00 20.00     0.043 C 
HETATM    5  N8  UNL     1     -33.999   7.333   5.481  1.00 20.00    -0.196 NA
ENDROOT
BRANCH   4   6
HETATM    6  C5  UNL     1     -33.443   8.497   2.203  1.00 20.00     0.043 C 
BRANCH   6   7
HETATM    7  C6  UNL     1     -32.556   9.277   1.211  1.00 20.00     0.080 C 
HETATM    8  C2  UNL     1     -32.620  10.775   1.498  1.00 20.00     0.026 C 
HETATM    9 CL9  UNL     1     -33.039   9.010  -0.487  1.00 20.00    -0.125 Cl
ENDBRANCH   6   7
ENDBRANCH   4   6
TORSDOF 2
ENDMDL
MODEL 4
REMARK VINA RESULT:      -4.0      1.304      1.511
REMARK  2 active torsions:
REMARK  status: ('A' for Active; 'I' for Inactive)
REMARK    1  A    between atoms: C5_5  and  C6_6 
REMARK    2  A    between atoms: C5_5  and  C7_7 
ROOT
HETATM    1  C1  UNL     1     -33.848   6.787   5.051  1.00 20.00     0.068 C 
HETATM    2  C3  UNL     1     -33.177   5.287   3.247  1.00 20.00     0.031 C 
HETATM    3  C4  UNL     1     -35.538   6.089   3.403  1.00 20.00     0.031 C 
HETATM    4  C7  UNL     1     -34.071   6.490   3.618  1.00 20.00     0.043 C 
HETATM    5  N8  UNL     1     -33.669   7.005   6.177  1.00 20.00    -0.196 NA
ENDROOT
BRANCH   4   6
HETATM    6  C5  UNL     1     -33.657   7.694   2.723  1.00 20.00     0.043 C 
BRANCH   6   7
HETATM    7  C6  UNL     1     -32.174   7.832   2.320  1.00 20.00     0.080 C 
HETATM    8  C2  UNL     1     -31.361   8.432   3.465  1.00 20.00     0.026 C 
HETATM    9 CL9  UNL     1     -31.955   8.859   0.876  1.00 20.00    -0.125 Cl
ENDBRANCH   6   7
ENDBRANCH   4   6
TORSDOF 2
ENDMDL
MODEL 5
REMARK VINA RESULT:      -4.0     11.547     12.123
REMARK  2 active torsions:
REMARK  status: ('A' for Active; 'I' for Inactive)
REMARK    1  A    between atoms: C5_5  and  C6_6 
REMARK    2  A    between atoms: C5_5  and  C7_7 
ROOT
HETATM    1  C1  UNL     1     -35.329  13.826  -5.013  1.00 20.00     0.068 C 
HETATM    2  C3  UNL     1     -33.126  14.579  -4.280  1.00 20.00     0.031 C 
HETATM    3  C4  UNL     1     -34.383  15.867  -6.012  1.00 20.00     0.031 C 
HETATM    4  C7  UNL     1     -34.530  15.039  -4.726  1.00 20.00     0.043 C 
HETATM    5  N8  UNL     1     -35.942  12.867  -5.240  1.00 20.00    -0.196 NA
ENDROOT
BRANCH   4   6
HETATM    6  C5  UNL     1     -35.159  15.866  -3.567  1.00 20.00     0.043 C 
BRANCH   6   7
HETATM    7  C6  UNL     1     -34.213  16.543  -2.554  1.00 20.00     0.080 C 
HETATM    8  C2  UNL     1     -34.978  16.955  -1.298  1.00 20.00     0.026 C 
HETATM    9 CL9  UNL     1     -33.421  17.994  -3.229  1.00 20.00    -0.125 Cl
ENDBRANCH   6   7
ENDBRANCH   4   6
TORSDOF 2
ENDMDL
MODEL 6
REMARK VINA RESULT:      -4.0      2.620      3.368
REMARK  2 active torsions:
REMARK  status: ('A' for Active; 'I' for Inactive)
REMARK    1  A    between atoms: C5_5  and  C6_6 
REMARK    2  A    between atoms: C5_5  and  C7_7 
ROOT
HETATM    1  C1  UNL     1     -32.869   6.052   2.826  1.00 20.00     0.068 C 
HETATM    2  C3  UNL     1     -33.610   7.704   4.462  1.00 20.00     0.031 C 
HETATM    3  C4  UNL     1     -31.354   7.904   3.406  1.00 20.00     0.031 C 
HETATM    4  C7  UNL     1     -32.814   7.495   3.156  1.00 20.00     0.043 C 
HETATM    5  N8  UNL     1     -32.914   4.919   2.581  1.00 20.00    -0.196 NA
ENDROOT
BRANCH   4   6
HETATM    6  C5  UNL     1     -33.479   8.353   2.041  1.00 20.00     0.043 C 
BRANCH   6   7
HETATM    7  C6  UNL     1     -32.569   9.203   1.131  1.00 20.00     0.080 C 
HETATM    8  C2  UNL     1     -32.674  10.682   1.498  1.00 20.00     0.026 C 
HETATM    9 CL9  UNL     1     -32.979   9.023  -0.598  1.00 20.00    -0.125 Cl
ENDBRANCH   6   7
ENDBRANCH   4   6
TORSDOF 2
ENDMDL
MODEL 7
REMARK VINA RESULT:      -4.0      2.588      4.030
REMARK  2 active torsions:
REMARK  status: ('A' for Active; 'I' for Inactive)
REMARK    1  A    between atoms: C5_5  and  C6_6 
REMARK    2  A    between atoms: C5_5  and  C7_7 
ROOT
HETATM    1  C1  UNL     1     -32.645   8.988   1.702  1.00 20.00     0.068 C 
HETATM    2  C3  UNL     1     -32.246   6.598   1.994  1.00 20.00     0.031 C 
HETATM    3  C4  UNL     1     -31.290   8.241   3.616  1.00 20.00     0.031 C 
HETATM    4  C7  UNL     1     -32.505   7.931   2.729  1.00 20.00     0.043 C 
HETATM    5  N8  UNL     1     -32.746   9.808   0.887  1.00 20.00    -0.196 NA
ENDROOT
BRANCH   4   6
HETATM    6  C5  UNL     1     -33.812   7.778   3.561  1.00 20.00     0.043 C 
BRANCH   6   7
HETATM    7  C6  UNL     1     -33.931   6.580   4.524  1.00 20.00     0.080 C 
HETATM    8  C2  UNL     1     -35.147   5.727   4.172  1.00 20.00     0.026 C 
HETATM    9 CL9  UNL     1     -34.079   7.091   6.229  1.00 20.00    -0.125 Cl
ENDBRANCH   6   7
ENDBRANCH   4   6
TORSDOF 2
ENDMDL
MODEL 8
REMARK VINA RESULT:      -3.9      2.167      3.579
REMARK  2 active torsions:
REMARK  status: ('A' for Active; 'I' for Inactive)
REMARK    1  A    between atoms: C5_5  and  C6_6 
REMARK    2  A    between atoms: C5_5  and  C7_7 
ROOT
HETATM    1  C1  UNL     1     -32.625   7.203   2.743  1.00 20.00     0.068 C 
HETATM    2  C3  UNL     1     -34.472   6.347   1.398  1.00 20.00     0.031 C 
HETATM    3  C4  UNL     1     -32.894   4.766   2.518  1.00 20.00     0.031 C 
HETATM    4  C7  UNL     1     -33.622   6.112   2.664  1.00 20.00     0.043 C 
HETATM    5  N8  UNL     1     -31.844   8.061   2.789  1.00 20.00    -0.196 NA
ENDROOT
BRANCH   4   6
HETATM    6  C5  UNL     1     -34.573   6.130   3.896  1.00 20.00     0.043 C 
BRANCH   6   7
HETATM    7  C6  UNL     1     -33.957   5.963   5.300  1.00 20.00     0.080 C 
HETATM    8  C2  UNL     1     -34.785   4.991   6.138  1.00 20.00     0.026 C 
HETATM    9 CL9  UNL     1     -33.848   7.512   6.183  1.00 20.00    -0.125 Cl
ENDBRANCH   6   7
ENDBRANCH   4   6
TORSDOF 2
ENDMDL
MODEL 9
REMARK VINA RESULT:      -3.8     11.517     12.259
REMARK  2 active torsions:
REMARK  status: ('A' for Active; 'I' for Inactive)
REMARK    1  A    between atoms: C5_5  and  C6_6 
REMARK    2  A    between atoms: C5_5  and  C7_7 
ROOT
HETATM    1  C1  UNL     1     -35.449  13.927  -5.057  1.00 20.00     0.068 C 
HETATM    2  C3  UNL     1     -33.678  15.449  -5.767  1.00 20.00     0.031 C 
HETATM    3  C4  UNL     1     -35.972  16.320  -5.296  1.00 20.00     0.031 C 
HETATM    4  C7  UNL     1     -34.916  15.294  -4.858  1.00 20.00     0.043 C 
HETATM    5  N8  UNL     1     -35.860  12.855  -5.227  1.00 20.00    -0.196 NA
ENDROOT
BRANCH   4   6
HETATM    6  C5  UNL     1     -34.464  15.513  -3.384  1.00 20.00     0.043 C 
BRANCH   6   7
HETATM    7  C6  UNL     1     -34.675  16.904  -2.753  1.00 20.00     0.080 C 
HETATM    8  C2  UNL     1     -33.336  17.609  -2.550  1.00 20.00     0.026 C 
HETATM    9 CL9  UNL     1     -35.507  16.815  -1.175  1.00 20.00    -0.125 Cl
ENDBRANCH   6   7
ENDBRANCH   4   6
TORSDOF 2
ENDMDL
