MODEL 1
REMARK VINA RESULT:      -5.7      0.000      0.000
REMARK  0 active torsions:
REMARK  status: ('A' for Active; 'I' for Inactive)
ROOT
HETATM    1  C1  UNL     1     -32.556   7.887   2.602  1.00 20.00     0.095 C 
HETATM    2  C2  UNL     1     -34.209   6.200   3.175  1.00 20.00     0.011 C 
HETATM    3  C3  UNL     1     -33.306   7.124   3.527  1.00 20.00     0.020 C 
HETATM    4  C4  UNL     1     -33.179   7.236   5.014  1.00 20.00     0.051 C 
HETATM    5  C5  UNL     1     -34.430   6.503   5.504  1.00 20.00     0.029 C 
HETATM    6  C6  UNL     1     -34.830   5.554   4.370  1.00 20.00     0.106 C 
HETATM    7  N7  UNL     1     -31.941   8.513   1.844  1.00 20.00    -0.192 NA
HETATM    8 CL8  UNL     1     -34.144   3.930   4.598  1.00 20.00    -0.121 Cl
ENDROOT
TORSDOF 0
ENDMDL
MODEL 2
REMARK VINA RESULT:      -4.6      3.108      3.880
REMARK  0 active torsions:
REMARK  status: ('A' for Active; 'I' for Inactive)
ROOT
HETATM    1  C1  UNL     1     -34.363   6.094   4.075  1.00 20.00     0.095 C 
HETATM    2  C2  UNL     1     -33.026   7.102   2.314  1.00 20.00     0.011 C 
HETATM    3  C3  UNL     1     -33.372   6.985   3.602  1.00 20.00     0.020 C 
HETATM    4  C4  UNL     1     -32.595   7.922   4.472  1.00 20.00     0.051 C 
HETATM    5  C5  UNL     1     -31.450   8.348   3.549  1.00 20.00     0.029 C 
HETATM    6  C6  UNL     1     -31.959   8.131   2.121  1.00 20.00     0.106 C 
HETATM    7  N7  UNL     1     -35.176   5.363   4.462  1.00 20.00    -0.192 NA
HETATM    8 CL8  UNL     1     -32.670   9.612   1.444  1.00 20.00    -0.121 Cl
ENDROOT
TORSDOF 0
ENDMDL
MODEL 3
REMARK VINA RESULT:      -4.2     11.636     12.082
REMARK  0 active torsions:
REMARK  status: ('A' for Active; 'I' for Inactive)
ROOT
HETATM    1  C1  UNL     1     -35.500  13.805  -4.781  1.00 20.00     0.095 C 
HETATM    2  C2  UNL     1     -35.871  15.906  -3.619  1.00 20.00     0.011 C 
HETATM    3  C3  UNL     1     -35.053  14.971  -4.117  1.00 20.00     0.020 C 
HETATM    4  C4  UNL     1     -33.616  15.303  -3.870  1.00 20.00     0.051 C 
HETATM    5  C5  UNL     1     -33.685  16.782  -3.482  1.00 20.00     0.029 C 
HETATM    6  C6  UNL     1     -35.108  17.013  -2.965  1.00 20.00     0.106 C 
HETATM    7  N7  UNL     1     -35.867  12.849  -5.326  1.00 20.00    -0.192 NA
HETATM    8 CL8  UNL     1     -35.202  16.844  -1.198  1.00 20.00    -0.121 Cl
ENDROOT
TORSDOF 0
ENDMDL
MODEL 4
REMARK VINA RESULT:      -4.0     12.017     12.310
REMARK  0 active torsions:
REMARK  status: ('A' for Active; 'I' for Inactive)
ROOT
HETATM    1  C1  UNL     1     -35.497  13.801  -4.762  1.00 20.00     0.095 C 
HETATM    2  C2  UNL     1     -33.791  15.334  -3.959  1.00 20.00     0.011 C 
HETATM    3  C3  UNL     1     -35.068  14.941  -4.043  1.00 20.00     0.020 C 
HETATM    4  C4  UNL     1     -35.981  15.863  -3.298  1.00 20.00     0.051 C 
HETATM    5  C5  UNL     1     -35.003  16.659  -2.431  1.00 20.00     0.029 C 
HETATM    6  C6  UNL     1     -33.649  16.577  -3.142  1.00 20.00     0.106 C 
HETATM    7  N7  UNL     1     -35.849  12.866  -5.351  1.00 20.00    -0.192 NA
HETATM    8 CL8  UNL     1     -33.383  17.971  -4.211  1.00 20.00    -0.121 Cl
ENDROOT
TORSDOF 0
ENDMDL
MODEL 5
REMARK VINA RESULT:      -4.0     11.754     12.119
REMARK  0 active torsions:
REMARK  status: ('A' for Active; 'I' for Inactive)
ROOT
HETATM    1  C1  UNL     1     -32.822  17.825  -1.510  1.00 20.00     0.095 C 
HETATM    2  C2  UNL     1     -33.602  16.658  -3.493  1.00 20.00     0.011 C 
HETATM    3  C3  UNL     1     -33.791  17.103  -2.245  1.00 20.00     0.020 C 
HETATM    4  C4  UNL     1     -35.141  16.729  -1.721  1.00 20.00     0.051 C 
HETATM    5  C5  UNL     1     -35.883  16.320  -2.996  1.00 20.00     0.029 C 
HETATM    6  C6  UNL     1     -34.799  15.922  -4.002  1.00 20.00     0.106 C 
HETATM    7  N7  UNL     1     -32.027  18.417  -0.908  1.00 20.00    -0.192 NA
HETATM    8 CL8  UNL     1     -34.484  14.173  -3.971  1.00 20.00    -0.121 Cl
ENDROOT
TORSDOF 0
ENDMDL
MODEL 6
REMARK VINA RESULT:      -4.0      3.055      3.938
REMARK  0 active torsions:
REMARK  status: ('A' for Active; 'I' for Inactive)
ROOT
HETATM    1  C1  UNL     1     -34.499   5.029   4.769  1.00 20.00     0.095 C 
HETATM    2  C2  UNL     1     -33.721   7.238   4.124  1.00 20.00     0.011 C 
HETATM    3  C3  UNL     1     -33.832   5.923   3.900  1.00 20.00     0.020 C 
HETATM    4  C4  UNL     1     -33.154   5.519   2.629  1.00 20.00     0.051 C 
HETATM    5  C5  UNL     1     -32.947   6.863   1.928  1.00 20.00     0.029 C 
HETATM    6  C6  UNL     1     -32.955   7.920   3.037  1.00 20.00     0.106 C 
HETATM    7  N7  UNL     1     -35.045   4.295   5.482  1.00 20.00    -0.192 NA
HETATM    8 CL8  UNL     1     -31.312   8.292   3.603  1.00 20.00    -0.121 Cl
ENDROOT
TORSDOF 0
ENDMDL
MODEL 7
REMARK VINA RESULT:      -3.9      1.395      1.883
REMARK  0 active torsions:
REMARK  status: ('A' for Active; 'I' for Inactive)
ROOT
HETATM    1  C1  UNL     1     -32.121   7.933   2.340  1.00 20.00     0.095 C 
HETATM    2  C2  UNL     1     -33.766   7.128   3.937  1.00 20.00     0.011 C 
HETATM    3  C3  UNL     1     -32.921   6.921   2.920  1.00 20.00     0.020 C 
HETATM    4  C4  UNL     1     -32.941   5.496   2.465  1.00 20.00     0.051 C 
HETATM    5  C5  UNL     1     -33.649   4.793   3.625  1.00 20.00     0.029 C 
HETATM    6  C6  UNL     1     -34.479   5.873   4.326  1.00 20.00     0.106 C 
HETATM    7  N7  UNL     1     -31.466   8.763   1.864  1.00 20.00    -0.192 NA
HETATM    8 CL8  UNL     1     -36.148   5.919   3.716  1.00 20.00    -0.121 Cl
ENDROOT
TORSDOF 0
ENDMDL
MODEL 8
REMARK VINA RESULT:      -3.8      1.706      2.318
REMARK  0 active torsions:
REMARK  status: ('A' for Active; 'I' for Inactive)
ROOT
HETATM    1  C1  UNL     1     -32.433   8.728   1.535  1.00 20.00     0.095 C 
HETATM    2  C2  UNL     1     -32.308   7.715   3.740  1.00 20.00     0.011 C 
HETATM    3  C3  UNL     1     -32.859   7.812   2.523  1.00 20.00     0.020 C 
HETATM    4  C4  UNL     1     -33.987   6.844   2.348  1.00 20.00     0.051 C 
HETATM    5  C5  UNL     1     -33.775   5.883   3.520  1.00 20.00     0.029 C 
HETATM    6  C6  UNL     1     -32.977   6.665   4.566  1.00 20.00     0.106 C 
HETATM    7  N7  UNL     1     -32.084   9.480   0.723  1.00 20.00    -0.192 NA
HETATM    8 CL8  UNL     1     -34.039   7.433   5.766  1.00 20.00    -0.121 Cl
ENDROOT
TORSDOF 0
ENDMDL
MODEL 9
REMARK VINA RESULT:      -3.7     12.073     12.389
REMARK  0 active torsions:
REMARK  status: ('A' for Active; 'I' for Inactive)
ROOT
HETATM    1  C1  UNL     1     -37.373  14.469  -4.775  1.00 20.00     0.095 C 
HETATM    2  C2  UNL     1     -34.961  14.213  -4.644  1.00 20.00     0.011 C 
HETATM    3  C3  UNL     1     -36.082  14.896  -4.387  1.00 20.00     0.020 C 
HETATM    4  C4  UNL     1     -35.800  16.170  -3.655  1.00 20.00     0.051 C 
HETATM    5  C5  UNL     1     -34.363  15.956  -3.173  1.00 20.00     0.029 C 
HETATM    6  C6  UNL     1     -33.753  14.920  -4.121  1.00 20.00     0.106 C 
HETATM    7  N7  UNL     1     -38.432  14.118  -5.093  1.00 20.00    -0.192 NA
HETATM    8 CL8  UNL     1     -32.879  15.690  -5.463  1.00 20.00    -0.121 Cl
ENDROOT
TORSDOF 0
ENDMDL
