MODEL 1
REMARK VINA RESULT:      -5.0      0.000      0.000
REMARK  0 active torsions:
REMARK  status: ('A' for Active; 'I' for Inactive)
ROOT
HETATM    1  C1  UNL     1     -32.423   8.103   2.213  1.00 20.00     0.064 C 
HETATM    2  C2  UNL     1     -32.924   7.334   4.528  1.00 20.00     0.020 C 
HETATM    3  C3  UNL     1     -34.375   7.020   4.889  1.00 20.00     0.017 C 
HETATM    4  C4  UNL     1     -34.089   6.307   2.626  1.00 20.00     0.035 C 
HETATM    5  C5  UNL     1     -32.757   6.944   3.051  1.00 20.00     0.094 C 
HETATM    6  C6  UNL     1     -34.789   5.926   3.921  1.00 20.00     0.059 C 
HETATM    7  N7  UNL     1     -32.160   9.018   1.551  1.00 20.00    -0.197 NA
HETATM    8 BR8  UNL     1     -34.182   4.181   4.545  1.00 20.00    -0.091 Br
ENDROOT
TORSDOF 0
ENDMDL
MODEL 2
REMARK VINA RESULT:      -4.7      3.122      3.732
REMARK  0 active torsions:
REMARK  status: ('A' for Active; 'I' for Inactive)
ROOT
HETATM    1  C1  UNL     1     -34.393   5.097   4.112  1.00 20.00     0.064 C 
HETATM    2  C2  UNL     1     -33.800   7.488   4.472  1.00 20.00     0.020 C 
HETATM    3  C3  UNL     1     -32.342   7.908   4.294  1.00 20.00     0.017 C 
HETATM    4  C4  UNL     1     -32.755   6.239   2.635  1.00 20.00     0.035 C 
HETATM    5  C5  UNL     1     -34.048   6.364   3.454  1.00 20.00     0.094 C 
HETATM    6  C6  UNL     1     -32.003   7.541   2.861  1.00 20.00     0.059 C 
HETATM    7  N7  UNL     1     -34.665   4.095   4.630  1.00 20.00    -0.197 NA
HETATM    8 BR8  UNL     1     -32.622   8.919   1.627  1.00 20.00    -0.091 Br
ENDROOT
TORSDOF 0
ENDMDL
MODEL 3
REMARK VINA RESULT:      -4.1     11.154     11.926
REMARK  0 active torsions:
REMARK  status: ('A' for Active; 'I' for Inactive)
ROOT
HETATM    1  C1  UNL     1     -35.311  13.656  -4.721  1.00 20.00     0.064 C 
HETATM    2  C2  UNL     1     -33.286  15.099  -4.599  1.00 20.00     0.020 C 
HETATM    3  C3  UNL     1     -33.452  16.601  -4.822  1.00 20.00     0.017 C 
HETATM    4  C4  UNL     1     -35.403  15.890  -3.640  1.00 20.00     0.035 C 
HETATM    5  C5  UNL     1     -34.571  14.626  -3.903  1.00 20.00     0.094 C 
HETATM    6  C6  UNL     1     -34.425  17.049  -3.747  1.00 20.00     0.059 C 
HETATM    7  N7  UNL     1     -35.896  12.890  -5.366  1.00 20.00    -0.197 NA
HETATM    8 BR8  UNL     1     -33.502  17.333  -2.051  1.00 20.00    -0.091 Br
ENDROOT
TORSDOF 0
ENDMDL
MODEL 4
REMARK VINA RESULT:      -3.9     11.689     12.000
REMARK  0 active torsions:
REMARK  status: ('A' for Active; 'I' for Inactive)
ROOT
HETATM    1  C1  UNL     1     -35.527  13.978  -4.920  1.00 20.00     0.064 C 
HETATM    2  C2  UNL     1     -36.088  16.031  -3.629  1.00 20.00     0.020 C 
HETATM    3  C3  UNL     1     -35.243  16.369  -2.403  1.00 20.00     0.017 C 
HETATM    4  C4  UNL     1     -33.736  15.436  -4.005  1.00 20.00     0.035 C 
HETATM    5  C5  UNL     1     -35.136  15.365  -4.633  1.00 20.00     0.094 C 
HETATM    6  C6  UNL     1     -33.827  16.509  -2.932  1.00 20.00     0.059 C 
HETATM    7  N7  UNL     1     -35.835  12.883  -5.148  1.00 20.00    -0.197 NA
HETATM    8 BR8  UNL     1     -33.545  18.279  -3.700  1.00 20.00    -0.091 Br
ENDROOT
TORSDOF 0
ENDMDL
MODEL 5
REMARK VINA RESULT:      -3.7     11.777     12.211
REMARK  0 active torsions:
REMARK  status: ('A' for Active; 'I' for Inactive)
ROOT
HETATM    1  C1  UNL     1     -32.093  18.449  -0.420  1.00 20.00     0.064 C 
HETATM    2  C2  UNL     1     -33.375  17.762  -2.442  1.00 20.00     0.020 C 
HETATM    3  C3  UNL     1     -34.349  16.592  -2.318  1.00 20.00     0.017 C 
HETATM    4  C4  UNL     1     -34.479  17.780  -0.249  1.00 20.00     0.035 C 
HETATM    5  C5  UNL     1     -33.402  18.485  -1.086  1.00 20.00     0.094 C 
HETATM    6  C6  UNL     1     -35.337  17.019  -1.248  1.00 20.00     0.059 C 
HETATM    7  N7  UNL     1     -31.060  18.422   0.106  1.00 20.00    -0.197 NA
HETATM    8 BR8  UNL     1     -36.715  18.178  -1.998  1.00 20.00    -0.091 Br
ENDROOT
TORSDOF 0
ENDMDL
MODEL 6
REMARK VINA RESULT:      -3.6     11.965     12.537
REMARK  0 active torsions:
REMARK  status: ('A' for Active; 'I' for Inactive)
ROOT
HETATM    1  C1  UNL     1     -35.646  13.917  -5.116  1.00 20.00     0.064 C 
HETATM    2  C2  UNL     1     -35.126  15.717  -3.476  1.00 20.00     0.020 C 
HETATM    3  C3  UNL     1     -33.687  16.222  -3.387  1.00 20.00     0.017 C 
HETATM    4  C4  UNL     1     -34.081  15.756  -5.698  1.00 20.00     0.035 C 
HETATM    5  C5  UNL     1     -35.359  15.348  -4.949  1.00 20.00     0.094 C 
HETATM    6  C6  UNL     1     -33.368  16.736  -4.780  1.00 20.00     0.059 C 
HETATM    7  N7  UNL     1     -35.874  12.787  -5.249  1.00 20.00    -0.197 NA
HETATM    8 BR8  UNL     1     -34.061  18.543  -5.027  1.00 20.00    -0.091 Br
ENDROOT
TORSDOF 0
ENDMDL
MODEL 7
REMARK VINA RESULT:      -3.6     11.500     12.023
REMARK  0 active torsions:
REMARK  status: ('A' for Active; 'I' for Inactive)
ROOT
HETATM    1  C1  UNL     1     -32.989  18.089  -1.814  1.00 20.00     0.064 C 
HETATM    2  C2  UNL     1     -35.015  16.642  -1.864  1.00 20.00     0.020 C 
HETATM    3  C3  UNL     1     -35.901  16.679  -3.108  1.00 20.00     0.017 C 
HETATM    4  C4  UNL     1     -33.655  16.903  -3.892  1.00 20.00     0.035 C 
HETATM    5  C5  UNL     1     -33.576  16.858  -2.359  1.00 20.00     0.094 C 
HETATM    6  C6  UNL     1     -34.989  16.266  -4.248  1.00 20.00     0.059 C 
HETATM    7  N7  UNL     1     -32.525  19.062  -1.384  1.00 20.00    -0.197 NA
HETATM    8 BR8  UNL     1     -34.826  14.325  -4.338  1.00 20.00    -0.091 Br
ENDROOT
TORSDOF 0
ENDMDL
MODEL 8
REMARK VINA RESULT:      -3.4     11.296     11.896
REMARK  0 active torsions:
REMARK  status: ('A' for Active; 'I' for Inactive)
ROOT
HETATM    1  C1  UNL     1     -34.699  14.147  -5.129  1.00 20.00     0.064 C 
HETATM    2  C2  UNL     1     -33.442  15.844  -3.811  1.00 20.00     0.020 C 
HETATM    3  C3  UNL     1     -33.977  17.274  -3.773  1.00 20.00     0.017 C 
HETATM    4  C4  UNL     1     -35.897  15.852  -3.776  1.00 20.00     0.035 C 
HETATM    5  C5  UNL     1     -34.674  14.929  -3.886  1.00 20.00     0.094 C 
HETATM    6  C6  UNL     1     -35.373  17.153  -3.189  1.00 20.00     0.059 C 
HETATM    7  N7  UNL     1     -34.721  13.529  -6.111  1.00 20.00    -0.197 NA
HETATM    8 BR8  UNL     1     -35.304  17.053  -1.242  1.00 20.00    -0.091 Br
ENDROOT
TORSDOF 0
ENDMDL
MODEL 9
REMARK VINA RESULT:      -3.4     11.249     12.190
REMARK  0 active torsions:
REMARK  status: ('A' for Active; 'I' for Inactive)
ROOT
HETATM    1  C1  UNL     1     -33.445  18.048  -3.392  1.00 20.00     0.064 C 
HETATM    2  C2  UNL     1     -33.256  16.304  -5.159  1.00 20.00     0.020 C 
HETATM    3  C3  UNL     1     -33.128  14.845  -4.726  1.00 20.00     0.017 C 
HETATM    4  C4  UNL     1     -34.616  15.870  -3.161  1.00 20.00     0.035 C 
HETATM    5  C5  UNL     1     -34.154  16.983  -4.113  1.00 20.00     0.094 C 
HETATM    6  C6  UNL     1     -34.380  14.569  -3.913  1.00 20.00     0.059 C 
HETATM    7  N7  UNL     1     -32.886  18.890  -2.822  1.00 20.00    -0.197 NA
HETATM    8 BR8  UNL     1     -35.889  14.163  -5.080  1.00 20.00    -0.091 Br
ENDROOT
TORSDOF 0
ENDMDL
