MODEL 1
REMARK VINA RESULT:      -5.6      0.000      0.000
REMARK  3 active torsions:
REMARK  status: ('A' for Active; 'I' for Inactive)
REMARK    1  A    between atoms: C4_4  and  C5_5 
REMARK    2  A    between atoms: C5_5  and  C7_7 
REMARK    3  A    between atoms: C6_6  and  C7_7 
ROOT
HETATM    1  C1  UNL     1     -32.129   8.810   1.741  1.00 20.00     0.059 C 
HETATM    2  C4  UNL     1     -31.998   8.020   2.973  1.00 20.00     0.125 C 
HETATM    3  N8  UNL     1     -32.232   9.435   0.769  1.00 20.00    -0.197 NA
ENDROOT
BRANCH   2   4
HETATM    4  C5  UNL     1     -32.930   6.804   2.946  1.00 20.00     0.034 C 
BRANCH   4   5
HETATM    5  C7  UNL     1     -34.001   6.834   4.051  1.00 20.00     0.086 C 
HETATM    6 CL9  UNL     1     -33.338   7.594   5.536  1.00 20.00    -0.125 Cl
BRANCH   5   7
HETATM    7  C6  UNL     1     -34.592   5.432   4.346  1.00 20.00    -0.004 C 
HETATM    8  C2  UNL     1     -33.854   4.330   3.578  1.00 20.00     0.011 C 
HETATM    9  C3  UNL     1     -34.650   5.075   5.835  1.00 20.00     0.011 C 
ENDBRANCH   5   7
ENDBRANCH   4   5
ENDBRANCH   2   4
TORSDOF 3
ENDMDL
MODEL 2
REMARK VINA RESULT:      -5.6      1.634      1.843
REMARK  3 active torsions:
REMARK  status: ('A' for Active; 'I' for Inactive)
REMARK    1  A    between atoms: C4_4  and  C5_5 
REMARK    2  A    between atoms: C5_5  and  C7_7 
REMARK    3  A    between atoms: C6_6  and  C7_7 
ROOT
HETATM    1  C1  UNL     1     -32.269   9.443   1.447  1.00 20.00     0.059 C 
HETATM    2  C4  UNL     1     -32.041   8.353   2.408  1.00 20.00     0.125 C 
HETATM    3  N8  UNL     1     -32.447  10.303   0.691  1.00 20.00    -0.197 NA
ENDROOT
BRANCH   2   4
HETATM    4  C5  UNL     1     -33.221   7.375   2.416  1.00 20.00     0.034 C 
BRANCH   4   5
HETATM    5  C7  UNL     1     -33.098   6.285   3.496  1.00 20.00     0.086 C 
HETATM    6 CL9  UNL     1     -33.123   4.657   2.740  1.00 20.00    -0.125 Cl
BRANCH   5   7
HETATM    7  C6  UNL     1     -34.180   6.416   4.599  1.00 20.00    -0.004 C 
HETATM    8  C2  UNL     1     -34.677   5.046   5.075  1.00 20.00     0.011 C 
HETATM    9  C3  UNL     1     -33.750   7.258   5.804  1.00 20.00     0.011 C 
ENDBRANCH   5   7
ENDBRANCH   4   5
ENDBRANCH   2   4
TORSDOF 3
ENDMDL
MODEL 3
REMARK VINA RESULT:      -5.0      1.808      2.108
REMARK  3 active torsions:
REMARK  status: ('A' for Active; 'I' for Inactive)
REMARK    1  A    between atoms: C4_4  and  C5_5 
REMARK    2  A    between atoms: C5_5  and  C7_7 
REMARK    3  A    between atoms: C6_6  and  C7_7 
ROOT
HETATM    1  C1  UNL     1     -32.261   9.412   1.363  1.00 20.00     0.059 C 
HETATM    2  C4  UNL     1     -31.945   8.274   2.237  1.00 20.00     0.125 C 
HETATM    3  N8  UNL     1     -32.509  10.311   0.673  1.00 20.00    -0.197 NA
ENDROOT
BRANCH   2   4
HETATM    4  C5  UNL     1     -33.209   7.475   2.574  1.00 20.00     0.034 C 
BRANCH   4   5
HETATM    5  C7  UNL     1     -32.927   6.222   3.424  1.00 20.00     0.086 C 
HETATM    6 CL9  UNL     1     -32.842   4.768   2.375  1.00 20.00    -0.125 Cl
BRANCH   5   7
HETATM    7  C6  UNL     1     -33.955   6.037   4.569  1.00 20.00    -0.004 C 
HETATM    8  C2  UNL     1     -33.874   7.172   5.596  1.00 20.00     0.011 C 
HETATM    9  C3  UNL     1     -35.402   5.871   4.094  1.00 20.00     0.011 C 
ENDBRANCH   5   7
ENDBRANCH   4   5
ENDBRANCH   2   4
TORSDOF 3
ENDMDL
MODEL 4
REMARK VINA RESULT:      -4.8      1.056      1.544
REMARK  3 active torsions:
REMARK  status: ('A' for Active; 'I' for Inactive)
REMARK    1  A    between atoms: C4_4  and  C5_5 
REMARK    2  A    between atoms: C5_5  and  C7_7 
REMARK    3  A    between atoms: C6_6  and  C7_7 
ROOT
HETATM    1  C1  UNL     1     -32.512   9.173   0.982  1.00 20.00     0.059 C 
HETATM    2  C4  UNL     1     -32.030   8.889   2.342  1.00 20.00     0.125 C 
HETATM    3  N8  UNL     1     -32.891   9.399  -0.090  1.00 20.00    -0.197 NA
ENDROOT
BRANCH   2   4
HETATM    4  C5  UNL     1     -32.261   7.419   2.708  1.00 20.00     0.034 C 
BRANCH   4   5
HETATM    5  C7  UNL     1     -33.397   7.219   3.729  1.00 20.00     0.086 C 
HETATM    6 CL9  UNL     1     -32.924   7.898   5.322  1.00 20.00    -0.125 Cl
BRANCH   5   7
HETATM    7  C6  UNL     1     -33.833   5.736   3.851  1.00 20.00    -0.004 C 
HETATM    8  C2  UNL     1     -35.353   5.600   3.992  1.00 20.00     0.011 C 
HETATM    9  C3  UNL     1     -33.335   4.840   2.713  1.00 20.00     0.011 C 
ENDBRANCH   5   7
ENDBRANCH   4   5
ENDBRANCH   2   4
TORSDOF 3
ENDMDL
MODEL 5
REMARK VINA RESULT:      -4.5      2.587      4.783
REMARK  3 active torsions:
REMARK  status: ('A' for Active; 'I' for Inactive)
REMARK    1  A    between atoms: C4_4  and  C5_5 
REMARK    2  A    between atoms: C5_5  and  C7_7 
REMARK    3  A    between atoms: C6_6  and  C7_7 
ROOT
HETATM    1  C1  UNL     1     -34.324   5.787   3.692  1.00 20.00     0.059 C 
HETATM    2  C4  UNL     1     -33.251   6.093   2.735  1.00 20.00     0.125 C 
HETATM    3  N8  UNL     1     -35.171   5.544   4.446  1.00 20.00    -0.197 NA
ENDROOT
BRANCH   2   4
HETATM    4  C5  UNL     1     -33.386   7.522   2.198  1.00 20.00     0.034 C 
BRANCH   4   5
HETATM    5  C7  UNL     1     -32.032   8.186   1.890  1.00 20.00     0.086 C 
HETATM    6 CL9  UNL     1     -31.173   8.581   3.415  1.00 20.00    -0.125 Cl
BRANCH   5   7
HETATM    7  C6  UNL     1     -32.174   9.432   0.979  1.00 20.00    -0.004 C 
HETATM    8  C2  UNL     1     -32.869   9.094  -0.345  1.00 20.00     0.011 C 
HETATM    9  C3  UNL     1     -32.877  10.619   1.645  1.00 20.00     0.011 C 
ENDBRANCH   5   7
ENDBRANCH   4   5
ENDBRANCH   2   4
TORSDOF 3
ENDMDL
MODEL 6
REMARK VINA RESULT:      -4.2      2.956      4.623
REMARK  3 active torsions:
REMARK  status: ('A' for Active; 'I' for Inactive)
REMARK    1  A    between atoms: C4_4  and  C5_5 
REMARK    2  A    between atoms: C5_5  and  C7_7 
REMARK    3  A    between atoms: C6_6  and  C7_7 
ROOT
HETATM    1  C1  UNL     1     -34.475   5.738   5.631  1.00 20.00     0.059 C 
HETATM    2  C4  UNL     1     -34.126   7.164   5.546  1.00 20.00     0.125 C 
HETATM    3  N8  UNL     1     -34.751   4.614   5.699  1.00 20.00    -0.197 NA
ENDROOT
BRANCH   2   4
HETATM    4  C5  UNL     1     -32.917   7.378   4.628  1.00 20.00     0.034 C 
BRANCH   4   5
HETATM    5  C7  UNL     1     -33.271   7.306   3.131  1.00 20.00     0.086 C 
HETATM    6 CL9  UNL     1     -33.474   5.596   2.624  1.00 20.00    -0.125 Cl
BRANCH   5   7
HETATM    7  C6  UNL     1     -32.238   8.043   2.240  1.00 20.00    -0.004 C 
HETATM    8  C2  UNL     1     -32.885   9.180   1.441  1.00 20.00     0.011 C 
HETATM    9  C3  UNL     1     -31.018   8.573   3.000  1.00 20.00     0.011 C 
ENDBRANCH   5   7
ENDBRANCH   4   5
ENDBRANCH   2   4
TORSDOF 3
ENDMDL
MODEL 7
REMARK VINA RESULT:      -4.2      2.980      3.847
REMARK  3 active torsions:
REMARK  status: ('A' for Active; 'I' for Inactive)
REMARK    1  A    between atoms: C4_4  and  C5_5 
REMARK    2  A    between atoms: C5_5  and  C7_7 
REMARK    3  A    between atoms: C6_6  and  C7_7 
ROOT
HETATM    1  C1  UNL     1     -34.280   5.899   5.866  1.00 20.00     0.059 C 
HETATM    2  C4  UNL     1     -33.668   7.236   5.842  1.00 20.00     0.125 C 
HETATM    3  N8  UNL     1     -34.762   4.845   5.886  1.00 20.00    -0.197 NA
ENDROOT
BRANCH   2   4
HETATM    4  C5  UNL     1     -33.694   7.825   4.428  1.00 20.00     0.034 C 
BRANCH   4   5
HETATM    5  C7  UNL     1     -32.691   7.155   3.472  1.00 20.00     0.086 C 
HETATM    6 CL9  UNL     1     -31.724   8.400   2.614  1.00 20.00    -0.125 Cl
BRANCH   5   7
HETATM    7  C6  UNL     1     -33.376   6.183   2.476  1.00 20.00    -0.004 C 
HETATM    8  C2  UNL     1     -32.914   4.736   2.683  1.00 20.00     0.011 C 
HETATM    9  C3  UNL     1     -34.907   6.245   2.492  1.00 20.00     0.011 C 
ENDBRANCH   5   7
ENDBRANCH   4   5
ENDBRANCH   2   4
TORSDOF 3
ENDMDL
MODEL 8
REMARK VINA RESULT:      -4.1      2.580      4.330
REMARK  3 active torsions:
REMARK  status: ('A' for Active; 'I' for Inactive)
REMARK    1  A    between atoms: C4_4  and  C5_5 
REMARK    2  A    between atoms: C5_5  and  C7_7 
REMARK    3  A    between atoms: C6_6  and  C7_7 
ROOT
HETATM    1  C1  UNL     1     -34.606   4.500   4.327  1.00 20.00     0.059 C 
HETATM    2  C4  UNL     1     -35.321   5.737   3.983  1.00 20.00     0.125 C 
HETATM    3  N8  UNL     1     -34.043   3.523   4.600  1.00 20.00    -0.197 NA
ENDROOT
BRANCH   2   4
HETATM    4  C5  UNL     1     -34.410   6.701   3.215  1.00 20.00     0.034 C 
BRANCH   4   5
HETATM    5  C7  UNL     1     -33.034   6.893   3.879  1.00 20.00     0.086 C 
HETATM    6 CL9  UNL     1     -33.224   7.664   5.488  1.00 20.00    -0.125 Cl
BRANCH   5   7
HETATM    7  C6  UNL     1     -32.047   7.685   2.983  1.00 20.00    -0.004 C 
HETATM    8  C2  UNL     1     -32.775   8.454   1.874  1.00 20.00     0.011 C 
HETATM    9  C3  UNL     1     -31.125   8.636   3.753  1.00 20.00     0.011 C 
ENDBRANCH   5   7
ENDBRANCH   4   5
ENDBRANCH   2   4
TORSDOF 3
ENDMDL
MODEL 9
REMARK VINA RESULT:      -4.1      2.625      4.198
REMARK  3 active torsions:
REMARK  status: ('A' for Active; 'I' for Inactive)
REMARK    1  A    between atoms: C4_4  and  C5_5 
REMARK    2  A    between atoms: C5_5  and  C7_7 
REMARK    3  A    between atoms: C6_6  and  C7_7 
ROOT
HETATM    1  C1  UNL     1     -34.477   4.820   5.138  1.00 20.00     0.059 C 
HETATM    2  C4  UNL     1     -34.417   6.048   5.945  1.00 20.00     0.125 C 
HETATM    3  N8  UNL     1     -34.524   3.851   4.503  1.00 20.00    -0.197 NA
ENDROOT
BRANCH   2   4
HETATM    4  C5  UNL     1     -34.217   7.279   5.055  1.00 20.00     0.034 C 
BRANCH   4   5
HETATM    5  C7  UNL     1     -32.907   7.236   4.246  1.00 20.00     0.086 C 
HETATM    6 CL9  UNL     1     -31.845   8.605   4.713  1.00 20.00    -0.125 Cl
BRANCH   5   7
HETATM    7  C6  UNL     1     -33.154   7.205   2.716  1.00 20.00    -0.004 C 
HETATM    8  C2  UNL     1     -32.234   8.178   1.970  1.00 20.00     0.011 C 
HETATM    9  C3  UNL     1     -33.048   5.810   2.091  1.00 20.00     0.011 C 
ENDBRANCH   5   7
ENDBRANCH   4   5
ENDBRANCH   2   4
TORSDOF 3
ENDMDL
