MODEL 1
REMARK VINA RESULT:      -3.6      0.000      0.000
REMARK  1 active torsions:
REMARK  status: ('A' for Active; 'I' for Inactive)
REMARK    1  A    between atoms: C4_4  and  C7_7 
ROOT
HETATM    1  C1  UNL     1     -34.692  15.385  -3.493  1.00 20.00     0.034 A 
HETATM    2  C2  UNL     1     -34.976  15.080  -4.856  1.00 20.00     0.026 A 
HETATM    3  C3  UNL     1     -33.960  16.543  -3.362  1.00 20.00    -0.019 A 
HETATM    4  C4  UNL     1     -34.448  16.019  -5.716  1.00 20.00     0.018 A 
HETATM    5  C5  UNL     1     -33.472  17.190  -2.125  1.00 20.00     0.056 C 
HETATM    6  S8  UNL     1     -33.616  17.261  -4.879  1.00 20.00    -0.097 SA
HETATM    7 BR10 UNL     1     -35.962  13.554  -5.353  1.00 20.00    -0.050 Br
ENDROOT
BRANCH   4   8
HETATM    8  C7  UNL     1     -34.515  16.076  -7.193  1.00 20.00     0.119 C 
HETATM    9  C6  UNL     1     -35.931  16.249  -7.769  1.00 20.00     0.032 C 
HETATM   10 CL9  UNL     1     -33.774  14.603  -7.914  1.00 20.00    -0.120 Cl
ENDBRANCH   4   8
TORSDOF 1
ENDMDL
MODEL 2
REMARK VINA RESULT:      -3.6      1.430      1.549
REMARK  1 active torsions:
REMARK  status: ('A' for Active; 'I' for Inactive)
REMARK    1  A    between atoms: C4_4  and  C7_7 
ROOT
HETATM    1  C1  UNL     1     -35.712  15.963  -3.333  1.00 20.00     0.034 A 
HETATM    2  C2  UNL     1     -36.089  15.417  -4.594  1.00 20.00     0.026 A 
HETATM    3  C3  UNL     1     -34.398  16.374  -3.319  1.00 20.00    -0.019 A 
HETATM    4  C4  UNL     1     -35.048  15.431  -5.496  1.00 20.00     0.018 A 
HETATM    5  C5  UNL     1     -33.636  16.987  -2.209  1.00 20.00     0.056 C 
HETATM    6  S8  UNL     1     -33.623  16.102  -4.822  1.00 20.00    -0.097 SA
HETATM    7 BR10 UNL     1     -37.828  14.769  -4.920  1.00 20.00    -0.050 Br
ENDROOT
BRANCH   4   8
HETATM    8  C7  UNL     1     -35.021  14.962  -6.900  1.00 20.00     0.119 C 
HETATM    9  C6  UNL     1     -34.531  13.516  -7.087  1.00 20.00     0.032 C 
HETATM   10 CL9  UNL     1     -34.005  16.052  -7.909  1.00 20.00    -0.120 Cl
ENDBRANCH   4   8
TORSDOF 1
ENDMDL
MODEL 3
REMARK VINA RESULT:      -3.6      2.067      2.458
REMARK  1 active torsions:
REMARK  status: ('A' for Active; 'I' for Inactive)
REMARK    1  A    between atoms: C4_4  and  C7_7 
ROOT
HETATM    1  C1  UNL     1     -33.585  17.465  -4.761  1.00 20.00     0.034 A 
HETATM    2  C2  UNL     1     -34.126  16.722  -5.850  1.00 20.00     0.026 A 
HETATM    3  C3  UNL     1     -33.778  16.832  -3.554  1.00 20.00    -0.019 A 
HETATM    4  C4  UNL     1     -34.714  15.548  -5.433  1.00 20.00     0.018 A 
HETATM    5  C5  UNL     1     -33.367  17.275  -2.205  1.00 20.00     0.056 C 
HETATM    6  S8  UNL     1     -34.610  15.346  -3.735  1.00 20.00    -0.097 SA
HETATM    7 BR10 UNL     1     -34.016  17.335  -7.628  1.00 20.00    -0.050 Br
ENDROOT
BRANCH   4   8
HETATM    8  C7  UNL     1     -35.385  14.501  -6.236  1.00 20.00     0.119 C 
HETATM    9  C6  UNL     1     -36.109  13.422  -5.414  1.00 20.00     0.032 C 
HETATM   10 CL9  UNL     1     -34.207  13.699  -7.335  1.00 20.00    -0.120 Cl
ENDBRANCH   4   8
TORSDOF 1
ENDMDL
MODEL 4
REMARK VINA RESULT:      -3.5      2.162      2.777
REMARK  1 active torsions:
REMARK  status: ('A' for Active; 'I' for Inactive)
REMARK    1  A    between atoms: C4_4  and  C7_7 
ROOT
HETATM    1  C1  UNL     1     -35.745  16.930  -1.669  1.00 20.00     0.034 A 
HETATM    2  C2  UNL     1     -35.405  16.419  -2.955  1.00 20.00     0.026 A 
HETATM    3  C3  UNL     1     -34.661  17.490  -1.030  1.00 20.00    -0.019 A 
HETATM    4  C4  UNL     1     -34.073  16.608  -3.250  1.00 20.00     0.018 A 
HETATM    5  C5  UNL     1     -34.604  18.122   0.305  1.00 20.00     0.056 C 
HETATM    6  S8  UNL     1     -33.239  17.400  -1.981  1.00 20.00    -0.097 SA
HETATM    7 BR10 UNL     1     -36.680  15.591  -4.068  1.00 20.00    -0.050 Br
ENDROOT
BRANCH   4   8
HETATM    8  C7  UNL     1     -33.323  16.230  -4.469  1.00 20.00     0.119 C 
HETATM    9  C6  UNL     1     -33.828  16.883  -5.767  1.00 20.00     0.032 C 
HETATM   10 CL9  UNL     1     -33.326  14.443  -4.682  1.00 20.00    -0.120 Cl
ENDBRANCH   4   8
TORSDOF 1
ENDMDL
MODEL 5
REMARK VINA RESULT:      -3.5      3.158      4.463
REMARK  1 active torsions:
REMARK  status: ('A' for Active; 'I' for Inactive)
REMARK    1  A    between atoms: C4_4  and  C7_7 
ROOT
HETATM    1  C1  UNL     1     -34.069  16.006  -6.306  1.00 20.00     0.034 A 
HETATM    2  C2  UNL     1     -34.170  16.735  -5.086  1.00 20.00     0.026 A 
HETATM    3  C3  UNL     1     -34.394  14.677  -6.144  1.00 20.00    -0.019 A 
HETATM    4  C4  UNL     1     -34.567  15.935  -4.037  1.00 20.00     0.018 A 
HETATM    5  C5  UNL     1     -34.413  13.603  -7.160  1.00 20.00     0.056 C 
HETATM    6  S8  UNL     1     -34.819  14.313  -4.526  1.00 20.00    -0.097 SA
HETATM    7 BR10 UNL     1     -33.787  18.578  -4.991  1.00 20.00    -0.050 Br
ENDROOT
BRANCH   4   8
HETATM    8  C7  UNL     1     -34.791  16.296  -2.619  1.00 20.00     0.119 C 
HETATM    9  C6  UNL     1     -36.028  17.175  -2.364  1.00 20.00     0.032 C 
HETATM   10 CL9  UNL     1     -33.344  17.126  -1.944  1.00 20.00    -0.120 Cl
ENDBRANCH   4   8
TORSDOF 1
ENDMDL
MODEL 6
REMARK VINA RESULT:      -3.5      2.923      4.045
REMARK  1 active torsions:
REMARK  status: ('A' for Active; 'I' for Inactive)
REMARK    1  A    between atoms: C4_4  and  C7_7 
ROOT
HETATM    1  C1  UNL     1     -36.665  14.515  -6.607  1.00 20.00     0.034 A 
HETATM    2  C2  UNL     1     -35.262  14.719  -6.458  1.00 20.00     0.026 A 
HETATM    3  C3  UNL     1     -37.357  14.808  -5.452  1.00 20.00    -0.019 A 
HETATM    4  C4  UNL     1     -34.936  15.160  -5.194  1.00 20.00     0.018 A 
HETATM    5  C5  UNL     1     -38.812  14.726  -5.205  1.00 20.00     0.056 C 
HETATM    6  S8  UNL     1     -36.317  15.327  -4.195  1.00 20.00    -0.097 SA
HETATM    7 BR10 UNL     1     -34.053  14.401  -7.867  1.00 20.00    -0.050 Br
ENDROOT
BRANCH   4   8
HETATM    8  C7  UNL     1     -33.605  15.488  -4.633  1.00 20.00     0.119 C 
HETATM    9  C6  UNL     1     -32.707  14.273  -4.350  1.00 20.00     0.032 C 
HETATM   10 CL9  UNL     1     -33.778  16.445  -3.119  1.00 20.00    -0.120 Cl
ENDBRANCH   4   8
TORSDOF 1
ENDMDL
MODEL 7
REMARK VINA RESULT:      -3.5      2.970      4.344
REMARK  1 active torsions:
REMARK  status: ('A' for Active; 'I' for Inactive)
REMARK    1  A    between atoms: C4_4  and  C7_7 
ROOT
HETATM    1  C1  UNL     1     -35.817  14.737  -4.571  1.00 20.00     0.034 A 
HETATM    2  C2  UNL     1     -34.598  15.192  -3.991  1.00 20.00     0.026 A 
HETATM    3  C3  UNL     1     -36.901  15.467  -4.140  1.00 20.00    -0.019 A 
HETATM    4  C4  UNL     1     -34.797  16.255  -3.137  1.00 20.00     0.018 A 
HETATM    5  C5  UNL     1     -38.325  15.308  -4.507  1.00 20.00     0.056 C 
HETATM    6  S8  UNL     1     -36.449  16.699  -3.039  1.00 20.00    -0.097 SA
HETATM    7 BR10 UNL     1     -32.941  14.388  -4.389  1.00 20.00    -0.050 Br
ENDROOT
BRANCH   4   8
HETATM    8  C7  UNL     1     -33.806  17.014  -2.341  1.00 20.00     0.119 C 
HETATM    9  C6  UNL     1     -34.297  17.459  -0.954  1.00 20.00     0.032 C 
HETATM   10 CL9  UNL     1     -33.246  18.463  -3.250  1.00 20.00    -0.120 Cl
ENDBRANCH   4   8
TORSDOF 1
ENDMDL
MODEL 8
REMARK VINA RESULT:      -3.5      1.097      1.097
REMARK  1 active torsions:
REMARK  status: ('A' for Active; 'I' for Inactive)
REMARK    1  A    between atoms: C4_4  and  C7_7 
ROOT
HETATM    1  C1  UNL     1     -35.758  15.784  -3.400  1.00 20.00     0.034 A 
HETATM    2  C2  UNL     1     -35.886  15.292  -4.731  1.00 20.00     0.026 A 
HETATM    3  C3  UNL     1     -34.519  16.340  -3.170  1.00 20.00    -0.019 A 
HETATM    4  C4  UNL     1     -34.739  15.490  -5.468  1.00 20.00     0.018 A 
HETATM    5  C5  UNL     1     -34.001  16.953  -1.928  1.00 20.00     0.056 C 
HETATM    6  S8  UNL     1     -33.515  16.267  -4.555  1.00 20.00    -0.097 SA
HETATM    7 BR10 UNL     1     -37.469  14.476  -5.345  1.00 20.00    -0.050 Br
ENDROOT
BRANCH   4   8
HETATM    8  C7  UNL     1     -34.459  15.130  -6.876  1.00 20.00     0.119 C 
HETATM    9  C6  UNL     1     -35.347  15.840  -7.912  1.00 20.00     0.032 C 
HETATM   10 CL9  UNL     1     -34.601  13.352  -7.113  1.00 20.00    -0.120 Cl
ENDBRANCH   4   8
TORSDOF 1
ENDMDL
MODEL 9
REMARK VINA RESULT:      -3.5      2.833      4.254
REMARK  1 active torsions:
REMARK  status: ('A' for Active; 'I' for Inactive)
REMARK    1  A    between atoms: C4_4  and  C7_7 
ROOT
HETATM    1  C1  UNL     1     -34.220  16.691  -5.886  1.00 20.00     0.034 A 
HETATM    2  C2  UNL     1     -34.187  16.121  -4.581  1.00 20.00     0.026 A 
HETATM    3  C3  UNL     1     -33.966  18.044  -5.868  1.00 20.00    -0.019 A 
HETATM    4  C4  UNL     1     -33.909  17.062  -3.613  1.00 20.00     0.018 A 
HETATM    5  C5  UNL     1     -33.911  18.987  -7.006  1.00 20.00     0.056 C 
HETATM    6  S8  UNL     1     -33.688  18.624  -4.280  1.00 20.00    -0.097 SA
HETATM    7 BR10 UNL     1     -34.498  14.286  -4.285  1.00 20.00    -0.050 Br
ENDROOT
BRANCH   4   8
HETATM    8  C7  UNL     1     -33.785  16.887  -2.148  1.00 20.00     0.119 C 
HETATM    9  C6  UNL     1     -35.115  16.942  -1.377  1.00 20.00     0.032 C 
HETATM   10 CL9  UNL     1     -32.666  18.117  -1.460  1.00 20.00    -0.120 Cl
ENDBRANCH   4   8
TORSDOF 1
ENDMDL
