MODEL 1
REMARK VINA RESULT:      -4.7      0.000      0.000
REMARK  2 active torsions:
REMARK  status: ('A' for Active; 'I' for Inactive)
REMARK    1  A    between atoms: C4_4  and  C5_5 
REMARK    2  A    between atoms: C4_4  and  C6_6 
ROOT
HETATM    1  C1  UNL     1     -32.594   8.627   1.573  1.00 20.00     0.063 C 
HETATM    2  C2  UNL     1     -31.253   8.200   3.582  1.00 20.00     0.025 C 
HETATM    3  C5  UNL     1     -32.640   8.089   2.946  1.00 20.00     0.090 C 
HETATM    4  N7  UNL     1     -32.561   9.051   0.494  1.00 20.00    -0.197 NA
ENDROOT
BRANCH   3   5
HETATM    5  C4  UNL     1     -33.108   6.618   2.954  1.00 20.00     0.034 C 
BRANCH   5   6
HETATM    6  C6  UNL     1     -34.242   6.307   3.941  1.00 20.00     0.055 C 
HETATM    7  C3  UNL     1     -34.408   4.807   4.143  1.00 20.00     0.022 C 
HETATM    8 BR8  UNL     1     -33.852   7.106   5.690  1.00 20.00    -0.092 Br
ENDBRANCH   5   6
ENDBRANCH   3   5
TORSDOF 2
ENDMDL
MODEL 2
REMARK VINA RESULT:      -4.7      2.847      4.128
REMARK  2 active torsions:
REMARK  status: ('A' for Active; 'I' for Inactive)
REMARK    1  A    between atoms: C4_4  and  C5_5 
REMARK    2  A    between atoms: C4_4  and  C6_6 
ROOT
HETATM    1  C1  UNL     1     -34.014   6.784   5.016  1.00 20.00     0.063 C 
HETATM    2  C2  UNL     1     -34.140   4.630   3.847  1.00 20.00     0.025 C 
HETATM    3  C5  UNL     1     -34.150   6.152   3.689  1.00 20.00     0.090 C 
HETATM    4  N7  UNL     1     -33.910   7.282   6.058  1.00 20.00    -0.197 NA
ENDROOT
BRANCH   3   5
HETATM    5  C4  UNL     1     -33.013   6.592   2.743  1.00 20.00     0.034 C 
BRANCH   5   6
HETATM    6  C6  UNL     1     -32.627   8.074   2.843  1.00 20.00     0.055 C 
HETATM    7  C3  UNL     1     -31.315   8.259   3.593  1.00 20.00     0.022 C 
HETATM    8 BR8  UNL     1     -32.400   8.834   1.048  1.00 20.00    -0.092 Br
ENDBRANCH   5   6
ENDBRANCH   3   5
TORSDOF 2
ENDMDL
MODEL 3
REMARK VINA RESULT:      -4.7      1.269      1.973
REMARK  2 active torsions:
REMARK  status: ('A' for Active; 'I' for Inactive)
REMARK    1  A    between atoms: C4_4  and  C5_5 
REMARK    2  A    between atoms: C4_4  and  C6_6 
ROOT
HETATM    1  C1  UNL     1     -32.751   7.332   2.405  1.00 20.00     0.063 C 
HETATM    2  C2  UNL     1     -32.854   4.888   2.211  1.00 20.00     0.025 C 
HETATM    3  C5  UNL     1     -33.129   6.094   3.113  1.00 20.00     0.090 C 
HETATM    4  N7  UNL     1     -32.453   8.306   1.850  1.00 20.00    -0.197 NA
ENDROOT
BRANCH   3   5
HETATM    5  C4  UNL     1     -34.616   6.117   3.524  1.00 20.00     0.034 C 
BRANCH   5   6
HETATM    6  C6  UNL     1     -34.871   5.995   5.032  1.00 20.00     0.055 C 
HETATM    7  C3  UNL     1     -34.533   4.600   5.543  1.00 20.00     0.022 C 
HETATM    8 BR8  UNL     1     -33.754   7.276   6.012  1.00 20.00    -0.092 Br
ENDBRANCH   5   6
ENDBRANCH   3   5
TORSDOF 2
ENDMDL
MODEL 4
REMARK VINA RESULT:      -4.4      3.089      3.967
REMARK  2 active torsions:
REMARK  status: ('A' for Active; 'I' for Inactive)
REMARK    1  A    between atoms: C4_4  and  C5_5 
REMARK    2  A    between atoms: C4_4  and  C6_6 
ROOT
HETATM    1  C1  UNL     1     -34.039   6.915   5.729  1.00 20.00     0.063 C 
HETATM    2  C2  UNL     1     -34.565   4.525   5.548  1.00 20.00     0.025 C 
HETATM    3  C5  UNL     1     -34.869   5.926   5.014  1.00 20.00     0.090 C 
HETATM    4  N7  UNL     1     -33.388   7.694   6.291  1.00 20.00    -0.197 NA
ENDROOT
BRANCH   3   5
HETATM    5  C4  UNL     1     -34.613   5.979   3.493  1.00 20.00     0.034 C 
BRANCH   5   6
HETATM    6  C6  UNL     1     -33.135   5.916   3.084  1.00 20.00     0.055 C 
HETATM    7  C3  UNL     1     -32.886   4.817   2.060  1.00 20.00     0.022 C 
HETATM    8 BR8  UNL     1     -32.586   7.618   2.278  1.00 20.00    -0.092 Br
ENDBRANCH   5   6
ENDBRANCH   3   5
TORSDOF 2
ENDMDL
MODEL 5
REMARK VINA RESULT:      -4.2      1.240      1.467
REMARK  2 active torsions:
REMARK  status: ('A' for Active; 'I' for Inactive)
REMARK    1  A    between atoms: C4_4  and  C5_5 
REMARK    2  A    between atoms: C4_4  and  C6_6 
ROOT
HETATM    1  C1  UNL     1     -32.574   8.777   1.497  1.00 20.00     0.063 C 
HETATM    2  C2  UNL     1     -31.198   8.075   3.403  1.00 20.00     0.025 C 
HETATM    3  C5  UNL     1     -32.622   8.314   2.898  1.00 20.00     0.090 C 
HETATM    4  N7  UNL     1     -32.539   9.142   0.397  1.00 20.00    -0.197 NA
ENDROOT
BRANCH   3   5
HETATM    5  C4  UNL     1     -33.454   7.021   3.031  1.00 20.00     0.034 C 
BRANCH   5   6
HETATM    6  C6  UNL     1     -33.414   6.367   4.419  1.00 20.00     0.055 C 
HETATM    7  C3  UNL     1     -33.857   7.338   5.505  1.00 20.00     0.022 C 
HETATM    8 BR8  UNL     1     -34.621   4.822   4.471  1.00 20.00    -0.092 Br
ENDBRANCH   5   6
ENDBRANCH   3   5
TORSDOF 2
ENDMDL
MODEL 6
REMARK VINA RESULT:      -4.2      2.869      4.165
REMARK  2 active torsions:
REMARK  status: ('A' for Active; 'I' for Inactive)
REMARK    1  A    between atoms: C4_4  and  C5_5 
REMARK    2  A    between atoms: C4_4  and  C6_6 
ROOT
HETATM    1  C1  UNL     1     -34.487   5.405   4.628  1.00 20.00     0.063 C 
HETATM    2  C2  UNL     1     -33.060   5.003   2.673  1.00 20.00     0.025 C 
HETATM    3  C5  UNL     1     -34.214   5.832   3.242  1.00 20.00     0.090 C 
HETATM    4  N7  UNL     1     -34.705   5.070   5.717  1.00 20.00    -0.197 NA
ENDROOT
BRANCH   3   5
HETATM    5  C4  UNL     1     -33.867   7.334   3.179  1.00 20.00     0.034 C 
BRANCH   5   6
HETATM    6  C6  UNL     1     -32.543   7.662   2.474  1.00 20.00     0.055 C 
HETATM    7  C3  UNL     1     -32.729   8.736   1.411  1.00 20.00     0.022 C 
HETATM    8 BR8  UNL     1     -31.235   8.330   3.775  1.00 20.00    -0.092 Br
ENDBRANCH   5   6
ENDBRANCH   3   5
TORSDOF 2
ENDMDL
MODEL 7
REMARK VINA RESULT:      -4.0      3.188      4.408
REMARK  2 active torsions:
REMARK  status: ('A' for Active; 'I' for Inactive)
REMARK    1  A    between atoms: C4_4  and  C5_5 
REMARK    2  A    between atoms: C4_4  and  C6_6 
ROOT
HETATM    1  C1  UNL     1     -33.613   7.230   4.806  1.00 20.00     0.063 C 
HETATM    2  C2  UNL     1     -33.272   5.764   2.869  1.00 20.00     0.025 C 
HETATM    3  C5  UNL     1     -33.522   7.200   3.333  1.00 20.00     0.090 C 
HETATM    4  N7  UNL     1     -33.686   7.256   5.963  1.00 20.00    -0.197 NA
ENDROOT
BRANCH   3   5
HETATM    5  C4  UNL     1     -32.396   8.124   2.825  1.00 20.00     0.034 C 
BRANCH   5   6
HETATM    6  C6  UNL     1     -32.686   8.819   1.488  1.00 20.00     0.055 C 
HETATM    7  C3  UNL     1     -32.826  10.326   1.662  1.00 20.00     0.022 C 
HETATM    8 BR8  UNL     1     -31.216   8.499   0.228  1.00 20.00    -0.092 Br
ENDBRANCH   5   6
ENDBRANCH   3   5
TORSDOF 2
ENDMDL
MODEL 8
REMARK VINA RESULT:      -4.0      3.069      4.204
REMARK  2 active torsions:
REMARK  status: ('A' for Active; 'I' for Inactive)
REMARK    1  A    between atoms: C4_4  and  C5_5 
REMARK    2  A    between atoms: C4_4  and  C6_6 
ROOT
HETATM    1  C1  UNL     1     -34.042   4.971   4.178  1.00 20.00     0.063 C 
HETATM    2  C2  UNL     1     -34.105   7.190   5.224  1.00 20.00     0.025 C 
HETATM    3  C5  UNL     1     -33.380   6.289   4.222  1.00 20.00     0.090 C 
HETATM    4  N7  UNL     1     -34.560   3.934   4.144  1.00 20.00    -0.197 NA
ENDROOT
BRANCH   3   5
HETATM    5  C4  UNL     1     -33.365   6.953   2.829  1.00 20.00     0.034 C 
BRANCH   5   6
HETATM    6  C6  UNL     1     -32.653   8.311   2.768  1.00 20.00     0.055 C 
HETATM    7  C3  UNL     1     -31.276   8.248   3.414  1.00 20.00     0.022 C 
HETATM    8 BR8  UNL     1     -32.413   8.863   0.901  1.00 20.00    -0.092 Br
ENDBRANCH   5   6
ENDBRANCH   3   5
TORSDOF 2
ENDMDL
MODEL 9
REMARK VINA RESULT:      -3.9      2.331      2.794
REMARK  2 active torsions:
REMARK  status: ('A' for Active; 'I' for Inactive)
REMARK    1  A    between atoms: C4_4  and  C5_5 
REMARK    2  A    between atoms: C4_4  and  C6_6 
ROOT
HETATM    1  C1  UNL     1     -33.018   5.501   2.507  1.00 20.00     0.063 C 
HETATM    2  C2  UNL     1     -32.029   7.743   2.648  1.00 20.00     0.025 C 
HETATM    3  C5  UNL     1     -33.331   6.940   2.608  1.00 20.00     0.090 C 
HETATM    4  N7  UNL     1     -32.773   4.370   2.427  1.00 20.00    -0.197 NA
ENDROOT
BRANCH   3   5
HETATM    5  C4  UNL     1     -34.176   7.241   3.863  1.00 20.00     0.034 C 
BRANCH   5   6
HETATM    6  C6  UNL     1     -33.643   6.624   5.164  1.00 20.00     0.055 C 
HETATM    7  C3  UNL     1     -33.739   7.602   6.326  1.00 20.00     0.022 C 
HETATM    8 BR8  UNL     1     -34.690   5.032   5.634  1.00 20.00    -0.092 Br
ENDBRANCH   5   6
ENDBRANCH   3   5
TORSDOF 2
ENDMDL
