MODEL 1
REMARK VINA RESULT:      -6.5      0.000      0.000
REMARK  4 active torsions:
REMARK  status: ('A' for Active; 'I' for Inactive)
REMARK    1  A    between atoms: C6_6  and  C10_10 
REMARK    2  A    between atoms: C7_7  and  C11_11 
REMARK    3  A    between atoms: C9_9  and  C11_11 
REMARK    4  A    between atoms: C11_11  and  O12_12 
ROOT
HETATM    1  C1  UNL     1     -33.227   9.422  -0.662  1.00 20.00     0.012 C 
HETATM    2  C2  UNL     1     -32.737   9.495   0.431  1.00 20.00    -0.115 C 
HETATM    3  C9  UNL     1     -32.138   9.591   1.772  1.00 20.00     0.125 C 
ENDROOT
BRANCH   3   4
HETATM    4  C11 UNL     1     -31.812   8.207   2.342  1.00 20.00     0.133 C 
BRANCH   4   5
HETATM    5  C7  UNL     1     -33.076   7.407   2.609  1.00 20.00     0.015 C 
HETATM    6  C4  UNL     1     -32.921   5.914   2.312  1.00 20.00     0.007 C 
HETATM    7  C3  UNL     1     -33.858   5.191   3.285  1.00 20.00     0.005 C 
HETATM    8  C6  UNL     1     -34.503   6.283   4.143  1.00 20.00    -0.014 C 
HETATM    9  C5  UNL     1     -33.511   7.440   4.071  1.00 20.00     0.012 C 
BRANCH   8  10
HETATM   10  C10 UNL     1     -34.797   5.834   5.564  1.00 20.00     0.000 C 
HETATM   11  C8  UNL     1     -34.439   4.398   5.783  1.00 20.00     0.005 C 
ENDBRANCH   8  10
ENDBRANCH   4   5
BRANCH   4  12
HETATM   12  O12 UNL     1     -31.108   8.375   3.574  1.00 20.00    -0.394 OA
HETATM   13  H30 UNL     1     -30.939   9.326   3.664  1.00 20.00     0.210 HD
ENDBRANCH   4  12
ENDBRANCH   3   4
TORSDOF 4
ENDMDL
MODEL 2
REMARK VINA RESULT:      -5.1      1.580      5.140
REMARK  4 active torsions:
REMARK  status: ('A' for Active; 'I' for Inactive)
REMARK    1  A    between atoms: C6_6  and  C10_10 
REMARK    2  A    between atoms: C7_7  and  C11_11 
REMARK    3  A    between atoms: C9_9  and  C11_11 
REMARK    4  A    between atoms: C11_11  and  O12_12 
ROOT
HETATM    1  C1  UNL     1     -34.050   7.064   6.333  1.00 20.00     0.012 C 
HETATM    2  C2  UNL     1     -34.228   6.347   5.388  1.00 20.00    -0.115 C 
HETATM    3  C9  UNL     1     -34.452   5.466   4.230  1.00 20.00     0.125 C 
ENDROOT
BRANCH   3   4
HETATM    4  C11 UNL     1     -33.501   5.802   3.076  1.00 20.00     0.133 C 
BRANCH   4   5
HETATM    5  C7  UNL     1     -33.182   7.286   3.038  1.00 20.00     0.015 C 
HETATM    6  C4  UNL     1     -31.733   7.604   3.418  1.00 20.00     0.007 C 
HETATM    7  C3  UNL     1     -31.357   8.864   2.633  1.00 20.00     0.005 C 
HETATM    8  C6  UNL     1     -32.586   9.222   1.791  1.00 20.00    -0.014 C 
HETATM    9  C5  UNL     1     -33.330   7.897   1.647  1.00 20.00     0.012 C 
BRANCH   8  10
HETATM   10  C10 UNL     1     -32.234   9.858   0.457  1.00 20.00     0.000 C 
HETATM   11  C8  UNL     1     -33.185   9.452  -0.625  1.00 20.00     0.005 C 
ENDBRANCH   8  10
ENDBRANCH   4   5
BRANCH   4  12
HETATM   12  O12 UNL     1     -34.130   5.437   1.846  1.00 20.00    -0.394 OA
HETATM   13  H30 UNL     1     -34.975   5.025   2.084  1.00 20.00     0.210 HD
ENDBRANCH   4  12
ENDBRANCH   3   4
TORSDOF 4
ENDMDL
MODEL 3
REMARK VINA RESULT:      -5.0      1.243      1.828
REMARK  4 active torsions:
REMARK  status: ('A' for Active; 'I' for Inactive)
REMARK    1  A    between atoms: C6_6  and  C10_10 
REMARK    2  A    between atoms: C7_7  and  C11_11 
REMARK    3  A    between atoms: C9_9  and  C11_11 
REMARK    4  A    between atoms: C11_11  and  O12_12 
ROOT
HETATM    1  C1  UNL     1     -33.311   9.513  -0.870  1.00 20.00     0.012 C 
HETATM    2  C2  UNL     1     -32.466   9.087  -0.132  1.00 20.00    -0.115 C 
HETATM    3  C9  UNL     1     -31.427   8.562   0.769  1.00 20.00     0.125 C 
ENDROOT
BRANCH   3   4
HETATM    4  C11 UNL     1     -31.612   9.077   2.201  1.00 20.00     0.133 C 
BRANCH   4   5
HETATM    5  C7  UNL     1     -31.920   7.941   3.161  1.00 20.00     0.015 C 
HETATM    6  C4  UNL     1     -32.256   8.419   4.575  1.00 20.00     0.007 C 
HETATM    7  C3  UNL     1     -33.234   7.388   5.147  1.00 20.00     0.005 C 
HETATM    8  C6  UNL     1     -33.467   6.361   4.036  1.00 20.00    -0.014 C 
HETATM    9  C5  UNL     1     -33.146   7.127   2.756  1.00 20.00     0.012 C 
BRANCH   8  10
HETATM   10  C10 UNL     1     -34.867   5.773   4.045  1.00 20.00     0.000 C 
HETATM   11  C8  UNL     1     -34.926   4.480   4.795  1.00 20.00     0.005 C 
ENDBRANCH   8  10
ENDBRANCH   4   5
BRANCH   4  12
HETATM   12  O12 UNL     1     -32.704   9.998   2.215  1.00 20.00    -0.394 OA
HETATM   13  H30 UNL     1     -33.336   9.663   2.869  1.00 20.00     0.210 HD
ENDBRANCH   4  12
ENDBRANCH   3   4
TORSDOF 4
ENDMDL
MODEL 4
REMARK VINA RESULT:      -4.9      1.497      4.919
REMARK  4 active torsions:
REMARK  status: ('A' for Active; 'I' for Inactive)
REMARK    1  A    between atoms: C6_6  and  C10_10 
REMARK    2  A    between atoms: C7_7  and  C11_11 
REMARK    3  A    between atoms: C9_9  and  C11_11 
REMARK    4  A    between atoms: C11_11  and  O12_12 
ROOT
HETATM    1  C1  UNL     1     -34.113   3.766   4.416  1.00 20.00     0.012 C 
HETATM    2  C2  UNL     1     -34.344   4.728   5.094  1.00 20.00    -0.115 C 
HETATM    3  C9  UNL     1     -34.629   5.906   5.932  1.00 20.00     0.125 C 
ENDROOT
BRANCH   3   4
HETATM    4  C11 UNL     1     -33.961   7.167   5.373  1.00 20.00     0.133 C 
BRANCH   4   5
HETATM    5  C7  UNL     1     -33.318   6.901   4.023  1.00 20.00     0.015 C 
HETATM    6  C4  UNL     1     -34.322   6.888   2.867  1.00 20.00     0.007 C 
HETATM    7  C3  UNL     1     -33.555   7.384   1.638  1.00 20.00     0.005 C 
HETATM    8  C6  UNL     1     -32.138   7.706   2.122  1.00 20.00    -0.014 C 
HETATM    9  C5  UNL     1     -32.313   7.974   3.614  1.00 20.00     0.012 C 
BRANCH   8  10
HETATM   10  C10 UNL     1     -31.499   8.865   1.377  1.00 20.00     0.000 C 
HETATM   11  C8  UNL     1     -32.507   9.893   0.969  1.00 20.00     0.005 C 
ENDBRANCH   8  10
ENDBRANCH   4   5
BRANCH   4  12
HETATM   12  O12 UNL     1     -32.948   7.589   6.288  1.00 20.00    -0.394 OA
HETATM   13  H30 UNL     1     -32.597   8.423   5.941  1.00 20.00     0.210 HD
ENDBRANCH   4  12
ENDBRANCH   3   4
TORSDOF 4
ENDMDL
MODEL 5
REMARK VINA RESULT:      -4.7     10.701     11.776
REMARK  4 active torsions:
REMARK  status: ('A' for Active; 'I' for Inactive)
REMARK    1  A    between atoms: C6_6  and  C10_10 
REMARK    2  A    between atoms: C7_7  and  C11_11 
REMARK    3  A    between atoms: C9_9  and  C11_11 
REMARK    4  A    between atoms: C11_11  and  O12_12 
ROOT
HETATM    1  C1  UNL     1     -38.796  14.780  -4.968  1.00 20.00     0.012 C 
HETATM    2  C2  UNL     1     -37.820  14.566  -5.633  1.00 20.00    -0.115 C 
HETATM    3  C9  UNL     1     -36.625  14.308  -6.454  1.00 20.00     0.125 C 
ENDROOT
BRANCH   3   4
HETATM    4  C11 UNL     1     -35.628  13.402  -5.723  1.00 20.00     0.133 C 
BRANCH   4   5
HETATM    5  C7  UNL     1     -34.435  14.192  -5.213  1.00 20.00     0.015 C 
HETATM    6  C4  UNL     1     -34.074  15.385  -6.101  1.00 20.00     0.007 C 
HETATM    7  C3  UNL     1     -33.481  16.443  -5.166  1.00 20.00     0.005 C 
HETATM    8  C6  UNL     1     -33.549  15.850  -3.756  1.00 20.00    -0.014 C 
HETATM    9  C5  UNL     1     -34.675  14.824  -3.844  1.00 20.00     0.012 C 
BRANCH   8  10
HETATM   10  C10 UNL     1     -33.774  16.894  -2.676  1.00 20.00     0.000 C 
HETATM   11  C8  UNL     1     -35.049  16.660  -1.928  1.00 20.00     0.005 C 
ENDBRANCH   8  10
ENDBRANCH   4   5
BRANCH   4  12
HETATM   12  O12 UNL     1     -35.162  12.408  -6.637  1.00 20.00    -0.394 OA
HETATM   13  H30 UNL     1     -34.751  12.886  -7.374  1.00 20.00     0.210 HD
ENDBRANCH   4  12
ENDBRANCH   3   4
TORSDOF 4
ENDMDL
MODEL 6
REMARK VINA RESULT:      -4.6      1.396      5.046
REMARK  4 active torsions:
REMARK  status: ('A' for Active; 'I' for Inactive)
REMARK    1  A    between atoms: C6_6  and  C10_10 
REMARK    2  A    between atoms: C7_7  and  C11_11 
REMARK    3  A    between atoms: C9_9  and  C11_11 
REMARK    4  A    between atoms: C11_11  and  O12_12 
ROOT
HETATM    1  C1  UNL     1     -34.210   3.889   4.810  1.00 20.00     0.012 C 
HETATM    2  C2  UNL     1     -34.404   4.913   4.216  1.00 20.00    -0.115 C 
HETATM    3  C9  UNL     1     -34.646   6.167   3.483  1.00 20.00     0.125 C 
ENDROOT
BRANCH   3   4
HETATM    4  C11 UNL     1     -34.154   7.384   4.274  1.00 20.00     0.133 C 
BRANCH   4   5
HETATM    5  C7  UNL     1     -32.997   8.070   3.569  1.00 20.00     0.015 C 
HETATM    6  C4  UNL     1     -32.226   7.142   2.628  1.00 20.00     0.007 C 
HETATM    7  C3  UNL     1     -31.694   8.033   1.500  1.00 20.00     0.005 C 
HETATM    8  C6  UNL     1     -32.202   9.446   1.800  1.00 20.00    -0.014 C 
HETATM    9  C5  UNL     1     -33.439   9.215   2.663  1.00 20.00     0.012 C 
BRANCH   8  10
HETATM   10  C10 UNL     1     -32.488  10.259   0.549  1.00 20.00     0.000 C 
HETATM   11  C8  UNL     1     -33.109   9.427  -0.529  1.00 20.00     0.005 C 
ENDBRANCH   8  10
ENDBRANCH   4   5
BRANCH   4  12
HETATM   12  O12 UNL     1     -33.712   6.943   5.559  1.00 20.00    -0.394 OA
HETATM   13  H30 UNL     1     -34.191   6.121   5.745  1.00 20.00     0.210 HD
ENDBRANCH   4  12
ENDBRANCH   3   4
TORSDOF 4
ENDMDL
MODEL 7
REMARK VINA RESULT:      -4.6     10.401     11.436
REMARK  4 active torsions:
REMARK  status: ('A' for Active; 'I' for Inactive)
REMARK    1  A    between atoms: C6_6  and  C10_10 
REMARK    2  A    between atoms: C7_7  and  C11_11 
REMARK    3  A    between atoms: C9_9  and  C11_11 
REMARK    4  A    between atoms: C11_11  and  O12_12 
ROOT
HETATM    1  C1  UNL     1     -34.391  14.174  -7.918  1.00 20.00     0.012 C 
HETATM    2  C2  UNL     1     -34.904  13.963  -6.854  1.00 20.00    -0.115 C 
HETATM    3  C9  UNL     1     -35.538  13.701  -5.551  1.00 20.00     0.125 C 
ENDROOT
BRANCH   3   4
HETATM    4  C11 UNL     1     -34.597  14.042  -4.390  1.00 20.00     0.133 C 
BRANCH   4   5
HETATM    5  C7  UNL     1     -34.682  15.514  -4.025  1.00 20.00     0.015 C 
HETATM    6  C4  UNL     1     -35.845  15.838  -3.085  1.00 20.00     0.007 C 
HETATM    7  C3  UNL     1     -35.384  17.028  -2.237  1.00 20.00     0.005 C 
HETATM    8  C6  UNL     1     -33.951  17.336  -2.683  1.00 20.00    -0.014 C 
HETATM    9  C5  UNL     1     -33.456  16.016  -3.266  1.00 20.00     0.012 C 
BRANCH   8  10
HETATM   10  C10 UNL     1     -33.073  17.860  -1.560  1.00 20.00     0.000 C 
HETATM   11  C8  UNL     1     -33.859  18.135  -0.316  1.00 20.00     0.005 C 
ENDBRANCH   8  10
ENDBRANCH   4   5
BRANCH   4  12
HETATM   12  O12 UNL     1     -33.258  13.744  -4.787  1.00 20.00    -0.394 OA
HETATM   13  H30 UNL     1     -33.317  13.016  -5.424  1.00 20.00     0.210 HD
ENDBRANCH   4  12
ENDBRANCH   3   4
TORSDOF 4
ENDMDL
MODEL 8
REMARK VINA RESULT:      -4.6     10.823     11.448
REMARK  4 active torsions:
REMARK  status: ('A' for Active; 'I' for Inactive)
REMARK    1  A    between atoms: C6_6  and  C10_10 
REMARK    2  A    between atoms: C7_7  and  C11_11 
REMARK    3  A    between atoms: C9_9  and  C11_11 
REMARK    4  A    between atoms: C11_11  and  O12_12 
ROOT
HETATM    1  C1  UNL     1     -34.406  14.135  -7.188  1.00 20.00     0.012 C 
HETATM    2  C2  UNL     1     -34.850  14.114  -6.073  1.00 20.00    -0.115 C 
HETATM    3  C9  UNL     1     -35.392  14.083  -4.705  1.00 20.00     0.125 C 
ENDROOT
BRANCH   3   4
HETATM    4  C11 UNL     1     -35.679  15.494  -4.181  1.00 20.00     0.133 C 
BRANCH   4   5
HETATM    5  C7  UNL     1     -34.717  15.878  -3.071  1.00 20.00     0.015 C 
HETATM    6  C4  UNL     1     -33.615  16.835  -3.529  1.00 20.00     0.007 C 
HETATM    7  C3  UNL     1     -33.265  17.692  -2.308  1.00 20.00     0.005 C 
HETATM    8  C6  UNL     1     -34.200  17.233  -1.186  1.00 20.00    -0.014 C 
HETATM    9  C5  UNL     1     -35.391  16.628  -1.925  1.00 20.00     0.012 C 
BRANCH   8  10
HETATM   10  C10 UNL     1     -34.592  18.352  -0.236  1.00 20.00     0.000 C 
HETATM   11  C8  UNL     1     -35.409  17.851   0.913  1.00 20.00     0.005 C 
ENDBRANCH   8  10
ENDBRANCH   4   5
BRANCH   4  12
HETATM   12  O12 UNL     1     -37.011  15.526  -3.666  1.00 20.00    -0.394 OA
HETATM   13  H30 UNL     1     -37.250  14.608  -3.468  1.00 20.00     0.210 HD
ENDBRANCH   4  12
ENDBRANCH   3   4
TORSDOF 4
ENDMDL
MODEL 9
REMARK VINA RESULT:      -4.5     10.639     11.700
REMARK  4 active torsions:
REMARK  status: ('A' for Active; 'I' for Inactive)
REMARK    1  A    between atoms: C6_6  and  C10_10 
REMARK    2  A    between atoms: C7_7  and  C11_11 
REMARK    3  A    between atoms: C9_9  and  C11_11 
REMARK    4  A    between atoms: C11_11  and  O12_12 
ROOT
HETATM    1  C1  UNL     1     -30.707  18.838   2.140  1.00 20.00     0.012 C 
HETATM    2  C2  UNL     1     -31.802  18.830   1.651  1.00 20.00    -0.115 C 
HETATM    3  C9  UNL     1     -33.148  18.821   1.055  1.00 20.00     0.125 C 
ENDROOT
BRANCH   3   4
HETATM    4  C11 UNL     1     -33.088  18.652  -0.467  1.00 20.00     0.133 C 
BRANCH   4   5
HETATM    5  C7  UNL     1     -33.989  17.522  -0.933  1.00 20.00     0.015 C 
HETATM    6  C4  UNL     1     -35.437  17.960  -1.169  1.00 20.00     0.007 C 
HETATM    7  C3  UNL     1     -35.973  17.060  -2.287  1.00 20.00     0.005 C 
HETATM    8  C6  UNL     1     -34.810  16.150  -2.694  1.00 20.00    -0.014 C 
HETATM    9  C5  UNL     1     -33.569  16.933  -2.277  1.00 20.00     0.012 C 
BRANCH   8  10
HETATM   10  C10 UNL     1     -34.821  15.787  -4.169  1.00 20.00     0.000 C 
HETATM   11  C8  UNL     1     -34.775  14.306  -4.381  1.00 20.00     0.005 C 
ENDBRANCH   8  10
ENDBRANCH   4   5
BRANCH   4  12
HETATM   12  O12 UNL     1     -31.742  18.348  -0.838  1.00 20.00    -0.394 OA
HETATM   13  H30 UNL     1     -31.546  17.475  -0.465  1.00 20.00     0.210 HD
ENDBRANCH   4  12
ENDBRANCH   3   4
TORSDOF 4
ENDMDL
