MODEL 1
REMARK VINA RESULT:      -5.9      0.000      0.000
REMARK  4 active torsions:
REMARK  status: ('A' for Active; 'I' for Inactive)
REMARK    1  A    between atoms: C6_6  and  C10_10 
REMARK    2  A    between atoms: C7_7  and  C11_11 
REMARK    3  A    between atoms: C9_9  and  C11_11 
REMARK    4  A    between atoms: C11_11  and  O12_12 
ROOT
HETATM    1  C1  UNL     1     -34.066   3.827   4.545  1.00 20.00     0.012 C 
HETATM    2  C2  UNL     1     -34.493   4.901   4.218  1.00 20.00    -0.115 C 
HETATM    3  C9  UNL     1     -35.020   6.215   3.816  1.00 20.00     0.125 C 
ENDROOT
BRANCH   3   4
HETATM    4  C11 UNL     1     -34.006   7.332   4.080  1.00 20.00     0.133 C 
BRANCH   4   5
HETATM    5  C7  UNL     1     -32.685   7.062   3.359  1.00 20.00     0.015 C 
HETATM    6  C4  UNL     1     -31.571   7.990   3.850  1.00 20.00     0.007 C 
HETATM    7  C3  UNL     1     -31.509   9.162   2.866  1.00 20.00     0.005 C 
HETATM    8  C6  UNL     1     -32.547   8.870   1.779  1.00 20.00    -0.014 C 
HETATM    9  C5  UNL     1     -32.763   7.361   1.863  1.00 20.00     0.012 C 
BRANCH   8  10
HETATM   10  C10 UNL     1     -32.112   9.333   0.398  1.00 20.00     0.000 C 
HETATM   11  C8  UNL     1     -33.257   9.377  -0.564  1.00 20.00     0.005 C 
ENDBRANCH   8  10
ENDBRANCH   4   5
BRANCH   4  12
HETATM   12  O12 UNL     1     -33.755   7.399   5.484  1.00 20.00    -0.394 OA
HETATM   13  H30 UNL     1     -33.306   8.242   5.642  1.00 20.00     0.210 HD
ENDBRANCH   4  12
ENDBRANCH   3   4
TORSDOF 4
ENDMDL
MODEL 2
REMARK VINA RESULT:      -5.2      1.497      4.972
REMARK  4 active torsions:
REMARK  status: ('A' for Active; 'I' for Inactive)
REMARK    1  A    between atoms: C6_6  and  C10_10 
REMARK    2  A    between atoms: C7_7  and  C11_11 
REMARK    3  A    between atoms: C9_9  and  C11_11 
REMARK    4  A    between atoms: C11_11  and  O12_12 
ROOT
HETATM    1  C1  UNL     1     -32.853  10.622   0.848  1.00 20.00     0.012 C 
HETATM    2  C2  UNL     1     -32.215   9.614   0.983  1.00 20.00    -0.115 C 
HETATM    3  C9  UNL     1     -31.431   8.378   1.144  1.00 20.00     0.125 C 
ENDROOT
BRANCH   3   4
HETATM    4  C11 UNL     1     -31.790   7.650   2.443  1.00 20.00     0.133 C 
BRANCH   4   5
HETATM    5  C7  UNL     1     -33.305   7.536   2.613  1.00 20.00     0.015 C 
HETATM    6  C4  UNL     1     -33.763   8.053   3.980  1.00 20.00     0.007 C 
HETATM    7  C3  UNL     1     -33.881   6.831   4.894  1.00 20.00     0.005 C 
HETATM    8  C6  UNL     1     -33.551   5.609   4.031  1.00 20.00    -0.014 C 
HETATM    9  C5  UNL     1     -33.788   6.087   2.601  1.00 20.00     0.012 C 
BRANCH   8  10
HETATM   10  C10 UNL     1     -34.371   4.382   4.393  1.00 20.00     0.000 C 
HETATM   11  C8  UNL     1     -34.890   4.449   5.794  1.00 20.00     0.005 C 
ENDBRANCH   8  10
ENDBRANCH   4   5
BRANCH   4  12
HETATM   12  O12 UNL     1     -31.261   8.392   3.542  1.00 20.00    -0.394 OA
HETATM   13  H30 UNL     1     -31.918   9.071   3.756  1.00 20.00     0.210 HD
ENDBRANCH   4  12
ENDBRANCH   3   4
TORSDOF 4
ENDMDL
MODEL 3
REMARK VINA RESULT:      -4.8     10.501     11.445
REMARK  4 active torsions:
REMARK  status: ('A' for Active; 'I' for Inactive)
REMARK    1  A    between atoms: C6_6  and  C10_10 
REMARK    2  A    between atoms: C7_7  and  C11_11 
REMARK    3  A    between atoms: C9_9  and  C11_11 
REMARK    4  A    between atoms: C11_11  and  O12_12 
ROOT
HETATM    1  C1  UNL     1     -35.350  13.642  -7.860  1.00 20.00     0.012 C 
HETATM    2  C2  UNL     1     -35.540  13.532  -6.679  1.00 20.00    -0.115 C 
HETATM    3  C9  UNL     1     -35.778  13.395  -5.233  1.00 20.00     0.125 C 
ENDROOT
BRANCH   3   4
HETATM    4  C11 UNL     1     -34.733  14.162  -4.417  1.00 20.00     0.133 C 
BRANCH   4   5
HETATM    5  C7  UNL     1     -34.967  15.670  -4.495  1.00 20.00     0.015 C 
HETATM    6  C4  UNL     1     -33.669  16.458  -4.295  1.00 20.00     0.007 C 
HETATM    7  C3  UNL     1     -33.619  16.856  -2.818  1.00 20.00     0.005 C 
HETATM    8  C6  UNL     1     -34.920  16.349  -2.188  1.00 20.00    -0.014 C 
HETATM    9  C5  UNL     1     -35.869  16.181  -3.372  1.00 20.00     0.012 C 
BRANCH   8  10
HETATM   10  C10 UNL     1     -35.466  17.277  -1.115  1.00 20.00     0.000 C 
HETATM   11  C8  UNL     1     -34.377  17.853  -0.266  1.00 20.00     0.005 C 
ENDBRANCH   8  10
ENDBRANCH   4   5
BRANCH   4  12
HETATM   12  O12 UNL     1     -33.439  13.872  -4.947  1.00 20.00    -0.394 OA
HETATM   13  H30 UNL     1     -33.038  14.725  -5.172  1.00 20.00     0.210 HD
ENDBRANCH   4  12
ENDBRANCH   3   4
TORSDOF 4
ENDMDL
MODEL 4
REMARK VINA RESULT:      -4.6     10.173     11.436
REMARK  4 active torsions:
REMARK  status: ('A' for Active; 'I' for Inactive)
REMARK    1  A    between atoms: C6_6  and  C10_10 
REMARK    2  A    between atoms: C7_7  and  C11_11 
REMARK    3  A    between atoms: C9_9  and  C11_11 
REMARK    4  A    between atoms: C11_11  and  O12_12 
ROOT
HETATM    1  C1  UNL     1     -36.304  13.758  -5.366  1.00 20.00     0.012 C 
HETATM    2  C2  UNL     1     -35.273  13.840  -4.755  1.00 20.00    -0.115 C 
HETATM    3  C9  UNL     1     -34.010  13.935  -4.003  1.00 20.00     0.125 C 
ENDROOT
BRANCH   3   4
HETATM    4  C11 UNL     1     -33.344  15.301  -4.196  1.00 20.00     0.133 C 
BRANCH   4   5
HETATM    5  C7  UNL     1     -34.330  16.440  -3.937  1.00 20.00     0.015 C 
HETATM    6  C4  UNL     1     -33.683  17.811  -4.147  1.00 20.00     0.007 C 
HETATM    7  C3  UNL     1     -33.234  18.302  -2.768  1.00 20.00     0.005 C 
HETATM    8  C6  UNL     1     -33.682  17.237  -1.762  1.00 20.00    -0.014 C 
HETATM    9  C5  UNL     1     -34.800  16.488  -2.484  1.00 20.00     0.012 C 
BRANCH   8  10
HETATM   10  C10 UNL     1     -34.122  17.822  -0.429  1.00 20.00     0.000 C 
HETATM   11  C8  UNL     1     -35.561  17.533  -0.138  1.00 20.00     0.005 C 
ENDBRANCH   8  10
ENDBRANCH   4   5
BRANCH   4  12
HETATM   12  O12 UNL     1     -32.879  15.396  -5.543  1.00 20.00    -0.394 OA
HETATM   13  H30 UNL     1     -32.755  14.487  -5.854  1.00 20.00     0.210 HD
ENDBRANCH   4  12
ENDBRANCH   3   4
TORSDOF 4
ENDMDL
MODEL 5
REMARK VINA RESULT:      -4.5      1.482      4.978
REMARK  4 active torsions:
REMARK  status: ('A' for Active; 'I' for Inactive)
REMARK    1  A    between atoms: C6_6  and  C10_10 
REMARK    2  A    between atoms: C7_7  and  C11_11 
REMARK    3  A    between atoms: C9_9  and  C11_11 
REMARK    4  A    between atoms: C11_11  and  O12_12 
ROOT
HETATM    1  C1  UNL     1     -33.296   9.531  -0.896  1.00 20.00     0.012 C 
HETATM    2  C2  UNL     1     -32.542   9.321   0.015  1.00 20.00    -0.115 C 
HETATM    3  C9  UNL     1     -31.614   9.064   1.129  1.00 20.00     0.125 C 
ENDROOT
BRANCH   3   4
HETATM    4  C11 UNL     1     -32.363   8.884   2.453  1.00 20.00     0.133 C 
BRANCH   4   5
HETATM    5  C7  UNL     1     -32.016   7.547   3.107  1.00 20.00     0.015 C 
HETATM    6  C4  UNL     1     -32.810   6.391   2.491  1.00 20.00     0.007 C 
HETATM    7  C3  UNL     1     -34.026   6.163   3.392  1.00 20.00     0.005 C 
HETATM    8  C6  UNL     1     -33.893   7.147   4.558  1.00 20.00    -0.014 C 
HETATM    9  C5  UNL     1     -32.408   7.498   4.583  1.00 20.00     0.012 C 
BRANCH   8  10
HETATM   10  C10 UNL     1     -34.394   6.583   5.877  1.00 20.00     0.000 C 
HETATM   11  C8  UNL     1     -34.612   5.104   5.807  1.00 20.00     0.005 C 
ENDBRANCH   8  10
ENDBRANCH   4   5
BRANCH   4  12
HETATM   12  O12 UNL     1     -33.766   8.915   2.191  1.00 20.00    -0.394 OA
HETATM   13  H30 UNL     1     -34.004   8.033   1.870  1.00 20.00     0.210 HD
ENDBRANCH   4  12
ENDBRANCH   3   4
TORSDOF 4
ENDMDL
MODEL 6
REMARK VINA RESULT:      -4.4     10.658     11.695
REMARK  4 active torsions:
REMARK  status: ('A' for Active; 'I' for Inactive)
REMARK    1  A    between atoms: C6_6  and  C10_10 
REMARK    2  A    between atoms: C7_7  and  C11_11 
REMARK    3  A    between atoms: C9_9  and  C11_11 
REMARK    4  A    between atoms: C11_11  and  O12_12 
ROOT
HETATM    1  C1  UNL     1     -32.655  18.149  -1.132  1.00 20.00     0.012 C 
HETATM    2  C2  UNL     1     -33.694  17.566  -1.292  1.00 20.00    -0.115 C 
HETATM    3  C9  UNL     1     -34.967  16.853  -1.482  1.00 20.00     0.125 C 
ENDROOT
BRANCH   3   4
HETATM    4  C11 UNL     1     -35.253  16.601  -2.966  1.00 20.00     0.133 C 
BRANCH   4   5
HETATM    5  C7  UNL     1     -34.154  15.752  -3.605  1.00 20.00     0.015 C 
HETATM    6  C4  UNL     1     -33.562  16.430  -4.844  1.00 20.00     0.007 C 
HETATM    7  C3  UNL     1     -34.290  15.843  -6.057  1.00 20.00     0.005 C 
HETATM    8  C6  UNL     1     -35.254  14.784  -5.513  1.00 20.00    -0.014 C 
HETATM    9  C5  UNL     1     -34.680  14.423  -4.145  1.00 20.00     0.012 C 
BRANCH   8  10
HETATM   10  C10 UNL     1     -35.402  13.583  -6.432  1.00 20.00     0.000 C 
HETATM   11  C8  UNL     1     -34.383  13.587  -7.528  1.00 20.00     0.005 C 
ENDBRANCH   8  10
ENDBRANCH   4   5
BRANCH   4  12
HETATM   12  O12 UNL     1     -35.310  17.859  -3.639  1.00 20.00    -0.394 OA
HETATM   13  H30 UNL     1     -35.656  18.497  -2.998  1.00 20.00     0.210 HD
ENDBRANCH   4  12
ENDBRANCH   3   4
TORSDOF 4
ENDMDL
MODEL 7
REMARK VINA RESULT:      -4.3     10.697     11.623
REMARK  4 active torsions:
REMARK  status: ('A' for Active; 'I' for Inactive)
REMARK    1  A    between atoms: C6_6  and  C10_10 
REMARK    2  A    between atoms: C7_7  and  C11_11 
REMARK    3  A    between atoms: C9_9  and  C11_11 
REMARK    4  A    between atoms: C11_11  and  O12_12 
ROOT
HETATM    1  C1  UNL     1     -39.384  15.743  -4.378  1.00 20.00     0.012 C 
HETATM    2  C2  UNL     1     -38.596  15.072  -4.989  1.00 20.00    -0.115 C 
HETATM    3  C9  UNL     1     -37.634  14.250  -5.740  1.00 20.00     0.125 C 
ENDROOT
BRANCH   3   4
HETATM    4  C11 UNL     1     -36.320  14.080  -4.972  1.00 20.00     0.133 C 
BRANCH   4   5
HETATM    5  C7  UNL     1     -35.213  14.949  -5.568  1.00 20.00     0.015 C 
HETATM    6  C4  UNL     1     -33.823  14.375  -5.282  1.00 20.00     0.007 C 
HETATM    7  C3  UNL     1     -33.295  15.099  -4.040  1.00 20.00     0.005 C 
HETATM    8  C6  UNL     1     -34.359  16.131  -3.655  1.00 20.00    -0.014 C 
HETATM    9  C5  UNL     1     -35.159  16.340  -4.938  1.00 20.00     0.012 C 
BRANCH   8  10
HETATM   10  C10 UNL     1     -33.769  17.419  -3.104  1.00 20.00     0.000 C 
HETATM   11  C8  UNL     1     -33.533  17.342  -1.629  1.00 20.00     0.005 C 
ENDBRANCH   8  10
ENDBRANCH   4   5
BRANCH   4  12
HETATM   12  O12 UNL     1     -35.919  12.711  -5.051  1.00 20.00    -0.394 OA
HETATM   13  H30 UNL     1     -36.515  12.218  -4.469  1.00 20.00     0.210 HD
ENDBRANCH   4  12
ENDBRANCH   3   4
TORSDOF 4
ENDMDL
MODEL 8
REMARK VINA RESULT:      -4.3     10.735     11.721
REMARK  4 active torsions:
REMARK  status: ('A' for Active; 'I' for Inactive)
REMARK    1  A    between atoms: C6_6  and  C10_10 
REMARK    2  A    between atoms: C7_7  and  C11_11 
REMARK    3  A    between atoms: C9_9  and  C11_11 
REMARK    4  A    between atoms: C11_11  and  O12_12 
ROOT
HETATM    1  C1  UNL     1     -35.443  17.347  -0.276  1.00 20.00     0.012 C 
HETATM    2  C2  UNL     1     -34.515  17.334  -1.039  1.00 20.00    -0.115 C 
HETATM    3  C9  UNL     1     -33.375  17.320  -1.970  1.00 20.00     0.125 C 
ENDROOT
BRANCH   3   4
HETATM    4  C11 UNL     1     -33.837  17.162  -3.422  1.00 20.00     0.133 C 
BRANCH   4   5
HETATM    5  C7  UNL     1     -33.474  15.784  -3.973  1.00 20.00     0.015 C 
HETATM    6  C4  UNL     1     -33.234  15.821  -5.485  1.00 20.00     0.007 C 
HETATM    7  C3  UNL     1     -34.547  15.397  -6.148  1.00 20.00     0.005 C 
HETATM    8  C6  UNL     1     -35.517  15.056  -5.012  1.00 20.00    -0.014 C 
HETATM    9  C5  UNL     1     -34.609  14.774  -3.818  1.00 20.00     0.012 C 
BRANCH   8  10
HETATM   10  C10 UNL     1     -36.442  13.897  -5.344  1.00 20.00     0.000 C 
HETATM   11  C8  UNL     1     -37.882  14.305  -5.318  1.00 20.00     0.005 C 
ENDBRANCH   8  10
ENDBRANCH   4   5
BRANCH   4  12
HETATM   12  O12 UNL     1     -33.191  18.158  -4.217  1.00 20.00    -0.394 OA
HETATM   13  H30 UNL     1     -32.462  18.504  -3.681  1.00 20.00     0.210 HD
ENDBRANCH   4  12
ENDBRANCH   3   4
TORSDOF 4
ENDMDL
MODEL 9
REMARK VINA RESULT:      -4.2      1.482      1.571
REMARK  4 active torsions:
REMARK  status: ('A' for Active; 'I' for Inactive)
REMARK    1  A    between atoms: C6_6  and  C10_10 
REMARK    2  A    between atoms: C7_7  and  C11_11 
REMARK    3  A    between atoms: C9_9  and  C11_11 
REMARK    4  A    between atoms: C11_11  and  O12_12 
ROOT
HETATM    1  C1  UNL     1     -34.805   5.270   5.998  1.00 20.00     0.012 C 
HETATM    2  C2  UNL     1     -34.288   6.076   5.272  1.00 20.00    -0.115 C 
HETATM    3  C9  UNL     1     -33.657   7.067   4.386  1.00 20.00     0.125 C 
ENDROOT
BRANCH   3   4
HETATM    4  C11 UNL     1     -33.042   6.404   3.149  1.00 20.00     0.133 C 
BRANCH   4   5
HETATM    5  C7  UNL     1     -31.804   7.162   2.672  1.00 20.00     0.015 C 
HETATM    6  C4  UNL     1     -31.469   8.340   3.593  1.00 20.00     0.007 C 
HETATM    7  C3  UNL     1     -32.094   9.585   2.958  1.00 20.00     0.005 C 
HETATM    8  C6  UNL     1     -32.731   9.128   1.642  1.00 20.00    -0.014 C 
HETATM    9  C5  UNL     1     -32.011   7.824   1.311  1.00 20.00     0.012 C 
BRANCH   8  10
HETATM   10  C10 UNL     1     -32.626  10.164   0.536  1.00 20.00     0.000 C 
HETATM   11  C8  UNL     1     -33.265   9.695  -0.733  1.00 20.00     0.005 C 
ENDBRANCH   8  10
ENDBRANCH   4   5
BRANCH   4  12
HETATM   12  O12 UNL     1     -34.012   6.406   2.101  1.00 20.00    -0.394 OA
HETATM   13  H30 UNL     1     -34.116   7.330   1.827  1.00 20.00     0.210 HD
ENDBRANCH   4  12
ENDBRANCH   3   4
TORSDOF 4
ENDMDL
