MODEL 1
REMARK VINA RESULT:      -4.5      0.000      0.000
REMARK  3 active torsions:
REMARK  status: ('A' for Active; 'I' for Inactive)
REMARK    1  A    between atoms: C5_5  and  C7_7 
REMARK    2  A    between atoms: C6_6  and  C8_8 
REMARK    3  A    between atoms: C7_7  and  C8_8 
ROOT
HETATM    1  C1  UNL     1     -34.079   4.718   4.042  1.00 20.00     0.069 C 
HETATM    2  C4  UNL     1     -35.511   6.503   3.160  1.00 20.00     0.031 C 
HETATM    3  C8  UNL     1     -34.098   6.153   3.665  1.00 20.00     0.045 C 
HETATM    4  N9  UNL     1     -34.064   3.595   4.336  1.00 20.00    -0.196 NA
ENDROOT
BRANCH   3   5
HETATM    5  C6  UNL     1     -33.823   7.019   4.929  1.00 20.00     0.020 C 
HETATM    6  C3  UNL     1     -34.402   6.486   6.236  1.00 20.00     0.007 C 
ENDBRANCH   3   5
BRANCH   3   7
HETATM    7  C7  UNL     1     -33.029   6.428   2.573  1.00 20.00     0.024 C 
BRANCH   7   8
HETATM    8  C5  UNL     1     -32.090   7.612   2.851  1.00 20.00    -0.003 C 
HETATM    9  C2  UNL     1     -32.129   8.625   1.715  1.00 20.00     0.005 C 
ENDBRANCH   7   8
ENDBRANCH   3   7
TORSDOF 3
ENDMDL
MODEL 2
REMARK VINA RESULT:      -4.5      1.506      3.750
REMARK  3 active torsions:
REMARK  status: ('A' for Active; 'I' for Inactive)
REMARK    1  A    between atoms: C5_5  and  C7_7 
REMARK    2  A    between atoms: C6_6  and  C8_8 
REMARK    3  A    between atoms: C7_7  and  C8_8 
ROOT
HETATM    1  C1  UNL     1     -32.885   6.013   2.808  1.00 20.00     0.069 C 
HETATM    2  C4  UNL     1     -31.534   7.887   3.630  1.00 20.00     0.031 C 
HETATM    3  C8  UNL     1     -32.927   7.461   3.128  1.00 20.00     0.045 C 
HETATM    4  N9  UNL     1     -32.853   4.880   2.559  1.00 20.00    -0.196 NA
ENDROOT
BRANCH   3   5
HETATM    5  C6  UNL     1     -33.225   8.265   1.829  1.00 20.00     0.020 C 
HETATM    6  C3  UNL     1     -32.065   9.091   1.281  1.00 20.00     0.007 C 
ENDBRANCH   3   5
BRANCH   3   7
HETATM    7  C7  UNL     1     -34.017   7.735   4.200  1.00 20.00     0.024 C 
BRANCH   7   8
HETATM    8  C5  UNL     1     -33.722   7.174   5.600  1.00 20.00    -0.003 C 
HETATM    9  C2  UNL     1     -34.505   5.893   5.856  1.00 20.00     0.005 C 
ENDBRANCH   7   8
ENDBRANCH   3   7
TORSDOF 3
ENDMDL
MODEL 3
REMARK VINA RESULT:      -4.1     11.521     12.471
REMARK  3 active torsions:
REMARK  status: ('A' for Active; 'I' for Inactive)
REMARK    1  A    between atoms: C5_5  and  C7_7 
REMARK    2  A    between atoms: C6_6  and  C8_8 
REMARK    3  A    between atoms: C7_7  and  C8_8 
ROOT
HETATM    1  C1  UNL     1     -35.269  13.825  -4.955  1.00 20.00     0.069 C 
HETATM    2  C4  UNL     1     -32.990  14.467  -4.313  1.00 20.00     0.031 C 
HETATM    3  C8  UNL     1     -34.409  14.986  -4.615  1.00 20.00     0.045 C 
HETATM    4  N9  UNL     1     -35.941  12.916  -5.220  1.00 20.00    -0.196 NA
ENDROOT
BRANCH   3   5
HETATM    5  C6  UNL     1     -34.312  15.931  -5.848  1.00 20.00     0.020 C 
HETATM    6  C3  UNL     1     -33.818  15.285  -7.139  1.00 20.00     0.007 C 
ENDBRANCH   3   5
BRANCH   3   7
HETATM    7  C7  UNL     1     -35.000  15.743  -3.394  1.00 20.00     0.024 C 
BRANCH   7   8
HETATM    8  C5  UNL     1     -34.000  16.594  -2.598  1.00 20.00    -0.003 C 
HETATM    9  C2  UNL     1     -34.626  17.122  -1.313  1.00 20.00     0.005 C 
ENDBRANCH   7   8
ENDBRANCH   3   7
TORSDOF 3
ENDMDL
MODEL 4
REMARK VINA RESULT:      -4.1      1.870      3.070
REMARK  3 active torsions:
REMARK  status: ('A' for Active; 'I' for Inactive)
REMARK    1  A    between atoms: C5_5  and  C7_7 
REMARK    2  A    between atoms: C6_6  and  C8_8 
REMARK    3  A    between atoms: C7_7  and  C8_8 
ROOT
HETATM    1  C1  UNL     1     -33.341   7.469   4.536  1.00 20.00     0.069 C 
HETATM    2  C4  UNL     1     -31.186   8.022   3.503  1.00 20.00     0.031 C 
HETATM    3  C8  UNL     1     -32.628   7.545   3.238  1.00 20.00     0.045 C 
HETATM    4  N9  UNL     1     -33.899   7.410   5.552  1.00 20.00    -0.196 NA
ENDROOT
BRANCH   3   5
HETATM    5  C6  UNL     1     -32.545   6.122   2.613  1.00 20.00     0.020 C 
HETATM    6  C3  UNL     1     -33.676   5.168   2.985  1.00 20.00     0.007 C 
ENDBRANCH   3   5
BRANCH   3   7
HETATM    7  C7  UNL     1     -33.371   8.517   2.282  1.00 20.00     0.024 C 
BRANCH   7   8
HETATM    8  C5  UNL     1     -32.470   9.410   1.415  1.00 20.00    -0.003 C 
HETATM    9  C2  UNL     1     -32.943   9.432  -0.032  1.00 20.00     0.005 C 
ENDBRANCH   7   8
ENDBRANCH   3   7
TORSDOF 3
ENDMDL
MODEL 5
REMARK VINA RESULT:      -4.0      1.792      2.415
REMARK  3 active torsions:
REMARK  status: ('A' for Active; 'I' for Inactive)
REMARK    1  A    between atoms: C5_5  and  C7_7 
REMARK    2  A    between atoms: C6_6  and  C8_8 
REMARK    3  A    between atoms: C7_7  and  C8_8 
ROOT
HETATM    1  C1  UNL     1     -33.293   7.217   4.780  1.00 20.00     0.069 C 
HETATM    2  C4  UNL     1     -32.565   5.636   3.052  1.00 20.00     0.031 C 
HETATM    3  C8  UNL     1     -33.595   6.723   3.414  1.00 20.00     0.045 C 
HETATM    4  N9  UNL     1     -33.056   7.604   5.848  1.00 20.00    -0.196 NA
ENDROOT
BRANCH   3   5
HETATM    5  C6  UNL     1     -35.002   6.057   3.409  1.00 20.00     0.020 C 
HETATM    6  C3  UNL     1     -35.238   4.999   4.483  1.00 20.00     0.007 C 
ENDBRANCH   3   5
BRANCH   3   7
HETATM    7  C7  UNL     1     -33.547   7.900   2.402  1.00 20.00     0.024 C 
BRANCH   7   8
HETATM    8  C5  UNL     1     -32.145   8.450   2.095  1.00 20.00    -0.003 C 
HETATM    9  C2  UNL     1     -32.184   9.446   0.944  1.00 20.00     0.005 C 
ENDBRANCH   7   8
ENDBRANCH   3   7
TORSDOF 3
ENDMDL
MODEL 6
REMARK VINA RESULT:      -3.9      2.412      3.758
REMARK  3 active torsions:
REMARK  status: ('A' for Active; 'I' for Inactive)
REMARK    1  A    between atoms: C5_5  and  C7_7 
REMARK    2  A    between atoms: C6_6  and  C8_8 
REMARK    3  A    between atoms: C7_7  and  C8_8 
ROOT
HETATM    1  C1  UNL     1     -32.772   8.433   1.910  1.00 20.00     0.069 C 
HETATM    2  C4  UNL     1     -31.311   8.040   3.841  1.00 20.00     0.031 C 
HETATM    3  C8  UNL     1     -32.616   7.616   3.139  1.00 20.00     0.045 C 
HETATM    4  N9  UNL     1     -32.893   9.071   0.948  1.00 20.00    -0.196 NA
ENDROOT
BRANCH   3   5
HETATM    5  C6  UNL     1     -33.793   7.923   4.111  1.00 20.00     0.020 C 
HETATM    6  C3  UNL     1     -33.560   7.546   5.572  1.00 20.00     0.007 C 
ENDBRANCH   3   5
BRANCH   3   7
HETATM    7  C7  UNL     1     -32.591   6.107   2.773  1.00 20.00     0.024 C 
BRANCH   7   8
HETATM    8  C5  UNL     1     -33.953   5.397   2.805  1.00 20.00    -0.003 C 
HETATM    9  C2  UNL     1     -33.989   4.323   3.884  1.00 20.00     0.005 C 
ENDBRANCH   7   8
ENDBRANCH   3   7
TORSDOF 3
ENDMDL
MODEL 7
REMARK VINA RESULT:      -3.8      1.826      3.620
REMARK  3 active torsions:
REMARK  status: ('A' for Active; 'I' for Inactive)
REMARK    1  A    between atoms: C5_5  and  C7_7 
REMARK    2  A    between atoms: C6_6  and  C8_8 
REMARK    3  A    between atoms: C7_7  and  C8_8 
ROOT
HETATM    1  C1  UNL     1     -33.280   7.350   4.924  1.00 20.00     0.069 C 
HETATM    2  C4  UNL     1     -34.191   7.767   2.685  1.00 20.00     0.031 C 
HETATM    3  C8  UNL     1     -32.993   7.205   3.475  1.00 20.00     0.045 C 
HETATM    4  N9  UNL     1     -33.505   7.462   6.057  1.00 20.00    -0.196 NA
ENDROOT
BRANCH   3   5
HETATM    5  C6  UNL     1     -31.746   8.064   3.111  1.00 20.00     0.020 C 
HETATM    6  C3  UNL     1     -31.753   8.683   1.717  1.00 20.00     0.007 C 
ENDBRANCH   3   5
BRANCH   3   7
HETATM    7  C7  UNL     1     -32.745   5.712   3.131  1.00 20.00     0.024 C 
BRANCH   7   8
HETATM    8  C5  UNL     1     -34.000   4.827   3.089  1.00 20.00    -0.003 C 
HETATM    9  C2  UNL     1     -34.202   4.094   4.408  1.00 20.00     0.005 C 
ENDBRANCH   7   8
ENDBRANCH   3   7
TORSDOF 3
ENDMDL
MODEL 8
REMARK VINA RESULT:      -3.7     11.756     12.748
REMARK  3 active torsions:
REMARK  status: ('A' for Active; 'I' for Inactive)
REMARK    1  A    between atoms: C5_5  and  C7_7 
REMARK    2  A    between atoms: C6_6  and  C8_8 
REMARK    3  A    between atoms: C7_7  and  C8_8 
ROOT
HETATM    1  C1  UNL     1     -35.379  13.924  -5.150  1.00 20.00     0.069 C 
HETATM    2  C4  UNL     1     -33.682  15.374  -6.167  1.00 20.00     0.031 C 
HETATM    3  C8  UNL     1     -34.740  15.260  -5.052  1.00 20.00     0.045 C 
HETATM    4  N9  UNL     1     -35.878  12.879  -5.226  1.00 20.00    -0.196 NA
ENDROOT
BRANCH   3   5
HETATM    5  C6  UNL     1     -35.811  16.361  -5.306  1.00 20.00     0.020 C 
HETATM    6  C3  UNL     1     -36.599  16.230  -6.606  1.00 20.00     0.007 C 
ENDBRANCH   3   5
BRANCH   3   7
HETATM    7  C7  UNL     1     -34.098  15.438  -3.650  1.00 20.00     0.024 C 
BRANCH   7   8
HETATM    8  C5  UNL     1     -34.893  16.309  -2.665  1.00 20.00    -0.003 C 
HETATM    9  C2  UNL     1     -33.964  17.081  -1.738  1.00 20.00     0.005 C 
ENDBRANCH   7   8
ENDBRANCH   3   7
TORSDOF 3
ENDMDL
MODEL 9
REMARK VINA RESULT:      -3.7      2.250      3.869
REMARK  3 active torsions:
REMARK  status: ('A' for Active; 'I' for Inactive)
REMARK    1  A    between atoms: C5_5  and  C7_7 
REMARK    2  A    between atoms: C6_6  and  C8_8 
REMARK    3  A    between atoms: C7_7  and  C8_8 
ROOT
HETATM    1  C1  UNL     1     -32.864   7.953   2.476  1.00 20.00     0.069 C 
HETATM    2  C4  UNL     1     -34.814   6.518   2.869  1.00 20.00     0.031 C 
HETATM    3  C8  UNL     1     -33.352   6.798   3.269  1.00 20.00     0.045 C 
HETATM    4  N9  UNL     1     -32.482   8.857   1.856  1.00 20.00    -0.196 NA
ENDROOT
BRANCH   3   5
HETATM    5  C6  UNL     1     -32.516   5.536   2.905  1.00 20.00     0.020 C 
HETATM    6  C3  UNL     1     -33.318   4.316   2.461  1.00 20.00     0.007 C 
ENDBRANCH   3   5
BRANCH   3   7
HETATM    7  C7  UNL     1     -33.236   7.110   4.786  1.00 20.00     0.024 C 
BRANCH   7   8
HETATM    8  C5  UNL     1     -34.427   6.661   5.646  1.00 20.00    -0.003 C 
HETATM    9  C2  UNL     1     -34.403   5.157   5.880  1.00 20.00     0.005 C 
ENDBRANCH   7   8
ENDBRANCH   3   7
TORSDOF 3
ENDMDL
