MODEL 1
REMARK VINA RESULT:      -5.8      0.000      0.000
REMARK  5 active torsions:
REMARK  status: ('A' for Active; 'I' for Inactive)
REMARK    1  A    between atoms: C1_1  and  C6_6 
REMARK    2  A    between atoms: C1_1  and  C10_10 
REMARK    3  A    between atoms: C7_7  and  C11_11 
REMARK    4  A    between atoms: C10_10  and  C13_13 
REMARK    5  A    between atoms: C12_12  and  C13_13 
ROOT
HETATM    1  C2  UNL     1     -33.977   7.514   6.189  1.00 20.00     0.001 C 
HETATM    2  C3  UNL     1     -32.807   7.985   5.330  1.00 20.00     0.012 C 
HETATM    3  C4  UNL     1     -34.333   6.056   5.906  1.00 20.00     0.005 C 
HETATM    4  C5  UNL     1     -33.425   6.292   3.559  1.00 20.00     0.016 C 
HETATM    5  C6  UNL     1     -33.083   7.751   3.849  1.00 20.00     0.056 C 
HETATM    6  C7  UNL     1     -34.607   5.817   4.415  1.00 20.00    -0.014 C 
ENDROOT
BRANCH   5   7
HETATM    7  C1  UNL     1     -31.816   8.088   3.088  1.00 20.00     0.131 C 
HETATM    8  O14 UNL     1     -30.698   8.051   3.615  1.00 20.00    -0.298 OA
BRANCH   7   9
HETATM    9  C10 UNL     1     -31.989   8.477   1.627  1.00 20.00     0.079 C 
BRANCH   9  10
HETATM   10  C13 UNL     1     -32.542   9.889   1.450  1.00 20.00     0.007 C 
BRANCH  10  11
HETATM   11  C12 UNL     1     -32.974  10.139   0.006  1.00 20.00    -0.004 C 
HETATM   12  C9  UNL     1     -33.004   8.850  -0.798  1.00 20.00     0.005 C 
ENDBRANCH  10  11
ENDBRANCH   9  10
ENDBRANCH   7   9
ENDBRANCH   5   7
BRANCH   6  13
HETATM   13  C11 UNL     1     -34.907   4.343   4.151  1.00 20.00     0.000 C 
HETATM   14  C8  UNL     1     -33.654   3.538   4.031  1.00 20.00     0.005 C 
ENDBRANCH   6  13
TORSDOF 5
ENDMDL
MODEL 2
REMARK VINA RESULT:      -5.4      1.540      5.235
REMARK  5 active torsions:
REMARK  status: ('A' for Active; 'I' for Inactive)
REMARK    1  A    between atoms: C1_1  and  C6_6 
REMARK    2  A    between atoms: C1_1  and  C10_10 
REMARK    3  A    between atoms: C7_7  and  C11_11 
REMARK    4  A    between atoms: C10_10  and  C13_13 
REMARK    5  A    between atoms: C12_12  and  C13_13 
ROOT
HETATM    1  C2  UNL     1     -31.383   8.848   3.922  1.00 20.00     0.001 C 
HETATM    2  C3  UNL     1     -32.211   7.569   4.022  1.00 20.00     0.012 C 
HETATM    3  C4  UNL     1     -31.933   9.794   2.857  1.00 20.00     0.005 C 
HETATM    4  C5  UNL     1     -32.890   7.819   1.601  1.00 20.00     0.016 C 
HETATM    5  C6  UNL     1     -32.327   6.883   2.667  1.00 20.00     0.056 C 
HETATM    6  C7  UNL     1     -32.054   9.102   1.491  1.00 20.00    -0.014 C 
ENDROOT
BRANCH   5   7
HETATM    7  C1  UNL     1     -33.295   5.725   2.821  1.00 20.00     0.131 C 
HETATM    8  O14 UNL     1     -32.994   4.566   2.514  1.00 20.00    -0.298 OA
BRANCH   7   9
HETATM    9  C10 UNL     1     -34.668   6.063   3.383  1.00 20.00     0.079 C 
BRANCH   9  10
HETATM   10  C13 UNL     1     -35.166   5.032   4.392  1.00 20.00     0.007 C 
BRANCH  10  11
HETATM   11  C12 UNL     1     -34.428   5.155   5.724  1.00 20.00    -0.004 C 
HETATM   12  C9  UNL     1     -34.315   6.605   6.166  1.00 20.00     0.005 C 
ENDBRANCH  10  11
ENDBRANCH   9  10
ENDBRANCH   7   9
ENDBRANCH   5   7
BRANCH   6  13
HETATM   13  C11 UNL     1     -32.656  10.052   0.457  1.00 20.00     0.000 C 
HETATM   14  C8  UNL     1     -33.246   9.308  -0.696  1.00 20.00     0.005 C 
ENDBRANCH   6  13
TORSDOF 5
ENDMDL
MODEL 3
REMARK VINA RESULT:      -5.2     10.632     11.797
REMARK  5 active torsions:
REMARK  status: ('A' for Active; 'I' for Inactive)
REMARK    1  A    between atoms: C1_1  and  C6_6 
REMARK    2  A    between atoms: C1_1  and  C10_10 
REMARK    3  A    between atoms: C7_7  and  C11_11 
REMARK    4  A    between atoms: C10_10  and  C13_13 
REMARK    5  A    between atoms: C12_12  and  C13_13 
ROOT
HETATM    1  C2  UNL     1     -35.799  17.377  -1.268  1.00 20.00     0.001 C 
HETATM    2  C3  UNL     1     -34.672  17.826  -0.342  1.00 20.00     0.012 C 
HETATM    3  C4  UNL     1     -35.320  16.331  -2.272  1.00 20.00     0.005 C 
HETATM    4  C5  UNL     1     -32.979  17.274  -2.134  1.00 20.00     0.016 C 
HETATM    5  C6  UNL     1     -33.471  18.321  -1.139  1.00 20.00     0.056 C 
HETATM    6  C7  UNL     1     -34.107  16.826  -3.073  1.00 20.00    -0.014 C 
ENDROOT
BRANCH   5   7
HETATM    7  C1  UNL     1     -32.347  18.587  -0.155  1.00 20.00     0.131 C 
HETATM    8  O14 UNL     1     -31.170  18.303  -0.403  1.00 20.00    -0.298 OA
BRANCH   7   9
HETATM    9  C10 UNL     1     -32.744  19.231   1.166  1.00 20.00     0.079 C 
BRANCH   9  10
HETATM   10  C13 UNL     1     -31.997  18.644   2.360  1.00 20.00     0.007 C 
BRANCH  10  11
HETATM   11  C12 UNL     1     -32.910  18.514   3.578  1.00 20.00    -0.004 C 
HETATM   12  C9  UNL     1     -34.374  18.645   3.192  1.00 20.00     0.005 C 
ENDBRANCH  10  11
ENDBRANCH   9  10
ENDBRANCH   7   9
ENDBRANCH   5   7
BRANCH   6  13
HETATM   13  C11 UNL     1     -33.614  15.743  -4.031  1.00 20.00     0.000 C 
HETATM   14  C8  UNL     1     -34.511  14.548  -4.020  1.00 20.00     0.005 C 
ENDBRANCH   6  13
TORSDOF 5
ENDMDL
MODEL 4
REMARK VINA RESULT:      -5.0     11.041     12.182
REMARK  5 active torsions:
REMARK  status: ('A' for Active; 'I' for Inactive)
REMARK    1  A    between atoms: C1_1  and  C6_6 
REMARK    2  A    between atoms: C1_1  and  C10_10 
REMARK    3  A    between atoms: C7_7  and  C11_11 
REMARK    4  A    between atoms: C10_10  and  C13_13 
REMARK    5  A    between atoms: C12_12  and  C13_13 
ROOT
HETATM    1  C2  UNL     1     -36.977  16.953  -3.656  1.00 20.00     0.001 C 
HETATM    2  C3  UNL     1     -36.645  15.840  -4.646  1.00 20.00     0.012 C 
HETATM    3  C4  UNL     1     -35.715  17.606  -3.098  1.00 20.00     0.005 C 
HETATM    4  C5  UNL     1     -34.439  15.457  -3.477  1.00 20.00     0.016 C 
HETATM    5  C6  UNL     1     -35.709  14.812  -4.023  1.00 20.00     0.056 C 
HETATM    6  C7  UNL     1     -34.768  16.571  -2.474  1.00 20.00    -0.014 C 
ENDROOT
BRANCH   5   7
HETATM    7  C1  UNL     1     -35.301  13.843  -5.116  1.00 20.00     0.131 C 
HETATM    8  O14 UNL     1     -35.934  12.808  -5.353  1.00 20.00    -0.298 OA
BRANCH   7   9
HETATM    9  C10 UNL     1     -34.062  14.212  -5.919  1.00 20.00     0.079 C 
BRANCH   9  10
HETATM   10  C13 UNL     1     -34.335  14.316  -7.417  1.00 20.00     0.007 C 
BRANCH  10  11
HETATM   11  C12 UNL     1     -34.663  15.752  -7.825  1.00 20.00    -0.004 C 
HETATM   12  C9  UNL     1     -33.865  16.757  -7.011  1.00 20.00     0.005 C 
ENDBRANCH  10  11
ENDBRANCH   9  10
ENDBRANCH   7   9
ENDBRANCH   5   7
BRANCH   6  13
HETATM   13  C11 UNL     1     -33.490  17.242  -1.972  1.00 20.00     0.000 C 
HETATM   14  C8  UNL     1     -33.729  18.009  -0.712  1.00 20.00     0.005 C 
ENDBRANCH   6  13
TORSDOF 5
ENDMDL
MODEL 5
REMARK VINA RESULT:      -4.9     10.745     11.814
REMARK  5 active torsions:
REMARK  status: ('A' for Active; 'I' for Inactive)
REMARK    1  A    between atoms: C1_1  and  C6_6 
REMARK    2  A    between atoms: C1_1  and  C10_10 
REMARK    3  A    between atoms: C7_7  and  C11_11 
REMARK    4  A    between atoms: C10_10  and  C13_13 
REMARK    5  A    between atoms: C12_12  and  C13_13 
ROOT
HETATM    1  C2  UNL     1     -35.630  17.271  -0.384  1.00 20.00     0.001 C 
HETATM    2  C3  UNL     1     -35.441  17.005  -1.875  1.00 20.00     0.012 C 
HETATM    3  C4  UNL     1     -34.714  18.389   0.110  1.00 20.00     0.005 C 
HETATM    4  C5  UNL     1     -33.063  17.843  -1.724  1.00 20.00     0.016 C 
HETATM    5  C6  UNL     1     -33.980  16.722  -2.202  1.00 20.00     0.056 C 
HETATM    6  C7  UNL     1     -33.242  18.106  -0.223  1.00 20.00    -0.014 C 
ENDROOT
BRANCH   5   7
HETATM    7  C1  UNL     1     -33.857  16.637  -3.711  1.00 20.00     0.131 C 
HETATM    8  O14 UNL     1     -34.106  17.596  -4.450  1.00 20.00    -0.298 OA
BRANCH   7   9
HETATM    9  C10 UNL     1     -33.404  15.299  -4.278  1.00 20.00     0.079 C 
BRANCH   9  10
HETATM   10  C13 UNL     1     -34.444  14.196  -4.097  1.00 20.00     0.007 C 
BRANCH  10  11
HETATM   11  C12 UNL     1     -35.492  14.231  -5.209  1.00 20.00    -0.004 C 
HETATM   12  C9  UNL     1     -36.847  14.673  -4.683  1.00 20.00     0.005 C 
ENDBRANCH  10  11
ENDBRANCH   9  10
ENDBRANCH   7   9
ENDBRANCH   5   7
BRANCH   6  13
HETATM   13  C11 UNL     1     -32.354  19.263   0.233  1.00 20.00     0.000 C 
HETATM   14  C8  UNL     1     -31.534  18.892   1.426  1.00 20.00     0.005 C 
ENDBRANCH   6  13
TORSDOF 5
ENDMDL
MODEL 6
REMARK VINA RESULT:      -4.9     10.794     11.790
REMARK  5 active torsions:
REMARK  status: ('A' for Active; 'I' for Inactive)
REMARK    1  A    between atoms: C1_1  and  C6_6 
REMARK    2  A    between atoms: C1_1  and  C10_10 
REMARK    3  A    between atoms: C7_7  and  C11_11 
REMARK    4  A    between atoms: C10_10  and  C13_13 
REMARK    5  A    between atoms: C12_12  and  C13_13 
ROOT
HETATM    1  C2  UNL     1     -31.164  18.827   1.638  1.00 20.00     0.001 C 
HETATM    2  C3  UNL     1     -31.442  18.444   0.187  1.00 20.00     0.012 C 
HETATM    3  C4  UNL     1     -32.342  18.484   2.548  1.00 20.00     0.005 C 
HETATM    4  C5  UNL     1     -33.921  18.723   0.588  1.00 20.00     0.016 C 
HETATM    5  C6  UNL     1     -32.738  19.075  -0.309  1.00 20.00     0.056 C 
HETATM    6  C7  UNL     1     -33.649  19.115   2.047  1.00 20.00    -0.014 C 
ENDROOT
BRANCH   5   7
HETATM    7  C1  UNL     1     -33.021  18.514  -1.689  1.00 20.00     0.131 C 
HETATM    8  O14 UNL     1     -32.651  19.081  -2.723  1.00 20.00    -0.298 OA
BRANCH   7   9
HETATM    9  C10 UNL     1     -33.790  17.201  -1.739  1.00 20.00     0.079 C 
BRANCH   9  10
HETATM   10  C13 UNL     1     -33.609  16.458  -3.060  1.00 20.00     0.007 C 
BRANCH  10  11
HETATM   11  C12 UNL     1     -34.858  15.657  -3.423  1.00 20.00    -0.004 C 
HETATM   12  C9  UNL     1     -34.502  14.357  -4.126  1.00 20.00     0.005 C 
ENDBRANCH  10  11
ENDBRANCH   9  10
ENDBRANCH   7   9
ENDBRANCH   5   7
BRANCH   6  13
HETATM   13  C11 UNL     1     -34.820  18.713   2.942  1.00 20.00     0.000 C 
HETATM   14  C8  UNL     1     -36.104  18.662   2.180  1.00 20.00     0.005 C 
ENDBRANCH   6  13
TORSDOF 5
ENDMDL
MODEL 7
REMARK VINA RESULT:      -4.8     10.802     11.768
REMARK  5 active torsions:
REMARK  status: ('A' for Active; 'I' for Inactive)
REMARK    1  A    between atoms: C1_1  and  C6_6 
REMARK    2  A    between atoms: C1_1  and  C10_10 
REMARK    3  A    between atoms: C7_7  and  C11_11 
REMARK    4  A    between atoms: C10_10  and  C13_13 
REMARK    5  A    between atoms: C12_12  and  C13_13 
ROOT
HETATM    1  C2  UNL     1     -32.894  18.226  -1.670  1.00 20.00     0.001 C 
HETATM    2  C3  UNL     1     -33.397  17.130  -2.605  1.00 20.00     0.012 C 
HETATM    3  C4  UNL     1     -33.473  18.079  -0.264  1.00 20.00     0.005 C 
HETATM    4  C5  UNL     1     -35.504  16.921  -1.225  1.00 20.00     0.016 C 
HETATM    5  C6  UNL     1     -34.920  17.082  -2.626  1.00 20.00     0.056 C 
HETATM    6  C7  UNL     1     -35.007  18.027  -0.285  1.00 20.00    -0.014 C 
ENDROOT
BRANCH   5   7
HETATM    7  C1  UNL     1     -35.329  15.870  -3.439  1.00 20.00     0.131 C 
HETATM    8  O14 UNL     1     -36.496  15.676  -3.797  1.00 20.00    -0.298 OA
BRANCH   7   9
HETATM    9  C10 UNL     1     -34.219  14.893  -3.801  1.00 20.00     0.079 C 
BRANCH   9  10
HETATM   10  C13 UNL     1     -34.096  14.666  -5.306  1.00 20.00     0.007 C 
BRANCH  10  11
HETATM   11  C12 UNL     1     -33.159  15.687  -5.948  1.00 20.00    -0.004 C 
HETATM   12  C9  UNL     1     -33.914  16.639  -6.860  1.00 20.00     0.005 C 
ENDBRANCH  10  11
ENDBRANCH   9  10
ENDBRANCH   7   9
ENDBRANCH   5   7
BRANCH   6  13
HETATM   13  C11 UNL     1     -35.559  17.826   1.125  1.00 20.00     0.000 C 
HETATM   14  C8  UNL     1     -34.598  18.301   2.166  1.00 20.00     0.005 C 
ENDBRANCH   6  13
TORSDOF 5
ENDMDL
MODEL 8
REMARK VINA RESULT:      -4.6     10.805     12.301
REMARK  5 active torsions:
REMARK  status: ('A' for Active; 'I' for Inactive)
REMARK    1  A    between atoms: C1_1  and  C6_6 
REMARK    2  A    between atoms: C1_1  and  C10_10 
REMARK    3  A    between atoms: C7_7  and  C11_11 
REMARK    4  A    between atoms: C10_10  and  C13_13 
REMARK    5  A    between atoms: C12_12  and  C13_13 
ROOT
HETATM    1  C2  UNL     1     -33.555  18.123  -4.777  1.00 20.00     0.001 C 
HETATM    2  C3  UNL     1     -33.554  16.631  -5.099  1.00 20.00     0.012 C 
HETATM    3  C4  UNL     1     -33.266  18.381  -3.300  1.00 20.00     0.005 C 
HETATM    4  C5  UNL     1     -34.228  16.116  -2.719  1.00 20.00     0.016 C 
HETATM    5  C6  UNL     1     -34.520  15.873  -4.197  1.00 20.00     0.056 C 
HETATM    6  C7  UNL     1     -34.237  17.615  -2.390  1.00 20.00    -0.014 C 
ENDROOT
BRANCH   5   7
HETATM    7  C1  UNL     1     -34.334  14.393  -4.468  1.00 20.00     0.131 C 
HETATM    8  O14 UNL     1     -33.237  13.834  -4.364  1.00 20.00    -0.298 OA
BRANCH   7   9
HETATM    9  C10 UNL     1     -35.580  13.618  -4.873  1.00 20.00     0.079 C 
BRANCH   9  10
HETATM   10  C13 UNL     1     -36.815  14.507  -5.003  1.00 20.00     0.007 C 
BRANCH  10  11
HETATM   11  C12 UNL     1     -37.248  14.648  -6.461  1.00 20.00    -0.004 C 
HETATM   12  C9  UNL     1     -36.876  16.011  -7.023  1.00 20.00     0.005 C 
ENDBRANCH  10  11
ENDBRANCH   9  10
ENDBRANCH   7   9
ENDBRANCH   5   7
BRANCH   6  13
HETATM   13  C11 UNL     1     -33.894  17.847  -0.919  1.00 20.00     0.000 C 
HETATM   14  C8  UNL     1     -32.512  18.388  -0.754  1.00 20.00     0.005 C 
ENDBRANCH   6  13
TORSDOF 5
ENDMDL
MODEL 9
REMARK VINA RESULT:      -4.5     10.914     12.146
REMARK  5 active torsions:
REMARK  status: ('A' for Active; 'I' for Inactive)
REMARK    1  A    between atoms: C1_1  and  C6_6 
REMARK    2  A    between atoms: C1_1  and  C10_10 
REMARK    3  A    between atoms: C7_7  and  C11_11 
REMARK    4  A    between atoms: C10_10  and  C13_13 
REMARK    5  A    between atoms: C12_12  and  C13_13 
ROOT
HETATM    1  C2  UNL     1     -33.680  16.757  -5.908  1.00 20.00     0.001 C 
HETATM    2  C3  UNL     1     -33.706  17.375  -4.513  1.00 20.00     0.012 C 
HETATM    3  C4  UNL     1     -34.758  15.687  -6.070  1.00 20.00     0.005 C 
HETATM    4  C5  UNL     1     -34.686  15.240  -3.583  1.00 20.00     0.016 C 
HETATM    5  C6  UNL     1     -33.602  16.303  -3.435  1.00 20.00     0.056 C 
HETATM    6  C7  UNL     1     -34.657  14.609  -4.982  1.00 20.00    -0.014 C 
ENDROOT
BRANCH   5   7
HETATM    7  C1  UNL     1     -33.802  16.983  -2.093  1.00 20.00     0.131 C 
HETATM    8  O14 UNL     1     -32.897  17.603  -1.524  1.00 20.00    -0.298 OA
BRANCH   7   9
HETATM    9  C10 UNL     1     -35.189  16.865  -1.477  1.00 20.00     0.079 C 
BRANCH   9  10
HETATM   10  C13 UNL     1     -35.848  18.221  -1.237  1.00 20.00     0.007 C 
BRANCH  10  11
HETATM   11  C12 UNL     1     -37.248  18.273  -1.845  1.00 20.00    -0.004 C 
HETATM   12  C9  UNL     1     -37.255  17.759  -3.275  1.00 20.00     0.005 C 
ENDBRANCH  10  11
ENDBRANCH   9  10
ENDBRANCH   7   9
ENDBRANCH   5   7
BRANCH   6  13
HETATM   13  C11 UNL     1     -35.778  13.582  -5.134  1.00 20.00     0.000 C 
HETATM   14  C8  UNL     1     -37.115  14.238  -5.252  1.00 20.00     0.005 C 
ENDBRANCH   6  13
TORSDOF 5
ENDMDL
