MODEL 1
REMARK VINA RESULT:      -5.5      0.000      0.000
REMARK  5 active torsions:
REMARK  status: ('A' for Active; 'I' for Inactive)
REMARK    1  A    between atoms: C6_6  and  C8_8 
REMARK    2  A    between atoms: C7_7  and  C11_11 
REMARK    3  A    between atoms: C8_8  and  C10_10 
REMARK    4  A    between atoms: C9_9  and  C10_10 
REMARK    5  A    between atoms: C9_9  and  C11_11 
ROOT
HETATM    1  C1  UNL     1     -33.428   5.250   3.048  1.00 20.00     0.069 C 
HETATM    2  C5  UNL     1     -35.638   6.301   3.281  1.00 20.00     0.031 C 
HETATM    3  C11 UNL     1     -34.139   6.423   3.613  1.00 20.00     0.045 C 
HETATM    4  N12 UNL     1     -32.871   4.329   2.612  1.00 20.00    -0.196 NA
ENDROOT
BRANCH   3   5
HETATM    5  C7  UNL     1     -34.002   6.374   5.167  1.00 20.00     0.020 C 
HETATM    6  C3  UNL     1     -34.571   5.127   5.840  1.00 20.00     0.007 C 
ENDBRANCH   3   5
BRANCH   3   7
HETATM    7  C9  UNL     1     -33.538   7.751   3.066  1.00 20.00     0.028 C 
BRANCH   7   8
HETATM    8  C10 UNL     1     -32.021   7.818   2.741  1.00 20.00    -0.017 C 
HETATM    9  C4  UNL     1     -31.308   8.513   3.912  1.00 20.00     0.010 C 
BRANCH   8  10
HETATM   10  C8  UNL     1     -31.724   8.525   1.402  1.00 20.00     0.004 C 
BRANCH  10  11
HETATM   11  C6  UNL     1     -32.687   9.669   1.071  1.00 20.00    -0.004 C 
HETATM   12  C2  UNL     1     -33.188   9.573  -0.362  1.00 20.00     0.005 C 
ENDBRANCH  10  11
ENDBRANCH   8  10
ENDBRANCH   7   8
ENDBRANCH   3   7
TORSDOF 5
ENDMDL
MODEL 2
REMARK VINA RESULT:      -4.8      1.802      4.841
REMARK  5 active torsions:
REMARK  status: ('A' for Active; 'I' for Inactive)
REMARK    1  A    between atoms: C6_6  and  C8_8 
REMARK    2  A    between atoms: C7_7  and  C11_11 
REMARK    3  A    between atoms: C8_8  and  C10_10 
REMARK    4  A    between atoms: C9_9  and  C10_10 
REMARK    5  A    between atoms: C9_9  and  C11_11 
ROOT
HETATM    1  C1  UNL     1     -31.486   8.375   1.011  1.00 20.00     0.069 C 
HETATM    2  C5  UNL     1     -31.441   8.184   3.461  1.00 20.00     0.031 C 
HETATM    3  C11 UNL     1     -32.342   8.324   2.220  1.00 20.00     0.045 C 
HETATM    4  N12 UNL     1     -30.815   8.424   0.064  1.00 20.00    -0.196 NA
ENDROOT
BRANCH   3   5
HETATM    5  C7  UNL     1     -33.095   9.685   2.343  1.00 20.00     0.020 C 
HETATM    6  C3  UNL     1     -32.865  10.671   1.201  1.00 20.00     0.007 C 
ENDBRANCH   3   5
BRANCH   3   7
HETATM    7  C9  UNL     1     -33.367   7.155   2.124  1.00 20.00     0.028 C 
BRANCH   7   8
HETATM    8  C10 UNL     1     -33.366   6.056   3.222  1.00 20.00    -0.017 C 
HETATM    9  C4  UNL     1     -32.995   4.718   2.564  1.00 20.00     0.010 C 
BRANCH   8  10
HETATM   10  C8  UNL     1     -34.708   5.959   3.977  1.00 20.00     0.004 C 
BRANCH  10  11
HETATM   11  C6  UNL     1     -34.568   5.951   5.502  1.00 20.00    -0.004 C 
HETATM   12  C2  UNL     1     -33.831   7.187   5.997  1.00 20.00     0.005 C 
ENDBRANCH  10  11
ENDBRANCH   8  10
ENDBRANCH   7   8
ENDBRANCH   3   7
TORSDOF 5
ENDMDL
MODEL 3
REMARK VINA RESULT:      -4.7      1.628      4.841
REMARK  5 active torsions:
REMARK  status: ('A' for Active; 'I' for Inactive)
REMARK    1  A    between atoms: C6_6  and  C8_8 
REMARK    2  A    between atoms: C7_7  and  C11_11 
REMARK    3  A    between atoms: C8_8  and  C10_10 
REMARK    4  A    between atoms: C9_9  and  C10_10 
REMARK    5  A    between atoms: C9_9  and  C11_11 
ROOT
HETATM    1  C1  UNL     1     -31.645   8.386   3.057  1.00 20.00     0.069 C 
HETATM    2  C5  UNL     1     -33.460   9.745   2.105  1.00 20.00     0.031 C 
HETATM    3  C11 UNL     1     -32.630   8.456   1.951  1.00 20.00     0.045 C 
HETATM    4  N12 UNL     1     -30.868   8.335   3.919  1.00 20.00    -0.196 NA
ENDROOT
BRANCH   3   5
HETATM    5  C7  UNL     1     -31.847   8.566   0.606  1.00 20.00     0.020 C 
HETATM    6  C3  UNL     1     -32.613   9.200  -0.553  1.00 20.00     0.007 C 
ENDBRANCH   3   5
BRANCH   3   7
HETATM    7  C9  UNL     1     -33.538   7.191   1.937  1.00 20.00     0.028 C 
BRANCH   7   8
HETATM    8  C10 UNL     1     -33.424   6.165   3.098  1.00 20.00    -0.017 C 
HETATM    9  C4  UNL     1     -32.978   4.818   2.507  1.00 20.00     0.010 C 
BRANCH   8  10
HETATM   10  C8  UNL     1     -34.731   6.020   3.904  1.00 20.00     0.004 C 
BRANCH  10  11
HETATM   11  C6  UNL     1     -34.528   5.977   5.422  1.00 20.00    -0.004 C 
HETATM   12  C2  UNL     1     -33.773   7.203   5.914  1.00 20.00     0.005 C 
ENDBRANCH  10  11
ENDBRANCH   8  10
ENDBRANCH   7   8
ENDBRANCH   3   7
TORSDOF 5
ENDMDL
MODEL 4
REMARK VINA RESULT:      -4.5     10.460     11.820
REMARK  5 active torsions:
REMARK  status: ('A' for Active; 'I' for Inactive)
REMARK    1  A    between atoms: C6_6  and  C8_8 
REMARK    2  A    between atoms: C7_7  and  C11_11 
REMARK    3  A    between atoms: C8_8  and  C10_10 
REMARK    4  A    between atoms: C9_9  and  C10_10 
REMARK    5  A    between atoms: C9_9  and  C11_11 
ROOT
HETATM    1  C1  UNL     1     -35.207  13.837  -5.045  1.00 20.00     0.069 C 
HETATM    2  C5  UNL     1     -32.994  14.386  -4.122  1.00 20.00     0.031 C 
HETATM    3  C11 UNL     1     -34.255  14.949  -4.806  1.00 20.00     0.045 C 
HETATM    4  N12 UNL     1     -35.949  12.966  -5.239  1.00 20.00    -0.196 NA
ENDROOT
BRANCH   3   5
HETATM    5  C7  UNL     1     -33.817  15.522  -6.189  1.00 20.00     0.020 C 
HETATM    6  C3  UNL     1     -34.027  17.023  -6.378  1.00 20.00     0.007 C 
ENDBRANCH   3   5
BRANCH   3   7
HETATM    7  C9  UNL     1     -34.916  16.070  -3.950  1.00 20.00     0.028 C 
BRANCH   7   8
HETATM    8  C10 UNL     1     -34.258  16.482  -2.605  1.00 20.00    -0.017 C 
HETATM    9  C4  UNL     1     -35.375  16.735  -1.579  1.00 20.00     0.010 C 
BRANCH   8  10
HETATM   10  C8  UNL     1     -33.329  17.706  -2.739  1.00 20.00     0.004 C 
BRANCH  10  11
HETATM   11  C6  UNL     1     -33.351  18.643  -1.527  1.00 20.00    -0.004 C 
HETATM   12  C2  UNL     1     -32.160  18.394  -0.614  1.00 20.00     0.005 C 
ENDBRANCH  10  11
ENDBRANCH   8  10
ENDBRANCH   7   8
ENDBRANCH   3   7
TORSDOF 5
ENDMDL
MODEL 5
REMARK VINA RESULT:      -4.5     10.623     11.971
REMARK  5 active torsions:
REMARK  status: ('A' for Active; 'I' for Inactive)
REMARK    1  A    between atoms: C6_6  and  C8_8 
REMARK    2  A    between atoms: C7_7  and  C11_11 
REMARK    3  A    between atoms: C8_8  and  C10_10 
REMARK    4  A    between atoms: C9_9  and  C10_10 
REMARK    5  A    between atoms: C9_9  and  C11_11 
ROOT
HETATM    1  C1  UNL     1     -35.178  13.847  -5.171  1.00 20.00     0.069 C 
HETATM    2  C5  UNL     1     -32.915  14.394  -4.382  1.00 20.00     0.031 C 
HETATM    3  C11 UNL     1     -34.155  14.918  -5.133  1.00 20.00     0.045 C 
HETATM    4  N12 UNL     1     -35.978  13.005  -5.208  1.00 20.00    -0.196 NA
ENDROOT
BRANCH   3   5
HETATM    5  C7  UNL     1     -33.715  15.226  -6.598  1.00 20.00     0.020 C 
HETATM    6  C3  UNL     1     -33.856  16.681  -7.037  1.00 20.00     0.007 C 
ENDBRANCH   3   5
BRANCH   3   7
HETATM    7  C9  UNL     1     -34.724  16.205  -4.466  1.00 20.00     0.028 C 
BRANCH   7   8
HETATM    8  C10 UNL     1     -35.686  16.067  -3.254  1.00 20.00    -0.017 C 
HETATM    9  C4  UNL     1     -37.046  16.666  -3.649  1.00 20.00     0.010 C 
BRANCH   8  10
HETATM   10  C8  UNL     1     -35.135  16.720  -1.970  1.00 20.00     0.004 C 
BRANCH  10  11
HETATM   11  C6  UNL     1     -33.656  17.114  -2.054  1.00 20.00    -0.004 C 
HETATM   12  C2  UNL     1     -33.268  18.048  -0.918  1.00 20.00     0.005 C 
ENDBRANCH  10  11
ENDBRANCH   8  10
ENDBRANCH   7   8
ENDBRANCH   3   7
TORSDOF 5
ENDMDL
MODEL 6
REMARK VINA RESULT:      -4.3     10.690     11.509
REMARK  5 active torsions:
REMARK  status: ('A' for Active; 'I' for Inactive)
REMARK    1  A    between atoms: C6_6  and  C8_8 
REMARK    2  A    between atoms: C7_7  and  C11_11 
REMARK    3  A    between atoms: C8_8  and  C10_10 
REMARK    4  A    between atoms: C9_9  and  C10_10 
REMARK    5  A    between atoms: C9_9  and  C11_11 
ROOT
HETATM    1  C1  UNL     1     -33.430  14.569  -4.423  1.00 20.00     0.069 C 
HETATM    2  C5  UNL     1     -34.505  15.809  -6.254  1.00 20.00     0.031 C 
HETATM    3  C11 UNL     1     -34.561  15.469  -4.752  1.00 20.00     0.045 C 
HETATM    4  N12 UNL     1     -32.549  13.858  -4.166  1.00 20.00    -0.196 NA
ENDROOT
BRANCH   3   5
HETATM    5  C7  UNL     1     -35.892  14.693  -4.501  1.00 20.00     0.020 C 
HETATM    6  C3  UNL     1     -36.090  13.435  -5.344  1.00 20.00     0.007 C 
ENDBRANCH   3   5
BRANCH   3   7
HETATM    7  C9  UNL     1     -34.521  16.755  -3.874  1.00 20.00     0.028 C 
BRANCH   7   8
HETATM    8  C10 UNL     1     -34.219  16.625  -2.356  1.00 20.00    -0.017 C 
HETATM    9  C4  UNL     1     -35.519  16.898  -1.582  1.00 20.00     0.010 C 
BRANCH   8  10
HETATM   10  C8  UNL     1     -33.079  17.552  -1.887  1.00 20.00     0.004 C 
BRANCH  10  11
HETATM   11  C6  UNL     1     -33.353  18.254  -0.553  1.00 20.00    -0.004 C 
HETATM   12  C2  UNL     1     -32.061  18.711   0.107  1.00 20.00     0.005 C 
ENDBRANCH  10  11
ENDBRANCH   8  10
ENDBRANCH   7   8
ENDBRANCH   3   7
TORSDOF 5
ENDMDL
MODEL 7
REMARK VINA RESULT:      -4.3     10.649     11.607
REMARK  5 active torsions:
REMARK  status: ('A' for Active; 'I' for Inactive)
REMARK    1  A    between atoms: C6_6  and  C8_8 
REMARK    2  A    between atoms: C7_7  and  C11_11 
REMARK    3  A    between atoms: C8_8  and  C10_10 
REMARK    4  A    between atoms: C9_9  and  C10_10 
REMARK    5  A    between atoms: C9_9  and  C11_11 
ROOT
HETATM    1  C1  UNL     1     -35.533  13.885  -5.048  1.00 20.00     0.069 C 
HETATM    2  C5  UNL     1     -34.110  15.731  -5.832  1.00 20.00     0.031 C 
HETATM    3  C11 UNL     1     -35.147  15.292  -4.781  1.00 20.00     0.045 C 
HETATM    4  N12 UNL     1     -35.842  12.786  -5.262  1.00 20.00    -0.196 NA
ENDROOT
BRANCH   3   5
HETATM    5  C7  UNL     1     -36.409  16.189  -4.971  1.00 20.00     0.020 C 
HETATM    6  C3  UNL     1     -37.689  15.674  -4.315  1.00 20.00     0.007 C 
ENDBRANCH   3   5
BRANCH   3   7
HETATM    7  C9  UNL     1     -34.594  15.449  -3.333  1.00 20.00     0.028 C 
BRANCH   7   8
HETATM    8  C10 UNL     1     -34.660  16.840  -2.645  1.00 20.00    -0.017 C 
HETATM    9  C4  UNL     1     -33.225  17.289  -2.330  1.00 20.00     0.010 C 
BRANCH   8  10
HETATM   10  C8  UNL     1     -35.542  16.844  -1.380  1.00 20.00     0.004 C 
BRANCH  10  11
HETATM   11  C6  UNL     1     -35.084  17.831  -0.302  1.00 20.00    -0.004 C 
HETATM   12  C2  UNL     1     -35.763  17.549   1.031  1.00 20.00     0.005 C 
ENDBRANCH  10  11
ENDBRANCH   8  10
ENDBRANCH   7   8
ENDBRANCH   3   7
TORSDOF 5
ENDMDL
MODEL 8
REMARK VINA RESULT:      -4.3     10.758     11.577
REMARK  5 active torsions:
REMARK  status: ('A' for Active; 'I' for Inactive)
REMARK    1  A    between atoms: C6_6  and  C8_8 
REMARK    2  A    between atoms: C7_7  and  C11_11 
REMARK    3  A    between atoms: C8_8  and  C10_10 
REMARK    4  A    between atoms: C9_9  and  C10_10 
REMARK    5  A    between atoms: C9_9  and  C11_11 
ROOT
HETATM    1  C1  UNL     1     -35.570  13.364  -6.274  1.00 20.00     0.069 C 
HETATM    2  C5  UNL     1     -35.984  15.778  -6.479  1.00 20.00     0.031 C 
HETATM    3  C11 UNL     1     -36.113  14.546  -5.563  1.00 20.00     0.045 C 
HETATM    4  N12 UNL     1     -35.152  12.435  -6.833  1.00 20.00    -0.196 NA
ENDROOT
BRANCH   3   5
HETATM    5  C7  UNL     1     -37.635  14.310  -5.313  1.00 20.00     0.020 C 
HETATM    6  C3  UNL     1     -38.326  15.344  -4.428  1.00 20.00     0.007 C 
ENDBRANCH   3   5
BRANCH   3   7
HETATM    7  C9  UNL     1     -35.378  14.763  -4.207  1.00 20.00     0.028 C 
BRANCH   7   8
HETATM    8  C10 UNL     1     -34.089  15.630  -4.176  1.00 20.00    -0.017 C 
HETATM    9  C4  UNL     1     -32.877  14.695  -4.323  1.00 20.00     0.010 C 
BRANCH   8  10
HETATM   10  C8  UNL     1     -33.979  16.498  -2.906  1.00 20.00     0.004 C 
BRANCH  10  11
HETATM   11  C6  UNL     1     -35.274  16.582  -2.091  1.00 20.00    -0.004 C 
HETATM   12  C2  UNL     1     -35.044  17.277  -0.757  1.00 20.00     0.005 C 
ENDBRANCH  10  11
ENDBRANCH   8  10
ENDBRANCH   7   8
ENDBRANCH   3   7
TORSDOF 5
ENDMDL
MODEL 9
REMARK VINA RESULT:      -4.3      1.550      1.999
REMARK  5 active torsions:
REMARK  status: ('A' for Active; 'I' for Inactive)
REMARK    1  A    between atoms: C6_6  and  C8_8 
REMARK    2  A    between atoms: C7_7  and  C11_11 
REMARK    3  A    between atoms: C8_8  and  C10_10 
REMARK    4  A    between atoms: C9_9  and  C10_10 
REMARK    5  A    between atoms: C9_9  and  C11_11 
ROOT
HETATM    1  C1  UNL     1     -33.442   7.057   4.899  1.00 20.00     0.069 C 
HETATM    2  C5  UNL     1     -32.684   5.352   3.298  1.00 20.00     0.031 C 
HETATM    3  C11 UNL     1     -33.591   6.581   3.503  1.00 20.00     0.045 C 
HETATM    4  N12 UNL     1     -33.331   7.426   5.995  1.00 20.00    -0.196 NA
ENDROOT
BRANCH   3   5
HETATM    5  C7  UNL     1     -35.065   6.108   3.304  1.00 20.00     0.020 C 
HETATM    6  C3  UNL     1     -35.541   5.015   4.258  1.00 20.00     0.007 C 
ENDBRANCH   3   5
BRANCH   3   7
HETATM    7  C9  UNL     1     -33.254   7.715   2.491  1.00 20.00     0.028 C 
BRANCH   7   8
HETATM    8  C10 UNL     1     -31.767   8.016   2.160  1.00 20.00    -0.017 C 
HETATM    9  C4  UNL     1     -31.122   8.671   3.393  1.00 20.00     0.010 C 
BRANCH   8  10
HETATM   10  C8  UNL     1     -31.595   8.893   0.903  1.00 20.00     0.004 C 
BRANCH  10  11
HETATM   11  C6  UNL     1     -32.721   9.911   0.692  1.00 20.00    -0.004 C 
HETATM   12  C2  UNL     1     -33.427   9.688  -0.637  1.00 20.00     0.005 C 
ENDBRANCH  10  11
ENDBRANCH   8  10
ENDBRANCH   7   8
ENDBRANCH   3   7
TORSDOF 5
ENDMDL
