MODEL 1
REMARK VINA RESULT:      -5.7      0.000      0.000
REMARK  3 active torsions:
REMARK  status: ('A' for Active; 'I' for Inactive)
REMARK    1  A    between atoms: C1_1  and  C5_5 
REMARK    2  A    between atoms: C1_1  and  C9_9 
REMARK    3  A    between atoms: C6_6  and  C10_10 
ROOT
HETATM    1  C2  UNL     1     -32.967   6.644   2.078  1.00 20.00     0.012 C 
HETATM    2  C3  UNL     1     -33.736   6.240   3.334  1.00 20.00     0.005 C 
HETATM    3  C4  UNL     1     -32.139   7.864   4.034  1.00 20.00     0.016 C 
HETATM    4  C5  UNL     1     -31.896   7.629   2.544  1.00 20.00     0.056 C 
HETATM    5  C6  UNL     1     -33.593   7.448   4.254  1.00 20.00    -0.014 C 
ENDROOT
BRANCH   4   6
HETATM    6  C1  UNL     1     -32.073   8.946   1.811  1.00 20.00     0.130 C 
HETATM    7  O11 UNL     1     -32.282   9.991   2.425  1.00 20.00    -0.298 OA
BRANCH   6   8
HETATM    8  C9  UNL     1     -31.977   8.885   0.297  1.00 20.00     0.074 C 
HETATM    9  C7  UNL     1     -33.191   9.484  -0.390  1.00 20.00     0.013 C 
ENDBRANCH   6   8
ENDBRANCH   4   6
BRANCH   5  10
HETATM   10  C10 UNL     1     -33.913   7.135   5.706  1.00 20.00     0.000 C 
HETATM   11  C8  UNL     1     -34.510   5.772   5.867  1.00 20.00     0.005 C 
ENDBRANCH   5  10
TORSDOF 3
ENDMDL
MODEL 2
REMARK VINA RESULT:      -5.6      1.623      4.745
REMARK  3 active torsions:
REMARK  status: ('A' for Active; 'I' for Inactive)
REMARK    1  A    between atoms: C1_1  and  C5_5 
REMARK    2  A    between atoms: C1_1  and  C9_9 
REMARK    3  A    between atoms: C6_6  and  C10_10 
ROOT
HETATM    1  C2  UNL     1     -31.874   7.774   3.842  1.00 20.00     0.012 C 
HETATM    2  C3  UNL     1     -31.578   8.986   2.962  1.00 20.00     0.005 C 
HETATM    3  C4  UNL     1     -32.822   7.474   1.604  1.00 20.00     0.016 C 
HETATM    4  C5  UNL     1     -32.607   6.777   2.945  1.00 20.00     0.056 C 
HETATM    5  C6  UNL     1     -32.694   8.964   1.923  1.00 20.00    -0.014 C 
ENDROOT
BRANCH   4   6
HETATM    6  C1  UNL     1     -33.962   6.461   3.550  1.00 20.00     0.130 C 
HETATM    7  O11 UNL     1     -34.886   6.040   2.855  1.00 20.00    -0.298 OA
BRANCH   6   8
HETATM    8  C9  UNL     1     -34.097   6.695   5.044  1.00 20.00     0.074 C 
HETATM    9  C7  UNL     1     -34.559   5.456   5.790  1.00 20.00     0.013 C 
ENDBRANCH   6   8
ENDBRANCH   4   6
BRANCH   5  10
HETATM   10  C10 UNL     1     -32.391   9.814   0.700  1.00 20.00     0.000 C 
HETATM   11  C8  UNL     1     -33.168   9.368  -0.499  1.00 20.00     0.005 C 
ENDBRANCH   5  10
TORSDOF 3
ENDMDL
MODEL 3
REMARK VINA RESULT:      -4.9      1.330      2.022
REMARK  3 active torsions:
REMARK  status: ('A' for Active; 'I' for Inactive)
REMARK    1  A    between atoms: C1_1  and  C5_5 
REMARK    2  A    between atoms: C1_1  and  C9_9 
REMARK    3  A    between atoms: C6_6  and  C10_10 
ROOT
HETATM    1  C2  UNL     1     -33.321   8.148   4.582  1.00 20.00     0.012 C 
HETATM    2  C3  UNL     1     -33.809   6.794   5.091  1.00 20.00     0.005 C 
HETATM    3  C4  UNL     1     -33.716   6.610   2.718  1.00 20.00     0.016 C 
HETATM    4  C5  UNL     1     -33.334   8.049   3.057  1.00 20.00     0.056 C 
HETATM    5  C6  UNL     1     -33.403   5.821   3.990  1.00 20.00    -0.014 C 
ENDROOT
BRANCH   4   6
HETATM    6  C1  UNL     1     -31.939   8.318   2.526  1.00 20.00     0.130 C 
HETATM    7  O11 UNL     1     -30.948   8.170   3.240  1.00 20.00    -0.298 OA
BRANCH   6   8
HETATM    8  C9  UNL     1     -31.851   8.774   1.081  1.00 20.00     0.074 C 
HETATM    9  C7  UNL     1     -32.547  10.102   0.844  1.00 20.00     0.013 C 
ENDBRANCH   6   8
ENDBRANCH   4   6
BRANCH   5  10
HETATM   10  C10 UNL     1     -34.135   4.492   4.065  1.00 20.00     0.000 C 
HETATM   11  C8  UNL     1     -34.843   4.316   5.373  1.00 20.00     0.005 C 
ENDBRANCH   5  10
TORSDOF 3
ENDMDL
MODEL 4
REMARK VINA RESULT:      -4.8     10.291     11.381
REMARK  3 active torsions:
REMARK  status: ('A' for Active; 'I' for Inactive)
REMARK    1  A    between atoms: C1_1  and  C5_5 
REMARK    2  A    between atoms: C1_1  and  C9_9 
REMARK    3  A    between atoms: C6_6  and  C10_10 
ROOT
HETATM    1  C2  UNL     1     -34.415  17.928  -0.173  1.00 20.00     0.012 C 
HETATM    2  C3  UNL     1     -34.854  17.068  -1.356  1.00 20.00     0.005 C 
HETATM    3  C4  UNL     1     -33.034  18.389  -2.143  1.00 20.00     0.016 C 
HETATM    4  C5  UNL     1     -33.298  18.826  -0.703  1.00 20.00     0.056 C 
HETATM    5  C6  UNL     1     -33.603  16.972  -2.222  1.00 20.00    -0.014 C 
ENDROOT
BRANCH   4   6
HETATM    6  C1  UNL     1     -32.039  18.594   0.112  1.00 20.00     0.130 C 
HETATM    7  O11 UNL     1     -30.994  18.226  -0.424  1.00 20.00    -0.298 OA
BRANCH   6   8
HETATM    8  C9  UNL     1     -32.155  18.842   1.605  1.00 20.00     0.074 C 
HETATM    9  C7  UNL     1     -30.808  18.841   2.304  1.00 20.00     0.013 C 
ENDBRANCH   6   8
ENDBRANCH   4   6
BRANCH   5  10
HETATM   10  C10 UNL     1     -33.893  16.523  -3.644  1.00 20.00     0.000 C 
HETATM   11  C8  UNL     1     -34.456  15.136  -3.689  1.00 20.00     0.005 C 
ENDBRANCH   5  10
TORSDOF 3
ENDMDL
MODEL 5
REMARK VINA RESULT:      -4.8      1.738      4.633
REMARK  3 active torsions:
REMARK  status: ('A' for Active; 'I' for Inactive)
REMARK    1  A    between atoms: C1_1  and  C5_5 
REMARK    2  A    between atoms: C1_1  and  C9_9 
REMARK    3  A    between atoms: C6_6  and  C10_10 
ROOT
HETATM    1  C2  UNL     1     -33.930   5.834   2.890  1.00 20.00     0.012 C 
HETATM    2  C3  UNL     1     -32.873   6.511   2.021  1.00 20.00     0.005 C 
HETATM    3  C4  UNL     1     -33.551   8.141   3.621  1.00 20.00     0.016 C 
HETATM    4  C5  UNL     1     -34.414   6.905   3.866  1.00 20.00     0.056 C 
HETATM    5  C6  UNL     1     -32.303   7.602   2.921  1.00 20.00    -0.014 C 
ENDROOT
BRANCH   4   6
HETATM    6  C1  UNL     1     -34.184   6.428   5.288  1.00 20.00     0.130 C 
HETATM    7  O11 UNL     1     -33.577   7.124   6.101  1.00 20.00    -0.298 OA
BRANCH   6   8
HETATM    8  C9  UNL     1     -34.743   5.059   5.632  1.00 20.00     0.074 C 
HETATM    9  C7  UNL     1     -34.072   3.942   4.854  1.00 20.00     0.013 C 
ENDBRANCH   6   8
ENDBRANCH   4   6
BRANCH   5  10
HETATM   10  C10 UNL     1     -31.538   8.670   2.157  1.00 20.00     0.000 C 
HETATM   11  C8  UNL     1     -32.308   9.174   0.976  1.00 20.00     0.005 C 
ENDBRANCH   5  10
TORSDOF 3
ENDMDL
MODEL 6
REMARK VINA RESULT:      -4.6     10.051     11.127
REMARK  3 active torsions:
REMARK  status: ('A' for Active; 'I' for Inactive)
REMARK    1  A    between atoms: C1_1  and  C5_5 
REMARK    2  A    between atoms: C1_1  and  C9_9 
REMARK    3  A    between atoms: C6_6  and  C10_10 
ROOT
HETATM    1  C2  UNL     1     -36.934  14.686  -4.872  1.00 20.00     0.012 C 
HETATM    2  C3  UNL     1     -36.366  15.751  -3.937  1.00 20.00     0.005 C 
HETATM    3  C4  UNL     1     -34.672  14.090  -4.147  1.00 20.00     0.016 C 
HETATM    4  C5  UNL     1     -35.874  13.588  -4.944  1.00 20.00     0.056 C 
HETATM    5  C6  UNL     1     -34.856  15.606  -4.091  1.00 20.00    -0.014 C 
ENDROOT
BRANCH   4   6
HETATM    6  C1  UNL     1     -35.451  13.394  -6.389  1.00 20.00     0.130 C 
HETATM    7  O11 UNL     1     -35.015  12.314  -6.783  1.00 20.00    -0.298 OA
BRANCH   6   8
HETATM    8  C9  UNL     1     -35.600  14.603  -7.296  1.00 20.00     0.074 C 
HETATM    9  C7  UNL     1     -34.268  15.105  -7.823  1.00 20.00     0.013 C 
ENDBRANCH   6   8
ENDBRANCH   4   6
BRANCH   5  10
HETATM   10  C10 UNL     1     -34.073  16.264  -2.968  1.00 20.00     0.000 C 
HETATM   11  C8  UNL     1     -34.966  16.714  -1.853  1.00 20.00     0.005 C 
ENDBRANCH   5  10
TORSDOF 3
ENDMDL
MODEL 7
REMARK VINA RESULT:      -4.6      2.259      4.724
REMARK  3 active torsions:
REMARK  status: ('A' for Active; 'I' for Inactive)
REMARK    1  A    between atoms: C1_1  and  C5_5 
REMARK    2  A    between atoms: C1_1  and  C9_9 
REMARK    3  A    between atoms: C6_6  and  C10_10 
ROOT
HETATM    1  C2  UNL     1     -33.489   5.117   2.592  1.00 20.00     0.012 C 
HETATM    2  C3  UNL     1     -32.496   6.161   2.084  1.00 20.00     0.005 C 
HETATM    3  C4  UNL     1     -33.983   7.321   3.540  1.00 20.00     0.016 C 
HETATM    4  C5  UNL     1     -34.484   5.880   3.466  1.00 20.00     0.056 C 
HETATM    5  C6  UNL     1     -32.502   7.230   3.171  1.00 20.00    -0.014 C 
ENDROOT
BRANCH   4   6
HETATM    6  C1  UNL     1     -34.476   5.291   4.864  1.00 20.00     0.130 C 
HETATM    7  O11 UNL     1     -34.245   4.097   5.049  1.00 20.00    -0.298 OA
BRANCH   6   8
HETATM    8  C9  UNL     1     -34.767   6.258   5.998  1.00 20.00     0.074 C 
HETATM    9  C7  UNL     1     -33.605   7.193   6.280  1.00 20.00     0.013 C 
ENDBRANCH   6   8
ENDBRANCH   4   6
BRANCH   5  10
HETATM   10  C10 UNL     1     -31.918   8.555   2.710  1.00 20.00     0.000 C 
HETATM   11  C8  UNL     1     -32.005   8.719   1.225  1.00 20.00     0.005 C 
ENDBRANCH   5  10
TORSDOF 3
ENDMDL
MODEL 8
REMARK VINA RESULT:      -4.5     10.161     10.786
REMARK  3 active torsions:
REMARK  status: ('A' for Active; 'I' for Inactive)
REMARK    1  A    between atoms: C1_1  and  C5_5 
REMARK    2  A    between atoms: C1_1  and  C9_9 
REMARK    3  A    between atoms: C6_6  and  C10_10 
ROOT
HETATM    1  C2  UNL     1     -33.614  16.246  -4.192  1.00 20.00     0.012 C 
HETATM    2  C3  UNL     1     -33.684  17.038  -2.888  1.00 20.00     0.005 C 
HETATM    3  C4  UNL     1     -35.858  16.123  -3.219  1.00 20.00     0.016 C 
HETATM    4  C5  UNL     1     -35.029  15.724  -4.438  1.00 20.00     0.056 C 
HETATM    5  C6  UNL     1     -34.826  16.380  -2.121  1.00 20.00    -0.014 C 
ENDROOT
BRANCH   4   6
HETATM    6  C1  UNL     1     -34.996  14.210  -4.527  1.00 20.00     0.130 C 
HETATM    7  O11 UNL     1     -34.077  13.564  -4.024  1.00 20.00    -0.298 OA
BRANCH   6   8
HETATM    8  C9  UNL     1     -36.151  13.559  -5.264  1.00 20.00     0.074 C 
HETATM    9  C7  UNL     1     -36.545  14.318  -6.519  1.00 20.00     0.013 C 
ENDBRANCH   6   8
ENDBRANCH   4   6
BRANCH   5  10
HETATM   10  C10 UNL     1     -35.358  17.239  -0.987  1.00 20.00     0.000 C 
HETATM   11  C8  UNL     1     -34.262  17.969  -0.275  1.00 20.00     0.005 C 
ENDBRANCH   5  10
TORSDOF 3
ENDMDL
MODEL 9
REMARK VINA RESULT:      -4.5     10.345     11.098
REMARK  3 active torsions:
REMARK  status: ('A' for Active; 'I' for Inactive)
REMARK    1  A    between atoms: C1_1  and  C5_5 
REMARK    2  A    between atoms: C1_1  and  C9_9 
REMARK    3  A    between atoms: C6_6  and  C10_10 
ROOT
HETATM    1  C2  UNL     1     -33.773  14.398  -5.378  1.00 20.00     0.012 C 
HETATM    2  C3  UNL     1     -33.206  15.120  -4.157  1.00 20.00     0.005 C 
HETATM    3  C4  UNL     1     -35.354  16.075  -4.547  1.00 20.00     0.016 C 
HETATM    4  C5  UNL     1     -35.117  15.065  -5.668  1.00 20.00     0.056 C 
HETATM    5  C6  UNL     1     -34.445  15.605  -3.412  1.00 20.00    -0.014 C 
ENDROOT
BRANCH   4   6
HETATM    6  C1  UNL     1     -36.216  14.020  -5.619  1.00 20.00     0.130 C 
HETATM    7  O11 UNL     1     -35.995  12.886  -5.195  1.00 20.00    -0.298 OA
BRANCH   6   8
HETATM    8  C9  UNL     1     -37.580  14.460  -6.118  1.00 20.00     0.074 C 
HETATM    9  C7  UNL     1     -38.582  14.644  -4.992  1.00 20.00     0.013 C 
ENDBRANCH   6   8
ENDBRANCH   4   6
BRANCH   5  10
HETATM   10  C10 UNL     1     -34.143  16.695  -2.396  1.00 20.00     0.000 C 
HETATM   11  C8  UNL     1     -35.262  16.872  -1.417  1.00 20.00     0.005 C 
ENDBRANCH   5  10
TORSDOF 3
ENDMDL
