MODEL 1
REMARK VINA RESULT:      -4.8      0.000      0.000
REMARK  3 active torsions:
REMARK  status: ('A' for Active; 'I' for Inactive)
REMARK    1  A    between atoms: C6_6  and  C10_10 
REMARK    2  A    between atoms: C7_7  and  C11_11 
REMARK    3  A    between atoms: C11_11  and  C12_12 
ROOT
HETATM    1  C1  UNL     1     -33.966  17.494  -4.518  1.00 20.00     0.069 C 
HETATM    2  C2  UNL     1     -33.894  14.430  -4.978  1.00 20.00     0.006 C 
HETATM    3  C3  UNL     1     -36.170  15.321  -4.346  1.00 20.00     0.006 C 
HETATM    4  C4  UNL     1     -33.261  15.222  -3.831  1.00 20.00     0.025 C 
HETATM    5  C5  UNL     1     -35.544  16.116  -3.198  1.00 20.00     0.025 C 
HETATM    6  C6  UNL     1     -35.353  14.067  -4.680  1.00 20.00    -0.015 C 
HETATM    7  C7  UNL     1     -34.065  16.480  -3.443  1.00 20.00     0.049 C 
HETATM    8  N13 UNL     1     -33.888  18.289  -5.361  1.00 20.00    -0.196 NA
ENDROOT
BRANCH   7   9
HETATM    9  C11 UNL     1     -33.471  17.088  -2.160  1.00 20.00     0.024 C 
BRANCH   9  10
HETATM   10  C12 UNL     1     -34.538  17.229  -1.084  1.00 20.00    -0.003 C 
HETATM   11  C9  UNL     1     -34.090  18.198  -0.002  1.00 20.00     0.005 C 
ENDBRANCH   9  10
ENDBRANCH   7   9
BRANCH   6  12
HETATM   12  C10 UNL     1     -35.974  13.316  -5.856  1.00 20.00     0.000 C 
HETATM   13  C8  UNL     1     -35.066  13.303  -7.043  1.00 20.00     0.005 C 
ENDBRANCH   6  12
TORSDOF 3
ENDMDL
MODEL 2
REMARK VINA RESULT:      -4.8     10.941     11.733
REMARK  3 active torsions:
REMARK  status: ('A' for Active; 'I' for Inactive)
REMARK    1  A    between atoms: C6_6  and  C10_10 
REMARK    2  A    between atoms: C7_7  and  C11_11 
REMARK    3  A    between atoms: C11_11  and  C12_12 
ROOT
HETATM    1  C1  UNL     1     -31.530   8.114   3.326  1.00 20.00     0.069 C 
HETATM    2  C2  UNL     1     -34.110   6.891   4.532  1.00 20.00     0.006 C 
HETATM    3  C3  UNL     1     -33.139   5.560   2.619  1.00 20.00     0.006 C 
HETATM    4  C4  UNL     1     -33.976   8.176   3.711  1.00 20.00     0.025 C 
HETATM    5  C5  UNL     1     -33.000   6.841   1.793  1.00 20.00     0.025 C 
HETATM    6  C6  UNL     1     -34.283   5.660   3.635  1.00 20.00    -0.015 C 
HETATM    7  C7  UNL     1     -32.851   8.111   2.656  1.00 20.00     0.049 C 
HETATM    8  N13 UNL     1     -30.494   8.117   3.851  1.00 20.00    -0.196 NA
ENDROOT
BRANCH   7   9
HETATM    9  C11 UNL     1     -32.929   9.353   1.752  1.00 20.00     0.024 C 
BRANCH   9  10
HETATM   10  C12 UNL     1     -32.173   9.124   0.452  1.00 20.00    -0.003 C 
HETATM   11  C9  UNL     1     -33.072   9.371  -0.748  1.00 20.00     0.005 C 
ENDBRANCH   9  10
ENDBRANCH   7   9
BRANCH   6  12
HETATM   12  C10 UNL     1     -34.371   4.388   4.475  1.00 20.00     0.000 C 
HETATM   13  C8  UNL     1     -34.596   4.695   5.920  1.00 20.00     0.005 C 
ENDBRANCH   6  12
TORSDOF 3
ENDMDL
MODEL 3
REMARK VINA RESULT:      -4.7      1.528      5.680
REMARK  3 active torsions:
REMARK  status: ('A' for Active; 'I' for Inactive)
REMARK    1  A    between atoms: C6_6  and  C10_10 
REMARK    2  A    between atoms: C7_7  and  C11_11 
REMARK    3  A    between atoms: C11_11  and  C12_12 
ROOT
HETATM    1  C1  UNL     1     -34.730  18.384  -3.127  1.00 20.00     0.069 C 
HETATM    2  C2  UNL     1     -35.573  17.637  -0.239  1.00 20.00     0.006 C 
HETATM    3  C3  UNL     1     -33.287  18.696  -0.402  1.00 20.00     0.006 C 
HETATM    4  C4  UNL     1     -35.220  16.690  -1.389  1.00 20.00     0.025 C 
HETATM    5  C5  UNL     1     -32.927  17.752  -1.552  1.00 20.00     0.025 C 
HETATM    6  C6  UNL     1     -34.326  18.075   0.538  1.00 20.00    -0.015 C 
HETATM    7  C7  UNL     1     -34.156  17.264  -2.347  1.00 20.00     0.049 C 
HETATM    8  N13 UNL     1     -35.181  19.262  -3.739  1.00 20.00    -0.196 NA
ENDROOT
BRANCH   7   9
HETATM    9  C11 UNL     1     -33.719  16.170  -3.337  1.00 20.00     0.024 C 
BRANCH   9  10
HETATM   10  C12 UNL     1     -34.923  15.399  -3.857  1.00 20.00    -0.003 C 
HETATM   11  C9  UNL     1     -34.526  13.992  -4.274  1.00 20.00     0.005 C 
ENDBRANCH   9  10
ENDBRANCH   7   9
BRANCH   6  12
HETATM   12  C10 UNL     1     -34.700  19.052   1.651  1.00 20.00     0.000 C 
HETATM   13  C8  UNL     1     -34.187  18.599   2.979  1.00 20.00     0.005 C 
ENDBRANCH   6  12
TORSDOF 3
ENDMDL
MODEL 4
REMARK VINA RESULT:      -4.6     10.867     11.545
REMARK  3 active torsions:
REMARK  status: ('A' for Active; 'I' for Inactive)
REMARK    1  A    between atoms: C6_6  and  C10_10 
REMARK    2  A    between atoms: C7_7  and  C11_11 
REMARK    3  A    between atoms: C11_11  and  C12_12 
ROOT
HETATM    1  C1  UNL     1     -32.940   5.916   3.088  1.00 20.00     0.069 C 
HETATM    2  C2  UNL     1     -33.750   8.587   1.739  1.00 20.00     0.006 C 
HETATM    3  C3  UNL     1     -31.299   8.432   2.323  1.00 20.00     0.006 C 
HETATM    4  C4  UNL     1     -34.119   8.093   3.140  1.00 20.00     0.025 C 
HETATM    5  C5  UNL     1     -31.660   7.938   3.726  1.00 20.00     0.025 C 
HETATM    6  C6  UNL     1     -32.402   9.317   1.731  1.00 20.00    -0.015 C 
HETATM    7  C7  UNL     1     -33.024   7.220   3.787  1.00 20.00     0.049 C 
HETATM    8  N13 UNL     1     -32.874   4.894   2.540  1.00 20.00    -0.196 NA
ENDROOT
BRANCH   7   9
HETATM    9  C11 UNL     1     -33.391   6.949   5.255  1.00 20.00     0.024 C 
BRANCH   9  10
HETATM   10  C12 UNL     1     -34.722   6.218   5.355  1.00 20.00    -0.003 C 
HETATM   11  C9  UNL     1     -34.519   4.783   5.812  1.00 20.00     0.005 C 
ENDBRANCH   9  10
ENDBRANCH   7   9
BRANCH   6  12
HETATM   12  C10 UNL     1     -32.036   9.760   0.315  1.00 20.00     0.000 C 
HETATM   13  C8  UNL     1     -33.105   9.407  -0.666  1.00 20.00     0.005 C 
ENDBRANCH   6  12
TORSDOF 3
ENDMDL
MODEL 5
REMARK VINA RESULT:      -4.6      1.812      4.939
REMARK  3 active torsions:
REMARK  status: ('A' for Active; 'I' for Inactive)
REMARK    1  A    between atoms: C6_6  and  C10_10 
REMARK    2  A    between atoms: C7_7  and  C11_11 
REMARK    3  A    between atoms: C11_11  and  C12_12 
ROOT
HETATM    1  C1  UNL     1     -33.184  14.664  -4.495  1.00 20.00     0.069 C 
HETATM    2  C2  UNL     1     -33.604  17.155  -2.697  1.00 20.00     0.006 C 
HETATM    3  C3  UNL     1     -35.705  15.817  -3.106  1.00 20.00     0.006 C 
HETATM    4  C4  UNL     1     -33.286  17.121  -4.194  1.00 20.00     0.025 C 
HETATM    5  C5  UNL     1     -35.394  15.778  -4.604  1.00 20.00     0.025 C 
HETATM    6  C6  UNL     1     -35.111  17.060  -2.435  1.00 20.00    -0.015 C 
HETATM    7  C7  UNL     1     -33.888  15.898  -4.918  1.00 20.00     0.049 C 
HETATM    8  N13 UNL     1     -32.633  13.698  -4.164  1.00 20.00    -0.196 NA
ENDROOT
BRANCH   7   9
HETATM    9  C11 UNL     1     -33.695  16.059  -6.435  1.00 20.00     0.024 C 
BRANCH   9  10
HETATM   10  C12 UNL     1     -34.768  15.299  -7.201  1.00 20.00    -0.003 C 
HETATM   11  C9  UNL     1     -34.174  14.098  -7.917  1.00 20.00     0.005 C 
ENDBRANCH   9  10
ENDBRANCH   7   9
BRANCH   6  12
HETATM   12  C10 UNL     1     -35.398  17.052  -0.934  1.00 20.00     0.000 C 
HETATM   13  C8  UNL     1     -34.428  17.904  -0.183  1.00 20.00     0.005 C 
ENDBRANCH   6  12
TORSDOF 3
ENDMDL
MODEL 6
REMARK VINA RESULT:      -4.5      1.152      4.984
REMARK  3 active torsions:
REMARK  status: ('A' for Active; 'I' for Inactive)
REMARK    1  A    between atoms: C6_6  and  C10_10 
REMARK    2  A    between atoms: C7_7  and  C11_11 
REMARK    3  A    between atoms: C11_11  and  C12_12 
ROOT
HETATM    1  C1  UNL     1     -35.235  16.560  -5.619  1.00 20.00     0.069 C 
HETATM    2  C2  UNL     1     -36.035  17.025  -2.661  1.00 20.00     0.006 C 
HETATM    3  C3  UNL     1     -33.635  16.305  -2.976  1.00 20.00     0.006 C 
HETATM    4  C4  UNL     1     -36.498  15.903  -3.593  1.00 20.00     0.025 C 
HETATM    5  C5  UNL     1     -34.091  15.181  -3.910  1.00 20.00     0.025 C 
HETATM    6  C6  UNL     1     -34.720  16.671  -1.956  1.00 20.00    -0.015 C 
HETATM    7  C7  UNL     1     -35.427  15.483  -4.621  1.00 20.00     0.049 C 
HETATM    8  N13 UNL     1     -35.085  17.405  -6.402  1.00 20.00    -0.196 NA
ENDROOT
BRANCH   7   9
HETATM    9  C11 UNL     1     -35.902  14.224  -5.366  1.00 20.00     0.024 C 
BRANCH   9  10
HETATM   10  C12 UNL     1     -34.874  13.786  -6.399  1.00 20.00    -0.003 C 
HETATM   11  C9  UNL     1     -35.538  13.509  -7.738  1.00 20.00     0.005 C 
ENDBRANCH   9  10
ENDBRANCH   7   9
BRANCH   6  12
HETATM   12  C10 UNL     1     -34.257  17.824  -1.067  1.00 20.00     0.000 C 
HETATM   13  C8  UNL     1     -32.797  18.094  -1.229  1.00 20.00     0.005 C 
ENDBRANCH   6  12
TORSDOF 3
ENDMDL
MODEL 7
REMARK VINA RESULT:      -4.5      1.048      4.902
REMARK  3 active torsions:
REMARK  status: ('A' for Active; 'I' for Inactive)
REMARK    1  A    between atoms: C6_6  and  C10_10 
REMARK    2  A    between atoms: C7_7  and  C11_11 
REMARK    3  A    between atoms: C11_11  and  C12_12 
ROOT
HETATM    1  C1  UNL     1     -34.729  18.046  -4.641  1.00 20.00     0.069 C 
HETATM    2  C2  UNL     1     -36.133  17.438  -1.945  1.00 20.00     0.006 C 
HETATM    3  C3  UNL     1     -33.621  17.194  -1.874  1.00 20.00     0.006 C 
HETATM    4  C4  UNL     1     -36.180  16.615  -3.234  1.00 20.00     0.025 C 
HETATM    5  C5  UNL     1     -33.660  16.370  -3.163  1.00 20.00     0.025 C 
HETATM    6  C6  UNL     1     -34.925  17.066  -1.078  1.00 20.00    -0.015 C 
HETATM    7  C7  UNL     1     -34.876  16.693  -4.056  1.00 20.00     0.049 C 
HETATM    8  N13 UNL     1     -34.613  19.106  -5.100  1.00 20.00    -0.196 NA
ENDROOT
BRANCH   7   9
HETATM    9  C11 UNL     1     -34.942  15.680  -5.212  1.00 20.00     0.024 C 
BRANCH   9  10
HETATM   10  C12 UNL     1     -34.896  14.253  -4.685  1.00 20.00    -0.003 C 
HETATM   11  C9  UNL     1     -36.052  13.435  -5.237  1.00 20.00     0.005 C 
ENDBRANCH   9  10
ENDBRANCH   7   9
BRANCH   6  12
HETATM   12  C10 UNL     1     -34.876  17.931   0.180  1.00 20.00     0.000 C 
HETATM   13  C8  UNL     1     -33.534  18.560   0.366  1.00 20.00     0.005 C 
ENDBRANCH   6  12
TORSDOF 3
ENDMDL
MODEL 8
REMARK VINA RESULT:      -4.5      1.941      2.492
REMARK  3 active torsions:
REMARK  status: ('A' for Active; 'I' for Inactive)
REMARK    1  A    between atoms: C6_6  and  C10_10 
REMARK    2  A    between atoms: C7_7  and  C11_11 
REMARK    3  A    between atoms: C11_11  and  C12_12 
ROOT
HETATM    1  C1  UNL     1     -33.200  14.600  -4.142  1.00 20.00     0.069 C 
HETATM    2  C2  UNL     1     -36.043  14.845  -5.355  1.00 20.00     0.006 C 
HETATM    3  C3  UNL     1     -34.268  16.107  -6.633  1.00 20.00     0.006 C 
HETATM    4  C4  UNL     1     -35.527  15.442  -4.043  1.00 20.00     0.025 C 
HETATM    5  C5  UNL     1     -33.746  16.707  -5.325  1.00 20.00     0.025 C 
HETATM    6  C6  UNL     1     -35.760  15.767  -6.547  1.00 20.00    -0.015 C 
HETATM    7  C7  UNL     1     -34.033  15.824  -4.092  1.00 20.00     0.049 C 
HETATM    8  N13 UNL     1     -32.548  13.640  -4.182  1.00 20.00    -0.196 NA
ENDROOT
BRANCH   7   9
HETATM    9  C11 UNL     1     -33.663  16.598  -2.815  1.00 20.00     0.024 C 
BRANCH   9  10
HETATM   10  C12 UNL     1     -34.863  16.713  -1.886  1.00 20.00    -0.003 C 
HETATM   11  C9  UNL     1     -34.533  17.583  -0.683  1.00 20.00     0.005 C 
ENDBRANCH   9  10
ENDBRANCH   7   9
BRANCH   6  12
HETATM   12  C10 UNL     1     -36.244  15.130  -7.848  1.00 20.00     0.000 C 
HETATM   13  C8  UNL     1     -35.891  13.681  -7.918  1.00 20.00     0.005 C 
ENDBRANCH   6  12
TORSDOF 3
ENDMDL
MODEL 9
REMARK VINA RESULT:      -4.4      2.116      4.933
REMARK  3 active torsions:
REMARK  status: ('A' for Active; 'I' for Inactive)
REMARK    1  A    between atoms: C6_6  and  C10_10 
REMARK    2  A    between atoms: C7_7  and  C11_11 
REMARK    3  A    between atoms: C11_11  and  C12_12 
ROOT
HETATM    1  C1  UNL     1     -34.569  14.670  -4.302  1.00 20.00     0.069 C 
HETATM    2  C2  UNL     1     -33.390  17.049  -2.701  1.00 20.00     0.006 C 
HETATM    3  C3  UNL     1     -35.853  16.664  -2.306  1.00 20.00     0.006 C 
HETATM    4  C4  UNL     1     -33.614  16.954  -4.213  1.00 20.00     0.025 C 
HETATM    5  C5  UNL     1     -36.085  16.567  -3.815  1.00 20.00     0.025 C 
HETATM    6  C6  UNL     1     -34.644  17.545  -1.972  1.00 20.00    -0.015 C 
HETATM    7  C7  UNL     1     -34.839  16.097  -4.595  1.00 20.00     0.049 C 
HETATM    8  N13 UNL     1     -34.357  13.552  -4.073  1.00 20.00    -0.196 NA
ENDROOT
BRANCH   7   9
HETATM    9  C11 UNL     1     -35.103  16.231  -6.104  1.00 20.00     0.024 C 
BRANCH   9  10
HETATM   10  C12 UNL     1     -33.796  16.358  -6.873  1.00 20.00    -0.003 C 
HETATM   11  C9  UNL     1     -33.887  17.458  -7.918  1.00 20.00     0.005 C 
ENDBRANCH   9  10
ENDBRANCH   7   9
BRANCH   6  12
HETATM   12  C10 UNL     1     -34.408  17.589  -0.463  1.00 20.00     0.000 C 
HETATM   13  C8  UNL     1     -35.694  17.560   0.297  1.00 20.00     0.005 C 
ENDBRANCH   6  12
TORSDOF 3
ENDMDL
