MODEL 1
REMARK VINA RESULT:      -4.2      0.000      0.000
REMARK  1 active torsions:
REMARK  status: ('A' for Active; 'I' for Inactive)
REMARK    1  A    between atoms: C6_6  and  C8_8 
ROOT
HETATM    1  C1  UNL     1     -34.765  16.354  -5.421  1.00 20.00     0.069 C 
HETATM    2  C2  UNL     1     -34.963  14.040  -4.402  1.00 20.00     0.051 C 
HETATM    3  C3  UNL     1     -36.678  15.793  -3.852  1.00 20.00     0.051 C 
HETATM    4  C4  UNL     1     -35.994  13.433  -5.350  1.00 20.00     0.169 C 
HETATM    5  C5  UNL     1     -37.609  15.085  -4.831  1.00 20.00     0.169 C 
HETATM    6  C6  UNL     1     -35.190  15.549  -4.178  1.00 20.00     0.052 C 
HETATM    7  N9  UNL     1     -34.446  16.960  -6.356  1.00 20.00    -0.196 NA
HETATM    8  O10 UNL     1     -37.318  13.690  -4.889  1.00 20.00    -0.391 OA
ENDROOT
BRANCH   6   9
HETATM    9  C8  UNL     1     -34.361  16.001  -3.036  1.00 20.00     0.020 C 
HETATM   10  C7  UNL     1     -35.192  16.677  -2.001  1.00 20.00     0.007 C 
ENDBRANCH   6   9
TORSDOF 1
ENDMDL
MODEL 2
REMARK VINA RESULT:      -4.1      2.379      3.272
REMARK  1 active torsions:
REMARK  status: ('A' for Active; 'I' for Inactive)
REMARK    1  A    between atoms: C6_6  and  C8_8 
ROOT
HETATM    1  C1  UNL     1     -35.640  13.984  -4.882  1.00 20.00     0.069 C 
HETATM    2  C2  UNL     1     -35.639  16.387  -5.693  1.00 20.00     0.051 C 
HETATM    3  C3  UNL     1     -33.798  15.580  -4.183  1.00 20.00     0.051 C 
HETATM    4  C4  UNL     1     -34.647  16.265  -6.846  1.00 20.00     0.169 C 
HETATM    5  C5  UNL     1     -32.913  15.504  -5.423  1.00 20.00     0.169 C 
HETATM    6  C6  UNL     1     -35.296  15.441  -4.523  1.00 20.00     0.052 C 
HETATM    7  N9  UNL     1     -35.899  12.886  -5.153  1.00 20.00    -0.196 NA
HETATM    8  O10 UNL     1     -33.312  16.474  -6.390  1.00 20.00    -0.391 OA
ENDROOT
BRANCH   6   9
HETATM    9  C8  UNL     1     -36.101  15.822  -3.338  1.00 20.00     0.020 C 
HETATM   10  C7  UNL     1     -35.263  16.505  -2.314  1.00 20.00     0.007 C 
ENDBRANCH   6   9
TORSDOF 1
ENDMDL
MODEL 3
REMARK VINA RESULT:      -4.1      1.699      2.099
REMARK  1 active torsions:
REMARK  status: ('A' for Active; 'I' for Inactive)
REMARK    1  A    between atoms: C6_6  and  C8_8 
ROOT
HETATM    1  C1  UNL     1     -35.467  16.365  -5.832  1.00 20.00     0.069 C 
HETATM    2  C2  UNL     1     -33.858  14.588  -6.660  1.00 20.00     0.051 C 
HETATM    3  C3  UNL     1     -35.066  14.256  -4.481  1.00 20.00     0.051 C 
HETATM    4  C4  UNL     1     -34.855  13.611  -7.277  1.00 20.00     0.169 C 
HETATM    5  C5  UNL     1     -35.993  13.299  -5.224  1.00 20.00     0.169 C 
HETATM    6  C6  UNL     1     -34.430  15.303  -5.419  1.00 20.00     0.052 C 
HETATM    7  N9  UNL     1     -36.248  17.164  -6.143  1.00 20.00    -0.196 NA
HETATM    8  O10 UNL     1     -35.309  12.671  -6.307  1.00 20.00    -0.391 OA
ENDROOT
BRANCH   6   9
HETATM    9  C8  UNL     1     -33.330  15.992  -4.704  1.00 20.00     0.020 C 
HETATM   10  C7  UNL     1     -33.718  16.319  -3.303  1.00 20.00     0.007 C 
ENDBRANCH   6   9
TORSDOF 1
ENDMDL
MODEL 4
REMARK VINA RESULT:      -4.0      2.330      3.529
REMARK  1 active torsions:
REMARK  status: ('A' for Active; 'I' for Inactive)
REMARK    1  A    between atoms: C6_6  and  C8_8 
ROOT
HETATM    1  C1  UNL     1     -35.784  13.807  -5.030  1.00 20.00     0.069 C 
HETATM    2  C2  UNL     1     -35.494  16.199  -5.818  1.00 20.00     0.051 C 
HETATM    3  C3  UNL     1     -34.556  15.498  -3.594  1.00 20.00     0.051 C 
HETATM    4  C4  UNL     1     -34.070  16.117  -6.362  1.00 20.00     0.169 C 
HETATM    5  C5  UNL     1     -33.188  15.456  -4.266  1.00 20.00     0.169 C 
HETATM    6  C6  UNL     1     -35.709  15.282  -4.597  1.00 20.00     0.052 C 
HETATM    7  N9  UNL     1     -35.840  12.695  -5.357  1.00 20.00    -0.196 NA
HETATM    8  O10 UNL     1     -33.120  16.396  -5.337  1.00 20.00    -0.391 OA
ENDROOT
BRANCH   6   9
HETATM    9  C8  UNL     1     -36.992  15.633  -3.945  1.00 20.00     0.020 C 
HETATM   10  C7  UNL     1     -38.153  15.162  -4.750  1.00 20.00     0.007 C 
ENDBRANCH   6   9
TORSDOF 1
ENDMDL
MODEL 5
REMARK VINA RESULT:      -3.9      2.437      3.790
REMARK  1 active torsions:
REMARK  status: ('A' for Active; 'I' for Inactive)
REMARK    1  A    between atoms: C6_6  and  C8_8 
ROOT
HETATM    1  C1  UNL     1     -36.955  14.160  -5.325  1.00 20.00     0.069 C 
HETATM    2  C2  UNL     1     -34.554  14.269  -4.514  1.00 20.00     0.051 C 
HETATM    3  C3  UNL     1     -35.324  15.816  -6.340  1.00 20.00     0.051 C 
HETATM    4  C4  UNL     1     -34.662  15.458  -3.562  1.00 20.00     0.169 C 
HETATM    5  C5  UNL     1     -35.387  16.914  -5.283  1.00 20.00     0.169 C 
HETATM    6  C6  UNL     1     -35.490  14.407  -5.732  1.00 20.00     0.052 C 
HETATM    7  N9  UNL     1     -38.058  13.975  -5.018  1.00 20.00    -0.196 NA
HETATM    8  O10 UNL     1     -34.427  16.683  -4.254  1.00 20.00    -0.391 OA
ENDROOT
BRANCH   6   9
HETATM    9  C8  UNL     1     -35.120  13.393  -6.747  1.00 20.00     0.020 C 
HETATM   10  C7  UNL     1     -34.246  13.978  -7.801  1.00 20.00     0.007 C 
ENDBRANCH   6   9
TORSDOF 1
ENDMDL
MODEL 6
REMARK VINA RESULT:      -3.9      1.360      1.567
REMARK  1 active torsions:
REMARK  status: ('A' for Active; 'I' for Inactive)
REMARK    1  A    between atoms: C6_6  and  C8_8 
ROOT
HETATM    1  C1  UNL     1     -34.284  17.304  -4.816  1.00 20.00     0.069 C 
HETATM    2  C2  UNL     1     -33.262  15.068  -4.197  1.00 20.00     0.051 C 
HETATM    3  C3  UNL     1     -35.614  15.602  -3.487  1.00 20.00     0.051 C 
HETATM    4  C4  UNL     1     -33.869  14.199  -5.295  1.00 20.00     0.169 C 
HETATM    5  C5  UNL     1     -36.085  14.703  -4.626  1.00 20.00     0.169 C 
HETATM    6  C6  UNL     1     -34.214  16.196  -3.749  1.00 20.00     0.052 C 
HETATM    7  N9  UNL     1     -34.338  18.139  -5.619  1.00 20.00    -0.196 NA
HETATM    8  O10 UNL     1     -35.131  13.675  -4.887  1.00 20.00    -0.391 OA
ENDROOT
BRANCH   6   9
HETATM    9  C8  UNL     1     -33.699  16.798  -2.497  1.00 20.00     0.020 C 
HETATM   10  C7  UNL     1     -34.785  16.962  -1.490  1.00 20.00     0.007 C 
ENDBRANCH   6   9
TORSDOF 1
ENDMDL
MODEL 7
REMARK VINA RESULT:      -3.9      2.021      2.724
REMARK  1 active torsions:
REMARK  status: ('A' for Active; 'I' for Inactive)
REMARK    1  A    between atoms: C6_6  and  C8_8 
ROOT
HETATM    1  C1  UNL     1     -35.584  13.903  -4.944  1.00 20.00     0.069 C 
HETATM    2  C2  UNL     1     -36.330  15.928  -3.612  1.00 20.00     0.051 C 
HETATM    3  C3  UNL     1     -35.073  16.248  -5.765  1.00 20.00     0.051 C 
HETATM    4  C4  UNL     1     -37.597  16.286  -4.384  1.00 20.00     0.169 C 
HETATM    5  C5  UNL     1     -36.412  16.587  -6.412  1.00 20.00     0.169 C 
HETATM    6  C6  UNL     1     -35.233  15.343  -4.525  1.00 20.00     0.052 C 
HETATM    7  N9  UNL     1     -35.847  12.819  -5.259  1.00 20.00    -0.196 NA
HETATM    8  O10 UNL     1     -37.301  17.171  -5.462  1.00 20.00    -0.391 OA
ENDROOT
BRANCH   6   9
HETATM    9  C8  UNL     1     -33.952  15.305  -3.783  1.00 20.00     0.020 C 
HETATM   10  C7  UNL     1     -33.791  16.510  -2.921  1.00 20.00     0.007 C 
ENDBRANCH   6   9
TORSDOF 1
ENDMDL
MODEL 8
REMARK VINA RESULT:      -3.8      2.257      3.063
REMARK  1 active torsions:
REMARK  status: ('A' for Active; 'I' for Inactive)
REMARK    1  A    between atoms: C6_6  and  C8_8 
ROOT
HETATM    1  C1  UNL     1     -36.647  15.378  -4.054  1.00 20.00     0.069 C 
HETATM    2  C2  UNL     1     -34.964  17.174  -4.666  1.00 20.00     0.051 C 
HETATM    3  C3  UNL     1     -34.158  14.937  -3.849  1.00 20.00     0.051 C 
HETATM    4  C4  UNL     1     -34.599  16.710  -6.073  1.00 20.00     0.169 C 
HETATM    5  C5  UNL     1     -33.840  14.602  -5.303  1.00 20.00     0.169 C 
HETATM    6  C6  UNL     1     -35.275  15.994  -3.722  1.00 20.00     0.052 C 
HETATM    7  N9  UNL     1     -37.681  14.914  -4.304  1.00 20.00    -0.196 NA
HETATM    8  O10 UNL     1     -33.516  15.783  -6.035  1.00 20.00    -0.391 OA
ENDROOT
BRANCH   6   9
HETATM    9  C8  UNL     1     -35.321  16.487  -2.326  1.00 20.00     0.020 C 
HETATM   10  C7  UNL     1     -33.991  16.995  -1.889  1.00 20.00     0.007 C 
ENDBRANCH   6   9
TORSDOF 1
ENDMDL
MODEL 9
REMARK VINA RESULT:      -3.8      2.363      3.457
REMARK  1 active torsions:
REMARK  status: ('A' for Active; 'I' for Inactive)
REMARK    1  A    between atoms: C6_6  and  C8_8 
ROOT
HETATM    1  C1  UNL     1     -35.246  16.306  -2.616  1.00 20.00     0.069 C 
HETATM    2  C2  UNL     1     -34.582  14.417  -4.172  1.00 20.00     0.051 C 
HETATM    3  C3  UNL     1     -35.028  16.706  -5.111  1.00 20.00     0.051 C 
HETATM    4  C4  UNL     1     -33.095  14.725  -4.324  1.00 20.00     0.169 C 
HETATM    5  C5  UNL     1     -33.515  16.881  -5.208  1.00 20.00     0.169 C 
HETATM    6  C6  UNL     1     -35.432  15.696  -4.017  1.00 20.00     0.052 C 
HETATM    7  N9  UNL     1     -35.106  16.767  -1.561  1.00 20.00    -0.196 NA
HETATM    8  O10 UNL     1     -32.872  15.624  -5.408  1.00 20.00    -0.391 OA
ENDROOT
BRANCH   6   9
HETATM    9  C8  UNL     1     -36.863  15.350  -4.180  1.00 20.00     0.020 C 
HETATM   10  C7  UNL     1     -37.043  14.237  -5.153  1.00 20.00     0.007 C 
ENDBRANCH   6   9
TORSDOF 1
ENDMDL
