MODEL 1
REMARK VINA RESULT:      -4.6      0.000      0.000
REMARK  2 active torsions:
REMARK  status: ('A' for Active; 'I' for Inactive)
REMARK    1  A    between atoms: C6_6  and  C10_10 
REMARK    2  A    between atoms: C7_7  and  C11_11 
ROOT
HETATM    1  C1  UNL     1     -35.629  13.907  -5.022  1.00 20.00     0.069 C 
HETATM    2  C2  UNL     1     -33.353  16.953  -4.518  1.00 20.00     0.002 C 
HETATM    3  C3  UNL     1     -33.602  17.115  -3.022  1.00 20.00     0.005 C 
HETATM    4  C4  UNL     1     -33.846  15.602  -5.030  1.00 20.00     0.024 C 
HETATM    5  C5  UNL     1     -35.569  15.534  -3.176  1.00 20.00     0.029 C 
HETATM    6  C6  UNL     1     -35.076  16.897  -2.662  1.00 20.00    -0.013 C 
HETATM    7  C7  UNL     1     -35.325  15.320  -4.688  1.00 20.00     0.049 C 
HETATM    8  N12 UNL     1     -35.868  12.803  -5.284  1.00 20.00    -0.196 NA
ENDROOT
BRANCH   7   9
HETATM    9  C11 UNL     1     -36.259  16.213  -5.525  1.00 20.00     0.020 C 
HETATM   10  C9  UNL     1     -36.006  16.043  -6.982  1.00 20.00     0.007 C 
ENDBRANCH   7   9
BRANCH   6  11
HETATM   11  C10 UNL     1     -35.280  17.006  -1.150  1.00 20.00     0.000 C 
HETATM   12  C8  UNL     1     -34.212  17.830  -0.511  1.00 20.00     0.005 C 
ENDBRANCH   6  11
TORSDOF 2
ENDMDL
MODEL 2
REMARK VINA RESULT:      -4.5      1.202      1.493
REMARK  2 active torsions:
REMARK  status: ('A' for Active; 'I' for Inactive)
REMARK    1  A    between atoms: C6_6  and  C10_10 
REMARK    2  A    between atoms: C7_7  and  C11_11 
ROOT
HETATM    1  C1  UNL     1     -37.199  14.605  -4.938  1.00 20.00     0.069 C 
HETATM    2  C2  UNL     1     -33.391  15.007  -5.172  1.00 20.00     0.002 C 
HETATM    3  C3  UNL     1     -33.179  15.520  -3.751  1.00 20.00     0.005 C 
HETATM    4  C4  UNL     1     -34.783  14.405  -5.354  1.00 20.00     0.024 C 
HETATM    5  C5  UNL     1     -35.667  15.906  -3.517  1.00 20.00     0.029 C 
HETATM    6  C6  UNL     1     -34.267  16.517  -3.336  1.00 20.00    -0.013 C 
HETATM    7  C7  UNL     1     -35.923  15.361  -4.941  1.00 20.00     0.049 C 
HETATM    8  N12 UNL     1     -38.198  14.015  -4.935  1.00 20.00    -0.196 NA
ENDROOT
BRANCH   7   9
HETATM    9  C11 UNL     1     -36.062  16.514  -5.952  1.00 20.00     0.020 C 
HETATM   10  C9  UNL     1     -36.292  16.000  -7.330  1.00 20.00     0.007 C 
ENDBRANCH   7   9
BRANCH   6  11
HETATM   11  C10 UNL     1     -34.059  16.964  -1.889  1.00 20.00     0.000 C 
HETATM   12  C8  UNL     1     -35.344  16.978  -1.129  1.00 20.00     0.005 C 
ENDBRANCH   6  11
TORSDOF 2
ENDMDL
MODEL 3
REMARK VINA RESULT:      -4.5      1.633      2.543
REMARK  2 active torsions:
REMARK  status: ('A' for Active; 'I' for Inactive)
REMARK    1  A    between atoms: C6_6  and  C10_10 
REMARK    2  A    between atoms: C7_7  and  C11_11 
ROOT
HETATM    1  C1  UNL     1     -33.849  15.742  -5.679  1.00 20.00     0.069 C 
HETATM    2  C2  UNL     1     -36.947  16.575  -3.575  1.00 20.00     0.002 C 
HETATM    3  C3  UNL     1     -36.211  17.315  -2.462  1.00 20.00     0.005 C 
HETATM    4  C4  UNL     1     -36.059  16.372  -4.801  1.00 20.00     0.024 C 
HETATM    5  C5  UNL     1     -34.008  16.416  -3.317  1.00 20.00     0.029 C 
HETATM    6  C6  UNL     1     -34.901  16.616  -2.082  1.00 20.00    -0.013 C 
HETATM    7  C7  UNL     1     -34.717  15.680  -4.478  1.00 20.00     0.049 C 
HETATM    8  N12 UNL     1     -33.170  15.790  -6.618  1.00 20.00    -0.196 NA
ENDROOT
BRANCH   7   9
HETATM    9  C11 UNL     1     -34.936  14.196  -4.132  1.00 20.00     0.020 C 
HETATM   10  C9  UNL     1     -35.779  13.522  -5.158  1.00 20.00     0.007 C 
ENDBRANCH   7   9
BRANCH   6  11
HETATM   11  C10 UNL     1     -34.161  17.415  -1.008  1.00 20.00     0.000 C 
HETATM   12  C8  UNL     1     -32.889  17.992  -1.533  1.00 20.00     0.005 C 
ENDBRANCH   6  11
TORSDOF 2
ENDMDL
MODEL 4
REMARK VINA RESULT:      -4.4      2.429      3.044
REMARK  2 active torsions:
REMARK  status: ('A' for Active; 'I' for Inactive)
REMARK    1  A    between atoms: C6_6  and  C10_10 
REMARK    2  A    between atoms: C7_7  and  C11_11 
ROOT
HETATM    1  C1  UNL     1     -37.123  14.222  -5.183  1.00 20.00     0.069 C 
HETATM    2  C2  UNL     1     -33.364  14.417  -4.442  1.00 20.00     0.002 C 
HETATM    3  C3  UNL     1     -33.196  15.898  -4.766  1.00 20.00     0.005 C 
HETATM    4  C4  UNL     1     -34.835  14.033  -4.299  1.00 20.00     0.024 C 
HETATM    5  C5  UNL     1     -35.475  15.920  -5.861  1.00 20.00     0.029 C 
HETATM    6  C6  UNL     1     -33.993  16.304  -6.011  1.00 20.00    -0.013 C 
HETATM    7  C7  UNL     1     -35.693  14.427  -5.520  1.00 20.00     0.049 C 
HETATM    8  N12 UNL     1     -38.241  14.062  -4.920  1.00 20.00    -0.196 NA
ENDROOT
BRANCH   7   9
HETATM    9  C11 UNL     1     -35.363  13.535  -6.731  1.00 20.00     0.020 C 
HETATM   10  C9  UNL     1     -36.182  13.909  -7.917  1.00 20.00     0.007 C 
ENDBRANCH   7   9
BRANCH   6  11
HETATM   11  C10 UNL     1     -33.852  17.804  -6.271  1.00 20.00     0.000 C 
HETATM   12  C8  UNL     1     -33.871  18.586  -5.000  1.00 20.00     0.005 C 
ENDBRANCH   6  11
TORSDOF 2
ENDMDL
MODEL 5
REMARK VINA RESULT:      -4.4      2.189      3.506
REMARK  2 active torsions:
REMARK  status: ('A' for Active; 'I' for Inactive)
REMARK    1  A    between atoms: C6_6  and  C10_10 
REMARK    2  A    between atoms: C7_7  and  C11_11 
ROOT
HETATM    1  C1  UNL     1     -34.370  17.730  -4.785  1.00 20.00     0.069 C 
HETATM    2  C2  UNL     1     -35.507  16.889  -1.219  1.00 20.00     0.002 C 
HETATM    3  C3  UNL     1     -34.505  17.784  -0.498  1.00 20.00     0.005 C 
HETATM    4  C4  UNL     1     -35.585  17.215  -2.710  1.00 20.00     0.024 C 
HETATM    5  C5  UNL     1     -33.198  18.056  -2.645  1.00 20.00     0.029 C 
HETATM    6  C6  UNL     1     -33.117  17.724  -1.146  1.00 20.00    -0.013 C 
HETATM    7  C7  UNL     1     -34.213  17.180  -3.417  1.00 20.00     0.049 C 
HETATM    8  N12 UNL     1     -34.492  18.159  -5.856  1.00 20.00    -0.196 NA
ENDROOT
BRANCH   7   9
HETATM    9  C11 UNL     1     -33.700  15.734  -3.546  1.00 20.00     0.020 C 
HETATM   10  C9  UNL     1     -34.714  14.859  -4.196  1.00 20.00     0.007 C 
ENDBRANCH   7   9
BRANCH   6  11
HETATM   11  C10 UNL     1     -32.154  18.678  -0.437  1.00 20.00     0.000 C 
HETATM   12  C8  UNL     1     -32.546  18.896   0.986  1.00 20.00     0.005 C 
ENDBRANCH   6  11
TORSDOF 2
ENDMDL
MODEL 6
REMARK VINA RESULT:      -4.4      1.157      1.333
REMARK  2 active torsions:
REMARK  status: ('A' for Active; 'I' for Inactive)
REMARK    1  A    between atoms: C6_6  and  C10_10 
REMARK    2  A    between atoms: C7_7  and  C11_11 
ROOT
HETATM    1  C1  UNL     1     -35.553  13.941  -4.971  1.00 20.00     0.069 C 
HETATM    2  C2  UNL     1     -33.292  16.429  -3.123  1.00 20.00     0.002 C 
HETATM    3  C3  UNL     1     -34.374  17.014  -2.220  1.00 20.00     0.005 C 
HETATM    4  C4  UNL     1     -33.755  15.137  -3.794  1.00 20.00     0.024 C 
HETATM    5  C5  UNL     1     -36.156  15.924  -3.644  1.00 20.00     0.029 C 
HETATM    6  C6  UNL     1     -35.692  17.227  -2.973  1.00 20.00    -0.013 C 
HETATM    7  C7  UNL     1     -35.086  15.288  -4.561  1.00 20.00     0.049 C 
HETATM    8  N12 UNL     1     -35.918  12.888  -5.293  1.00 20.00    -0.196 NA
ENDROOT
BRANCH   7   9
HETATM    9  C11 UNL     1     -34.890  16.126  -5.837  1.00 20.00     0.020 C 
HETATM   10  C9  UNL     1     -33.855  15.527  -6.724  1.00 20.00     0.007 C 
ENDBRANCH   7   9
BRANCH   6  11
HETATM   11  C10 UNL     1     -36.769  17.756  -2.025  1.00 20.00     0.000 C 
HETATM   12  C8  UNL     1     -36.265  17.860  -0.624  1.00 20.00     0.005 C 
ENDBRANCH   6  11
TORSDOF 2
ENDMDL
MODEL 7
REMARK VINA RESULT:      -4.3      1.463      1.920
REMARK  2 active torsions:
REMARK  status: ('A' for Active; 'I' for Inactive)
REMARK    1  A    between atoms: C6_6  and  C10_10 
REMARK    2  A    between atoms: C7_7  and  C11_11 
ROOT
HETATM    1  C1  UNL     1     -35.186  13.402  -6.534  1.00 20.00     0.069 C 
HETATM    2  C2  UNL     1     -34.012  17.054  -6.568  1.00 20.00     0.002 C 
HETATM    3  C3  UNL     1     -33.545  17.104  -5.117  1.00 20.00     0.005 C 
HETATM    4  C4  UNL     1     -34.248  15.620  -7.037  1.00 20.00     0.024 C 
HETATM    5  C5  UNL     1     -34.746  14.928  -4.653  1.00 20.00     0.029 C 
HETATM    6  C6  UNL     1     -34.514  16.372  -4.180  1.00 20.00    -0.013 C 
HETATM    7  C7  UNL     1     -35.210  14.827  -6.125  1.00 20.00     0.049 C 
HETATM    8  N12 UNL     1     -35.168  12.287  -6.853  1.00 20.00    -0.196 NA
ENDROOT
BRANCH   7   9
HETATM    9  C11 UNL     1     -36.654  15.337  -6.280  1.00 20.00     0.020 C 
HETATM   10  C9  UNL     1     -37.587  14.597  -5.387  1.00 20.00     0.007 C 
ENDBRANCH   7   9
BRANCH   6  11
HETATM   11  C10 UNL     1     -33.986  16.389  -2.745  1.00 20.00     0.000 C 
HETATM   12  C8  UNL     1     -35.050  16.779  -1.773  1.00 20.00     0.005 C 
ENDBRANCH   6  11
TORSDOF 2
ENDMDL
MODEL 8
REMARK VINA RESULT:      -4.2      1.685      2.493
REMARK  2 active torsions:
REMARK  status: ('A' for Active; 'I' for Inactive)
REMARK    1  A    between atoms: C6_6  and  C10_10 
REMARK    2  A    between atoms: C7_7  and  C11_11 
ROOT
HETATM    1  C1  UNL     1     -34.924  15.470  -3.619  1.00 20.00     0.069 C 
HETATM    2  C2  UNL     1     -32.947  18.220  -1.818  1.00 20.00     0.002 C 
HETATM    3  C3  UNL     1     -33.651  18.091  -0.471  1.00 20.00     0.005 C 
HETATM    4  C4  UNL     1     -33.244  17.029  -2.727  1.00 20.00     0.024 C 
HETATM    5  C5  UNL     1     -35.457  16.686  -1.546  1.00 20.00     0.029 C 
HETATM    6  C6  UNL     1     -35.161  17.887  -0.634  1.00 20.00    -0.013 C 
HETATM    7  C7  UNL     1     -34.753  16.767  -2.921  1.00 20.00     0.049 C 
HETATM    8  N12 UNL     1     -35.059  14.456  -4.166  1.00 20.00    -0.196 NA
ENDROOT
BRANCH   7   9
HETATM    9  C11 UNL     1     -35.389  17.861  -3.797  1.00 20.00     0.020 C 
HETATM   10  C9  UNL     1     -34.666  18.005  -5.091  1.00 20.00     0.007 C 
ENDBRANCH   7   9
BRANCH   6  11
HETATM   11  C10 UNL     1     -35.826  17.701   0.731  1.00 20.00     0.000 C 
HETATM   12  C8  UNL     1     -34.935  18.150   1.841  1.00 20.00     0.005 C 
ENDBRANCH   6  11
TORSDOF 2
ENDMDL
MODEL 9
REMARK VINA RESULT:      -4.2      2.520      4.558
REMARK  2 active torsions:
REMARK  status: ('A' for Active; 'I' for Inactive)
REMARK    1  A    between atoms: C6_6  and  C10_10 
REMARK    2  A    between atoms: C7_7  and  C11_11 
ROOT
HETATM    1  C1  UNL     1     -35.637  17.798  -1.336  1.00 20.00     0.069 C 
HETATM    2  C2  UNL     1     -33.483  18.250  -4.478  1.00 20.00     0.002 C 
HETATM    3  C3  UNL     1     -33.621  16.821  -4.994  1.00 20.00     0.005 C 
HETATM    4  C4  UNL     1     -34.503  18.556  -3.383  1.00 20.00     0.024 C 
HETATM    5  C5  UNL     1     -34.565  16.102  -2.762  1.00 20.00     0.029 C 
HETATM    6  C6  UNL     1     -33.534  15.794  -3.860  1.00 20.00    -0.013 C 
HETATM    7  C7  UNL     1     -34.470  17.546  -2.215  1.00 20.00     0.049 C 
HETATM    8  N12 UNL     1     -36.550  17.995  -0.648  1.00 20.00    -0.196 NA
ENDROOT
BRANCH   7   9
HETATM    9  C11 UNL     1     -33.196  17.729  -1.370  1.00 20.00     0.020 C 
HETATM   10  C9  UNL     1     -33.051  19.138  -0.911  1.00 20.00     0.007 C 
ENDBRANCH   7   9
BRANCH   6  11
HETATM   11  C10 UNL     1     -33.737  14.379  -4.404  1.00 20.00     0.000 C 
HETATM   12  C8  UNL     1     -35.184  14.066  -4.593  1.00 20.00     0.005 C 
ENDBRANCH   6  11
TORSDOF 2
ENDMDL
