MODEL 1
REMARK VINA RESULT:      -6.9      0.000      0.000
REMARK  3 active torsions:
REMARK  status: ('A' for Active; 'I' for Inactive)
REMARK    1  A    between atoms: C3_3  and  C7_7 
REMARK    2  A    between atoms: C3_3  and  C10_10 
REMARK    3  A    between atoms: C8_8  and  C11_11 
ROOT
HETATM    1  C1  UNL     1     -32.779  10.619   1.308  1.00 20.00     0.012 C 
HETATM    2  C2  UNL     1     -32.426   9.475   1.408  1.00 20.00    -0.110 C 
HETATM    3  C10 UNL     1     -31.991   8.078   1.524  1.00 20.00     0.171 C 
ENDROOT
BRANCH   3   4
HETATM    4  C3  UNL     1     -32.509   7.412   2.783  1.00 20.00     0.142 C 
HETATM    5  O12 UNL     1     -32.094   7.688   3.908  1.00 20.00    -0.297 OA
BRANCH   4   6
HETATM    6  C7  UNL     1     -33.587   6.365   2.587  1.00 20.00     0.057 C 
HETATM    7  C4  UNL     1     -33.035   4.989   2.946  1.00 20.00     0.013 C 
HETATM    8  C5  UNL     1     -34.118   4.337   3.796  1.00 20.00     0.005 C 
HETATM    9  C8  UNL     1     -34.742   5.497   4.567  1.00 20.00    -0.014 C 
HETATM   10  C6  UNL     1     -34.755   6.633   3.538  1.00 20.00     0.016 C 
BRANCH   9  11
HETATM   11  C11 UNL     1     -33.945   5.857   5.820  1.00 20.00     0.000 C 
HETATM   12  C9  UNL     1     -34.032   7.317   6.138  1.00 20.00     0.005 C 
ENDBRANCH   9  11
ENDBRANCH   4   6
ENDBRANCH   3   4
TORSDOF 3
ENDMDL
MODEL 2
REMARK VINA RESULT:      -5.6      1.169      1.858
REMARK  3 active torsions:
REMARK  status: ('A' for Active; 'I' for Inactive)
REMARK    1  A    between atoms: C3_3  and  C7_7 
REMARK    2  A    between atoms: C3_3  and  C10_10 
REMARK    3  A    between atoms: C8_8  and  C11_11 
ROOT
HETATM    1  C1  UNL     1     -32.527  10.005   0.850  1.00 20.00     0.012 C 
HETATM    2  C2  UNL     1     -32.137   9.308   1.746  1.00 20.00    -0.110 C 
HETATM    3  C10 UNL     1     -31.654   8.460   2.842  1.00 20.00     0.171 C 
ENDROOT
BRANCH   3   4
HETATM    4  C3  UNL     1     -32.479   7.200   3.009  1.00 20.00     0.142 C 
HETATM    5  O12 UNL     1     -32.063   6.080   2.715  1.00 20.00    -0.297 OA
BRANCH   4   6
HETATM    6  C7  UNL     1     -33.876   7.388   3.566  1.00 20.00     0.057 C 
HETATM    7  C4  UNL     1     -34.814   6.349   2.959  1.00 20.00     0.013 C 
HETATM    8  C5  UNL     1     -35.622   5.812   4.134  1.00 20.00     0.005 C 
HETATM    9  C8  UNL     1     -34.651   5.851   5.311  1.00 20.00    -0.014 C 
HETATM   10  C6  UNL     1     -33.872   7.150   5.077  1.00 20.00     0.016 C 
BRANCH   9  11
HETATM   11  C11 UNL     1     -33.739   4.626   5.351  1.00 20.00     0.000 C 
HETATM   12  C9  UNL     1     -34.049   3.661   4.250  1.00 20.00     0.005 C 
ENDBRANCH   9  11
ENDBRANCH   4   6
ENDBRANCH   3   4
TORSDOF 3
ENDMDL
MODEL 3
REMARK VINA RESULT:      -5.4     10.840     12.106
REMARK  3 active torsions:
REMARK  status: ('A' for Active; 'I' for Inactive)
REMARK    1  A    between atoms: C3_3  and  C7_7 
REMARK    2  A    between atoms: C3_3  and  C10_10 
REMARK    3  A    between atoms: C8_8  and  C11_11 
ROOT
HETATM    1  C1  UNL     1     -38.678  15.152  -4.565  1.00 20.00     0.012 C 
HETATM    2  C2  UNL     1     -37.795  14.906  -5.340  1.00 20.00    -0.110 C 
HETATM    3  C10 UNL     1     -36.720  14.609  -6.294  1.00 20.00     0.171 C 
ENDROOT
BRANCH   3   4
HETATM    4  C3  UNL     1     -35.632  13.743  -5.690  1.00 20.00     0.142 C 
HETATM    5  O12 UNL     1     -35.835  12.606  -5.269  1.00 20.00    -0.297 OA
BRANCH   4   6
HETATM    6  C7  UNL     1     -34.248  14.360  -5.627  1.00 20.00     0.057 C 
HETATM    7  C4  UNL     1     -34.321  15.823  -6.051  1.00 20.00     0.013 C 
HETATM    8  C5  UNL     1     -33.486  16.575  -5.022  1.00 20.00     0.005 C 
HETATM    9  C8  UNL     1     -33.703  15.803  -3.723  1.00 20.00    -0.014 C 
HETATM   10  C6  UNL     1     -33.734  14.343  -4.187  1.00 20.00     0.016 C 
BRANCH   9  11
HETATM   11  C11 UNL     1     -34.989  16.215  -3.011  1.00 20.00     0.000 C 
HETATM   12  C9  UNL     1     -34.716  16.848  -1.683  1.00 20.00     0.005 C 
ENDBRANCH   9  11
ENDBRANCH   4   6
ENDBRANCH   3   4
TORSDOF 3
ENDMDL
MODEL 4
REMARK VINA RESULT:      -5.2      1.710      2.115
REMARK  3 active torsions:
REMARK  status: ('A' for Active; 'I' for Inactive)
REMARK    1  A    between atoms: C3_3  and  C7_7 
REMARK    2  A    between atoms: C3_3  and  C10_10 
REMARK    3  A    between atoms: C8_8  and  C11_11 
ROOT
HETATM    1  C1  UNL     1     -31.327   8.274   3.289  1.00 20.00     0.012 C 
HETATM    2  C2  UNL     1     -32.232   7.658   2.797  1.00 20.00    -0.110 C 
HETATM    3  C10 UNL     1     -33.341   6.911   2.192  1.00 20.00     0.171 C 
ENDROOT
BRANCH   3   4
HETATM    4  C3  UNL     1     -33.361   5.456   2.617  1.00 20.00     0.142 C 
HETATM    5  O12 UNL     1     -32.486   4.652   2.298  1.00 20.00    -0.297 OA
BRANCH   4   6
HETATM    6  C7  UNL     1     -34.538   5.028   3.471  1.00 20.00     0.057 C 
HETATM    7  C4  UNL     1     -34.066   4.041   4.534  1.00 20.00     0.013 C 
HETATM    8  C5  UNL     1     -34.727   4.505   5.825  1.00 20.00     0.005 C 
HETATM    9  C8  UNL     1     -34.784   6.025   5.696  1.00 20.00    -0.014 C 
HETATM   10  C6  UNL     1     -35.111   6.237   4.214  1.00 20.00     0.016 C 
BRANCH   9  11
HETATM   11  C11 UNL     1     -33.472   6.691   6.104  1.00 20.00     0.000 C 
HETATM   12  C9  UNL     1     -33.579   8.184   6.106  1.00 20.00     0.005 C 
ENDBRANCH   9  11
ENDBRANCH   4   6
ENDBRANCH   3   4
TORSDOF 3
ENDMDL
MODEL 5
REMARK VINA RESULT:      -5.1     10.997     12.249
REMARK  3 active torsions:
REMARK  status: ('A' for Active; 'I' for Inactive)
REMARK    1  A    between atoms: C3_3  and  C7_7 
REMARK    2  A    between atoms: C3_3  and  C10_10 
REMARK    3  A    between atoms: C8_8  and  C11_11 
ROOT
HETATM    1  C1  UNL     1     -35.280  17.257  -0.698  1.00 20.00     0.012 C 
HETATM    2  C2  UNL     1     -34.883  16.767  -1.719  1.00 20.00    -0.110 C 
HETATM    3  C10 UNL     1     -34.390  16.172  -2.967  1.00 20.00     0.171 C 
ENDROOT
BRANCH   3   4
HETATM    4  C3  UNL     1     -35.458  15.379  -3.694  1.00 20.00     0.142 C 
HETATM    5  O12 UNL     1     -36.643  15.710  -3.715  1.00 20.00    -0.297 OA
BRANCH   4   6
HETATM    6  C7  UNL     1     -34.988  14.128  -4.409  1.00 20.00     0.057 C 
HETATM    7  C4  UNL     1     -36.087  13.627  -5.340  1.00 20.00     0.013 C 
HETATM    8  C5  UNL     1     -35.377  13.296  -6.647  1.00 20.00     0.005 C 
HETATM    9  C8  UNL     1     -34.255  14.326  -6.739  1.00 20.00    -0.014 C 
HETATM   10  C6  UNL     1     -33.778  14.453  -5.288  1.00 20.00     0.016 C 
BRANCH   9  11
HETATM   11  C11 UNL     1     -34.734  15.657  -7.313  1.00 20.00     0.000 C 
HETATM   12  C9  UNL     1     -33.892  16.803  -6.848  1.00 20.00     0.005 C 
ENDBRANCH   9  11
ENDBRANCH   4   6
ENDBRANCH   3   4
TORSDOF 3
ENDMDL
MODEL 6
REMARK VINA RESULT:      -5.0     11.379     12.505
REMARK  3 active torsions:
REMARK  status: ('A' for Active; 'I' for Inactive)
REMARK    1  A    between atoms: C3_3  and  C7_7 
REMARK    2  A    between atoms: C3_3  and  C10_10 
REMARK    3  A    between atoms: C8_8  and  C11_11 
ROOT
HETATM    1  C1  UNL     1     -37.846  14.365  -5.230  1.00 20.00     0.012 C 
HETATM    2  C2  UNL     1     -36.957  14.689  -5.969  1.00 20.00    -0.110 C 
HETATM    3  C10 UNL     1     -35.875  15.089  -6.877  1.00 20.00     0.171 C 
ENDROOT
BRANCH   3   4
HETATM    4  C3  UNL     1     -34.551  14.444  -6.520  1.00 20.00     0.142 C 
HETATM    5  O12 UNL     1     -34.340  13.237  -6.631  1.00 20.00    -0.297 OA
BRANCH   4   6
HETATM    6  C7  UNL     1     -33.472  15.378  -6.008  1.00 20.00     0.057 C 
HETATM    7  C4  UNL     1     -34.016  16.801  -5.942  1.00 20.00     0.013 C 
HETATM    8  C5  UNL     1     -33.561  17.336  -4.590  1.00 20.00     0.005 C 
HETATM    9  C8  UNL     1     -33.584  16.115  -3.673  1.00 20.00    -0.014 C 
HETATM   10  C6  UNL     1     -33.079  14.989  -4.581  1.00 20.00     0.016 C 
BRANCH   9  11
HETATM   11  C11 UNL     1     -34.977  15.833  -3.117  1.00 20.00     0.000 C 
HETATM   12  C9  UNL     1     -35.293  16.696  -1.936  1.00 20.00     0.005 C 
ENDBRANCH   9  11
ENDBRANCH   4   6
ENDBRANCH   3   4
TORSDOF 3
ENDMDL
MODEL 7
REMARK VINA RESULT:      -5.0     11.147     12.164
REMARK  3 active torsions:
REMARK  status: ('A' for Active; 'I' for Inactive)
REMARK    1  A    between atoms: C3_3  and  C7_7 
REMARK    2  A    between atoms: C3_3  and  C10_10 
REMARK    3  A    between atoms: C8_8  and  C11_11 
ROOT
HETATM    1  C1  UNL     1     -35.334  16.657  -1.901  1.00 20.00     0.012 C 
HETATM    2  C2  UNL     1     -34.574  16.285  -2.753  1.00 20.00    -0.110 C 
HETATM    3  C10 UNL     1     -33.640  15.837  -3.793  1.00 20.00     0.171 C 
ENDROOT
BRANCH   3   4
HETATM    4  C3  UNL     1     -34.167  14.648  -4.572  1.00 20.00     0.142 C 
HETATM    5  O12 UNL     1     -34.324  13.535  -4.074  1.00 20.00    -0.297 OA
BRANCH   4   6
HETATM    6  C7  UNL     1     -34.497  14.901  -6.030  1.00 20.00     0.057 C 
HETATM    7  C4  UNL     1     -34.895  13.590  -6.700  1.00 20.00     0.013 C 
HETATM    8  C5  UNL     1     -36.138  13.924  -7.515  1.00 20.00     0.005 C 
HETATM    9  C8  UNL     1     -36.855  14.990  -6.691  1.00 20.00    -0.014 C 
HETATM   10  C6  UNL     1     -35.704  15.836  -6.138  1.00 20.00     0.016 C 
BRANCH   9  11
HETATM   11  C11 UNL     1     -37.717  14.387  -5.584  1.00 20.00     0.000 C 
HETATM   12  C9  UNL     1     -37.891  15.328  -4.434  1.00 20.00     0.005 C 
ENDBRANCH   9  11
ENDBRANCH   4   6
ENDBRANCH   3   4
TORSDOF 3
ENDMDL
MODEL 8
REMARK VINA RESULT:      -5.0      1.475      4.987
REMARK  3 active torsions:
REMARK  status: ('A' for Active; 'I' for Inactive)
REMARK    1  A    between atoms: C3_3  and  C7_7 
REMARK    2  A    between atoms: C3_3  and  C10_10 
REMARK    3  A    between atoms: C8_8  and  C11_11 
ROOT
HETATM    1  C1  UNL     1     -34.730   5.104   5.833  1.00 20.00     0.012 C 
HETATM    2  C2  UNL     1     -34.278   6.097   5.331  1.00 20.00    -0.110 C 
HETATM    3  C10 UNL     1     -33.727   7.314   4.724  1.00 20.00     0.171 C 
ENDROOT
BRANCH   3   4
HETATM    4  C3  UNL     1     -33.283   7.098   3.291  1.00 20.00     0.142 C 
HETATM    5  O12 UNL     1     -33.927   6.432   2.481  1.00 20.00    -0.297 OA
BRANCH   4   6
HETATM    6  C7  UNL     1     -31.977   7.755   2.893  1.00 20.00     0.057 C 
HETATM    7  C4  UNL     1     -31.675   7.449   1.429  1.00 20.00     0.013 C 
HETATM    8  C5  UNL     1     -31.239   8.780   0.829  1.00 20.00     0.005 C 
HETATM    9  C8  UNL     1     -32.067   9.822   1.578  1.00 20.00    -0.014 C 
HETATM   10  C6  UNL     1     -32.100   9.276   3.009  1.00 20.00     0.016 C 
BRANCH   9  11
HETATM   11  C11 UNL     1     -33.464   9.988   0.986  1.00 20.00     0.000 C 
HETATM   12  C9  UNL     1     -33.475   9.768  -0.494  1.00 20.00     0.005 C 
ENDBRANCH   9  11
ENDBRANCH   4   6
ENDBRANCH   3   4
TORSDOF 3
ENDMDL
MODEL 9
REMARK VINA RESULT:      -4.9     11.114     12.181
REMARK  3 active torsions:
REMARK  status: ('A' for Active; 'I' for Inactive)
REMARK    1  A    between atoms: C3_3  and  C7_7 
REMARK    2  A    between atoms: C3_3  and  C10_10 
REMARK    3  A    between atoms: C8_8  and  C11_11 
ROOT
HETATM    1  C1  UNL     1     -34.808  17.299  -0.815  1.00 20.00     0.012 C 
HETATM    2  C2  UNL     1     -34.292  17.011  -1.860  1.00 20.00    -0.110 C 
HETATM    3  C10 UNL     1     -33.655  16.661  -3.135  1.00 20.00     0.171 C 
ENDROOT
BRANCH   3   4
HETATM    4  C3  UNL     1     -34.663  16.330  -4.217  1.00 20.00     0.142 C 
HETATM    5  O12 UNL     1     -34.704  16.915  -5.298  1.00 20.00    -0.297 OA
BRANCH   4   6
HETATM    6  C7  UNL     1     -35.644  15.220  -3.895  1.00 20.00     0.057 C 
HETATM    7  C4  UNL     1     -37.007  15.552  -4.494  1.00 20.00     0.013 C 
HETATM    8  C5  UNL     1     -37.475  14.260  -5.151  1.00 20.00     0.005 C 
HETATM    9  C8  UNL     1     -36.192  13.605  -5.656  1.00 20.00    -0.014 C 
HETATM   10  C6  UNL     1     -35.184  13.913  -4.543  1.00 20.00     0.016 C 
BRANCH   9  11
HETATM   11  C11 UNL     1     -35.751  14.158  -7.009  1.00 20.00     0.000 C 
HETATM   12  C9  UNL     1     -34.383  13.685  -7.388  1.00 20.00     0.005 C 
ENDBRANCH   9  11
ENDBRANCH   4   6
ENDBRANCH   3   4
TORSDOF 3
ENDMDL
