MODEL 1
REMARK VINA RESULT:      -6.1      0.000      0.000
REMARK  3 active torsions:
REMARK  status: ('A' for Active; 'I' for Inactive)
REMARK    1  A    between atoms: C1_1  and  C7_7 
REMARK    2  A    between atoms: C1_1  and  C9_9 
REMARK    3  A    between atoms: C8_8  and  C9_9 
ROOT
HETATM    1  C1  UNL     1     -33.029   7.285   3.863  1.00 20.00     0.155 C 
HETATM    2  O10 UNL     1     -33.115   7.506   5.070  1.00 20.00    -0.295 OA
ENDROOT
BRANCH   1   3
HETATM    3  C7  UNL     1     -33.943   6.309   3.190  1.00 20.00     0.190 C 
HETATM    4  C3  UNL     1     -35.162   5.981   4.031  1.00 20.00     0.042 C 
HETATM    5  C2  UNL     1     -34.705   4.773   4.813  1.00 20.00     0.029 C 
HETATM    6  C6  UNL     1     -33.812   4.072   3.814  1.00 20.00     0.168 C 
HETATM    7  O11 UNL     1     -33.196   5.100   3.028  1.00 20.00    -0.378 OA
ENDBRANCH   1   3
BRANCH   1   8
HETATM    8  C9  UNL     1     -32.008   7.967   2.971  1.00 20.00     0.085 C 
BRANCH   8   9
HETATM    9  C8  UNL     1     -32.621   8.520   1.698  1.00 20.00    -0.007 A 
HETATM   10  C4  UNL     1     -32.528   9.989   1.389  1.00 20.00     0.005 A 
HETATM   11  C5  UNL     1     -31.737   8.999   0.579  1.00 20.00     0.005 A 
ENDBRANCH   8   9
ENDBRANCH   1   8
TORSDOF 3
ENDMDL
MODEL 2
REMARK VINA RESULT:      -5.9      1.261      1.556
REMARK  3 active torsions:
REMARK  status: ('A' for Active; 'I' for Inactive)
REMARK    1  A    between atoms: C1_1  and  C7_7 
REMARK    2  A    between atoms: C1_1  and  C9_9 
REMARK    3  A    between atoms: C8_8  and  C9_9 
ROOT
HETATM    1  C1  UNL     1     -32.992   6.709   3.029  1.00 20.00     0.155 C 
HETATM    2  O10 UNL     1     -32.631   5.593   2.659  1.00 20.00    -0.295 OA
ENDROOT
BRANCH   1   3
HETATM    3  C7  UNL     1     -34.248   6.890   3.824  1.00 20.00     0.190 C 
HETATM    4  C3  UNL     1     -33.973   7.128   5.297  1.00 20.00     0.042 C 
HETATM    5  C2  UNL     1     -34.001   5.729   5.865  1.00 20.00     0.029 C 
HETATM    6  C6  UNL     1     -35.064   5.067   5.016  1.00 20.00     0.168 C 
HETATM    7  O11 UNL     1     -34.975   5.663   3.715  1.00 20.00    -0.378 OA
ENDBRANCH   1   3
BRANCH   1   8
HETATM    8  C9  UNL     1     -32.212   7.972   2.717  1.00 20.00     0.085 C 
BRANCH   8   9
HETATM    9  C8  UNL     1     -32.696   8.661   1.454  1.00 20.00    -0.007 A 
HETATM   10  C4  UNL     1     -32.536  10.148   1.293  1.00 20.00     0.005 A 
HETATM   11  C5  UNL     1     -31.705   9.210   0.464  1.00 20.00     0.005 A 
ENDBRANCH   8   9
ENDBRANCH   1   8
TORSDOF 3
ENDMDL
MODEL 3
REMARK VINA RESULT:      -5.1      1.184      1.807
REMARK  3 active torsions:
REMARK  status: ('A' for Active; 'I' for Inactive)
REMARK    1  A    between atoms: C1_1  and  C7_7 
REMARK    2  A    between atoms: C1_1  and  C9_9 
REMARK    3  A    between atoms: C8_8  and  C9_9 
ROOT
HETATM    1  C1  UNL     1     -32.390   7.628   3.100  1.00 20.00     0.155 C 
HETATM    2  O10 UNL     1     -31.646   8.404   3.697  1.00 20.00    -0.295 OA
ENDROOT
BRANCH   1   3
HETATM    3  C7  UNL     1     -32.737   6.292   3.680  1.00 20.00     0.190 C 
HETATM    4  C3  UNL     1     -33.829   5.586   2.897  1.00 20.00     0.042 C 
HETATM    5  C2  UNL     1     -35.084   6.043   3.602  1.00 20.00     0.029 C 
HETATM    6  C6  UNL     1     -34.620   6.142   5.038  1.00 20.00     0.168 C 
HETATM    7  O11 UNL     1     -33.243   6.541   4.994  1.00 20.00    -0.378 OA
ENDBRANCH   1   3
BRANCH   1   8
HETATM    8  C9  UNL     1     -33.007   7.952   1.752  1.00 20.00     0.085 C 
BRANCH   8   9
HETATM    9  C8  UNL     1     -32.248   9.034   1.006  1.00 20.00    -0.007 A 
HETATM   10  C4  UNL     1     -32.858   9.693  -0.201  1.00 20.00     0.005 A 
HETATM   11  C5  UNL     1     -32.704  10.465   1.080  1.00 20.00     0.005 A 
ENDBRANCH   8   9
ENDBRANCH   1   8
TORSDOF 3
ENDMDL
MODEL 4
REMARK VINA RESULT:      -4.9      1.114      4.505
REMARK  3 active torsions:
REMARK  status: ('A' for Active; 'I' for Inactive)
REMARK    1  A    between atoms: C1_1  and  C7_7 
REMARK    2  A    between atoms: C1_1  and  C9_9 
REMARK    3  A    between atoms: C8_8  and  C9_9 
ROOT
HETATM    1  C1  UNL     1     -33.515   7.150   4.211  1.00 20.00     0.155 C 
HETATM    2  O10 UNL     1     -33.381   7.627   5.336  1.00 20.00    -0.295 OA
ENDROOT
BRANCH   1   3
HETATM    3  C7  UNL     1     -32.379   7.144   3.235  1.00 20.00     0.190 C 
HETATM    4  C3  UNL     1     -31.420   8.299   3.455  1.00 20.00     0.042 C 
HETATM    5  C2  UNL     1     -31.984   9.369   2.552  1.00 20.00     0.029 C 
HETATM    6  C6  UNL     1     -32.510   8.555   1.391  1.00 20.00     0.168 C 
HETATM    7  O11 UNL     1     -32.959   7.308   1.939  1.00 20.00    -0.378 OA
ENDBRANCH   1   3
BRANCH   1   8
HETATM    8  C9  UNL     1     -34.816   6.540   3.724  1.00 20.00     0.085 C 
BRANCH   8   9
HETATM    9  C8  UNL     1     -35.166   5.253   4.450  1.00 20.00    -0.007 A 
HETATM   10  C4  UNL     1     -34.237   4.072   4.388  1.00 20.00     0.005 A 
HETATM   11  C5  UNL     1     -34.392   4.839   5.671  1.00 20.00     0.005 A 
ENDBRANCH   8   9
ENDBRANCH   1   8
TORSDOF 3
ENDMDL
MODEL 5
REMARK VINA RESULT:      -4.8      1.545      4.825
REMARK  3 active torsions:
REMARK  status: ('A' for Active; 'I' for Inactive)
REMARK    1  A    between atoms: C1_1  and  C7_7 
REMARK    2  A    between atoms: C1_1  and  C9_9 
REMARK    3  A    between atoms: C8_8  and  C9_9 
ROOT
HETATM    1  C1  UNL     1     -32.882   7.366   2.804  1.00 20.00     0.155 C 
HETATM    2  O10 UNL     1     -33.441   6.714   1.924  1.00 20.00    -0.295 OA
ENDROOT
BRANCH   1   3
HETATM    3  C7  UNL     1     -31.846   8.393   2.464  1.00 20.00     0.190 C 
HETATM    4  C3  UNL     1     -32.386   9.808   2.538  1.00 20.00     0.042 C 
HETATM    5  C2  UNL     1     -32.864  10.051   1.127  1.00 20.00     0.029 C 
HETATM    6  C6  UNL     1     -31.847   9.281   0.314  1.00 20.00     0.168 C 
HETATM    7  O11 UNL     1     -31.467   8.149   1.107  1.00 20.00    -0.378 OA
ENDBRANCH   1   3
BRANCH   1   8
HETATM    8  C9  UNL     1     -33.187   7.190   4.280  1.00 20.00     0.085 C 
BRANCH   8   9
HETATM    9  C8  UNL     1     -34.446   6.377   4.524  1.00 20.00    -0.007 A 
HETATM   10  C4  UNL     1     -34.384   4.875   4.553  1.00 20.00     0.005 A 
HETATM   11  C5  UNL     1     -34.631   5.641   5.822  1.00 20.00     0.005 A 
ENDBRANCH   8   9
ENDBRANCH   1   8
TORSDOF 3
ENDMDL
MODEL 6
REMARK VINA RESULT:      -4.6      1.681      4.593
REMARK  3 active torsions:
REMARK  status: ('A' for Active; 'I' for Inactive)
REMARK    1  A    between atoms: C1_1  and  C7_7 
REMARK    2  A    between atoms: C1_1  and  C9_9 
REMARK    3  A    between atoms: C8_8  and  C9_9 
ROOT
HETATM    1  C1  UNL     1     -31.998   8.073   2.838  1.00 20.00     0.155 C 
HETATM    2  O10 UNL     1     -31.546   8.454   3.917  1.00 20.00    -0.295 OA
ENDROOT
BRANCH   1   3
HETATM    3  C7  UNL     1     -31.636   8.766   1.562  1.00 20.00     0.190 C 
HETATM    4  C3  UNL     1     -31.945  10.251   1.600  1.00 20.00     0.042 C 
HETATM    5  C2  UNL     1     -33.350  10.308   1.049  1.00 20.00     0.029 C 
HETATM    6  C6  UNL     1     -33.332   9.193   0.027  1.00 20.00     0.168 C 
HETATM    7  O11 UNL     1     -32.452   8.184   0.541  1.00 20.00    -0.378 OA
ENDBRANCH   1   3
BRANCH   1   8
HETATM    8  C9  UNL     1     -32.943   6.892   2.712  1.00 20.00     0.085 C 
BRANCH   8   9
HETATM    9  C8  UNL     1     -34.147   7.006   3.629  1.00 20.00    -0.007 A 
HETATM   10  C4  UNL     1     -34.899   5.773   4.049  1.00 20.00     0.005 A 
HETATM   11  C5  UNL     1     -34.064   6.521   5.050  1.00 20.00     0.005 A 
ENDBRANCH   8   9
ENDBRANCH   1   8
TORSDOF 3
ENDMDL
MODEL 7
REMARK VINA RESULT:      -4.6     11.043     11.758
REMARK  3 active torsions:
REMARK  status: ('A' for Active; 'I' for Inactive)
REMARK    1  A    between atoms: C1_1  and  C7_7 
REMARK    2  A    between atoms: C1_1  and  C9_9 
REMARK    3  A    between atoms: C8_8  and  C9_9 
ROOT
HETATM    1  C1  UNL     1     -36.194  14.827  -4.440  1.00 20.00     0.155 C 
HETATM    2  O10 UNL     1     -37.362  14.463  -4.553  1.00 20.00    -0.295 OA
ENDROOT
BRANCH   1   3
HETATM    3  C7  UNL     1     -35.065  13.952  -4.890  1.00 20.00     0.190 C 
HETATM    4  C3  UNL     1     -34.116  14.668  -5.832  1.00 20.00     0.042 C 
HETATM    5  C2  UNL     1     -34.697  14.348  -7.188  1.00 20.00     0.029 C 
HETATM    6  C6  UNL     1     -35.225  12.946  -6.981  1.00 20.00     0.168 C 
HETATM    7  O11 UNL     1     -35.657  12.872  -5.616  1.00 20.00    -0.378 OA
ENDBRANCH   1   3
BRANCH   1   8
HETATM    8  C9  UNL     1     -35.802  16.168  -3.846  1.00 20.00     0.085 C 
BRANCH   8   9
HETATM    9  C8  UNL     1     -34.942  16.028  -2.603  1.00 20.00    -0.007 A 
HETATM   10  C4  UNL     1     -33.858  17.030  -2.316  1.00 20.00     0.005 A 
HETATM   11  C5  UNL     1     -35.096  16.997  -1.464  1.00 20.00     0.005 A 
ENDBRANCH   8   9
ENDBRANCH   1   8
TORSDOF 3
ENDMDL
MODEL 8
REMARK VINA RESULT:      -4.5     11.054     12.145
REMARK  3 active torsions:
REMARK  status: ('A' for Active; 'I' for Inactive)
REMARK    1  A    between atoms: C1_1  and  C7_7 
REMARK    2  A    between atoms: C1_1  and  C9_9 
REMARK    3  A    between atoms: C8_8  and  C9_9 
ROOT
HETATM    1  C1  UNL     1     -35.861  13.681  -5.795  1.00 20.00     0.155 C 
HETATM    2  O10 UNL     1     -35.872  12.634  -5.151  1.00 20.00    -0.295 OA
ENDROOT
BRANCH   1   3
HETATM    3  C7  UNL     1     -37.137  14.340  -6.220  1.00 20.00     0.190 C 
HETATM    4  C3  UNL     1     -37.040  15.854  -6.208  1.00 20.00     0.042 C 
HETATM    5  C2  UNL     1     -37.508  16.201  -4.814  1.00 20.00     0.029 C 
HETATM    6  C6  UNL     1     -38.560  15.143  -4.564  1.00 20.00     0.168 C 
HETATM    7  O11 UNL     1     -38.125  13.965  -5.256  1.00 20.00    -0.378 OA
ENDBRANCH   1   3
BRANCH   1   8
HETATM    8  C9  UNL     1     -34.579  14.382  -6.207  1.00 20.00     0.085 C 
BRANCH   8   9
HETATM    9  C8  UNL     1     -33.656  14.650  -5.033  1.00 20.00    -0.007 A 
HETATM   10  C4  UNL     1     -33.265  16.060  -4.683  1.00 20.00     0.005 A 
HETATM   11  C5  UNL     1     -34.190  15.291  -3.782  1.00 20.00     0.005 A 
ENDBRANCH   8   9
ENDBRANCH   1   8
TORSDOF 3
ENDMDL
MODEL 9
REMARK VINA RESULT:      -4.5     10.941     11.757
REMARK  3 active torsions:
REMARK  status: ('A' for Active; 'I' for Inactive)
REMARK    1  A    between atoms: C1_1  and  C7_7 
REMARK    2  A    between atoms: C1_1  and  C9_9 
REMARK    3  A    between atoms: C8_8  and  C9_9 
ROOT
HETATM    1  C1  UNL     1     -33.810  15.752  -4.455  1.00 20.00     0.155 C 
HETATM    2  O10 UNL     1     -33.264  16.710  -4.999  1.00 20.00    -0.295 OA
ENDROOT
BRANCH   1   3
HETATM    3  C7  UNL     1     -33.854  14.410  -5.118  1.00 20.00     0.190 C 
HETATM    4  C3  UNL     1     -34.279  14.496  -6.572  1.00 20.00     0.042 C 
HETATM    5  C2  UNL     1     -35.778  14.328  -6.485  1.00 20.00     0.029 C 
HETATM    6  C6  UNL     1     -35.919  13.361  -5.331  1.00 20.00     0.168 C 
HETATM    7  O11 UNL     1     -34.847  13.650  -4.424  1.00 20.00    -0.378 OA
ENDBRANCH   1   3
BRANCH   1   8
HETATM    8  C9  UNL     1     -34.472  15.846  -3.093  1.00 20.00     0.085 C 
BRANCH   8   9
HETATM    9  C8  UNL     1     -34.356  17.229  -2.480  1.00 20.00    -0.007 A 
HETATM   10  C4  UNL     1     -34.537  17.420  -0.999  1.00 20.00     0.005 A 
HETATM   11  C5  UNL     1     -33.176  17.577  -1.616  1.00 20.00     0.005 A 
ENDBRANCH   8   9
ENDBRANCH   1   8
TORSDOF 3
ENDMDL
