MODEL 1
REMARK VINA RESULT:      -5.3      0.000      0.000
REMARK  2 active torsions:
REMARK  status: ('A' for Active; 'I' for Inactive)
REMARK    1  A    between atoms: C5_5  and  C9_9 
REMARK    2  A    between atoms: C6_6  and  C10_10 
ROOT
HETATM    1  C1  UNL     1     -33.489   7.260   4.903  1.00 20.00     0.069 C 
HETATM    2  C2  UNL     1     -31.235   8.597   2.262  1.00 20.00     0.006 C 
HETATM    3  C3  UNL     1     -31.477   7.998   3.650  1.00 20.00     0.025 C 
HETATM    4  C4  UNL     1     -33.618   8.231   2.625  1.00 20.00     0.029 C 
HETATM    5  C5  UNL     1     -32.595   8.614   1.552  1.00 20.00    -0.013 C 
HETATM    6  C6  UNL     1     -32.846   7.307   3.578  1.00 20.00     0.049 C 
HETATM    7  N11 UNL     1     -33.995   7.224   5.946  1.00 20.00    -0.196 NA
ENDROOT
BRANCH   6   8
HETATM    8  C10 UNL     1     -32.725   5.881   3.021  1.00 20.00     0.020 C 
HETATM    9  C8  UNL     1     -33.945   5.073   3.313  1.00 20.00     0.007 C 
ENDBRANCH   6   8
BRANCH   5  10
HETATM   10  C9  UNL     1     -32.907   9.950   0.895  1.00 20.00     0.000 C 
HETATM   11  C7  UNL     1     -33.268   9.793  -0.550  1.00 20.00     0.005 C 
ENDBRANCH   5  10
TORSDOF 2
ENDMDL
MODEL 2
REMARK VINA RESULT:      -5.0     10.286     11.167
REMARK  2 active torsions:
REMARK  status: ('A' for Active; 'I' for Inactive)
REMARK    1  A    between atoms: C5_5  and  C9_9 
REMARK    2  A    between atoms: C6_6  and  C10_10 
ROOT
HETATM    1  C1  UNL     1     -35.527  13.889  -4.964  1.00 20.00     0.069 C 
HETATM    2  C2  UNL     1     -33.629  16.390  -2.970  1.00 20.00     0.006 C 
HETATM    3  C3  UNL     1     -33.691  15.208  -3.940  1.00 20.00     0.025 C 
HETATM    4  C4  UNL     1     -35.944  15.743  -3.372  1.00 20.00     0.029 C 
HETATM    5  C5  UNL     1     -35.079  16.823  -2.716  1.00 20.00    -0.013 C 
HETATM    6  C6  UNL     1     -35.099  15.237  -4.550  1.00 20.00     0.049 C 
HETATM    7  N11 UNL     1     -35.864  12.829  -5.291  1.00 20.00    -0.196 NA
ENDROOT
BRANCH   6   8
HETATM    8  C10 UNL     1     -35.169  16.186  -5.755  1.00 20.00     0.020 C 
HETATM    9  C8  UNL     1     -33.996  16.008  -6.662  1.00 20.00     0.007 C 
ENDBRANCH   6   8
BRANCH   5  10
HETATM   10  C9  UNL     1     -35.395  17.012  -1.240  1.00 20.00     0.000 C 
HETATM   11  C7  UNL     1     -34.303  17.745  -0.524  1.00 20.00     0.005 C 
ENDBRANCH   5  10
TORSDOF 2
ENDMDL
MODEL 3
REMARK VINA RESULT:      -4.7     10.085     11.184
REMARK  2 active torsions:
REMARK  status: ('A' for Active; 'I' for Inactive)
REMARK    1  A    between atoms: C5_5  and  C9_9 
REMARK    2  A    between atoms: C6_6  and  C10_10 
ROOT
HETATM    1  C1  UNL     1     -36.974  14.450  -4.980  1.00 20.00     0.069 C 
HETATM    2  C2  UNL     1     -33.496  14.960  -3.763  1.00 20.00     0.006 C 
HETATM    3  C3  UNL     1     -34.595  14.087  -4.373  1.00 20.00     0.025 C 
HETATM    4  C4  UNL     1     -35.576  16.218  -3.949  1.00 20.00     0.029 C 
HETATM    5  C5  UNL     1     -34.087  16.370  -3.622  1.00 20.00    -0.013 C 
HETATM    6  C6  UNL     1     -35.632  15.058  -4.953  1.00 20.00     0.049 C 
HETATM    7  N11 UNL     1     -38.030  13.971  -5.001  1.00 20.00    -0.196 NA
ENDROOT
BRANCH   6   8
HETATM    8  C10 UNL     1     -35.249  15.507  -6.370  1.00 20.00     0.020 C 
HETATM    9  C8  UNL     1     -34.734  14.368  -7.186  1.00 20.00     0.007 C 
ENDBRANCH   6   8
BRANCH   5  10
HETATM   10  C9  UNL     1     -33.847  16.982  -2.251  1.00 20.00     0.000 C 
HETATM   11  C7  UNL     1     -35.063  16.902  -1.381  1.00 20.00     0.005 C 
ENDBRANCH   5  10
TORSDOF 2
ENDMDL
MODEL 4
REMARK VINA RESULT:      -4.7      1.222      1.366
REMARK  2 active torsions:
REMARK  status: ('A' for Active; 'I' for Inactive)
REMARK    1  A    between atoms: C5_5  and  C9_9 
REMARK    2  A    between atoms: C6_6  and  C10_10 
ROOT
HETATM    1  C1  UNL     1     -34.553   6.179   3.699  1.00 20.00     0.069 C 
HETATM    2  C2  UNL     1     -31.636   8.457   3.329  1.00 20.00     0.006 C 
HETATM    3  C3  UNL     1     -32.549   7.564   4.173  1.00 20.00     0.025 C 
HETATM    4  C4  UNL     1     -33.415   7.518   1.952  1.00 20.00     0.029 C 
HETATM    5  C5  UNL     1     -32.109   8.315   1.876  1.00 20.00    -0.013 C 
HETATM    6  C6  UNL     1     -33.245   6.618   3.184  1.00 20.00     0.049 C 
HETATM    7  N11 UNL     1     -35.583   5.832   4.105  1.00 20.00    -0.196 NA
ENDROOT
BRANCH   6   8
HETATM    8  C10 UNL     1     -32.378   5.388   2.880  1.00 20.00     0.020 C 
HETATM    9  C8  UNL     1     -33.157   4.330   2.172  1.00 20.00     0.007 C 
ENDBRANCH   6   8
BRANCH   5  10
HETATM   10  C9  UNL     1     -32.277   9.652   1.170  1.00 20.00     0.000 C 
HETATM   11  C7  UNL     1     -32.934   9.501  -0.167  1.00 20.00     0.005 C 
ENDBRANCH   5  10
TORSDOF 2
ENDMDL
MODEL 5
REMARK VINA RESULT:      -4.6     10.461     11.441
REMARK  2 active torsions:
REMARK  status: ('A' for Active; 'I' for Inactive)
REMARK    1  A    between atoms: C5_5  and  C9_9 
REMARK    2  A    between atoms: C6_6  and  C10_10 
ROOT
HETATM    1  C1  UNL     1     -35.283  16.623  -5.224  1.00 20.00     0.069 C 
HETATM    2  C2  UNL     1     -35.110  16.829  -1.514  1.00 20.00     0.006 C 
HETATM    3  C3  UNL     1     -35.880  16.591  -2.815  1.00 20.00     0.025 C 
HETATM    4  C4  UNL     1     -33.642  17.128  -3.437  1.00 20.00     0.029 C 
HETATM    5  C5  UNL     1     -33.641  17.034  -1.908  1.00 20.00    -0.013 C 
HETATM    6  C6  UNL     1     -34.823  16.251  -3.875  1.00 20.00     0.049 C 
HETATM    7  N11 UNL     1     -35.645  16.915  -6.287  1.00 20.00    -0.196 NA
ENDROOT
BRANCH   6   8
HETATM    8  C10 UNL     1     -34.468  14.757  -3.852  1.00 20.00     0.020 C 
HETATM    9  C8  UNL     1     -33.142  14.499  -4.489  1.00 20.00     0.007 C 
ENDBRANCH   6   8
BRANCH   5  10
HETATM   10  C9  UNL     1     -33.011  18.250  -1.246  1.00 20.00     0.000 C 
HETATM   11  C7  UNL     1     -33.532  18.464   0.142  1.00 20.00     0.005 C 
ENDBRANCH   5  10
TORSDOF 2
ENDMDL
MODEL 6
REMARK VINA RESULT:      -4.3      9.910     11.430
REMARK  2 active torsions:
REMARK  status: ('A' for Active; 'I' for Inactive)
REMARK    1  A    between atoms: C5_5  and  C9_9 
REMARK    2  A    between atoms: C6_6  and  C10_10 
ROOT
HETATM    1  C1  UNL     1     -32.417  18.105  -1.156  1.00 20.00     0.069 C 
HETATM    2  C2  UNL     1     -35.611  16.551  -2.262  1.00 20.00     0.006 C 
HETATM    3  C3  UNL     1     -34.786  17.373  -1.269  1.00 20.00     0.025 C 
HETATM    4  C4  UNL     1     -33.295  16.708  -3.006  1.00 20.00     0.029 C 
HETATM    5  C5  UNL     1     -34.686  16.243  -3.447  1.00 20.00    -0.013 C 
HETATM    6  C6  UNL     1     -33.566  17.878  -2.051  1.00 20.00     0.049 C 
HETATM    7  N11 UNL     1     -31.513  18.283  -0.452  1.00 20.00    -0.196 NA
ENDROOT
BRANCH   6   8
HETATM    8  C10 UNL     1     -33.883  19.175  -2.809  1.00 20.00     0.020 C 
HETATM    9  C8  UNL     1     -33.121  19.263  -4.089  1.00 20.00     0.007 C 
ENDBRANCH   6   8
BRANCH   5  10
HETATM   10  C9  UNL     1     -34.713  14.780  -3.860  1.00 20.00     0.000 C 
HETATM   11  C7  UNL     1     -33.344  14.261  -4.175  1.00 20.00     0.005 C 
ENDBRANCH   5  10
TORSDOF 2
ENDMDL
MODEL 7
REMARK VINA RESULT:      -4.3     10.179     11.372
REMARK  2 active torsions:
REMARK  status: ('A' for Active; 'I' for Inactive)
REMARK    1  A    between atoms: C5_5  and  C9_9 
REMARK    2  A    between atoms: C6_6  and  C10_10 
ROOT
HETATM    1  C1  UNL     1     -33.782  17.685  -4.395  1.00 20.00     0.069 C 
HETATM    2  C2  UNL     1     -34.249  14.003  -4.149  1.00 20.00     0.006 C 
HETATM    3  C3  UNL     1     -33.385  15.261  -4.037  1.00 20.00     0.025 C 
HETATM    4  C4  UNL     1     -35.544  15.978  -4.752  1.00 20.00     0.029 C 
HETATM    5  C5  UNL     1     -35.672  14.478  -4.470  1.00 20.00    -0.013 C 
HETATM    6  C6  UNL     1     -34.364  16.433  -3.881  1.00 20.00     0.049 C 
HETATM    7  N11 UNL     1     -33.324  18.671  -4.799  1.00 20.00    -0.196 NA
ENDROOT
BRANCH   6   8
HETATM    8  C10 UNL     1     -34.776  16.627  -2.415  1.00 20.00     0.020 C 
HETATM    9  C8  UNL     1     -33.685  17.262  -1.618  1.00 20.00     0.007 C 
ENDBRANCH   6   8
BRANCH   5  10
HETATM   10  C9  UNL     1     -36.309  13.717  -5.623  1.00 20.00     0.000 C 
HETATM   11  C7  UNL     1     -35.325  13.430  -6.715  1.00 20.00     0.005 C 
ENDBRANCH   5  10
TORSDOF 2
ENDMDL
MODEL 8
REMARK VINA RESULT:      -4.3      2.285      4.530
REMARK  2 active torsions:
REMARK  status: ('A' for Active; 'I' for Inactive)
REMARK    1  A    between atoms: C5_5  and  C9_9 
REMARK    2  A    between atoms: C6_6  and  C10_10 
ROOT
HETATM    1  C1  UNL     1     -31.579   8.352   1.153  1.00 20.00     0.069 C 
HETATM    2  C2  UNL     1     -32.819   7.568   4.571  1.00 20.00     0.006 C 
HETATM    3  C3  UNL     1     -31.810   8.216   3.621  1.00 20.00     0.025 C 
HETATM    4  C4  UNL     1     -33.422   7.114   2.254  1.00 20.00     0.029 C 
HETATM    5  C5  UNL     1     -33.931   6.980   3.692  1.00 20.00    -0.013 C 
HETATM    6  C6  UNL     1     -32.533   8.365   2.275  1.00 20.00     0.049 C 
HETATM    7  N11 UNL     1     -30.827   8.342   0.270  1.00 20.00    -0.196 NA
ENDROOT
BRANCH   6   8
HETATM    8  C10 UNL     1     -33.361   9.657   2.224  1.00 20.00     0.020 C 
HETATM    9  C8  UNL     1     -32.807  10.625   1.231  1.00 20.00     0.007 C 
ENDBRANCH   6   8
BRANCH   5  10
HETATM   10  C9  UNL     1     -34.286   5.547   4.059  1.00 20.00     0.000 C 
HETATM   11  C7  UNL     1     -34.580   5.399   5.519  1.00 20.00     0.005 C 
ENDBRANCH   5  10
TORSDOF 2
ENDMDL
MODEL 9
REMARK VINA RESULT:      -4.1     10.340     11.319
REMARK  2 active torsions:
REMARK  status: ('A' for Active; 'I' for Inactive)
REMARK    1  A    between atoms: C5_5  and  C9_9 
REMARK    2  A    between atoms: C6_6  and  C10_10 
ROOT
HETATM    1  C1  UNL     1     -35.761  13.877  -5.053  1.00 20.00     0.069 C 
HETATM    2  C2  UNL     1     -34.239  17.247  -4.647  1.00 20.00     0.006 C 
HETATM    3  C3  UNL     1     -34.701  16.073  -5.515  1.00 20.00     0.025 C 
HETATM    4  C4  UNL     1     -35.149  15.467  -3.253  1.00 20.00     0.029 C 
HETATM    5  C5  UNL     1     -34.656  16.916  -3.208  1.00 20.00    -0.013 C 
HETATM    6  C6  UNL     1     -35.720  15.298  -4.668  1.00 20.00     0.049 C 
HETATM    7  N11 UNL     1     -35.794  12.758  -5.357  1.00 20.00    -0.196 NA
ENDROOT
BRANCH   6   8
HETATM    8  C10 UNL     1     -37.126  15.901  -4.794  1.00 20.00     0.020 C 
HETATM    9  C8  UNL     1     -38.180  14.843  -4.776  1.00 20.00     0.007 C 
ENDBRANCH   6   8
BRANCH   5  10
HETATM   10  C9  UNL     1     -33.536  17.125  -2.200  1.00 20.00     0.000 C 
HETATM   11  C7  UNL     1     -34.050  17.636  -0.890  1.00 20.00     0.005 C 
ENDBRANCH   5  10
TORSDOF 2
ENDMDL
