MODEL 1
REMARK VINA RESULT:      -6.2      0.000      0.000
REMARK  2 active torsions:
REMARK  status: ('A' for Active; 'I' for Inactive)
REMARK    1  A    between atoms: C2_2  and  C3_3 
REMARK    2  A    between atoms: C3_3  and  C4_4 
ROOT
HETATM    1  C3  UNL     1     -33.649   5.937   3.109  1.00 20.00     0.402 C 
HETATM    2  F7  UNL     1     -34.332   5.926   1.932  1.00 20.00    -0.189 F 
HETATM    3  F8  UNL     1     -32.577   5.121   2.937  1.00 20.00    -0.189 F 
ENDROOT
BRANCH   1   4
HETATM    4  C2  UNL     1     -33.166   7.355   3.358  1.00 20.00     0.313 C 
HETATM    5  C1  UNL     1     -32.427   8.002   2.206  1.00 20.00     0.097 C 
HETATM    6  F5  UNL     1     -34.248   8.127   3.653  1.00 20.00    -0.200 F 
HETATM    7  F6  UNL     1     -32.371   7.376   4.459  1.00 20.00    -0.200 F 
ENDBRANCH   1   4
BRANCH   1   8
HETATM    8  C4  UNL     1     -34.543   5.351   4.174  1.00 20.00     0.460 C 
HETATM    9  F9  UNL     1     -34.181   5.747   5.410  1.00 20.00    -0.165 F 
HETATM   10  F10 UNL     1     -34.483   4.001   4.148  1.00 20.00    -0.165 F 
HETATM   11  F11 UNL     1     -35.831   5.707   3.984  1.00 20.00    -0.165 F 
ENDBRANCH   1   8
TORSDOF 2
ENDMDL
MODEL 2
REMARK VINA RESULT:      -6.2      0.941      3.254
REMARK  2 active torsions:
REMARK  status: ('A' for Active; 'I' for Inactive)
REMARK    1  A    between atoms: C2_2  and  C3_3 
REMARK    2  A    between atoms: C3_3  and  C4_4 
ROOT
HETATM    1  C3  UNL     1     -33.641   6.075   2.953  1.00 20.00     0.402 C 
HETATM    2  F7  UNL     1     -32.692   5.101   2.895  1.00 20.00    -0.189 F 
HETATM    3  F8  UNL     1     -34.326   6.013   1.781  1.00 20.00    -0.189 F 
ENDROOT
BRANCH   1   4
HETATM    4  C2  UNL     1     -34.580   5.747   4.100  1.00 20.00     0.313 C 
HETATM    5  C1  UNL     1     -34.468   4.341   4.651  1.00 20.00     0.097 C 
HETATM    6  F5  UNL     1     -34.333   6.620   5.115  1.00 20.00    -0.200 F 
HETATM    7  F6  UNL     1     -35.863   5.967   3.713  1.00 20.00    -0.200 F 
ENDBRANCH   1   4
BRANCH   1   8
HETATM    8  C4  UNL     1     -32.940   7.408   3.038  1.00 20.00     0.460 C 
HETATM    9  F9  UNL     1     -32.170   7.502   4.141  1.00 20.00    -0.165 F 
HETATM   10  F10 UNL     1     -33.843   8.412   3.087  1.00 20.00    -0.165 F 
HETATM   11  F11 UNL     1     -32.152   7.618   1.962  1.00 20.00    -0.165 F 
ENDBRANCH   1   8
TORSDOF 2
ENDMDL
MODEL 3
REMARK VINA RESULT:      -6.1      0.851      3.203
REMARK  2 active torsions:
REMARK  status: ('A' for Active; 'I' for Inactive)
REMARK    1  A    between atoms: C2_2  and  C3_3 
REMARK    2  A    between atoms: C3_3  and  C4_4 
ROOT
HETATM    1  C3  UNL     1     -33.730   5.901   2.991  1.00 20.00     0.402 C 
HETATM    2  F7  UNL     1     -32.670   5.052   2.909  1.00 20.00    -0.189 F 
HETATM    3  F8  UNL     1     -34.406   5.785   1.818  1.00 20.00    -0.189 F 
ENDROOT
BRANCH   1   4
HETATM    4  C2  UNL     1     -34.619   5.434   4.130  1.00 20.00     0.313 C 
HETATM    5  C1  UNL     1     -34.260   5.973   5.498  1.00 20.00     0.097 C 
HETATM    6  F5  UNL     1     -35.899   5.805   3.852  1.00 20.00    -0.200 F 
HETATM    7  F6  UNL     1     -34.618   4.076   4.178  1.00 20.00    -0.200 F 
ENDBRANCH   1   4
BRANCH   1   8
HETATM    8  C4  UNL     1     -33.196   7.307   3.109  1.00 20.00     0.460 C 
HETATM    9  F9  UNL     1     -34.088   8.140   3.682  1.00 20.00    -0.165 F 
HETATM   10  F10 UNL     1     -32.905   7.805   1.886  1.00 20.00    -0.165 F 
HETATM   11  F11 UNL     1     -32.064   7.342   3.844  1.00 20.00    -0.165 F 
ENDBRANCH   1   8
TORSDOF 2
ENDMDL
MODEL 4
REMARK VINA RESULT:      -6.0      0.713      2.415
REMARK  2 active torsions:
REMARK  status: ('A' for Active; 'I' for Inactive)
REMARK    1  A    between atoms: C2_2  and  C3_3 
REMARK    2  A    between atoms: C3_3  and  C4_4 
ROOT
HETATM    1  C3  UNL     1     -33.880   6.752   4.178  1.00 20.00     0.402 C 
HETATM    2  F7  UNL     1     -32.928   6.955   5.131  1.00 20.00    -0.189 F 
HETATM    3  F8  UNL     1     -34.644   7.875   4.155  1.00 20.00    -0.189 F 
ENDROOT
BRANCH   1   4
HETATM    4  C2  UNL     1     -33.179   6.595   2.841  1.00 20.00     0.313 C 
HETATM    5  C1  UNL     1     -32.440   7.820   2.345  1.00 20.00     0.097 C 
HETATM    6  F5  UNL     1     -32.282   5.575   2.948  1.00 20.00    -0.200 F 
HETATM    7  F6  UNL     1     -34.080   6.212   1.899  1.00 20.00    -0.200 F 
ENDBRANCH   1   4
BRANCH   1   8
HETATM    8  C4  UNL     1     -34.735   5.588   4.613  1.00 20.00     0.460 C 
HETATM    9  F9  UNL     1     -34.194   4.405   4.260  1.00 20.00    -0.165 F 
HETATM   10  F10 UNL     1     -35.957   5.661   4.039  1.00 20.00    -0.165 F 
HETATM   11  F11 UNL     1     -34.912   5.581   5.951  1.00 20.00    -0.165 F 
ENDBRANCH   1   8
TORSDOF 2
ENDMDL
MODEL 5
REMARK VINA RESULT:      -5.9      1.165      3.376
REMARK  2 active torsions:
REMARK  status: ('A' for Active; 'I' for Inactive)
REMARK    1  A    between atoms: C2_2  and  C3_3 
REMARK    2  A    between atoms: C3_3  and  C4_4 
ROOT
HETATM    1  C3  UNL     1     -33.716   6.965   4.144  1.00 20.00     0.402 C 
HETATM    2  F7  UNL     1     -34.591   7.991   3.958  1.00 20.00    -0.189 F 
HETATM    3  F8  UNL     1     -33.105   7.194   5.335  1.00 20.00    -0.189 F 
ENDROOT
BRANCH   1   4
HETATM    4  C2  UNL     1     -34.515   5.676   4.230  1.00 20.00     0.313 C 
HETATM    5  C1  UNL     1     -34.632   5.074   5.614  1.00 20.00     0.097 C 
HETATM    6  F5  UNL     1     -35.772   5.924   3.769  1.00 20.00    -0.200 F 
HETATM    7  F6  UNL     1     -33.977   4.753   3.392  1.00 20.00    -0.200 F 
ENDBRANCH   1   4
BRANCH   1   8
HETATM    8  C4  UNL     1     -32.683   7.026   3.046  1.00 20.00     0.460 C 
HETATM    9  F9  UNL     1     -32.250   5.799   2.693  1.00 20.00    -0.165 F 
HETATM   10  F10 UNL     1     -31.606   7.735   3.451  1.00 20.00    -0.165 F 
HETATM   11  F11 UNL     1     -33.177   7.626   1.942  1.00 20.00    -0.165 F 
ENDBRANCH   1   8
TORSDOF 2
ENDMDL
MODEL 6
REMARK VINA RESULT:      -5.9      1.090      3.257
REMARK  2 active torsions:
REMARK  status: ('A' for Active; 'I' for Inactive)
REMARK    1  A    between atoms: C2_2  and  C3_3 
REMARK    2  A    between atoms: C3_3  and  C4_4 
ROOT
HETATM    1  C3  UNL     1     -33.858   6.695   4.083  1.00 20.00     0.402 C 
HETATM    2  F7  UNL     1     -34.561   7.859   4.027  1.00 20.00    -0.189 F 
HETATM    3  F8  UNL     1     -32.841   6.903   4.959  1.00 20.00    -0.189 F 
ENDROOT
BRANCH   1   4
HETATM    4  C2  UNL     1     -34.777   5.617   4.628  1.00 20.00     0.313 C 
HETATM    5  C1  UNL     1     -34.276   4.197   4.477  1.00 20.00     0.097 C 
HETATM    6  F5  UNL     1     -34.974   5.857   5.954  1.00 20.00    -0.200 F 
HETATM    7  F6  UNL     1     -35.996   5.719   4.037  1.00 20.00    -0.200 F 
ENDBRANCH   1   4
BRANCH   1   8
HETATM    8  C4  UNL     1     -33.278   6.434   2.714  1.00 20.00     0.460 C 
HETATM    9  F9  UNL     1     -32.339   5.467   2.741  1.00 20.00    -0.165 F 
HETATM   10  F10 UNL     1     -32.694   7.552   2.229  1.00 20.00    -0.165 F 
HETATM   11  F11 UNL     1     -34.236   6.059   1.839  1.00 20.00    -0.165 F 
ENDBRANCH   1   8
TORSDOF 2
ENDMDL
MODEL 7
REMARK VINA RESULT:      -5.7      1.341      3.012
REMARK  2 active torsions:
REMARK  status: ('A' for Active; 'I' for Inactive)
REMARK    1  A    between atoms: C2_2  and  C3_3 
REMARK    2  A    between atoms: C3_3  and  C4_4 
ROOT
HETATM    1  C3  UNL     1     -34.657   5.348   4.173  1.00 20.00     0.402 C 
HETATM    2  F7  UNL     1     -34.854   4.001   4.207  1.00 20.00    -0.189 F 
HETATM    3  F8  UNL     1     -35.847   5.900   3.821  1.00 20.00    -0.189 F 
ENDROOT
BRANCH   1   4
HETATM    4  C2  UNL     1     -34.288   5.803   5.573  1.00 20.00     0.313 C 
HETATM    5  C1  UNL     1     -33.807   7.235   5.687  1.00 20.00     0.097 C 
HETATM    6  F5  UNL     1     -35.383   5.661   6.370  1.00 20.00    -0.200 F 
HETATM    7  F6  UNL     1     -33.337   4.978   6.083  1.00 20.00    -0.200 F 
ENDBRANCH   1   4
BRANCH   1   8
HETATM    8  C4  UNL     1     -33.643   5.645   3.097  1.00 20.00     0.460 C 
HETATM    9  F9  UNL     1     -32.784   6.616   3.467  1.00 20.00    -0.165 F 
HETATM   10  F10 UNL     1     -34.262   6.060   1.969  1.00 20.00    -0.165 F 
HETATM   11  F11 UNL     1     -32.921   4.547   2.787  1.00 20.00    -0.165 F 
ENDBRANCH   1   8
TORSDOF 2
ENDMDL
MODEL 8
REMARK VINA RESULT:      -5.7      1.020      2.461
REMARK  2 active torsions:
REMARK  status: ('A' for Active; 'I' for Inactive)
REMARK    1  A    between atoms: C2_2  and  C3_3 
REMARK    2  A    between atoms: C3_3  and  C4_4 
ROOT
HETATM    1  C3  UNL     1     -34.629   5.556   4.094  1.00 20.00     0.402 C 
HETATM    2  F7  UNL     1     -35.872   5.954   3.705  1.00 20.00    -0.189 F 
HETATM    3  F8  UNL     1     -34.707   4.219   4.316  1.00 20.00    -0.189 F 
ENDROOT
BRANCH   1   4
HETATM    4  C2  UNL     1     -33.672   5.820   2.946  1.00 20.00     0.313 C 
HETATM    5  C1  UNL     1     -32.800   7.049   3.095  1.00 20.00     0.097 C 
HETATM    6  F5  UNL     1     -32.856   4.738   2.815  1.00 20.00    -0.200 F 
HETATM    7  F6  UNL     1     -34.370   5.914   1.785  1.00 20.00    -0.200 F 
ENDBRANCH   1   4
BRANCH   1   8
HETATM    8  C4  UNL     1     -34.303   6.249   5.395  1.00 20.00     0.460 C 
HETATM    9  F9  UNL     1     -33.046   5.986   5.804  1.00 20.00    -0.165 F 
HETATM   10  F10 UNL     1     -35.141   5.836   6.371  1.00 20.00    -0.165 F 
HETATM   11  F11 UNL     1     -34.433   7.588   5.284  1.00 20.00    -0.165 F 
ENDBRANCH   1   8
TORSDOF 2
ENDMDL
MODEL 9
REMARK VINA RESULT:      -5.7      1.026      2.617
REMARK  2 active torsions:
REMARK  status: ('A' for Active; 'I' for Inactive)
REMARK    1  A    between atoms: C2_2  and  C3_3 
REMARK    2  A    between atoms: C3_3  and  C4_4 
ROOT
HETATM    1  C3  UNL     1     -34.549   5.934   4.147  1.00 20.00     0.402 C 
HETATM    2  F7  UNL     1     -34.320   7.023   4.931  1.00 20.00    -0.189 F 
HETATM    3  F8  UNL     1     -35.830   6.040   3.710  1.00 20.00    -0.189 F 
ENDROOT
BRANCH   1   4
HETATM    4  C2  UNL     1     -33.606   6.004   2.960  1.00 20.00     0.313 C 
HETATM    5  C1  UNL     1     -32.648   7.177   2.957  1.00 20.00     0.097 C 
HETATM    6  F5  UNL     1     -32.871   4.858   2.932  1.00 20.00    -0.200 F 
HETATM    7  F6  UNL     1     -34.327   6.022   1.809  1.00 20.00    -0.200 F 
ENDBRANCH   1   4
BRANCH   1   8
HETATM    8  C4  UNL     1     -34.428   4.703   5.011  1.00 20.00     0.460 C 
HETATM    9  F9  UNL     1     -34.412   3.572   4.278  1.00 20.00    -0.165 F 
HETATM   10  F10 UNL     1     -35.475   4.619   5.862  1.00 20.00    -0.165 F 
HETATM   11  F11 UNL     1     -33.300   4.733   5.753  1.00 20.00    -0.165 F 
ENDBRANCH   1   8
TORSDOF 2
ENDMDL
