MODEL 1
REMARK VINA RESULT:      -6.0      0.000      0.000
REMARK  4 active torsions:
REMARK  status: ('A' for Active; 'I' for Inactive)
REMARK    1  A    between atoms: C5_5  and  C9_9 
REMARK    2  A    between atoms: C6_6  and  C10_10 
REMARK    3  A    between atoms: C10_10  and  C12_12 
REMARK    4  A    between atoms: C11_11  and  C12_12 
ROOT
HETATM    1  C1  UNL     1     -32.984   5.921   2.760  1.00 20.00     0.069 C 
HETATM    2  C2  UNL     1     -31.177   8.446   2.622  1.00 20.00     0.006 C 
HETATM    3  C3  UNL     1     -31.922   7.882   3.824  1.00 20.00     0.025 C 
HETATM    4  C4  UNL     1     -33.521   8.223   2.013  1.00 20.00     0.029 C 
HETATM    5  C5  UNL     1     -32.289   9.124   1.825  1.00 20.00    -0.013 C 
HETATM    6  C6  UNL     1     -33.215   7.308   3.223  1.00 20.00     0.049 C 
HETATM    7  N13 UNL     1     -32.803   4.833   2.398  1.00 20.00    -0.196 NA
ENDROOT
BRANCH   6   8
HETATM    8  C10 UNL     1     -34.355   7.309   4.244  1.00 20.00     0.024 C 
BRANCH   8   9
HETATM    9  C12 UNL     1     -33.876   6.812   5.603  1.00 20.00     0.001 C 
BRANCH   9  10
HETATM   10  C11 UNL     1     -34.762   5.674   6.113  1.00 20.00    -0.004 C 
HETATM   11  C8  UNL     1     -34.581   4.413   5.285  1.00 20.00     0.005 C 
ENDBRANCH   9  10
ENDBRANCH   8   9
ENDBRANCH   6   8
BRANCH   5  12
HETATM   12  C9  UNL     1     -31.923   9.344   0.366  1.00 20.00     0.000 C 
HETATM   13  C7  UNL     1     -33.134   9.396  -0.512  1.00 20.00     0.005 C 
ENDBRANCH   5  12
TORSDOF 4
ENDMDL
MODEL 2
REMARK VINA RESULT:      -5.1      1.391      5.089
REMARK  4 active torsions:
REMARK  status: ('A' for Active; 'I' for Inactive)
REMARK    1  A    between atoms: C5_5  and  C9_9 
REMARK    2  A    between atoms: C6_6  and  C10_10 
REMARK    3  A    between atoms: C10_10  and  C12_12 
REMARK    4  A    between atoms: C11_11  and  C12_12 
ROOT
HETATM    1  C1  UNL     1     -31.904   7.767   3.365  1.00 20.00     0.069 C 
HETATM    2  C2  UNL     1     -33.259   4.972   3.248  1.00 20.00     0.006 C 
HETATM    3  C3  UNL     1     -32.896   5.896   2.093  1.00 20.00     0.025 C 
HETATM    4  C4  UNL     1     -34.281   7.138   3.673  1.00 20.00     0.029 C 
HETATM    5  C5  UNL     1     -34.514   5.624   3.820  1.00 20.00    -0.013 C 
HETATM    6  C6  UNL     1     -33.122   7.306   2.661  1.00 20.00     0.049 C 
HETATM    7  N13 UNL     1     -30.948   8.129   3.915  1.00 20.00    -0.196 NA
ENDROOT
BRANCH   6   8
HETATM    8  C10 UNL     1     -33.467   8.306   1.556  1.00 20.00     0.024 C 
BRANCH   8   9
HETATM    9  C12 UNL     1     -32.614   9.565   1.667  1.00 20.00     0.001 C 
BRANCH   9  10
HETATM   10  C11 UNL     1     -32.484  10.258   0.311  1.00 20.00    -0.004 C 
HETATM   11  C8  UNL     1     -33.126   9.441  -0.798  1.00 20.00     0.005 C 
ENDBRANCH   9  10
ENDBRANCH   8   9
ENDBRANCH   6   8
BRANCH   5  12
HETATM   12  C9  UNL     1     -34.806   5.197   5.249  1.00 20.00     0.000 C 
HETATM   13  C7  UNL     1     -34.396   6.243   6.239  1.00 20.00     0.005 C 
ENDBRANCH   5  12
TORSDOF 4
ENDMDL
MODEL 3
REMARK VINA RESULT:      -4.9     10.678     11.826
REMARK  4 active torsions:
REMARK  status: ('A' for Active; 'I' for Inactive)
REMARK    1  A    between atoms: C5_5  and  C9_9 
REMARK    2  A    between atoms: C6_6  and  C10_10 
REMARK    3  A    between atoms: C10_10  and  C12_12 
REMARK    4  A    between atoms: C11_11  and  C12_12 
ROOT
HETATM    1  C1  UNL     1     -36.889  14.712  -4.633  1.00 20.00     0.069 C 
HETATM    2  C2  UNL     1     -33.847  14.415  -5.205  1.00 20.00     0.006 C 
HETATM    3  C3  UNL     1     -34.537  14.689  -3.875  1.00 20.00     0.025 C 
HETATM    4  C4  UNL     1     -35.260  16.375  -5.484  1.00 20.00     0.029 C 
HETATM    5  C5  UNL     1     -33.908  15.771  -5.902  1.00 20.00    -0.013 C 
HETATM    6  C6  UNL     1     -35.740  15.567  -4.255  1.00 20.00     0.049 C 
HETATM    7  N13 UNL     1     -37.789  14.041  -4.929  1.00 20.00    -0.196 NA
ENDROOT
BRANCH   6   8
HETATM    8  C10 UNL     1     -36.157  16.477  -3.099  1.00 20.00     0.024 C 
BRANCH   8   9
HETATM    9  C12 UNL     1     -35.052  16.580  -2.054  1.00 20.00     0.001 C 
BRANCH   9  10
HETATM   10  C11 UNL     1     -34.330  17.924  -2.152  1.00 20.00    -0.004 C 
HETATM   11  C8  UNL     1     -32.953  17.866  -1.511  1.00 20.00     0.005 C 
ENDBRANCH   9  10
ENDBRANCH   8   9
ENDBRANCH   6   8
BRANCH   5  12
HETATM   12  C9  UNL     1     -33.733  15.673  -7.408  1.00 20.00     0.000 C 
HETATM   13  C7  UNL     1     -34.040  14.299  -7.918  1.00 20.00     0.005 C 
ENDBRANCH   5  12
TORSDOF 4
ENDMDL
MODEL 4
REMARK VINA RESULT:      -4.9     10.752     12.106
REMARK  4 active torsions:
REMARK  status: ('A' for Active; 'I' for Inactive)
REMARK    1  A    between atoms: C5_5  and  C9_9 
REMARK    2  A    between atoms: C6_6  and  C10_10 
REMARK    3  A    between atoms: C10_10  and  C12_12 
REMARK    4  A    between atoms: C11_11  and  C12_12 
ROOT
HETATM    1  C1  UNL     1     -35.367  13.957  -5.023  1.00 20.00     0.069 C 
HETATM    2  C2  UNL     1     -33.710  15.814  -6.887  1.00 20.00     0.006 C 
HETATM    3  C3  UNL     1     -33.389  15.372  -5.465  1.00 20.00     0.025 C 
HETATM    4  C4  UNL     1     -35.611  16.382  -5.479  1.00 20.00     0.029 C 
HETATM    5  C5  UNL     1     -34.780  16.881  -6.674  1.00 20.00    -0.013 C 
HETATM    6  C6  UNL     1     -34.764  15.289  -4.783  1.00 20.00     0.049 C 
HETATM    7  N13 UNL     1     -35.838  12.913  -5.211  1.00 20.00    -0.196 NA
ENDROOT
BRANCH   6   8
HETATM    8  C10 UNL     1     -34.656  15.521  -3.275  1.00 20.00     0.024 C 
BRANCH   8   9
HETATM    9  C12 UNL     1     -33.642  16.614  -2.958  1.00 20.00     0.001 C 
BRANCH   9  10
HETATM   10  C11 UNL     1     -33.914  17.232  -1.586  1.00 20.00    -0.004 C 
HETATM   11  C8  UNL     1     -35.355  17.018  -1.154  1.00 20.00     0.005 C 
ENDBRANCH   9  10
ENDBRANCH   8   9
ENDBRANCH   6   8
BRANCH   5  12
HETATM   12  C9  UNL     1     -35.614  17.142  -7.917  1.00 20.00     0.000 C 
HETATM   13  C7  UNL     1     -36.994  16.574  -7.795  1.00 20.00     0.005 C 
ENDBRANCH   5  12
TORSDOF 4
ENDMDL
MODEL 5
REMARK VINA RESULT:      -4.8     11.161     11.886
REMARK  4 active torsions:
REMARK  status: ('A' for Active; 'I' for Inactive)
REMARK    1  A    between atoms: C5_5  and  C9_9 
REMARK    2  A    between atoms: C6_6  and  C10_10 
REMARK    3  A    between atoms: C10_10  and  C12_12 
REMARK    4  A    between atoms: C11_11  and  C12_12 
ROOT
HETATM    1  C1  UNL     1     -34.201  17.191  -4.880  1.00 20.00     0.069 C 
HETATM    2  C2  UNL     1     -36.612  15.237  -4.702  1.00 20.00     0.006 C 
HETATM    3  C3  UNL     1     -36.084  16.186  -3.635  1.00 20.00     0.025 C 
HETATM    4  C4  UNL     1     -34.247  14.763  -4.383  1.00 20.00     0.029 C 
HETATM    5  C5  UNL     1     -35.603  14.092  -4.664  1.00 20.00    -0.013 C 
HETATM    6  C6  UNL     1     -34.562  16.184  -3.856  1.00 20.00     0.049 C 
HETATM    7  N13 UNL     1     -33.917  17.982  -5.681  1.00 20.00    -0.196 NA
ENDROOT
BRANCH   6   8
HETATM    8  C10 UNL     1     -33.808  16.496  -2.563  1.00 20.00     0.024 C 
BRANCH   8   9
HETATM    9  C12 UNL     1     -34.757  16.990  -1.477  1.00 20.00     0.001 C 
BRANCH   9  10
HETATM   10  C11 UNL     1     -34.039  17.927  -0.506  1.00 20.00    -0.004 C 
HETATM   11  C8  UNL     1     -32.650  18.290  -1.006  1.00 20.00     0.005 C 
ENDBRANCH   9  10
ENDBRANCH   8   9
ENDBRANCH   6   8
BRANCH   5  12
HETATM   12  C9  UNL     1     -35.607  13.255  -5.932  1.00 20.00     0.000 C 
HETATM   13  C7  UNL     1     -34.590  13.734  -6.922  1.00 20.00     0.005 C 
ENDBRANCH   5  12
TORSDOF 4
ENDMDL
MODEL 6
REMARK VINA RESULT:      -4.7     10.490     11.662
REMARK  4 active torsions:
REMARK  status: ('A' for Active; 'I' for Inactive)
REMARK    1  A    between atoms: C5_5  and  C9_9 
REMARK    2  A    between atoms: C6_6  and  C10_10 
REMARK    3  A    between atoms: C10_10  and  C12_12 
REMARK    4  A    between atoms: C11_11  and  C12_12 
ROOT
HETATM    1  C1  UNL     1     -33.272  14.471  -4.244  1.00 20.00     0.069 C 
HETATM    2  C2  UNL     1     -34.322  16.031  -6.719  1.00 20.00     0.006 C 
HETATM    3  C3  UNL     1     -33.939  16.577  -5.350  1.00 20.00     0.025 C 
HETATM    4  C4  UNL     1     -35.594  14.809  -5.044  1.00 20.00     0.029 C 
HETATM    5  C5  UNL     1     -35.688  15.401  -6.461  1.00 20.00    -0.013 C 
HETATM    6  C6  UNL     1     -34.361  15.465  -4.376  1.00 20.00     0.049 C 
HETATM    7  N13 UNL     1     -32.418  13.692  -4.139  1.00 20.00    -0.196 NA
ENDROOT
BRANCH   6   8
HETATM    8  C10 UNL     1     -34.692  16.028  -2.993  1.00 20.00     0.024 C 
BRANCH   8   9
HETATM    9  C12 UNL     1     -33.574  16.933  -2.485  1.00 20.00     0.001 C 
BRANCH   9  10
HETATM   10  C11 UNL     1     -33.956  17.580  -1.154  1.00 20.00    -0.004 C 
HETATM   11  C8  UNL     1     -35.368  17.203  -0.735  1.00 20.00     0.005 C 
ENDBRANCH   9  10
ENDBRANCH   8   9
ENDBRANCH   6   8
BRANCH   5  12
HETATM   12  C9  UNL     1     -36.078  14.378  -7.515  1.00 20.00     0.000 C 
HETATM   13  C7  UNL     1     -35.242  13.139  -7.427  1.00 20.00     0.005 C 
ENDBRANCH   5  12
TORSDOF 4
ENDMDL
MODEL 7
REMARK VINA RESULT:      -4.6     11.137     12.065
REMARK  4 active torsions:
REMARK  status: ('A' for Active; 'I' for Inactive)
REMARK    1  A    between atoms: C5_5  and  C9_9 
REMARK    2  A    between atoms: C6_6  and  C10_10 
REMARK    3  A    between atoms: C10_10  and  C12_12 
REMARK    4  A    between atoms: C11_11  and  C12_12 
ROOT
HETATM    1  C1  UNL     1     -35.537  17.588  -4.567  1.00 20.00     0.069 C 
HETATM    2  C2  UNL     1     -33.442  17.012  -2.344  1.00 20.00     0.006 C 
HETATM    3  C3  UNL     1     -33.896  16.098  -3.474  1.00 20.00     0.025 C 
HETATM    4  C4  UNL     1     -35.865  16.829  -2.230  1.00 20.00     0.029 C 
HETATM    5  C5  UNL     1     -34.602  16.929  -1.356  1.00 20.00    -0.013 C 
HETATM    6  C6  UNL     1     -35.386  16.436  -3.649  1.00 20.00     0.049 C 
HETATM    7  N13 UNL     1     -35.655  18.490  -5.288  1.00 20.00    -0.196 NA
ENDROOT
BRANCH   6   8
HETATM    8  C10 UNL     1     -36.168  15.247  -4.209  1.00 20.00     0.024 C 
BRANCH   8   9
HETATM    9  C12 UNL     1     -35.235  14.102  -4.583  1.00 20.00     0.001 C 
BRANCH   9  10
HETATM   10  C11 UNL     1     -35.698  13.417  -5.870  1.00 20.00    -0.004 C 
HETATM   11  C8  UNL     1     -34.698  13.613  -6.997  1.00 20.00     0.005 C 
ENDBRANCH   9  10
ENDBRANCH   8   9
ENDBRANCH   6   8
BRANCH   5  12
HETATM   12  C9  UNL     1     -34.637  18.095  -0.382  1.00 20.00     0.000 C 
HETATM   13  C7  UNL     1     -33.262  18.555  -0.011  1.00 20.00     0.005 C 
ENDBRANCH   5  12
TORSDOF 4
ENDMDL
MODEL 8
REMARK VINA RESULT:      -4.6     10.641     12.190
REMARK  4 active torsions:
REMARK  status: ('A' for Active; 'I' for Inactive)
REMARK    1  A    between atoms: C5_5  and  C9_9 
REMARK    2  A    between atoms: C6_6  and  C10_10 
REMARK    3  A    between atoms: C10_10  and  C12_12 
REMARK    4  A    between atoms: C11_11  and  C12_12 
ROOT
HETATM    1  C1  UNL     1     -33.482  14.588  -4.304  1.00 20.00     0.069 C 
HETATM    2  C2  UNL     1     -34.827  16.526  -2.279  1.00 20.00     0.006 C 
HETATM    3  C3  UNL     1     -35.471  15.767  -3.432  1.00 20.00     0.025 C 
HETATM    4  C4  UNL     1     -33.598  17.064  -4.308  1.00 20.00     0.029 C 
HETATM    5  C5  UNL     1     -34.107  17.669  -2.989  1.00 20.00    -0.013 C 
HETATM    6  C6  UNL     1     -34.381  15.745  -4.516  1.00 20.00     0.049 C 
HETATM    7  N13 UNL     1     -32.778  13.680  -4.138  1.00 20.00    -0.196 NA
ENDROOT
BRANCH   6   8
HETATM    8  C10 UNL     1     -34.987  15.654  -5.918  1.00 20.00     0.024 C 
BRANCH   8   9
HETATM    9  C12 UNL     1     -33.914  15.799  -6.992  1.00 20.00     0.001 C 
BRANCH   9  10
HETATM   10  C11 UNL     1     -33.899  14.583  -7.918  1.00 20.00    -0.004 C 
HETATM   11  C8  UNL     1     -35.055  13.642  -7.622  1.00 20.00     0.005 C 
ENDBRANCH   9  10
ENDBRANCH   8   9
ENDBRANCH   6   8
BRANCH   5  12
HETATM   12  C9  UNL     1     -33.004  18.289  -2.147  1.00 20.00     0.000 C 
HETATM   13  C7  UNL     1     -33.263  18.131  -0.681  1.00 20.00     0.005 C 
ENDBRANCH   5  12
TORSDOF 4
ENDMDL
MODEL 9
REMARK VINA RESULT:      -4.6     10.713     12.186
REMARK  4 active torsions:
REMARK  status: ('A' for Active; 'I' for Inactive)
REMARK    1  A    between atoms: C5_5  and  C9_9 
REMARK    2  A    between atoms: C6_6  and  C10_10 
REMARK    3  A    between atoms: C10_10  and  C12_12 
REMARK    4  A    between atoms: C11_11  and  C12_12 
ROOT
HETATM    1  C1  UNL     1     -35.674  13.899  -4.984  1.00 20.00     0.069 C 
HETATM    2  C2  UNL     1     -36.168  16.537  -6.553  1.00 20.00     0.006 C 
HETATM    3  C3  UNL     1     -34.903  16.087  -5.835  1.00 20.00     0.025 C 
HETATM    4  C4  UNL     1     -36.761  16.004  -4.255  1.00 20.00     0.029 C 
HETATM    5  C5  UNL     1     -37.068  16.981  -5.404  1.00 20.00    -0.013 C 
HETATM    6  C6  UNL     1     -35.425  15.311  -4.615  1.00 20.00     0.049 C 
HETATM    7  N13 UNL     1     -35.869  12.792  -5.274  1.00 20.00    -0.196 NA
ENDROOT
BRANCH   6   8
HETATM    8  C10 UNL     1     -34.428  15.353  -3.455  1.00 20.00     0.024 C 
BRANCH   8   9
HETATM    9  C12 UNL     1     -33.803  16.737  -3.317  1.00 20.00     0.001 C 
BRANCH   9  10
HETATM   10  C11 UNL     1     -33.725  17.157  -1.849  1.00 20.00    -0.004 C 
HETATM   11  C8  UNL     1     -35.076  17.038  -1.162  1.00 20.00     0.005 C 
ENDBRANCH   9  10
ENDBRANCH   8   9
ENDBRANCH   6   8
BRANCH   5  12
HETATM   12  C9  UNL     1     -38.539  17.019  -5.783  1.00 20.00     0.000 C 
HETATM   13  C7  UNL     1     -39.052  15.666  -6.170  1.00 20.00     0.005 C 
ENDBRANCH   5  12
TORSDOF 4
ENDMDL
