MODEL 1
REMARK VINA RESULT:      -4.5      0.000      0.000
REMARK  0 active torsions:
REMARK  status: ('A' for Active; 'I' for Inactive)
ROOT
HETATM    1  C1  UNL     1     -32.555   7.198   3.322  1.00 20.00     0.071 C 
HETATM    2  C2  UNL     1     -33.979   5.019   5.759  1.00 20.00     0.034 C 
HETATM    3  C3  UNL     1     -34.350   6.493   5.586  1.00 20.00     0.036 C 
HETATM    4  C4  UNL     1     -33.376   4.834   3.322  1.00 20.00     0.058 C 
HETATM    5  C5  UNL     1     -34.379   4.431   4.408  1.00 20.00     0.123 C 
HETATM    6  C6  UNL     1     -34.840   6.534   4.135  1.00 20.00     0.144 C 
HETATM    7  C7  UNL     1     -33.716   6.324   3.096  1.00 20.00     0.074 C 
HETATM    8  C8  UNL     1     -34.247   6.546   1.673  1.00 20.00     0.034 C 
HETATM    9  N9  UNL     1     -31.639   7.889   3.500  1.00 20.00    -0.196 NA
HETATM   10  O10 UNL     1     -35.520   5.252   4.066  1.00 20.00    -0.379 OA
ENDROOT
TORSDOF 0
ENDMDL
MODEL 2
REMARK VINA RESULT:      -4.2     12.351     13.359
REMARK  0 active torsions:
REMARK  status: ('A' for Active; 'I' for Inactive)
ROOT
HETATM    1  C1  UNL     1     -35.814  13.817  -5.005  1.00 20.00     0.071 C 
HETATM    2  C2  UNL     1     -32.906  15.826  -5.477  1.00 20.00     0.034 C 
HETATM    3  C3  UNL     1     -34.016  15.643  -6.513  1.00 20.00     0.036 C 
HETATM    4  C4  UNL     1     -34.533  15.440  -3.595  1.00 20.00     0.058 C 
HETATM    5  C5  UNL     1     -33.660  16.471  -4.317  1.00 20.00     0.123 C 
HETATM    6  C6  UNL     1     -35.250  16.149  -5.757  1.00 20.00     0.144 C 
HETATM    7  C7  UNL     1     -35.687  15.225  -4.599  1.00 20.00     0.074 C 
HETATM    8  C8  UNL     1     -37.018  15.701  -4.001  1.00 20.00     0.034 C 
HETATM    9  N9  UNL     1     -35.916  12.706  -5.325  1.00 20.00    -0.196 NA
HETATM   10  O10 UNL     1     -34.654  17.250  -5.020  1.00 20.00    -0.379 OA
ENDROOT
TORSDOF 0
ENDMDL
MODEL 3
REMARK VINA RESULT:      -4.2     12.485     13.511
REMARK  0 active torsions:
REMARK  status: ('A' for Active; 'I' for Inactive)
ROOT
HETATM    1  C1  UNL     1     -35.310  13.781  -5.651  1.00 20.00     0.071 C 
HETATM    2  C2  UNL     1     -34.699  16.696  -3.689  1.00 20.00     0.034 C 
HETATM    3  C3  UNL     1     -33.819  15.445  -3.688  1.00 20.00     0.036 C 
HETATM    4  C4  UNL     1     -35.416  16.248  -6.060  1.00 20.00     0.058 C 
HETATM    5  C5  UNL     1     -34.593  17.156  -5.141  1.00 20.00     0.123 C 
HETATM    6  C6  UNL     1     -33.401  15.343  -5.159  1.00 20.00     0.144 C 
HETATM    7  C7  UNL     1     -34.560  14.963  -6.106  1.00 20.00     0.074 C 
HETATM    8  C8  UNL     1     -34.037  14.713  -7.527  1.00 20.00     0.034 C 
HETATM    9  N9  UNL     1     -35.900  12.849  -5.293  1.00 20.00    -0.196 NA
HETATM   10  O10 UNL     1     -33.244  16.753  -5.470  1.00 20.00    -0.379 OA
ENDROOT
TORSDOF 0
ENDMDL
MODEL 4
REMARK VINA RESULT:      -4.1     12.215     13.179
REMARK  0 active torsions:
REMARK  status: ('A' for Active; 'I' for Inactive)
ROOT
HETATM    1  C1  UNL     1     -34.022  16.201  -5.797  1.00 20.00     0.071 C 
HETATM    2  C2  UNL     1     -36.982  14.340  -6.498  1.00 20.00     0.034 C 
HETATM    3  C3  UNL     1     -35.714  14.314  -7.352  1.00 20.00     0.036 C 
HETATM    4  C4  UNL     1     -35.639  14.863  -4.434  1.00 20.00     0.058 C 
HETATM    5  C5  UNL     1     -36.475  13.805  -5.162  1.00 20.00     0.123 C 
HETATM    6  C6  UNL     1     -34.660  13.832  -6.349  1.00 20.00     0.144 C 
HETATM    7  C7  UNL     1     -34.330  14.869  -5.253  1.00 20.00     0.074 C 
HETATM    8  C8  UNL     1     -33.152  14.389  -4.393  1.00 20.00     0.034 C 
HETATM    9  N9  UNL     1     -33.777  17.251  -6.226  1.00 20.00    -0.196 NA
HETATM   10  O10 UNL     1     -35.454  12.878  -5.595  1.00 20.00    -0.379 OA
ENDROOT
TORSDOF 0
ENDMDL
MODEL 5
REMARK VINA RESULT:      -4.1     12.507     13.279
REMARK  0 active torsions:
REMARK  status: ('A' for Active; 'I' for Inactive)
ROOT
HETATM    1  C1  UNL     1     -35.589  15.853  -6.733  1.00 20.00     0.071 C 
HETATM    2  C2  UNL     1     -33.816  15.916  -3.639  1.00 20.00     0.034 C 
HETATM    3  C3  UNL     1     -35.164  15.228  -3.856  1.00 20.00     0.036 C 
HETATM    4  C4  UNL     1     -33.196  15.572  -6.055  1.00 20.00     0.058 C 
HETATM    5  C5  UNL     1     -32.913  15.156  -4.608  1.00 20.00     0.123 C 
HETATM    6  C6  UNL     1     -34.838  14.225  -4.969  1.00 20.00     0.144 C 
HETATM    7  C7  UNL     1     -34.552  14.888  -6.334  1.00 20.00     0.074 C 
HETATM    8  C8  UNL     1     -34.404  13.824  -7.431  1.00 20.00     0.034 C 
HETATM    9  N9  UNL     1     -36.407  16.614  -7.048  1.00 20.00    -0.196 NA
HETATM   10  O10 UNL     1     -33.498  13.835  -4.567  1.00 20.00    -0.379 OA
ENDROOT
TORSDOF 0
ENDMDL
MODEL 6
REMARK VINA RESULT:      -4.0     12.161     13.331
REMARK  0 active torsions:
REMARK  status: ('A' for Active; 'I' for Inactive)
ROOT
HETATM    1  C1  UNL     1     -37.200  14.596  -4.766  1.00 20.00     0.071 C 
HETATM    2  C2  UNL     1     -34.294  14.128  -6.779  1.00 20.00     0.034 C 
HETATM    3  C3  UNL     1     -35.379  15.172  -7.045  1.00 20.00     0.036 C 
HETATM    4  C4  UNL     1     -34.773  14.188  -4.309  1.00 20.00     0.058 C 
HETATM    5  C5  UNL     1     -33.773  14.554  -5.410  1.00 20.00     0.123 C 
HETATM    6  C6  UNL     1     -35.359  15.995  -5.752  1.00 20.00     0.144 C 
HETATM    7  C7  UNL     1     -35.894  15.229  -4.523  1.00 20.00     0.074 C 
HETATM    8  C8  UNL     1     -36.004  16.162  -3.309  1.00 20.00     0.034 C 
HETATM    9  N9  UNL     1     -38.231  14.097  -4.957  1.00 20.00    -0.196 NA
HETATM   10  O10 UNL     1     -33.932  15.990  -5.478  1.00 20.00    -0.379 OA
ENDROOT
TORSDOF 0
ENDMDL
MODEL 7
REMARK VINA RESULT:      -4.0     12.294     13.024
REMARK  0 active torsions:
REMARK  status: ('A' for Active; 'I' for Inactive)
ROOT
HETATM    1  C1  UNL     1     -34.776  16.848  -5.337  1.00 20.00     0.071 C 
HETATM    2  C2  UNL     1     -35.666  13.605  -6.523  1.00 20.00     0.034 C 
HETATM    3  C3  UNL     1     -34.236  14.141  -6.444  1.00 20.00     0.036 C 
HETATM    4  C4  UNL     1     -36.373  15.067  -4.600  1.00 20.00     0.058 C 
HETATM    5  C5  UNL     1     -36.095  13.631  -5.058  1.00 20.00     0.123 C 
HETATM    6  C6  UNL     1     -34.093  14.459  -4.951  1.00 20.00     0.144 C 
HETATM    7  C7  UNL     1     -34.950  15.658  -4.489  1.00 20.00     0.074 C 
HETATM    8  C8  UNL     1     -34.628  16.023  -3.033  1.00 20.00     0.034 C 
HETATM    9  N9  UNL     1     -34.639  17.787  -6.005  1.00 20.00    -0.196 NA
HETATM   10  O10 UNL     1     -34.845  13.351  -4.389  1.00 20.00    -0.379 OA
ENDROOT
TORSDOF 0
ENDMDL
MODEL 8
REMARK VINA RESULT:      -4.0     12.119     13.114
REMARK  0 active torsions:
REMARK  status: ('A' for Active; 'I' for Inactive)
ROOT
HETATM    1  C1  UNL     1     -35.261  13.809  -4.951  1.00 20.00     0.071 C 
HETATM    2  C2  UNL     1     -36.324  17.200  -4.658  1.00 20.00     0.034 C 
HETATM    3  C3  UNL     1     -36.367  16.173  -3.526  1.00 20.00     0.036 C 
HETATM    4  C4  UNL     1     -34.373  16.018  -5.723  1.00 20.00     0.058 C 
HETATM    5  C5  UNL     1     -34.831  17.270  -4.967  1.00 20.00     0.123 C 
HETATM    6  C6  UNL     1     -34.895  15.761  -3.409  1.00 20.00     0.144 C 
HETATM    7  C7  UNL     1     -34.385  14.942  -4.615  1.00 20.00     0.074 C 
HETATM    8  C8  UNL     1     -32.964  14.422  -4.352  1.00 20.00     0.034 C 
HETATM    9  N9  UNL     1     -35.951  12.914  -5.216  1.00 20.00    -0.196 NA
HETATM   10  O10 UNL     1     -34.258  17.043  -3.659  1.00 20.00    -0.379 OA
ENDROOT
TORSDOF 0
ENDMDL
MODEL 9
REMARK VINA RESULT:      -3.9     12.001     12.956
REMARK  0 active torsions:
REMARK  status: ('A' for Active; 'I' for Inactive)
ROOT
HETATM    1  C1  UNL     1     -36.120  16.098  -3.692  1.00 20.00     0.071 C 
HETATM    2  C2  UNL     1     -32.982  15.565  -5.299  1.00 20.00     0.034 C 
HETATM    3  C3  UNL     1     -33.418  14.893  -3.996  1.00 20.00     0.036 C 
HETATM    4  C4  UNL     1     -35.374  15.761  -6.057  1.00 20.00     0.058 C 
HETATM    5  C5  UNL     1     -34.032  15.058  -6.284  1.00 20.00     0.123 C 
HETATM    6  C6  UNL     1     -34.695  14.160  -4.423  1.00 20.00     0.144 C 
HETATM    7  C7  UNL     1     -35.871  15.106  -4.749  1.00 20.00     0.074 C 
HETATM    8  C8  UNL     1     -37.156  14.303  -5.002  1.00 20.00     0.034 C 
HETATM    9  N9  UNL     1     -36.318  16.880  -2.857  1.00 20.00    -0.196 NA
HETATM   10  O10 UNL     1     -34.304  13.739  -5.757  1.00 20.00    -0.379 OA
ENDROOT
TORSDOF 0
ENDMDL
