MODEL 1
REMARK VINA RESULT:      -5.9      0.000      0.000
REMARK  2 active torsions:
REMARK  status: ('A' for Active; 'I' for Inactive)
REMARK    1  A    between atoms: C3_3  and  C8_8 
REMARK    2  A    between atoms: C3_3  and  C9_9 
ROOT
HETATM    1  C1  UNL     1     -32.354   9.476   0.826  1.00 20.00     0.012 C 
HETATM    2  C2  UNL     1     -32.131   8.741   1.748  1.00 20.00    -0.110 C 
HETATM    3  C9  UNL     1     -31.851   7.845   2.877  1.00 20.00     0.171 C 
ENDROOT
BRANCH   3   4
HETATM    4  C3  UNL     1     -32.849   6.710   2.979  1.00 20.00     0.142 C 
HETATM    5  O10 UNL     1     -32.619   5.573   2.569  1.00 20.00    -0.297 OA
BRANCH   4   6
HETATM    6  C8  UNL     1     -34.181   7.049   3.630  1.00 20.00     0.060 C 
HETATM    7  C4  UNL     1     -35.050   5.798   3.680  1.00 20.00     0.038 C 
HETATM    8  C6  UNL     1     -34.643   4.845   4.798  1.00 20.00     0.168 C 
HETATM    9  O11 UNL     1     -34.579   5.527   6.048  1.00 20.00    -0.391 OA
HETATM   10  C7  UNL     1     -33.588   6.553   6.045  1.00 20.00     0.168 C 
HETATM   11  C5  UNL     1     -33.923   7.628   5.016  1.00 20.00     0.038 C 
ENDBRANCH   4   6
ENDBRANCH   3   4
TORSDOF 2
ENDMDL
MODEL 2
REMARK VINA RESULT:      -4.5     11.303     12.288
REMARK  2 active torsions:
REMARK  status: ('A' for Active; 'I' for Inactive)
REMARK    1  A    between atoms: C3_3  and  C8_8 
REMARK    2  A    between atoms: C3_3  and  C9_9 
ROOT
HETATM    1  C1  UNL     1     -35.518  17.394  -0.295  1.00 20.00     0.012 C 
HETATM    2  C2  UNL     1     -34.953  17.024  -1.288  1.00 20.00    -0.110 C 
HETATM    3  C9  UNL     1     -34.256  16.577  -2.500  1.00 20.00     0.171 C 
ENDROOT
BRANCH   3   4
HETATM    4  C3  UNL     1     -35.125  15.702  -3.380  1.00 20.00     0.142 C 
HETATM    5  O10 UNL     1     -36.315  15.933  -3.592  1.00 20.00    -0.297 OA
BRANCH   4   6
HETATM    6  C8  UNL     1     -34.442  14.497  -4.008  1.00 20.00     0.060 C 
HETATM    7  C4  UNL     1     -35.343  13.913  -5.089  1.00 20.00     0.038 C 
HETATM    8  C6  UNL     1     -35.307  14.721  -6.382  1.00 20.00     0.168 C 
HETATM    9  O11 UNL     1     -33.965  14.916  -6.822  1.00 20.00    -0.391 OA
HETATM   10  C7  UNL     1     -33.200  15.668  -5.883  1.00 20.00     0.168 C 
HETATM   11  C5  UNL     1     -33.086  14.925  -4.556  1.00 20.00     0.038 C 
ENDBRANCH   4   6
ENDBRANCH   3   4
TORSDOF 2
ENDMDL
MODEL 3
REMARK VINA RESULT:      -4.4     11.104     12.380
REMARK  2 active torsions:
REMARK  status: ('A' for Active; 'I' for Inactive)
REMARK    1  A    between atoms: C3_3  and  C8_8 
REMARK    2  A    between atoms: C3_3  and  C9_9 
ROOT
HETATM    1  C1  UNL     1     -34.970  16.935  -1.413  1.00 20.00     0.012 C 
HETATM    2  C2  UNL     1     -34.413  16.522  -2.393  1.00 20.00    -0.110 C 
HETATM    3  C9  UNL     1     -33.728  16.024  -3.592  1.00 20.00     0.171 C 
ENDROOT
BRANCH   3   4
HETATM    4  C3  UNL     1     -34.299  14.710  -4.085  1.00 20.00     0.142 C 
HETATM    5  O10 UNL     1     -33.664  13.656  -4.078  1.00 20.00    -0.297 OA
BRANCH   4   6
HETATM    6  C8  UNL     1     -35.729  14.754  -4.598  1.00 20.00     0.060 C 
HETATM    7  C4  UNL     1     -35.899  15.960  -5.515  1.00 20.00     0.038 C 
HETATM    8  C6  UNL     1     -35.311  15.730  -6.902  1.00 20.00     0.168 C 
HETATM    9  O11 UNL     1     -35.813  14.524  -7.473  1.00 20.00    -0.391 OA
HETATM   10  C7  UNL     1     -35.443  13.378  -6.709  1.00 20.00     0.168 C 
HETATM   11  C5  UNL     1     -36.043  13.442  -5.308  1.00 20.00     0.038 C 
ENDBRANCH   4   6
ENDBRANCH   3   4
TORSDOF 2
ENDMDL
MODEL 4
REMARK VINA RESULT:      -4.3     11.422     12.667
REMARK  2 active torsions:
REMARK  status: ('A' for Active; 'I' for Inactive)
REMARK    1  A    between atoms: C3_3  and  C8_8 
REMARK    2  A    between atoms: C3_3  and  C9_9 
ROOT
HETATM    1  C1  UNL     1     -32.595  18.263  -0.976  1.00 20.00     0.012 C 
HETATM    2  C2  UNL     1     -33.238  17.558  -1.705  1.00 20.00    -0.110 C 
HETATM    3  C9  UNL     1     -34.028  16.692  -2.588  1.00 20.00     0.171 C 
ENDROOT
BRANCH   3   4
HETATM    4  C3  UNL     1     -33.616  16.814  -4.041  1.00 20.00     0.142 C 
HETATM    5  O10 UNL     1     -33.645  17.877  -4.661  1.00 20.00    -0.297 OA
BRANCH   4   6
HETATM    6  C8  UNL     1     -33.152  15.533  -4.715  1.00 20.00     0.060 C 
HETATM    7  C4  UNL     1     -33.962  14.359  -4.178  1.00 20.00     0.038 C 
HETATM    8  C6  UNL     1     -35.357  14.282  -4.788  1.00 20.00     0.168 C 
HETATM    9  O11 UNL     1     -35.291  14.306  -6.212  1.00 20.00    -0.391 OA
HETATM   10  C7  UNL     1     -34.731  15.524  -6.699  1.00 20.00     0.168 C 
HETATM   11  C5  UNL     1     -33.290  15.687  -6.225  1.00 20.00     0.038 C 
ENDBRANCH   4   6
ENDBRANCH   3   4
TORSDOF 2
ENDMDL
MODEL 5
REMARK VINA RESULT:      -4.2     11.253     12.701
REMARK  2 active torsions:
REMARK  status: ('A' for Active; 'I' for Inactive)
REMARK    1  A    between atoms: C3_3  and  C8_8 
REMARK    2  A    between atoms: C3_3  and  C9_9 
ROOT
HETATM    1  C1  UNL     1     -34.728  16.658  -2.066  1.00 20.00     0.012 C 
HETATM    2  C2  UNL     1     -34.126  16.185  -2.991  1.00 20.00    -0.110 C 
HETATM    3  C9  UNL     1     -33.385  15.614  -4.121  1.00 20.00     0.171 C 
ENDROOT
BRANCH   3   4
HETATM    4  C3  UNL     1     -34.086  14.415  -4.729  1.00 20.00     0.142 C 
HETATM    5  O10 UNL     1     -34.562  13.502  -4.056  1.00 20.00    -0.297 OA
BRANCH   4   6
HETATM    6  C8  UNL     1     -34.177  14.394  -6.247  1.00 20.00     0.060 C 
HETATM    7  C4  UNL     1     -35.362  13.534  -6.668  1.00 20.00     0.038 C 
HETATM    8  C6  UNL     1     -36.696  14.254  -6.508  1.00 20.00     0.168 C 
HETATM    9  O11 UNL     1     -36.670  15.522  -7.159  1.00 20.00    -0.391 OA
HETATM   10  C7  UNL     1     -35.697  16.394  -6.589  1.00 20.00     0.168 C 
HETATM   11  C5  UNL     1     -34.292  15.825  -6.758  1.00 20.00     0.038 C 
ENDBRANCH   4   6
ENDBRANCH   3   4
TORSDOF 2
ENDMDL
MODEL 6
REMARK VINA RESULT:      -4.2     11.100     12.549
REMARK  2 active torsions:
REMARK  status: ('A' for Active; 'I' for Inactive)
REMARK    1  A    between atoms: C3_3  and  C8_8 
REMARK    2  A    between atoms: C3_3  and  C9_9 
ROOT
HETATM    1  C1  UNL     1     -37.786  15.434  -7.274  1.00 20.00     0.012 C 
HETATM    2  C2  UNL     1     -37.455  14.935  -6.234  1.00 20.00    -0.110 C 
HETATM    3  C9  UNL     1     -37.058  14.327  -4.958  1.00 20.00     0.171 C 
ENDROOT
BRANCH   3   4
HETATM    4  C3  UNL     1     -35.644  13.782  -4.990  1.00 20.00     0.142 C 
HETATM    5  O10 UNL     1     -35.272  12.926  -5.792  1.00 20.00    -0.297 OA
BRANCH   4   6
HETATM    6  C8  UNL     1     -34.683  14.356  -3.962  1.00 20.00     0.060 C 
HETATM    7  C4  UNL     1     -33.279  14.400  -4.553  1.00 20.00     0.038 C 
HETATM    8  C6  UNL     1     -33.085  15.564  -5.518  1.00 20.00     0.168 C 
HETATM    9  O11 UNL     1     -33.472  16.795  -4.912  1.00 20.00    -0.391 OA
HETATM   10  C7  UNL     1     -34.856  16.811  -4.573  1.00 20.00     0.168 C 
HETATM   11  C5  UNL     1     -35.174  15.735  -3.539  1.00 20.00     0.038 C 
ENDBRANCH   4   6
ENDBRANCH   3   4
TORSDOF 2
ENDMDL
MODEL 7
REMARK VINA RESULT:      -4.1     11.086     12.539
REMARK  2 active torsions:
REMARK  status: ('A' for Active; 'I' for Inactive)
REMARK    1  A    between atoms: C3_3  and  C8_8 
REMARK    2  A    between atoms: C3_3  and  C9_9 
ROOT
HETATM    1  C1  UNL     1     -35.299  13.258  -7.567  1.00 20.00     0.012 C 
HETATM    2  C2  UNL     1     -35.490  13.419  -6.393  1.00 20.00    -0.110 C 
HETATM    3  C9  UNL     1     -35.732  13.613  -4.959  1.00 20.00     0.171 C 
ENDROOT
BRANCH   3   4
HETATM    4  C3  UNL     1     -34.559  14.265  -4.255  1.00 20.00     0.142 C 
HETATM    5  O10 UNL     1     -33.400  13.868  -4.371  1.00 20.00    -0.297 OA
BRANCH   4   6
HETATM    6  C8  UNL     1     -34.888  15.463  -3.379  1.00 20.00     0.060 C 
HETATM    7  C4  UNL     1     -33.680  16.392  -3.320  1.00 20.00     0.038 C 
HETATM    8  C6  UNL     1     -33.530  17.239  -4.579  1.00 20.00     0.168 C 
HETATM    9  O11 UNL     1     -34.744  17.924  -4.878  1.00 20.00    -0.391 OA
HETATM   10  C7  UNL     1     -35.812  17.021  -5.154  1.00 20.00     0.168 C 
HETATM   11  C5  UNL     1     -36.124  16.160  -3.934  1.00 20.00     0.038 C 
ENDBRANCH   4   6
ENDBRANCH   3   4
TORSDOF 2
ENDMDL
MODEL 8
REMARK VINA RESULT:      -4.0      1.953      4.790
REMARK  2 active torsions:
REMARK  status: ('A' for Active; 'I' for Inactive)
REMARK    1  A    between atoms: C3_3  and  C8_8 
REMARK    2  A    between atoms: C3_3  and  C9_9 
ROOT
HETATM    1  C1  UNL     1     -34.802   5.688   4.928  1.00 20.00     0.012 C 
HETATM    2  C2  UNL     1     -34.026   6.536   4.579  1.00 20.00    -0.110 C 
HETATM    3  C9  UNL     1     -33.079   7.577   4.161  1.00 20.00     0.171 C 
ENDROOT
BRANCH   3   4
HETATM    4  C3  UNL     1     -32.761   7.511   2.681  1.00 20.00     0.142 C 
HETATM    5  O10 UNL     1     -33.309   6.725   1.910  1.00 20.00    -0.297 OA
BRANCH   4   6
HETATM    6  C8  UNL     1     -31.707   8.487   2.181  1.00 20.00     0.060 C 
HETATM    7  C4  UNL     1     -31.519   8.300   0.680  1.00 20.00     0.038 C 
HETATM    8  C6  UNL     1     -32.634   8.944  -0.136  1.00 20.00     0.168 C 
HETATM    9  O11 UNL     1     -32.812  10.309   0.236  1.00 20.00    -0.391 OA
HETATM   10  C7  UNL     1     -33.212  10.443   1.598  1.00 20.00     0.168 C 
HETATM   11  C5  UNL     1     -32.136   9.906   2.536  1.00 20.00     0.038 C 
ENDBRANCH   4   6
ENDBRANCH   3   4
TORSDOF 2
ENDMDL
MODEL 9
REMARK VINA RESULT:      -3.9     11.345     12.773
REMARK  2 active torsions:
REMARK  status: ('A' for Active; 'I' for Inactive)
REMARK    1  A    between atoms: C3_3  and  C8_8 
REMARK    2  A    between atoms: C3_3  and  C9_9 
ROOT
HETATM    1  C1  UNL     1     -38.788  14.793  -5.197  1.00 20.00     0.012 C 
HETATM    2  C2  UNL     1     -37.791  14.607  -5.839  1.00 20.00    -0.110 C 
HETATM    3  C9  UNL     1     -36.577  14.382  -6.632  1.00 20.00     0.171 C 
ENDROOT
BRANCH   3   4
HETATM    4  C3  UNL     1     -35.451  13.786  -5.812  1.00 20.00     0.142 C 
HETATM    5  O10 UNL     1     -35.601  12.819  -5.066  1.00 20.00    -0.297 OA
BRANCH   4   6
HETATM    6  C8  UNL     1     -34.092  14.453  -5.958  1.00 20.00     0.060 C 
HETATM    7  C4  UNL     1     -34.276  15.850  -6.537  1.00 20.00     0.038 C 
HETATM    8  C6  UNL     1     -34.761  16.857  -5.500  1.00 20.00     0.168 C 
HETATM    9  O11 UNL     1     -33.923  16.840  -4.346  1.00 20.00    -0.391 OA
HETATM   10  C7  UNL     1     -33.948  15.575  -3.688  1.00 20.00     0.168 C 
HETATM   11  C5  UNL     1     -33.403  14.479  -4.598  1.00 20.00     0.038 C 
ENDBRANCH   4   6
ENDBRANCH   3   4
TORSDOF 2
ENDMDL
