MODEL 1
REMARK VINA RESULT:      -4.5      0.000      0.000
REMARK  1 active torsions:
REMARK  status: ('A' for Active; 'I' for Inactive)
REMARK    1  A    between atoms: C1_1  and  N10_10 
ROOT
HETATM    1  C2  UNL     1     -34.109   7.281   6.473  1.00 20.00     0.002 C 
HETATM    2  C3  UNL     1     -33.233   4.614   2.554  1.00 20.00     0.020 C 
HETATM    3  C4  UNL     1     -34.568   5.904   5.973  1.00 20.00     0.007 C 
HETATM    4  C5  UNL     1     -34.203   4.639   3.739  1.00 20.00     0.008 C 
HETATM    5  C6  UNL     1     -33.256   7.890   5.347  1.00 20.00     0.026 C 
HETATM    6  C7  UNL     1     -32.986   6.006   1.963  1.00 20.00     0.125 C 
HETATM    7  C8  UNL     1     -33.701   5.655   4.748  1.00 20.00     0.009 C 
HETATM    8  C9  UNL     1     -33.611   7.048   4.124  1.00 20.00     0.090 C 
HETATM    9  N10 UNL     1     -32.722   7.040   2.970  1.00 20.00    -0.354 N 
ENDROOT
BRANCH   9  10
HETATM   10  C1  UNL     1     -31.926   8.127   2.636  1.00 20.00     0.351 C 
HETATM   11  O11 UNL     1     -32.227   9.075   1.918  1.00 20.00    -0.284 OA
ENDBRANCH   9  10
TORSDOF 1
ENDMDL
MODEL 2
REMARK VINA RESULT:      -4.5     11.932     12.275
REMARK  1 active torsions:
REMARK  status: ('A' for Active; 'I' for Inactive)
REMARK    1  A    between atoms: C1_1  and  N10_10 
ROOT
HETATM    1  C2  UNL     1     -34.770  17.295  -1.903  1.00 20.00     0.002 C 
HETATM    2  C3  UNL     1     -33.914  14.497  -5.734  1.00 20.00     0.020 C 
HETATM    3  C4  UNL     1     -33.509  16.751  -2.590  1.00 20.00     0.007 C 
HETATM    4  C5  UNL     1     -33.157  15.071  -4.533  1.00 20.00     0.008 C 
HETATM    5  C6  UNL     1     -35.968  16.665  -2.633  1.00 20.00     0.026 C 
HETATM    6  C7  UNL     1     -35.309  13.983  -5.363  1.00 20.00     0.125 C 
HETATM    7  C8  UNL     1     -34.037  16.111  -3.864  1.00 20.00     0.009 C 
HETATM    8  C9  UNL     1     -35.355  15.494  -3.397  1.00 20.00     0.090 C 
HETATM    9  N10 UNL     1     -36.076  14.906  -4.519  1.00 20.00    -0.354 N 
ENDROOT
BRANCH   9  10
HETATM   10  C1  UNL     1     -37.462  14.904  -4.593  1.00 20.00     0.351 C 
HETATM   11  O11 UNL     1     -38.187  13.965  -4.907  1.00 20.00    -0.284 OA
ENDBRANCH   9  10
TORSDOF 1
ENDMDL
MODEL 3
REMARK VINA RESULT:      -4.3     11.872     12.186
REMARK  1 active torsions:
REMARK  status: ('A' for Active; 'I' for Inactive)
REMARK    1  A    between atoms: C1_1  and  N10_10 
ROOT
HETATM    1  C2  UNL     1     -35.891  18.761   2.235  1.00 20.00     0.002 C 
HETATM    2  C3  UNL     1     -34.436  16.819  -1.930  1.00 20.00     0.020 C 
HETATM    3  C4  UNL     1     -36.593  18.081   1.051  1.00 20.00     0.007 C 
HETATM    4  C5  UNL     1     -35.739  17.254  -1.254  1.00 20.00     0.008 C 
HETATM    5  C6  UNL     1     -34.405  18.873   1.854  1.00 20.00     0.026 C 
HETATM    6  C7  UNL     1     -33.296  17.820  -1.716  1.00 20.00     0.125 C 
HETATM    7  C8  UNL     1     -35.446  17.548   0.206  1.00 20.00     0.009 C 
HETATM    8  C9  UNL     1     -34.400  18.654   0.342  1.00 20.00     0.090 C 
HETATM    9  N10 UNL     1     -33.162  18.277  -0.328  1.00 20.00    -0.354 N 
ENDROOT
BRANCH   9  10
HETATM   10  C1  UNL     1     -31.914  18.660   0.144  1.00 20.00     0.351 C 
HETATM   11  O11 UNL     1     -30.821  18.232  -0.213  1.00 20.00    -0.284 OA
ENDBRANCH   9  10
TORSDOF 1
ENDMDL
MODEL 4
REMARK VINA RESULT:      -4.2      1.839      3.403
REMARK  1 active torsions:
REMARK  status: ('A' for Active; 'I' for Inactive)
REMARK    1  A    between atoms: C1_1  and  N10_10 
ROOT
HETATM    1  C2  UNL     1     -31.547   8.597   3.242  1.00 20.00     0.002 C 
HETATM    2  C3  UNL     1     -34.472   5.824   5.887  1.00 20.00     0.020 C 
HETATM    3  C4  UNL     1     -32.219   8.730   4.617  1.00 20.00     0.007 C 
HETATM    4  C5  UNL     1     -33.954   7.265   5.869  1.00 20.00     0.008 C 
HETATM    5  C6  UNL     1     -32.071   7.288   2.627  1.00 20.00     0.026 C 
HETATM    6  C7  UNL     1     -34.845   5.312   4.492  1.00 20.00     0.125 C 
HETATM    7  C8  UNL     1     -32.825   7.356   4.859  1.00 20.00     0.009 C 
HETATM    8  C9  UNL     1     -33.307   6.962   3.463  1.00 20.00     0.090 C 
HETATM    9  N10 UNL     1     -33.841   5.606   3.464  1.00 20.00    -0.354 N 
ENDROOT
BRANCH   9  10
HETATM   10  C1  UNL     1     -33.712   4.755   2.376  1.00 20.00     0.351 C 
HETATM   11  O11 UNL     1     -32.761   4.029   2.108  1.00 20.00    -0.284 OA
ENDBRANCH   9  10
TORSDOF 1
ENDMDL
MODEL 5
REMARK VINA RESULT:      -4.2      0.772      2.852
REMARK  1 active torsions:
REMARK  status: ('A' for Active; 'I' for Inactive)
REMARK    1  A    between atoms: C1_1  and  N10_10 
ROOT
HETATM    1  C2  UNL     1     -33.949   3.931   3.030  1.00 20.00     0.002 C 
HETATM    2  C3  UNL     1     -33.879   7.843   5.846  1.00 20.00     0.020 C 
HETATM    3  C4  UNL     1     -34.404   4.246   4.463  1.00 20.00     0.007 C 
HETATM    4  C5  UNL     1     -34.130   6.338   5.970  1.00 20.00     0.008 C 
HETATM    5  C6  UNL     1     -33.245   5.196   2.510  1.00 20.00     0.026 C 
HETATM    6  C7  UNL     1     -32.686   8.171   4.943  1.00 20.00     0.125 C 
HETATM    7  C8  UNL     1     -34.238   5.753   4.573  1.00 20.00     0.009 C 
HETATM    8  C9  UNL     1     -32.957   6.000   3.777  1.00 20.00     0.090 C 
HETATM    9  N10 UNL     1     -32.677   7.426   3.679  1.00 20.00    -0.354 N 
ENDROOT
BRANCH   9  10
HETATM   10  C1  UNL     1     -32.082   7.993   2.560  1.00 20.00     0.351 C 
HETATM   11  O11 UNL     1     -32.495   8.938   1.897  1.00 20.00    -0.284 OA
ENDBRANCH   9  10
TORSDOF 1
ENDMDL
MODEL 6
REMARK VINA RESULT:      -4.2     12.048     12.546
REMARK  1 active torsions:
REMARK  status: ('A' for Active; 'I' for Inactive)
REMARK    1  A    between atoms: C1_1  and  N10_10 
ROOT
HETATM    1  C2  UNL     1     -33.792  15.999  -3.250  1.00 20.00     0.002 C 
HETATM    2  C3  UNL     1     -38.081  14.684  -5.014  1.00 20.00     0.020 C 
HETATM    3  C4  UNL     1     -35.250  16.378  -2.953  1.00 20.00     0.007 C 
HETATM    4  C5  UNL     1     -37.491  15.768  -4.108  1.00 20.00     0.008 C 
HETATM    5  C6  UNL     1     -33.828  15.051  -4.461  1.00 20.00     0.026 C 
HETATM    6  C7  UNL     1     -37.215  14.408  -6.247  1.00 20.00     0.125 C 
HETATM    7  C8  UNL     1     -36.058  15.389  -3.779  1.00 20.00     0.009 C 
HETATM    8  C9  UNL     1     -35.219  15.266  -5.051  1.00 20.00     0.090 C 
HETATM    9  N10 UNL     1     -35.786  14.266  -5.948  1.00 20.00    -0.354 N 
ENDROOT
BRANCH   9  10
HETATM   10  C1  UNL     1     -34.997  13.463  -6.760  1.00 20.00     0.351 C 
HETATM   11  O11 UNL     1     -35.006  12.239  -6.828  1.00 20.00    -0.284 OA
ENDBRANCH   9  10
TORSDOF 1
ENDMDL
MODEL 7
REMARK VINA RESULT:      -4.1     12.035     13.034
REMARK  1 active torsions:
REMARK  status: ('A' for Active; 'I' for Inactive)
REMARK    1  A    between atoms: C1_1  and  N10_10 
ROOT
HETATM    1  C2  UNL     1     -33.738  15.011  -6.342  1.00 20.00     0.002 C 
HETATM    2  C3  UNL     1     -34.927  16.626  -1.958  1.00 20.00     0.020 C 
HETATM    3  C4  UNL     1     -32.960  15.585  -5.149  1.00 20.00     0.007 C 
HETATM    4  C5  UNL     1     -33.719  16.628  -2.899  1.00 20.00     0.008 C 
HETATM    5  C6  UNL     1     -35.229  15.107  -5.976  1.00 20.00     0.026 C 
HETATM    6  C7  UNL     1     -36.245  16.907  -2.688  1.00 20.00     0.125 C 
HETATM    7  C8  UNL     1     -34.002  15.673  -4.045  1.00 20.00     0.009 C 
HETATM    8  C9  UNL     1     -35.255  16.096  -4.812  1.00 20.00     0.090 C 
HETATM    9  N10 UNL     1     -36.412  16.139  -3.927  1.00 20.00    -0.354 N 
ENDROOT
BRANCH   9  10
HETATM   10  C1  UNL     1     -37.691  15.812  -4.357  1.00 20.00     0.351 C 
HETATM   11  O11 UNL     1     -38.259  14.731  -4.242  1.00 20.00    -0.284 OA
ENDBRANCH   9  10
TORSDOF 1
ENDMDL
MODEL 8
REMARK VINA RESULT:      -4.1     11.707     13.119
REMARK  1 active torsions:
REMARK  status: ('A' for Active; 'I' for Inactive)
REMARK    1  A    between atoms: C1_1  and  N10_10 
ROOT
HETATM    1  C2  UNL     1     -34.125  17.214  -2.494  1.00 20.00     0.002 C 
HETATM    2  C3  UNL     1     -34.475  16.333  -7.220  1.00 20.00     0.020 C 
HETATM    3  C4  UNL     1     -33.582  17.883  -3.765  1.00 20.00     0.007 C 
HETATM    4  C5  UNL     1     -33.653  17.206  -6.268  1.00 20.00     0.008 C 
HETATM    5  C6  UNL     1     -34.849  15.936  -2.950  1.00 20.00     0.026 C 
HETATM    6  C7  UNL     1     -34.677  14.909  -6.691  1.00 20.00     0.125 C 
HETATM    7  C8  UNL     1     -34.292  17.148  -4.893  1.00 20.00     0.009 C 
HETATM    8  C9  UNL     1     -34.334  15.712  -4.370  1.00 20.00     0.090 C 
HETATM    9  N10 UNL     1     -35.079  14.853  -5.281  1.00 20.00    -0.354 N 
ENDROOT
BRANCH   9  10
HETATM   10  C1  UNL     1     -35.851  13.788  -4.836  1.00 20.00     0.351 C 
HETATM   11  O11 UNL     1     -35.861  12.643  -5.276  1.00 20.00    -0.284 OA
ENDBRANCH   9  10
TORSDOF 1
ENDMDL
MODEL 9
REMARK VINA RESULT:      -4.0     12.040     12.489
REMARK  1 active torsions:
REMARK  status: ('A' for Active; 'I' for Inactive)
REMARK    1  A    between atoms: C1_1  and  N10_10 
ROOT
HETATM    1  C2  UNL     1     -30.814  19.263   3.826  1.00 20.00     0.002 C 
HETATM    2  C3  UNL     1     -35.018  18.091   1.779  1.00 20.00     0.020 C 
HETATM    3  C4  UNL     1     -32.266  19.153   4.315  1.00 20.00     0.007 C 
HETATM    4  C5  UNL     1     -34.503  18.717   3.078  1.00 20.00     0.008 C 
HETATM    5  C6  UNL     1     -30.846  19.009   2.309  1.00 20.00     0.026 C 
HETATM    6  C7  UNL     1     -34.279  18.608   0.540  1.00 20.00     0.125 C 
HETATM    7  C8  UNL     1     -32.999  18.528   3.138  1.00 20.00     0.009 C 
HETATM    8  C9  UNL     1     -32.317  19.189   1.940  1.00 20.00     0.090 C 
HETATM    9  N10 UNL     1     -32.820  18.636   0.689  1.00 20.00    -0.354 N 
ENDROOT
BRANCH   9  10
HETATM   10  C1  UNL     1     -32.019  18.487  -0.434  1.00 20.00     0.351 C 
HETATM   11  O11 UNL     1     -32.306  18.764  -1.594  1.00 20.00    -0.284 OA
ENDBRANCH   9  10
TORSDOF 1
ENDMDL
