MODEL 1
REMARK VINA RESULT:      -5.5      0.000      0.000
REMARK  3 active torsions:
REMARK  status: ('A' for Active; 'I' for Inactive)
REMARK    1  A    between atoms: C5_5  and  C9_9 
REMARK    2  A    between atoms: C6_6  and  C10_10 
REMARK    3  A    between atoms: C10_10  and  O11_11 
ROOT
HETATM    1  C1  UNL     1     -32.618   8.383   5.179  1.00 20.00     0.001 C 
HETATM    2  C2  UNL     1     -31.774   8.491   3.912  1.00 20.00     0.005 C 
HETATM    3  C3  UNL     1     -33.265   7.007   5.309  1.00 20.00     0.007 C 
HETATM    4  C4  UNL     1     -33.234   6.757   2.794  1.00 20.00     0.011 C 
HETATM    5  C5  UNL     1     -32.587   8.144   2.660  1.00 20.00    -0.014 C 
HETATM    6  C6  UNL     1     -34.089   6.651   4.065  1.00 20.00     0.014 C 
ENDROOT
BRANCH   6   7
HETATM    7  C10 UNL     1     -34.685   5.250   4.196  1.00 20.00     0.118 C 
HETATM    8  C8  UNL     1     -34.748   4.801   5.645  1.00 20.00     0.040 C 
BRANCH   7   9
HETATM    9  O11 UNL     1     -33.889   4.337   3.451  1.00 20.00    -0.396 OA
HETATM   10  H31 UNL     1     -33.391   4.863   2.805  1.00 20.00     0.210 HD
ENDBRANCH   7   9
ENDBRANCH   6   7
BRANCH   5  11
HETATM   11  C9  UNL     1     -31.708   8.209   1.412  1.00 20.00     0.000 C 
HETATM   12  C7  UNL     1     -32.102   9.342   0.520  1.00 20.00     0.005 C 
ENDBRANCH   5  11
TORSDOF 3
ENDMDL
MODEL 2
REMARK VINA RESULT:      -5.1      1.966      4.524
REMARK  3 active torsions:
REMARK  status: ('A' for Active; 'I' for Inactive)
REMARK    1  A    between atoms: C5_5  and  C9_9 
REMARK    2  A    between atoms: C6_6  and  C10_10 
REMARK    3  A    between atoms: C10_10  and  O11_11 
ROOT
HETATM    1  C1  UNL     1     -31.580   8.190   4.065  1.00 20.00     0.001 C 
HETATM    2  C2  UNL     1     -32.872   7.425   4.342  1.00 20.00     0.005 C 
HETATM    3  C3  UNL     1     -31.703   9.074   2.828  1.00 20.00     0.007 C 
HETATM    4  C4  UNL     1     -33.445   7.505   1.881  1.00 20.00     0.011 C 
HETATM    5  C5  UNL     1     -33.319   6.610   3.123  1.00 20.00    -0.014 C 
HETATM    6  C6  UNL     1     -32.143   8.269   1.599  1.00 20.00     0.014 C 
ENDROOT
BRANCH   6   7
HETATM    7  C10 UNL     1     -32.308   9.183   0.386  1.00 20.00     0.118 C 
HETATM    8  C8  UNL     1     -32.573  10.620   0.798  1.00 20.00     0.040 C 
BRANCH   7   9
HETATM    9  O11 UNL     1     -33.391   8.710  -0.405  1.00 20.00    -0.396 OA
HETATM   10  H31 UNL     1     -33.101   8.753  -1.331  1.00 20.00     0.210 HD
ENDBRANCH   7   9
ENDBRANCH   6   7
BRANCH   5  11
HETATM   11  C9  UNL     1     -34.639   5.896   3.407  1.00 20.00     0.000 C 
HETATM   12  C7  UNL     1     -34.753   5.500   4.843  1.00 20.00     0.005 C 
ENDBRANCH   5  11
TORSDOF 3
ENDMDL
MODEL 3
REMARK VINA RESULT:      -4.8     11.290     12.040
REMARK  3 active torsions:
REMARK  status: ('A' for Active; 'I' for Inactive)
REMARK    1  A    between atoms: C5_5  and  C9_9 
REMARK    2  A    between atoms: C6_6  and  C10_10 
REMARK    3  A    between atoms: C10_10  and  O11_11 
ROOT
HETATM    1  C1  UNL     1     -33.303  16.616  -5.428  1.00 20.00     0.001 C 
HETATM    2  C2  UNL     1     -33.657  17.290  -4.105  1.00 20.00     0.005 C 
HETATM    3  C3  UNL     1     -34.453  15.761  -5.951  1.00 20.00     0.007 C 
HETATM    4  C4  UNL     1     -35.267  15.412  -3.584  1.00 20.00     0.011 C 
HETATM    5  C5  UNL     1     -34.107  16.269  -3.054  1.00 20.00    -0.014 C 
HETATM    6  C6  UNL     1     -34.908  14.730  -4.912  1.00 20.00     0.014 C 
ENDROOT
BRANCH   6   7
HETATM    7  C10 UNL     1     -36.092  13.920  -5.437  1.00 20.00     0.118 C 
HETATM    8  C8  UNL     1     -37.415  14.467  -4.931  1.00 20.00     0.040 C 
BRANCH   7   9
HETATM    9  O11 UNL     1     -35.949  12.567  -5.022  1.00 20.00    -0.396 OA
HETATM   10  H31 UNL     1     -35.882  12.578  -4.054  1.00 20.00     0.210 HD
ENDBRANCH   7   9
ENDBRANCH   6   7
BRANCH   5  11
HETATM   11  C9  UNL     1     -34.506  16.970  -1.757  1.00 20.00     0.000 C 
HETATM   12  C7  UNL     1     -33.378  17.775  -1.198  1.00 20.00     0.005 C 
ENDBRANCH   5  11
TORSDOF 3
ENDMDL
MODEL 4
REMARK VINA RESULT:      -4.7      1.953      4.556
REMARK  3 active torsions:
REMARK  status: ('A' for Active; 'I' for Inactive)
REMARK    1  A    between atoms: C5_5  and  C9_9 
REMARK    2  A    between atoms: C6_6  and  C10_10 
REMARK    3  A    between atoms: C10_10  and  O11_11 
ROOT
HETATM    1  C1  UNL     1     -33.676   4.434   2.642  1.00 20.00     0.001 C 
HETATM    2  C2  UNL     1     -34.005   4.555   4.128  1.00 20.00     0.005 C 
HETATM    3  C3  UNL     1     -32.688   5.507   2.194  1.00 20.00     0.007 C 
HETATM    4  C4  UNL     1     -33.515   7.033   4.032  1.00 20.00     0.011 C 
HETATM    5  C5  UNL     1     -34.515   5.957   4.481  1.00 20.00    -0.014 C 
HETATM    6  C6  UNL     1     -33.190   6.915   2.535  1.00 20.00     0.014 C 
ENDROOT
BRANCH   6   7
HETATM    7  C10 UNL     1     -32.162   7.968   2.124  1.00 20.00     0.118 C 
HETATM    8  C8  UNL     1     -31.363   8.468   3.315  1.00 20.00     0.040 C 
BRANCH   7   9
HETATM    9  O11 UNL     1     -32.839   9.062   1.515  1.00 20.00    -0.396 OA
HETATM   10  H31 UNL     1     -33.786   8.929   1.677  1.00 20.00     0.210 HD
ENDBRANCH   7   9
ENDBRANCH   6   7
BRANCH   5  11
HETATM   11  C9  UNL     1     -34.787   6.070   5.980  1.00 20.00     0.000 C 
HETATM   12  C7  UNL     1     -34.037   7.207   6.593  1.00 20.00     0.005 C 
ENDBRANCH   5  11
TORSDOF 3
ENDMDL
MODEL 5
REMARK VINA RESULT:      -4.6     11.015     12.266
REMARK  3 active torsions:
REMARK  status: ('A' for Active; 'I' for Inactive)
REMARK    1  A    between atoms: C5_5  and  C9_9 
REMARK    2  A    between atoms: C6_6  and  C10_10 
REMARK    3  A    between atoms: C10_10  and  O11_11 
ROOT
HETATM    1  C1  UNL     1     -33.604  18.382  -4.862  1.00 20.00     0.001 C 
HETATM    2  C2  UNL     1     -34.075  18.561  -3.422  1.00 20.00     0.005 C 
HETATM    3  C3  UNL     1     -33.900  16.978  -5.381  1.00 20.00     0.007 C 
HETATM    4  C4  UNL     1     -33.783  16.083  -3.021  1.00 20.00     0.011 C 
HETATM    5  C5  UNL     1     -33.480  17.494  -2.496  1.00 20.00    -0.014 C 
HETATM    6  C6  UNL     1     -33.303  15.901  -4.468  1.00 20.00     0.014 C 
ENDROOT
BRANCH   6   7
HETATM    7  C10 UNL     1     -33.655  14.505  -4.979  1.00 20.00     0.118 C 
HETATM    8  C8  UNL     1     -35.024  14.059  -4.497  1.00 20.00     0.040 C 
BRANCH   7   9
HETATM    9  O11 UNL     1     -32.670  13.584  -4.526  1.00 20.00    -0.396 OA
HETATM   10  H31 UNL     1     -33.147  12.829  -4.146  1.00 20.00     0.210 HD
ENDBRANCH   7   9
ENDBRANCH   6   7
BRANCH   5  11
HETATM   11  C9  UNL     1     -34.005  17.662  -1.071  1.00 20.00     0.000 C 
HETATM   12  C7  UNL     1     -35.375  17.087  -0.918  1.00 20.00     0.005 C 
ENDBRANCH   5  11
TORSDOF 3
ENDMDL
MODEL 6
REMARK VINA RESULT:      -4.6     11.376     12.078
REMARK  3 active torsions:
REMARK  status: ('A' for Active; 'I' for Inactive)
REMARK    1  A    between atoms: C5_5  and  C9_9 
REMARK    2  A    between atoms: C6_6  and  C10_10 
REMARK    3  A    between atoms: C10_10  and  O11_11 
ROOT
HETATM    1  C1  UNL     1     -33.081  15.629  -5.071  1.00 20.00     0.001 C 
HETATM    2  C2  UNL     1     -33.613  16.603  -4.023  1.00 20.00     0.005 C 
HETATM    3  C3  UNL     1     -34.212  14.949  -5.835  1.00 20.00     0.007 C 
HETATM    4  C4  UNL     1     -35.733  15.237  -3.836  1.00 20.00     0.011 C 
HETATM    5  C5  UNL     1     -34.593  15.918  -3.063  1.00 20.00    -0.014 C 
HETATM    6  C6  UNL     1     -35.196  14.253  -4.886  1.00 20.00     0.014 C 
ENDROOT
BRANCH   6   7
HETATM    7  C10 UNL     1     -36.346  13.622  -5.669  1.00 20.00     0.118 C 
HETATM    8  C8  UNL     1     -36.504  14.254  -7.041  1.00 20.00     0.040 C 
BRANCH   7   9
HETATM    9  O11 UNL     1     -37.551  13.784  -4.931  1.00 20.00    -0.396 OA
HETATM   10  H31 UNL     1     -37.455  14.599  -4.413  1.00 20.00     0.210 HD
ENDBRANCH   7   9
ENDBRANCH   6   7
BRANCH   5  11
HETATM   11  C9  UNL     1     -35.152  16.923  -2.056  1.00 20.00     0.000 C 
HETATM   12  C7  UNL     1     -34.094  17.413  -1.122  1.00 20.00     0.005 C 
ENDBRANCH   5  11
TORSDOF 3
ENDMDL
MODEL 7
REMARK VINA RESULT:      -4.6     11.185     11.855
REMARK  3 active torsions:
REMARK  status: ('A' for Active; 'I' for Inactive)
REMARK    1  A    between atoms: C5_5  and  C9_9 
REMARK    2  A    between atoms: C6_6  and  C10_10 
REMARK    3  A    between atoms: C10_10  and  O11_11 
ROOT
HETATM    1  C1  UNL     1     -32.343  18.776  -0.437  1.00 20.00     0.001 C 
HETATM    2  C2  UNL     1     -33.147  17.721  -1.192  1.00 20.00     0.005 C 
HETATM    3  C3  UNL     1     -32.675  18.779   1.052  1.00 20.00     0.007 C 
HETATM    4  C4  UNL     1     -34.984  17.888   0.536  1.00 20.00     0.011 C 
HETATM    5  C5  UNL     1     -34.654  17.889  -0.964  1.00 20.00    -0.014 C 
HETATM    6  C6  UNL     1     -34.179  18.954   1.294  1.00 20.00     0.014 C 
ENDROOT
BRANCH   6   7
HETATM    7  C10 UNL     1     -34.494  18.904   2.788  1.00 20.00     0.118 C 
HETATM    8  C8  UNL     1     -33.468  18.084   3.551  1.00 20.00     0.040 C 
BRANCH   7   9
HETATM    9  O11 UNL     1     -35.785  18.335   2.970  1.00 20.00    -0.396 OA
HETATM   10  H31 UNL     1     -36.288  18.955   3.522  1.00 20.00     0.210 HD
ENDBRANCH   7   9
ENDBRANCH   6   7
BRANCH   5  11
HETATM   11  C9  UNL     1     -35.434  16.792  -1.687  1.00 20.00     0.000 C 
HETATM   12  C7  UNL     1     -34.649  16.213  -2.818  1.00 20.00     0.005 C 
ENDBRANCH   5  11
TORSDOF 3
ENDMDL
MODEL 8
REMARK VINA RESULT:      -4.6     11.257     11.982
REMARK  3 active torsions:
REMARK  status: ('A' for Active; 'I' for Inactive)
REMARK    1  A    between atoms: C5_5  and  C9_9 
REMARK    2  A    between atoms: C6_6  and  C10_10 
REMARK    3  A    between atoms: C10_10  and  O11_11 
ROOT
HETATM    1  C1  UNL     1     -37.094  16.501  -3.914  1.00 20.00     0.001 C 
HETATM    2  C2  UNL     1     -36.111  16.816  -2.790  1.00 20.00     0.005 C 
HETATM    3  C3  UNL     1     -36.822  15.134  -4.533  1.00 20.00     0.007 C 
HETATM    4  C4  UNL     1     -34.387  15.324  -3.882  1.00 20.00     0.011 C 
HETATM    5  C5  UNL     1     -34.656  16.704  -3.263  1.00 20.00    -0.014 C 
HETATM    6  C6  UNL     1     -35.372  15.010  -5.018  1.00 20.00     0.014 C 
ENDROOT
BRANCH   6   7
HETATM    7  C10 UNL     1     -35.110  13.617  -5.587  1.00 20.00     0.118 C 
HETATM    8  C8  UNL     1     -35.326  13.575  -7.090  1.00 20.00     0.040 C 
BRANCH   7   9
HETATM    9  O11 UNL     1     -35.984  12.688  -4.957  1.00 20.00    -0.396 OA
HETATM   10  H31 UNL     1     -36.889  13.001  -5.120  1.00 20.00     0.210 HD
ENDBRANCH   7   9
ENDBRANCH   6   7
BRANCH   5  11
HETATM   11  C9  UNL     1     -33.692  16.972  -2.109  1.00 20.00     0.000 C 
HETATM   12  C7  UNL     1     -34.414  17.432  -0.884  1.00 20.00     0.005 C 
ENDBRANCH   5  11
TORSDOF 3
ENDMDL
MODEL 9
REMARK VINA RESULT:      -4.3     11.602     12.358
REMARK  3 active torsions:
REMARK  status: ('A' for Active; 'I' for Inactive)
REMARK    1  A    between atoms: C5_5  and  C9_9 
REMARK    2  A    between atoms: C6_6  and  C10_10 
REMARK    3  A    between atoms: C10_10  and  O11_11 
ROOT
HETATM    1  C1  UNL     1     -35.743  17.356  -1.026  1.00 20.00     0.001 C 
HETATM    2  C2  UNL     1     -34.481  17.660  -0.223  1.00 20.00     0.005 C 
HETATM    3  C3  UNL     1     -35.424  16.602  -2.314  1.00 20.00     0.007 C 
HETATM    4  C4  UNL     1     -33.125  17.652  -2.357  1.00 20.00     0.011 C 
HETATM    5  C5  UNL     1     -33.445  18.417  -1.063  1.00 20.00    -0.014 C 
HETATM    6  C6  UNL     1     -34.395  17.353  -3.168  1.00 20.00     0.014 C 
ENDROOT
BRANCH   6   7
HETATM    7  C10 UNL     1     -34.054  16.556  -4.426  1.00 20.00     0.118 C 
HETATM    8  C8  UNL     1     -33.432  15.212  -4.088  1.00 20.00     0.040 C 
BRANCH   7   9
HETATM    9  O11 UNL     1     -33.147  17.311  -5.220  1.00 20.00    -0.396 OA
HETATM   10  H31 UNL     1     -32.651  16.675  -5.759  1.00 20.00     0.210 HD
ENDBRANCH   7   9
ENDBRANCH   6   7
BRANCH   5  11
HETATM   11  C9  UNL     1     -32.173  18.663  -0.256  1.00 20.00     0.000 C 
HETATM   12  C7  UNL     1     -32.473  18.890   1.190  1.00 20.00     0.005 C 
ENDBRANCH   5  11
TORSDOF 3
ENDMDL
