MODEL 1
REMARK VINA RESULT:      -6.1      0.000      0.000
REMARK  3 active torsions:
REMARK  status: ('A' for Active; 'I' for Inactive)
REMARK    1  A    between atoms: C5_5  and  C9_9 
REMARK    2  A    between atoms: C6_6  and  C10_10 
REMARK    3  A    between atoms: C10_10  and  C11_11 
ROOT
HETATM    1  C1  UNL     1     -33.068   5.733   2.897  1.00 20.00     0.069 C 
HETATM    2  C2  UNL     1     -31.337   8.349   2.892  1.00 20.00     0.006 C 
HETATM    3  C3  UNL     1     -32.156   7.739   4.035  1.00 20.00     0.025 C 
HETATM    4  C4  UNL     1     -33.654   8.045   2.203  1.00 20.00     0.029 C 
HETATM    5  C5  UNL     1     -32.258   8.379   1.664  1.00 20.00    -0.013 C 
HETATM    6  C6  UNL     1     -33.386   7.096   3.378  1.00 20.00     0.049 C 
HETATM    7  N12 UNL     1     -32.820   4.665   2.519  1.00 20.00    -0.196 NA
ENDROOT
BRANCH   6   8
HETATM    8  C10 UNL     1     -34.574   7.026   4.335  1.00 20.00     0.024 C 
BRANCH   8   9
HETATM    9  C11 UNL     1     -34.158   6.465   5.691  1.00 20.00    -0.003 C 
HETATM   10  C8  UNL     1     -34.618   5.025   5.854  1.00 20.00     0.005 C 
ENDBRANCH   8   9
ENDBRANCH   6   8
BRANCH   5  11
HETATM   11  C9  UNL     1     -32.215   9.704   0.919  1.00 20.00     0.000 C 
HETATM   12  C7  UNL     1     -33.042   9.670  -0.328  1.00 20.00     0.005 C 
ENDBRANCH   5  11
TORSDOF 3
ENDMDL
MODEL 2
REMARK VINA RESULT:      -4.7     10.736     11.829
REMARK  3 active torsions:
REMARK  status: ('A' for Active; 'I' for Inactive)
REMARK    1  A    between atoms: C5_5  and  C9_9 
REMARK    2  A    between atoms: C6_6  and  C10_10 
REMARK    3  A    between atoms: C10_10  and  C11_11 
ROOT
HETATM    1  C1  UNL     1     -35.488  13.959  -4.883  1.00 20.00     0.069 C 
HETATM    2  C2  UNL     1     -33.004  15.583  -5.897  1.00 20.00     0.006 C 
HETATM    3  C3  UNL     1     -33.474  15.341  -4.459  1.00 20.00     0.025 C 
HETATM    4  C4  UNL     1     -35.309  16.322  -5.625  1.00 20.00     0.029 C 
HETATM    5  C5  UNL     1     -34.236  16.047  -6.686  1.00 20.00    -0.013 C 
HETATM    6  C6  UNL     1     -35.008  15.309  -4.514  1.00 20.00     0.049 C 
HETATM    7  N12 UNL     1     -35.866  12.901  -5.173  1.00 20.00    -0.196 NA
ENDROOT
BRANCH   6   8
HETATM    8  C10 UNL     1     -35.636  15.719  -3.184  1.00 20.00     0.024 C 
BRANCH   8   9
HETATM    9  C11 UNL     1     -34.676  16.566  -2.357  1.00 20.00    -0.003 C 
HETATM   10  C8  UNL     1     -35.338  17.059  -1.080  1.00 20.00     0.005 C 
ENDBRANCH   8   9
ENDBRANCH   6   8
BRANCH   5  11
HETATM   11  C9  UNL     1     -33.959  17.252  -7.571  1.00 20.00     0.000 C 
HETATM   12  C7  UNL     1     -34.081  18.538  -6.815  1.00 20.00     0.005 C 
ENDBRANCH   5  11
TORSDOF 3
ENDMDL
MODEL 3
REMARK VINA RESULT:      -4.7     10.609     12.081
REMARK  3 active torsions:
REMARK  status: ('A' for Active; 'I' for Inactive)
REMARK    1  A    between atoms: C5_5  and  C9_9 
REMARK    2  A    between atoms: C6_6  and  C10_10 
REMARK    3  A    between atoms: C10_10  and  C11_11 
ROOT
HETATM    1  C1  UNL     1     -34.618  14.771  -4.101  1.00 20.00     0.069 C 
HETATM    2  C2  UNL     1     -35.142  16.745  -1.721  1.00 20.00     0.006 C 
HETATM    3  C3  UNL     1     -35.936  16.572  -3.020  1.00 20.00     0.025 C 
HETATM    4  C4  UNL     1     -33.679  17.025  -3.649  1.00 20.00     0.029 C 
HETATM    5  C5  UNL     1     -33.665  16.859  -2.124  1.00 20.00    -0.013 C 
HETATM    6  C6  UNL     1     -34.904  16.223  -4.102  1.00 20.00     0.049 C 
HETATM    7  N12 UNL     1     -34.392  13.633  -4.101  1.00 20.00    -0.196 NA
ENDROOT
BRANCH   6   8
HETATM    8  C10 UNL     1     -35.374  16.640  -5.495  1.00 20.00     0.024 C 
BRANCH   8   9
HETATM    9  C11 UNL     1     -34.197  17.026  -6.383  1.00 20.00    -0.003 C 
HETATM   10  C8  UNL     1     -34.031  16.046  -7.533  1.00 20.00     0.005 C 
ENDBRANCH   8   9
ENDBRANCH   6   8
BRANCH   5  11
HETATM   11  C9  UNL     1     -32.938  17.990  -1.414  1.00 20.00     0.000 C 
HETATM   12  C7  UNL     1     -33.608  18.363  -0.128  1.00 20.00     0.005 C 
ENDBRANCH   5  11
TORSDOF 3
ENDMDL
MODEL 4
REMARK VINA RESULT:      -4.6      1.553      4.835
REMARK  3 active torsions:
REMARK  status: ('A' for Active; 'I' for Inactive)
REMARK    1  A    between atoms: C5_5  and  C9_9 
REMARK    2  A    between atoms: C6_6  and  C10_10 
REMARK    3  A    between atoms: C10_10  and  C11_11 
ROOT
HETATM    1  C1  UNL     1     -31.588   8.107   3.281  1.00 20.00     0.069 C 
HETATM    2  C2  UNL     1     -33.172   5.464   2.691  1.00 20.00     0.006 C 
HETATM    3  C3  UNL     1     -32.901   6.652   1.761  1.00 20.00     0.025 C 
HETATM    4  C4  UNL     1     -33.966   7.532   3.706  1.00 20.00     0.029 C 
HETATM    5  C5  UNL     1     -33.693   6.053   4.009  1.00 20.00    -0.013 C 
HETATM    6  C6  UNL     1     -32.913   7.900   2.654  1.00 20.00     0.049 C 
HETATM    7  N12 UNL     1     -30.550   8.269   3.773  1.00 20.00    -0.196 NA
ENDROOT
BRANCH   6   8
HETATM    8  C10 UNL     1     -33.300   9.156   1.876  1.00 20.00     0.024 C 
BRANCH   8   9
HETATM    9  C11 UNL     1     -32.347   9.401   0.712  1.00 20.00    -0.003 C 
HETATM   10  C8  UNL     1     -33.093   9.429  -0.613  1.00 20.00     0.005 C 
ENDBRANCH   8   9
ENDBRANCH   6   8
BRANCH   5  11
HETATM   11  C9  UNL     1     -34.915   5.326   4.545  1.00 20.00     0.000 C 
HETATM   12  C7  UNL     1     -34.744   4.927   5.978  1.00 20.00     0.005 C 
ENDBRANCH   5  11
TORSDOF 3
ENDMDL
MODEL 5
REMARK VINA RESULT:      -4.6     10.777     11.680
REMARK  3 active torsions:
REMARK  status: ('A' for Active; 'I' for Inactive)
REMARK    1  A    between atoms: C5_5  and  C9_9 
REMARK    2  A    between atoms: C6_6  and  C10_10 
REMARK    3  A    between atoms: C10_10  and  C11_11 
ROOT
HETATM    1  C1  UNL     1     -32.275  18.389  -0.596  1.00 20.00     0.069 C 
HETATM    2  C2  UNL     1     -33.561  18.121  -3.444  1.00 20.00     0.006 C 
HETATM    3  C3  UNL     1     -33.812  19.186  -2.372  1.00 20.00     0.025 C 
HETATM    4  C4  UNL     1     -34.239  17.071  -1.352  1.00 20.00     0.029 C 
HETATM    5  C5  UNL     1     -33.663  16.761  -2.740  1.00 20.00    -0.013 C 
HETATM    6  C6  UNL     1     -33.690  18.465  -1.022  1.00 20.00     0.049 C 
HETATM    7  N12 UNL     1     -31.166  18.330  -0.261  1.00 20.00    -0.196 NA
ENDROOT
BRANCH   6   8
HETATM    8  C10 UNL     1     -34.507  19.154   0.070  1.00 20.00     0.024 C 
BRANCH   8   9
HETATM    9  C11 UNL     1     -34.995  18.152   1.110  1.00 20.00    -0.003 C 
HETATM   10  C8  UNL     1     -34.354  18.409   2.465  1.00 20.00     0.005 C 
ENDBRANCH   8   9
ENDBRANCH   6   8
BRANCH   5  11
HETATM   11  C9  UNL     1     -34.498  15.750  -3.511  1.00 20.00     0.000 C 
HETATM   12  C7  UNL     1     -33.645  14.731  -4.200  1.00 20.00     0.005 C 
ENDBRANCH   5  11
TORSDOF 3
ENDMDL
MODEL 6
REMARK VINA RESULT:      -4.6     10.894     11.902
REMARK  3 active torsions:
REMARK  status: ('A' for Active; 'I' for Inactive)
REMARK    1  A    between atoms: C5_5  and  C9_9 
REMARK    2  A    between atoms: C6_6  and  C10_10 
REMARK    3  A    between atoms: C10_10  and  C11_11 
ROOT
HETATM    1  C1  UNL     1     -34.656  18.355  -3.192  1.00 20.00     0.069 C 
HETATM    2  C2  UNL     1     -33.532  18.540  -0.270  1.00 20.00     0.006 C 
HETATM    3  C3  UNL     1     -32.950  17.801  -1.480  1.00 20.00     0.025 C 
HETATM    4  C4  UNL     1     -35.174  16.990  -1.184  1.00 20.00     0.029 C 
HETATM    5  C5  UNL     1     -35.014  18.148  -0.191  1.00 20.00    -0.013 C 
HETATM    6  C6  UNL     1     -34.155  17.297  -2.287  1.00 20.00     0.049 C 
HETATM    7  N12 UNL     1     -35.050  19.184  -3.902  1.00 20.00    -0.196 NA
ENDROOT
BRANCH   6   8
HETATM    8  C10 UNL     1     -33.812  16.055  -3.109  1.00 20.00     0.024 C 
BRANCH   8   9
HETATM    9  C11 UNL     1     -35.058  15.460  -3.755  1.00 20.00    -0.003 C 
HETATM   10  C8  UNL     1     -34.754  14.117  -4.401  1.00 20.00     0.005 C 
ENDBRANCH   8   9
ENDBRANCH   6   8
BRANCH   5  11
HETATM   11  C9  UNL     1     -35.461  17.784   1.216  1.00 20.00     0.000 C 
HETATM   12  C7  UNL     1     -34.531  18.329   2.255  1.00 20.00     0.005 C 
ENDBRANCH   5  11
TORSDOF 3
ENDMDL
MODEL 7
REMARK VINA RESULT:      -4.5     10.987     12.077
REMARK  3 active torsions:
REMARK  status: ('A' for Active; 'I' for Inactive)
REMARK    1  A    between atoms: C5_5  and  C9_9 
REMARK    2  A    between atoms: C6_6  and  C10_10 
REMARK    3  A    between atoms: C10_10  and  C11_11 
ROOT
HETATM    1  C1  UNL     1     -36.890  14.863  -4.811  1.00 20.00     0.069 C 
HETATM    2  C2  UNL     1     -36.463  17.560  -3.267  1.00 20.00     0.006 C 
HETATM    3  C3  UNL     1     -36.297  17.271  -4.763  1.00 20.00     0.025 C 
HETATM    4  C4  UNL     1     -34.898  15.723  -3.605  1.00 20.00     0.029 C 
HETATM    5  C5  UNL     1     -35.703  16.453  -2.522  1.00 20.00    -0.013 C 
HETATM    6  C6  UNL     1     -35.772  15.831  -4.860  1.00 20.00     0.049 C 
HETATM    7  N12 UNL     1     -37.766  14.104  -4.773  1.00 20.00    -0.196 NA
ENDROOT
BRANCH   6   8
HETATM    8  C10 UNL     1     -34.965  15.602  -6.137  1.00 20.00     0.024 C 
BRANCH   8   9
HETATM    9  C11 UNL     1     -34.269  14.246  -6.115  1.00 20.00    -0.003 C 
HETATM   10  C8  UNL     1     -34.665  13.405  -7.318  1.00 20.00     0.005 C 
ENDBRANCH   8   9
ENDBRANCH   6   8
BRANCH   5  11
HETATM   11  C9  UNL     1     -34.831  16.984  -1.395  1.00 20.00     0.000 C 
HETATM   12  C7  UNL     1     -33.447  17.309  -1.866  1.00 20.00     0.005 C 
ENDBRANCH   5  11
TORSDOF 3
ENDMDL
MODEL 8
REMARK VINA RESULT:      -4.4     10.417     11.497
REMARK  3 active torsions:
REMARK  status: ('A' for Active; 'I' for Inactive)
REMARK    1  A    between atoms: C5_5  and  C9_9 
REMARK    2  A    between atoms: C6_6  and  C10_10 
REMARK    3  A    between atoms: C10_10  and  C11_11 
ROOT
HETATM    1  C1  UNL     1     -33.143  14.502  -4.220  1.00 20.00     0.069 C 
HETATM    2  C2  UNL     1     -34.871  15.655  -6.570  1.00 20.00     0.006 C 
HETATM    3  C3  UNL     1     -34.049  16.410  -5.520  1.00 20.00     0.025 C 
HETATM    4  C4  UNL     1     -35.571  15.013  -4.326  1.00 20.00     0.029 C 
HETATM    5  C5  UNL     1     -35.722  14.632  -5.804  1.00 20.00    -0.013 C 
HETATM    6  C6  UNL     1     -34.151  15.585  -4.229  1.00 20.00     0.049 C 
HETATM    7  N12 UNL     1     -32.353  13.652  -4.212  1.00 20.00    -0.196 NA
ENDROOT
BRANCH   6   8
HETATM    8  C10 UNL     1     -33.970  16.449  -2.983  1.00 20.00     0.024 C 
BRANCH   8   9
HETATM    9  C11 UNL     1     -35.265  16.549  -2.186  1.00 20.00    -0.003 C 
HETATM   10  C8  UNL     1     -35.039  17.245  -0.852  1.00 20.00     0.005 C 
ENDBRANCH   8   9
ENDBRANCH   6   8
BRANCH   5  11
HETATM   11  C9  UNL     1     -37.172  14.602  -6.260  1.00 20.00     0.000 C 
HETATM   12  C7  UNL     1     -38.120  14.557  -5.102  1.00 20.00     0.005 C 
ENDBRANCH   5  11
TORSDOF 3
ENDMDL
MODEL 9
REMARK VINA RESULT:      -4.4     11.158     11.935
REMARK  3 active torsions:
REMARK  status: ('A' for Active; 'I' for Inactive)
REMARK    1  A    between atoms: C5_5  and  C9_9 
REMARK    2  A    between atoms: C6_6  and  C10_10 
REMARK    3  A    between atoms: C10_10  and  C11_11 
ROOT
HETATM    1  C1  UNL     1     -35.208  16.623  -5.389  1.00 20.00     0.069 C 
HETATM    2  C2  UNL     1     -33.611  16.816  -2.696  1.00 20.00     0.006 C 
HETATM    3  C3  UNL     1     -33.543  15.734  -3.779  1.00 20.00     0.025 C 
HETATM    4  C4  UNL     1     -35.826  15.885  -3.100  1.00 20.00     0.029 C 
HETATM    5  C5  UNL     1     -35.099  17.034  -2.389  1.00 20.00    -0.013 C 
HETATM    6  C6  UNL     1     -34.967  15.608  -4.339  1.00 20.00     0.049 C 
HETATM    7  N12 UNL     1     -35.397  17.419  -6.211  1.00 20.00    -0.196 NA
ENDROOT
BRANCH   6   8
HETATM    8  C10 UNL     1     -35.232  14.218  -4.916  1.00 20.00     0.024 C 
BRANCH   8   9
HETATM    9  C11 UNL     1     -34.388  13.966  -6.160  1.00 20.00    -0.003 C 
HETATM   10  C8  UNL     1     -35.161  13.166  -7.197  1.00 20.00     0.005 C 
ENDBRANCH   8   9
ENDBRANCH   6   8
BRANCH   5  11
HETATM   11  C9  UNL     1     -35.399  17.090  -0.900  1.00 20.00     0.000 C 
HETATM   12  C7  UNL     1     -34.378  17.891  -0.155  1.00 20.00     0.005 C 
ENDBRANCH   5  11
TORSDOF 3
ENDMDL
