MODEL 1
REMARK VINA RESULT:      -5.7      0.000      0.000
REMARK  3 active torsions:
REMARK  status: ('A' for Active; 'I' for Inactive)
REMARK    1  A    between atoms: C6_6  and  C9_9 
REMARK    2  A    between atoms: C9_9  and  C11_11 
REMARK    3  A    between atoms: C10_10  and  C11_11 
ROOT
HETATM    1  C1  UNL     1     -33.257   7.579   4.869  1.00 20.00     0.069 C 
HETATM    2  C2  UNL     1     -31.206   8.624   1.947  1.00 20.00     0.006 C 
HETATM    3  C3  UNL     1     -31.344   8.061   3.364  1.00 20.00     0.025 C 
HETATM    4  C4  UNL     1     -33.550   8.557   2.611  1.00 20.00     0.029 C 
HETATM    5  C5  UNL     1     -32.632   8.812   1.412  1.00 20.00    -0.017 C 
HETATM    6  C6  UNL     1     -32.786   7.544   3.474  1.00 20.00     0.049 C 
HETATM    7  C7  UNL     1     -32.857  10.177   0.779  1.00 20.00     0.010 C 
HETATM    8  N12 UNL     1     -33.629   7.605   5.968  1.00 20.00    -0.196 NA
ENDROOT
BRANCH   6   9
HETATM    9  C9  UNL     1     -32.912   6.116   2.928  1.00 20.00     0.024 C 
BRANCH   9  10
HETATM   10  C11 UNL     1     -34.295   5.538   3.212  1.00 20.00     0.001 C 
BRANCH  10  11
HETATM   11  C10 UNL     1     -34.195   4.256   4.038  1.00 20.00    -0.004 C 
HETATM   12  C8  UNL     1     -34.663   4.475   5.468  1.00 20.00     0.005 C 
ENDBRANCH  10  11
ENDBRANCH   9  10
ENDBRANCH   6   9
TORSDOF 3
ENDMDL
MODEL 2
REMARK VINA RESULT:      -5.1     11.007     12.300
REMARK  3 active torsions:
REMARK  status: ('A' for Active; 'I' for Inactive)
REMARK    1  A    between atoms: C6_6  and  C9_9 
REMARK    2  A    between atoms: C9_9  and  C11_11 
REMARK    3  A    between atoms: C10_10  and  C11_11 
ROOT
HETATM    1  C1  UNL     1     -35.568  13.945  -4.927  1.00 20.00     0.069 C 
HETATM    2  C2  UNL     1     -33.578  16.429  -3.004  1.00 20.00     0.006 C 
HETATM    3  C3  UNL     1     -33.687  15.259  -3.984  1.00 20.00     0.025 C 
HETATM    4  C4  UNL     1     -35.908  15.775  -3.292  1.00 20.00     0.029 C 
HETATM    5  C5  UNL     1     -35.014  16.852  -2.667  1.00 20.00    -0.017 C 
HETATM    6  C6  UNL     1     -35.126  15.289  -4.519  1.00 20.00     0.049 C 
HETATM    7  C7  UNL     1     -35.253  17.020  -1.174  1.00 20.00     0.010 C 
HETATM    8  N12 UNL     1     -35.918  12.887  -5.249  1.00 20.00    -0.196 NA
ENDROOT
BRANCH   6   9
HETATM    9  C9  UNL     1     -35.262  16.253  -5.705  1.00 20.00     0.024 C 
BRANCH   9  10
HETATM   10  C11 UNL     1     -33.944  16.382  -6.463  1.00 20.00     0.001 C 
BRANCH  10  11
HETATM   11  C10 UNL     1     -34.072  15.829  -7.883  1.00 20.00    -0.004 C 
HETATM   12  C8  UNL     1     -33.844  14.326  -7.918  1.00 20.00     0.005 C 
ENDBRANCH  10  11
ENDBRANCH   9  10
ENDBRANCH   6   9
TORSDOF 3
ENDMDL
MODEL 3
REMARK VINA RESULT:      -4.9     11.017     12.590
REMARK  3 active torsions:
REMARK  status: ('A' for Active; 'I' for Inactive)
REMARK    1  A    between atoms: C6_6  and  C9_9 
REMARK    2  A    between atoms: C9_9  and  C11_11 
REMARK    3  A    between atoms: C10_10  and  C11_11 
ROOT
HETATM    1  C1  UNL     1     -35.576  13.899  -4.929  1.00 20.00     0.069 C 
HETATM    2  C2  UNL     1     -33.647  16.478  -3.069  1.00 20.00     0.006 C 
HETATM    3  C3  UNL     1     -33.731  15.304  -4.047  1.00 20.00     0.025 C 
HETATM    4  C4  UNL     1     -35.950  15.711  -3.280  1.00 20.00     0.029 C 
HETATM    5  C5  UNL     1     -35.090  16.830  -2.684  1.00 20.00    -0.017 C 
HETATM    6  C6  UNL     1     -35.186  15.264  -4.533  1.00 20.00     0.049 C 
HETATM    7  C7  UNL     1     -35.286  16.986  -1.184  1.00 20.00     0.010 C 
HETATM    8  N12 UNL     1     -35.884  12.825  -5.241  1.00 20.00    -0.196 NA
ENDROOT
BRANCH   6   9
HETATM    9  C9  UNL     1     -35.409  16.220  -5.713  1.00 20.00     0.024 C 
BRANCH   9  10
HETATM   10  C11 UNL     1     -34.289  16.097  -6.740  1.00 20.00     0.001 C 
BRANCH  10  11
HETATM   11  C10 UNL     1     -33.899  17.468  -7.294  1.00 20.00    -0.004 C 
HETATM   12  C8  UNL     1     -34.058  18.558  -6.246  1.00 20.00     0.005 C 
ENDBRANCH  10  11
ENDBRANCH   9  10
ENDBRANCH   6   9
TORSDOF 3
ENDMDL
MODEL 4
REMARK VINA RESULT:      -4.7     11.236     12.153
REMARK  3 active torsions:
REMARK  status: ('A' for Active; 'I' for Inactive)
REMARK    1  A    between atoms: C6_6  and  C9_9 
REMARK    2  A    between atoms: C9_9  and  C11_11 
REMARK    3  A    between atoms: C10_10  and  C11_11 
ROOT
HETATM    1  C1  UNL     1     -34.530  18.059  -4.351  1.00 20.00     0.069 C 
HETATM    2  C2  UNL     1     -33.576  14.524  -5.000  1.00 20.00     0.006 C 
HETATM    3  C3  UNL     1     -33.273  16.024  -5.009  1.00 20.00     0.025 C 
HETATM    4  C4  UNL     1     -35.495  15.783  -4.182  1.00 20.00     0.029 C 
HETATM    5  C5  UNL     1     -34.950  14.359  -4.339  1.00 20.00    -0.017 C 
HETATM    6  C6  UNL     1     -34.246  16.656  -4.004  1.00 20.00     0.049 C 
HETATM    7  C7  UNL     1     -35.887  13.455  -5.125  1.00 20.00     0.010 C 
HETATM    8  N12 UNL     1     -34.754  19.164  -4.623  1.00 20.00    -0.196 NA
ENDROOT
BRANCH   6   9
HETATM    9  C9  UNL     1     -33.696  16.585  -2.573  1.00 20.00     0.024 C 
BRANCH   9  10
HETATM   10  C11 UNL     1     -34.774  16.937  -1.552  1.00 20.00     0.001 C 
BRANCH  10  11
HETATM   11  C10 UNL     1     -34.229  17.886  -0.484  1.00 20.00    -0.004 C 
HETATM   12  C8  UNL     1     -32.828  18.367  -0.828  1.00 20.00     0.005 C 
ENDBRANCH  10  11
ENDBRANCH   9  10
ENDBRANCH   6   9
TORSDOF 3
ENDMDL
MODEL 5
REMARK VINA RESULT:      -4.7     11.099     12.578
REMARK  3 active torsions:
REMARK  status: ('A' for Active; 'I' for Inactive)
REMARK    1  A    between atoms: C6_6  and  C9_9 
REMARK    2  A    between atoms: C9_9  and  C11_11 
REMARK    3  A    between atoms: C10_10  and  C11_11 
ROOT
HETATM    1  C1  UNL     1     -35.375  13.936  -5.138  1.00 20.00     0.069 C 
HETATM    2  C2  UNL     1     -35.297  17.591  -5.823  1.00 20.00     0.006 C 
HETATM    3  C3  UNL     1     -35.929  16.354  -5.180  1.00 20.00     0.025 C 
HETATM    4  C4  UNL     1     -34.027  15.592  -6.396  1.00 20.00     0.029 C 
HETATM    5  C5  UNL     1     -33.997  17.121  -6.489  1.00 20.00    -0.017 C 
HETATM    6  C6  UNL     1     -34.816  15.299  -5.113  1.00 20.00     0.049 C 
HETATM    7  C7  UNL     1     -33.844  17.620  -7.918  1.00 20.00     0.010 C 
HETATM    8  N12 UNL     1     -35.814  12.862  -5.158  1.00 20.00    -0.196 NA
ENDROOT
BRANCH   6   9
HETATM    9  C9  UNL     1     -33.953  15.474  -3.857  1.00 20.00     0.024 C 
BRANCH   9  10
HETATM   10  C11 UNL     1     -34.727  16.185  -2.751  1.00 20.00     0.001 C 
BRANCH  10  11
HETATM   11  C10 UNL     1     -33.804  17.075  -1.920  1.00 20.00    -0.004 C 
HETATM   12  C8  UNL     1     -33.299  18.261  -2.726  1.00 20.00     0.005 C 
ENDBRANCH  10  11
ENDBRANCH   9  10
ENDBRANCH   6   9
TORSDOF 3
ENDMDL
MODEL 6
REMARK VINA RESULT:      -4.6     11.042     12.654
REMARK  3 active torsions:
REMARK  status: ('A' for Active; 'I' for Inactive)
REMARK    1  A    between atoms: C6_6  and  C9_9 
REMARK    2  A    between atoms: C9_9  and  C11_11 
REMARK    3  A    between atoms: C10_10  and  C11_11 
ROOT
HETATM    1  C1  UNL     1     -37.234  14.595  -4.843  1.00 20.00     0.069 C 
HETATM    2  C2  UNL     1     -33.854  15.455  -3.554  1.00 20.00     0.006 C 
HETATM    3  C3  UNL     1     -34.802  14.559  -4.353  1.00 20.00     0.025 C 
HETATM    4  C4  UNL     1     -36.136  16.299  -3.417  1.00 20.00     0.029 C 
HETATM    5  C5  UNL     1     -34.686  16.649  -3.068  1.00 20.00    -0.017 C 
HETATM    6  C6  UNL     1     -36.029  15.425  -4.674  1.00 20.00     0.049 C 
HETATM    7  C7  UNL     1     -34.494  16.949  -1.589  1.00 20.00     0.010 C 
HETATM    8  N12 UNL     1     -38.185  13.943  -4.977  1.00 20.00    -0.196 NA
ENDROOT
BRANCH   6   9
HETATM    9  C9  UNL     1     -35.806  16.265  -5.939  1.00 20.00     0.024 C 
BRANCH   9  10
HETATM   10  C11 UNL     1     -35.427  15.383  -7.125  1.00 20.00     0.001 C 
BRANCH  10  11
HETATM   11  C10 UNL     1     -34.146  15.883  -7.793  1.00 20.00    -0.004 C 
HETATM   12  C8  UNL     1     -33.842  17.323  -7.409  1.00 20.00     0.005 C 
ENDBRANCH  10  11
ENDBRANCH   9  10
ENDBRANCH   6   9
TORSDOF 3
ENDMDL
MODEL 7
REMARK VINA RESULT:      -4.6      1.367      4.628
REMARK  3 active torsions:
REMARK  status: ('A' for Active; 'I' for Inactive)
REMARK    1  A    between atoms: C6_6  and  C9_9 
REMARK    2  A    between atoms: C9_9  and  C11_11 
REMARK    3  A    between atoms: C10_10  and  C11_11 
ROOT
HETATM    1  C1  UNL     1     -31.754   8.041   3.647  1.00 20.00     0.069 C 
HETATM    2  C2  UNL     1     -34.932   6.172   4.134  1.00 20.00     0.006 C 
HETATM    3  C3  UNL     1     -34.082   7.439   4.256  1.00 20.00     0.025 C 
HETATM    4  C4  UNL     1     -32.686   5.776   3.275  1.00 20.00     0.029 C 
HETATM    5  C5  UNL     1     -34.079   5.146   3.377  1.00 20.00    -0.017 C 
HETATM    6  C6  UNL     1     -32.949   7.287   3.232  1.00 20.00     0.049 C 
HETATM    7  C7  UNL     1     -34.058   3.779   4.043  1.00 20.00     0.010 C 
HETATM    8  N12 UNL     1     -30.812   8.636   3.973  1.00 20.00    -0.196 NA
ENDROOT
BRANCH   6   9
HETATM    9  C9  UNL     1     -33.387   7.753   1.837  1.00 20.00     0.024 C 
BRANCH   9  10
HETATM   10  C11 UNL     1     -32.205   8.301   1.043  1.00 20.00     0.001 C 
BRANCH  10  11
HETATM   11  C10 UNL     1     -32.563   9.627   0.372  1.00 20.00    -0.004 C 
HETATM   12  C8  UNL     1     -32.748  10.737   1.394  1.00 20.00     0.005 C 
ENDBRANCH  10  11
ENDBRANCH   9  10
ENDBRANCH   6   9
TORSDOF 3
ENDMDL
MODEL 8
REMARK VINA RESULT:      -4.5     11.169     12.137
REMARK  3 active torsions:
REMARK  status: ('A' for Active; 'I' for Inactive)
REMARK    1  A    between atoms: C6_6  and  C9_9 
REMARK    2  A    between atoms: C9_9  and  C11_11 
REMARK    3  A    between atoms: C10_10  and  C11_11 
ROOT
HETATM    1  C1  UNL     1     -33.998  16.448  -5.546  1.00 20.00     0.069 C 
HETATM    2  C2  UNL     1     -35.991  16.849  -2.432  1.00 20.00     0.006 C 
HETATM    3  C3  UNL     1     -35.879  16.736  -3.954  1.00 20.00     0.025 C 
HETATM    4  C4  UNL     1     -33.658  16.622  -3.097  1.00 20.00     0.029 C 
HETATM    5  C5  UNL     1     -34.579  16.635  -1.873  1.00 20.00    -0.017 C 
HETATM    6  C6  UNL     1     -34.529  16.058  -4.228  1.00 20.00     0.049 C 
HETATM    7  C7  UNL     1     -34.177  17.684  -0.847  1.00 20.00     0.010 C 
HETATM    8  N12 UNL     1     -33.578  16.753  -6.584  1.00 20.00    -0.196 NA
ENDROOT
BRANCH   6   9
HETATM    9  C9  UNL     1     -34.645  14.530  -4.156  1.00 20.00     0.024 C 
BRANCH   9  10
HETATM   10  C11 UNL     1     -35.930  14.044  -4.820  1.00 20.00     0.001 C 
BRANCH  10  11
HETATM   11  C10 UNL     1     -35.632  13.355  -6.152  1.00 20.00    -0.004 C 
HETATM   12  C8  UNL     1     -36.265  14.098  -7.317  1.00 20.00     0.005 C 
ENDBRANCH  10  11
ENDBRANCH   9  10
ENDBRANCH   6   9
TORSDOF 3
ENDMDL
MODEL 9
REMARK VINA RESULT:      -4.5     11.491     12.180
REMARK  3 active torsions:
REMARK  status: ('A' for Active; 'I' for Inactive)
REMARK    1  A    between atoms: C6_6  and  C9_9 
REMARK    2  A    between atoms: C9_9  and  C11_11 
REMARK    3  A    between atoms: C10_10  and  C11_11 
ROOT
HETATM    1  C1  UNL     1     -35.402  17.126  -5.288  1.00 20.00     0.069 C 
HETATM    2  C2  UNL     1     -35.107  16.900  -1.588  1.00 20.00     0.006 C 
HETATM    3  C3  UNL     1     -35.935  16.901  -2.875  1.00 20.00     0.025 C 
HETATM    4  C4  UNL     1     -33.666  17.234  -3.524  1.00 20.00     0.029 C 
HETATM    5  C5  UNL     1     -33.635  16.974  -2.015  1.00 20.00    -0.017 C 
HETATM    6  C6  UNL     1     -34.955  16.556  -4.006  1.00 20.00     0.049 C 
HETATM    7  C7  UNL     1     -32.845  18.027  -1.253  1.00 20.00     0.010 C 
HETATM    8  N12 UNL     1     -35.754  17.575  -6.299  1.00 20.00    -0.196 NA
ENDROOT
BRANCH   6   9
HETATM    9  C9  UNL     1     -34.784  15.038  -4.155  1.00 20.00     0.024 C 
BRANCH   9  10
HETATM   10  C11 UNL     1     -36.059  14.391  -4.688  1.00 20.00     0.001 C 
BRANCH  10  11
HETATM   11  C10 UNL     1     -35.736  13.324  -5.734  1.00 20.00    -0.004 C 
HETATM   12  C8  UNL     1     -34.672  13.803  -6.709  1.00 20.00     0.005 C 
ENDBRANCH  10  11
ENDBRANCH   9  10
ENDBRANCH   6   9
TORSDOF 3
ENDMDL
