MODEL 1
REMARK VINA RESULT:      -4.3      0.000      0.000
REMARK  0 active torsions:
REMARK  status: ('A' for Active; 'I' for Inactive)
ROOT
HETATM    1  C1  UNL     1     -33.060   7.022   3.280  1.00 20.00     0.071 C 
HETATM    2  C2  UNL     1     -34.176   6.156   5.313  1.00 20.00     0.052 C 
HETATM    3  C3  UNL     1     -34.702   4.783   5.677  1.00 20.00     0.169 C 
HETATM    4  C4  UNL     1     -33.690   4.642   3.580  1.00 20.00     0.192 C 
HETATM    5  C5  UNL     1     -34.085   6.101   3.796  1.00 20.00     0.069 C 
HETATM    6  C6  UNL     1     -35.437   6.411   3.141  1.00 20.00     0.033 C 
HETATM    7  N7  UNL     1     -32.253   7.749   2.873  1.00 20.00    -0.196 NA
HETATM    8  O8  UNL     1     -34.253   3.880   4.660  1.00 20.00    -0.389 OA
ENDROOT
TORSDOF 0
ENDMDL
MODEL 2
REMARK VINA RESULT:      -3.8      1.725      2.141
REMARK  0 active torsions:
REMARK  status: ('A' for Active; 'I' for Inactive)
ROOT
HETATM    1  C1  UNL     1     -33.428   5.045   3.012  1.00 20.00     0.071 C 
HETATM    2  C2  UNL     1     -33.381   7.048   4.467  1.00 20.00     0.052 C 
HETATM    3  C3  UNL     1     -33.960   7.320   5.840  1.00 20.00     0.169 C 
HETATM    4  C4  UNL     1     -34.399   5.095   5.294  1.00 20.00     0.192 C 
HETATM    5  C5  UNL     1     -34.184   5.850   3.984  1.00 20.00     0.069 C 
HETATM    6  C6  UNL     1     -35.522   6.283   3.369  1.00 20.00     0.033 C 
HETATM    7  N7  UNL     1     -32.831   4.411   2.245  1.00 20.00    -0.196 NA
HETATM    8  O8  UNL     1     -34.434   6.069   6.350  1.00 20.00    -0.389 OA
ENDROOT
TORSDOF 0
ENDMDL
MODEL 3
REMARK VINA RESULT:      -3.7     12.383     13.091
REMARK  0 active torsions:
REMARK  status: ('A' for Active; 'I' for Inactive)
ROOT
HETATM    1  C1  UNL     1     -35.122  13.801  -4.894  1.00 20.00     0.071 C 
HETATM    2  C2  UNL     1     -34.592  15.694  -3.389  1.00 20.00     0.052 C 
HETATM    3  C3  UNL     1     -33.837  16.988  -3.611  1.00 20.00     0.169 C 
HETATM    4  C4  UNL     1     -33.943  15.850  -5.644  1.00 20.00     0.192 C 
HETATM    5  C5  UNL     1     -34.118  14.815  -4.536  1.00 20.00     0.069 C 
HETATM    6  C6  UNL     1     -32.786  14.130  -4.203  1.00 20.00     0.033 C 
HETATM    7  N7  UNL     1     -35.913  13.000  -5.176  1.00 20.00    -0.196 NA
HETATM    8  O8  UNL     1     -33.596  17.095  -5.018  1.00 20.00    -0.389 OA
ENDROOT
TORSDOF 0
ENDMDL
MODEL 4
REMARK VINA RESULT:      -3.6      2.462      3.284
REMARK  0 active torsions:
REMARK  status: ('A' for Active; 'I' for Inactive)
ROOT
HETATM    1  C1  UNL     1     -34.165   4.545   4.202  1.00 20.00     0.071 C 
HETATM    2  C2  UNL     1     -32.968   6.182   2.781  1.00 20.00     0.052 C 
HETATM    3  C3  UNL     1     -32.581   7.630   3.004  1.00 20.00     0.169 C 
HETATM    4  C4  UNL     1     -33.591   6.838   4.952  1.00 20.00     0.192 C 
HETATM    5  C5  UNL     1     -34.073   5.958   3.802  1.00 20.00     0.069 C 
HETATM    6  C6  UNL     1     -35.431   6.436   3.272  1.00 20.00     0.033 C 
HETATM    7  N7  UNL     1     -34.237   3.431   4.516  1.00 20.00    -0.196 NA
HETATM    8  O8  UNL     1     -32.851   7.928   4.378  1.00 20.00    -0.389 OA
ENDROOT
TORSDOF 0
ENDMDL
MODEL 5
REMARK VINA RESULT:      -3.6      1.063      1.773
REMARK  0 active torsions:
REMARK  status: ('A' for Active; 'I' for Inactive)
ROOT
HETATM    1  C1  UNL     1     -33.086   7.427   2.941  1.00 20.00     0.071 C 
HETATM    2  C2  UNL     1     -33.220   5.142   3.884  1.00 20.00     0.052 C 
HETATM    3  C3  UNL     1     -34.376   4.339   4.443  1.00 20.00     0.169 C 
HETATM    4  C4  UNL     1     -35.211   6.374   3.667  1.00 20.00     0.192 C 
HETATM    5  C5  UNL     1     -33.726   6.574   3.955  1.00 20.00     0.069 C 
HETATM    6  C6  UNL     1     -33.509   7.176   5.350  1.00 20.00     0.033 C 
HETATM    7  N7  UNL     1     -32.581   8.100   2.142  1.00 20.00    -0.196 NA
HETATM    8  O8  UNL     1     -35.572   5.072   4.154  1.00 20.00    -0.389 OA
ENDROOT
TORSDOF 0
ENDMDL
MODEL 6
REMARK VINA RESULT:      -3.6      1.708      2.119
REMARK  0 active torsions:
REMARK  status: ('A' for Active; 'I' for Inactive)
ROOT
HETATM    1  C1  UNL     1     -33.955   6.866   5.320  1.00 20.00     0.071 C 
HETATM    2  C2  UNL     1     -34.171   4.458   4.786  1.00 20.00     0.052 C 
HETATM    3  C3  UNL     1     -33.825   3.657   3.548  1.00 20.00     0.169 C 
HETATM    4  C4  UNL     1     -33.160   5.865   3.194  1.00 20.00     0.192 C 
HETATM    5  C5  UNL     1     -34.249   5.885   4.264  1.00 20.00     0.069 C 
HETATM    6  C6  UNL     1     -35.623   6.182   3.649  1.00 20.00     0.033 C 
HETATM    7  N7  UNL     1     -33.723   7.640   6.153  1.00 20.00    -0.196 NA
HETATM    8  O8  UNL     1     -33.088   4.526   2.680  1.00 20.00    -0.389 OA
ENDROOT
TORSDOF 0
ENDMDL
MODEL 7
REMARK VINA RESULT:      -3.6     12.370     13.224
REMARK  0 active torsions:
REMARK  status: ('A' for Active; 'I' for Inactive)
ROOT
HETATM    1  C1  UNL     1     -36.782  14.159  -5.194  1.00 20.00     0.071 C 
HETATM    2  C2  UNL     1     -34.504  14.129  -4.224  1.00 20.00     0.052 C 
HETATM    3  C3  UNL     1     -33.310  15.043  -4.406  1.00 20.00     0.169 C 
HETATM    4  C4  UNL     1     -35.090  15.919  -5.633  1.00 20.00     0.192 C 
HETATM    5  C5  UNL     1     -35.358  14.427  -5.447  1.00 20.00     0.069 C 
HETATM    6  C6  UNL     1     -34.889  13.625  -6.668  1.00 20.00     0.033 C 
HETATM    7  N7  UNL     1     -37.905  13.947  -4.994  1.00 20.00    -0.196 NA
HETATM    8  O8  UNL     1     -33.764  16.181  -5.147  1.00 20.00    -0.389 OA
ENDROOT
TORSDOF 0
ENDMDL
MODEL 8
REMARK VINA RESULT:      -3.5     12.411     12.941
REMARK  0 active torsions:
REMARK  status: ('A' for Active; 'I' for Inactive)
ROOT
HETATM    1  C1  UNL     1     -35.560  13.899  -4.957  1.00 20.00     0.071 C 
HETATM    2  C2  UNL     1     -33.821  15.266  -3.845  1.00 20.00     0.052 C 
HETATM    3  C3  UNL     1     -33.903  16.515  -2.992  1.00 20.00     0.169 C 
HETATM    4  C4  UNL     1     -36.076  15.849  -3.514  1.00 20.00     0.192 C 
HETATM    5  C5  UNL     1     -35.154  15.261  -4.579  1.00 20.00     0.069 C 
HETATM    6  C6  UNL     1     -35.110  16.153  -5.826  1.00 20.00     0.033 C 
HETATM    7  N7  UNL     1     -35.880  12.824  -5.256  1.00 20.00    -0.196 NA
HETATM    8  O8  UNL     1     -35.288  16.737  -2.706  1.00 20.00    -0.389 OA
ENDROOT
TORSDOF 0
ENDMDL
MODEL 9
REMARK VINA RESULT:      -3.5      2.921      3.927
REMARK  0 active torsions:
REMARK  status: ('A' for Active; 'I' for Inactive)
ROOT
HETATM    1  C1  UNL     1     -33.520   7.201   4.848  1.00 20.00     0.071 C 
HETATM    2  C2  UNL     1     -31.625   7.932   3.434  1.00 20.00     0.052 C 
HETATM    3  C3  UNL     1     -31.564   8.502   2.031  1.00 20.00     0.169 C 
HETATM    4  C4  UNL     1     -33.807   8.212   2.602  1.00 20.00     0.192 C 
HETATM    5  C5  UNL     1     -32.991   7.265   3.477  1.00 20.00     0.069 C 
HETATM    6  C6  UNL     1     -32.945   5.855   2.873  1.00 20.00     0.033 C 
HETATM    7  N7  UNL     1     -33.938   7.149   5.929  1.00 20.00    -0.196 NA
HETATM    8  O8  UNL     1     -32.911   8.784   1.636  1.00 20.00    -0.389 OA
ENDROOT
TORSDOF 0
ENDMDL
