MODEL 1
REMARK VINA RESULT:      -5.4      0.000      0.000
REMARK  3 active torsions:
REMARK  status: ('A' for Active; 'I' for Inactive)
REMARK    1  A    between atoms: C3_3  and  C7_7 
REMARK    2  A    between atoms: C3_3  and  C10_10 
REMARK    3  A    between atoms: C8_8  and  C11_11 
ROOT
HETATM    1  C1  UNL     1     -34.088   3.620   4.408  1.00 20.00     0.012 C 
HETATM    2  C2  UNL     1     -34.404   4.767   4.241  1.00 20.00    -0.110 C 
HETATM    3  C10 UNL     1     -34.799   6.165   4.033  1.00 20.00     0.171 C 
ENDROOT
BRANCH   3   4
HETATM    4  C3  UNL     1     -33.643   7.127   4.217  1.00 20.00     0.142 C 
HETATM    5  O12 UNL     1     -33.517   7.846   5.208  1.00 20.00    -0.297 OA
BRANCH   4   6
HETATM    6  C7  UNL     1     -32.622   7.165   3.095  1.00 20.00     0.057 C 
HETATM    7  C4  UNL     1     -31.428   8.017   3.527  1.00 20.00     0.013 C 
HETATM    8  C5  UNL     1     -31.318   9.133   2.492  1.00 20.00     0.005 C 
HETATM    9  C8  UNL     1     -32.747   9.311   1.991  1.00 20.00    -0.014 C 
HETATM   10  C6  UNL     1     -33.245   7.868   1.891  1.00 20.00     0.016 C 
BRANCH   9  11
HETATM   11  C11 UNL     1     -32.830  10.065   0.674  1.00 20.00     0.000 C 
HETATM   12  C9  UNL     1     -32.939   9.138  -0.496  1.00 20.00     0.005 C 
ENDBRANCH   9  11
ENDBRANCH   4   6
ENDBRANCH   3   4
TORSDOF 3
ENDMDL
MODEL 2
REMARK VINA RESULT:      -5.4      1.541      4.963
REMARK  3 active torsions:
REMARK  status: ('A' for Active; 'I' for Inactive)
REMARK    1  A    between atoms: C3_3  and  C7_7 
REMARK    2  A    between atoms: C3_3  and  C10_10 
REMARK    3  A    between atoms: C8_8  and  C11_11 
ROOT
HETATM    1  C1  UNL     1     -33.664   9.896  -0.795  1.00 20.00     0.012 C 
HETATM    2  C2  UNL     1     -32.771   9.393  -0.169  1.00 20.00    -0.110 C 
HETATM    3  C10 UNL     1     -31.677   8.775   0.588  1.00 20.00     0.171 C 
ENDROOT
BRANCH   3   4
HETATM    4  C3  UNL     1     -31.941   8.757   2.080  1.00 20.00     0.142 C 
HETATM    5  O12 UNL     1     -32.163   9.774   2.736  1.00 20.00    -0.297 OA
BRANCH   4   6
HETATM    6  C7  UNL     1     -31.919   7.393   2.745  1.00 20.00     0.057 C 
HETATM    7  C4  UNL     1     -33.039   6.530   2.164  1.00 20.00     0.013 C 
HETATM    8  C5  UNL     1     -33.913   6.129   3.349  1.00 20.00     0.005 C 
HETATM    9  C8  UNL     1     -33.726   7.268   4.344  1.00 20.00    -0.014 C 
HETATM   10  C6  UNL     1     -32.231   7.568   4.229  1.00 20.00     0.016 C 
BRANCH   9  11
HETATM   11  C11 UNL     1     -34.157   6.907   5.755  1.00 20.00     0.000 C 
HETATM   12  C9  UNL     1     -34.572   5.474   5.865  1.00 20.00     0.005 C 
ENDBRANCH   9  11
ENDBRANCH   4   6
ENDBRANCH   3   4
TORSDOF 3
ENDMDL
MODEL 3
REMARK VINA RESULT:      -5.4      1.411      1.439
REMARK  3 active torsions:
REMARK  status: ('A' for Active; 'I' for Inactive)
REMARK    1  A    between atoms: C3_3  and  C7_7 
REMARK    2  A    between atoms: C3_3  and  C10_10 
REMARK    3  A    between atoms: C8_8  and  C11_11 
ROOT
HETATM    1  C1  UNL     1     -34.736   4.966   6.217  1.00 20.00     0.012 C 
HETATM    2  C2  UNL     1     -34.340   5.866   5.528  1.00 20.00    -0.110 C 
HETATM    3  C10 UNL     1     -33.858   6.971   4.691  1.00 20.00     0.171 C 
ENDROOT
BRANCH   3   4
HETATM    4  C3  UNL     1     -33.556   6.535   3.272  1.00 20.00     0.142 C 
HETATM    5  O12 UNL     1     -34.281   5.773   2.633  1.00 20.00    -0.297 OA
BRANCH   4   6
HETATM    6  C7  UNL     1     -32.285   7.096   2.658  1.00 20.00     0.057 C 
HETATM    7  C4  UNL     1     -31.700   8.156   3.591  1.00 20.00     0.013 C 
HETATM    8  C5  UNL     1     -31.627   9.439   2.769  1.00 20.00     0.005 C 
HETATM    9  C8  UNL     1     -32.752   9.286   1.751  1.00 20.00    -0.014 C 
HETATM   10  C6  UNL     1     -32.645   7.812   1.358  1.00 20.00     0.016 C 
BRANCH   9  11
HETATM   11  C11 UNL     1     -32.621  10.230   0.568  1.00 20.00     0.000 C 
HETATM   12  C9  UNL     1     -33.097   9.603  -0.705  1.00 20.00     0.005 C 
ENDBRANCH   9  11
ENDBRANCH   4   6
ENDBRANCH   3   4
TORSDOF 3
ENDMDL
MODEL 4
REMARK VINA RESULT:      -5.4      1.290      4.926
REMARK  3 active torsions:
REMARK  status: ('A' for Active; 'I' for Inactive)
REMARK    1  A    between atoms: C3_3  and  C7_7 
REMARK    2  A    between atoms: C3_3  and  C10_10 
REMARK    3  A    between atoms: C8_8  and  C11_11 
ROOT
HETATM    1  C1  UNL     1     -32.605  10.199   0.465  1.00 20.00     0.012 C 
HETATM    2  C2  UNL     1     -32.307   9.193   1.050  1.00 20.00    -0.110 C 
HETATM    3  C10 UNL     1     -31.942   7.960   1.755  1.00 20.00     0.171 C 
ENDROOT
BRANCH   3   4
HETATM    4  C3  UNL     1     -32.111   8.079   3.257  1.00 20.00     0.142 C 
HETATM    5  O12 UNL     1     -31.174   8.299   4.024  1.00 20.00    -0.297 OA
BRANCH   4   6
HETATM    6  C7  UNL     1     -33.524   7.909   3.784  1.00 20.00     0.057 C 
HETATM    7  C4  UNL     1     -33.516   8.057   5.306  1.00 20.00     0.013 C 
HETATM    8  C5  UNL     1     -34.086   6.751   5.853  1.00 20.00     0.005 C 
HETATM    9  C8  UNL     1     -33.730   5.721   4.788  1.00 20.00    -0.014 C 
HETATM   10  C6  UNL     1     -33.988   6.485   3.488  1.00 20.00     0.016 C 
BRANCH   9  11
HETATM   11  C11 UNL     1     -34.541   4.441   4.899  1.00 20.00     0.000 C 
HETATM   12  C9  UNL     1     -33.996   3.355   4.026  1.00 20.00     0.005 C 
ENDBRANCH   9  11
ENDBRANCH   4   6
ENDBRANCH   3   4
TORSDOF 3
ENDMDL
MODEL 5
REMARK VINA RESULT:      -5.2      1.012      1.145
REMARK  3 active torsions:
REMARK  status: ('A' for Active; 'I' for Inactive)
REMARK    1  A    between atoms: C3_3  and  C7_7 
REMARK    2  A    between atoms: C3_3  and  C10_10 
REMARK    3  A    between atoms: C8_8  and  C11_11 
ROOT
HETATM    1  C1  UNL     1     -34.752   4.557   4.803  1.00 20.00     0.012 C 
HETATM    2  C2  UNL     1     -34.428   5.644   5.197  1.00 20.00    -0.110 C 
HETATM    3  C10 UNL     1     -34.040   6.972   5.685  1.00 20.00     0.171 C 
ENDROOT
BRANCH   3   4
HETATM    4  C3  UNL     1     -33.049   7.661   4.768  1.00 20.00     0.142 C 
HETATM    5  O12 UNL     1     -32.180   8.431   5.174  1.00 20.00    -0.297 OA
BRANCH   4   6
HETATM    6  C7  UNL     1     -33.182   7.349   3.289  1.00 20.00     0.057 C 
HETATM    7  C4  UNL     1     -31.794   7.098   2.699  1.00 20.00     0.013 C 
HETATM    8  C5  UNL     1     -31.627   8.121   1.579  1.00 20.00     0.005 C 
HETATM    9  C8  UNL     1     -32.508   9.287   2.013  1.00 20.00    -0.014 C 
HETATM   10  C6  UNL     1     -33.741   8.579   2.578  1.00 20.00     0.016 C 
BRANCH   9  11
HETATM   11  C11 UNL     1     -32.836  10.244   0.880  1.00 20.00     0.000 C 
HETATM   12  C9  UNL     1     -33.077   9.524  -0.410  1.00 20.00     0.005 C 
ENDBRANCH   9  11
ENDBRANCH   4   6
ENDBRANCH   3   4
TORSDOF 3
ENDMDL
MODEL 6
REMARK VINA RESULT:      -4.9     10.401     11.550
REMARK  3 active torsions:
REMARK  status: ('A' for Active; 'I' for Inactive)
REMARK    1  A    between atoms: C3_3  and  C7_7 
REMARK    2  A    between atoms: C3_3  and  C10_10 
REMARK    3  A    between atoms: C8_8  and  C11_11 
ROOT
HETATM    1  C1  UNL     1     -30.557  18.923   2.652  1.00 20.00     0.012 C 
HETATM    2  C2  UNL     1     -31.547  18.905   1.973  1.00 20.00    -0.110 C 
HETATM    3  C10 UNL     1     -32.761  18.884   1.149  1.00 20.00     0.171 C 
ENDROOT
BRANCH   3   4
HETATM    4  C3  UNL     1     -32.473  18.552  -0.301  1.00 20.00     0.142 C 
HETATM    5  O12 UNL     1     -31.352  18.257  -0.714  1.00 20.00    -0.297 OA
BRANCH   4   6
HETATM    6  C7  UNL     1     -33.661  18.601  -1.245  1.00 20.00     0.057 C 
HETATM    7  C4  UNL     1     -34.753  17.663  -0.731  1.00 20.00     0.013 C 
HETATM    8  C5  UNL     1     -35.008  16.666  -1.857  1.00 20.00     0.005 C 
HETATM    9  C8  UNL     1     -33.676  16.597  -2.595  1.00 20.00    -0.014 C 
HETATM   10  C6  UNL     1     -33.227  18.060  -2.605  1.00 20.00     0.016 C 
BRANCH   9  11
HETATM   11  C11 UNL     1     -33.792  15.999  -3.986  1.00 20.00     0.000 C 
HETATM   12  C9  UNL     1     -34.394  14.629  -3.958  1.00 20.00     0.005 C 
ENDBRANCH   9  11
ENDBRANCH   4   6
ENDBRANCH   3   4
TORSDOF 3
ENDMDL
MODEL 7
REMARK VINA RESULT:      -4.8     10.436     11.252
REMARK  3 active torsions:
REMARK  status: ('A' for Active; 'I' for Inactive)
REMARK    1  A    between atoms: C3_3  and  C7_7 
REMARK    2  A    between atoms: C3_3  and  C10_10 
REMARK    3  A    between atoms: C8_8  and  C11_11 
ROOT
HETATM    1  C1  UNL     1     -35.603  13.584  -7.898  1.00 20.00     0.012 C 
HETATM    2  C2  UNL     1     -35.863  13.662  -6.728  1.00 20.00    -0.110 C 
HETATM    3  C10 UNL     1     -36.189  13.754  -5.300  1.00 20.00     0.171 C 
ENDROOT
BRANCH   3   4
HETATM    4  C3  UNL     1     -35.036  14.287  -4.475  1.00 20.00     0.142 C 
HETATM    5  O12 UNL     1     -34.207  13.560  -3.927  1.00 20.00    -0.297 OA
BRANCH   4   6
HETATM    6  C7  UNL     1     -34.946  15.797  -4.351  1.00 20.00     0.057 C 
HETATM    7  C4  UNL     1     -33.526  16.187  -3.940  1.00 20.00     0.013 C 
HETATM    8  C5  UNL     1     -33.669  16.960  -2.632  1.00 20.00     0.005 C 
HETATM    9  C8  UNL     1     -34.941  16.396  -2.010  1.00 20.00    -0.014 C 
HETATM   10  C6  UNL     1     -35.866  16.251  -3.220  1.00 20.00     0.016 C 
BRANCH   9  11
HETATM   11  C11 UNL     1     -35.518  17.282  -0.920  1.00 20.00     0.000 C 
HETATM   12  C9  UNL     1     -34.451  18.027  -0.180  1.00 20.00     0.005 C 
ENDBRANCH   9  11
ENDBRANCH   4   6
ENDBRANCH   3   4
TORSDOF 3
ENDMDL
MODEL 8
REMARK VINA RESULT:      -4.7     10.371     12.097
REMARK  3 active torsions:
REMARK  status: ('A' for Active; 'I' for Inactive)
REMARK    1  A    between atoms: C3_3  and  C7_7 
REMARK    2  A    between atoms: C3_3  and  C10_10 
REMARK    3  A    between atoms: C8_8  and  C11_11 
ROOT
HETATM    1  C1  UNL     1     -34.120  16.550  -7.809  1.00 20.00     0.012 C 
HETATM    2  C2  UNL     1     -34.946  15.705  -7.596  1.00 20.00    -0.110 C 
HETATM    3  C10 UNL     1     -35.962  14.677  -7.340  1.00 20.00     0.171 C 
ENDROOT
BRANCH   3   4
HETATM    4  C3  UNL     1     -35.445  13.557  -6.460  1.00 20.00     0.142 C 
HETATM    5  O12 UNL     1     -34.745  12.638  -6.883  1.00 20.00    -0.297 OA
BRANCH   4   6
HETATM    6  C7  UNL     1     -35.841  13.623  -4.995  1.00 20.00     0.057 C 
HETATM    7  C4  UNL     1     -36.967  14.642  -4.822  1.00 20.00     0.013 C 
HETATM    8  C5  UNL     1     -36.445  15.675  -3.828  1.00 20.00     0.005 C 
HETATM    9  C8  UNL     1     -34.933  15.642  -4.026  1.00 20.00    -0.014 C 
HETATM   10  C6  UNL     1     -34.653  14.147  -4.192  1.00 20.00     0.016 C 
BRANCH   9  11
HETATM   11  C11 UNL     1     -34.165  16.270  -2.876  1.00 20.00     0.000 C 
HETATM   12  C9  UNL     1     -35.075  16.738  -1.784  1.00 20.00     0.005 C 
ENDBRANCH   9  11
ENDBRANCH   4   6
ENDBRANCH   3   4
TORSDOF 3
ENDMDL
MODEL 9
REMARK VINA RESULT:      -4.7      1.511      5.117
REMARK  3 active torsions:
REMARK  status: ('A' for Active; 'I' for Inactive)
REMARK    1  A    between atoms: C3_3  and  C7_7 
REMARK    2  A    between atoms: C3_3  and  C10_10 
REMARK    3  A    between atoms: C8_8  and  C11_11 
ROOT
HETATM    1  C1  UNL     1     -32.463  11.096   1.186  1.00 20.00     0.012 C 
HETATM    2  C2  UNL     1     -32.418   9.896   1.164  1.00 20.00    -0.110 C 
HETATM    3  C10 UNL     1     -32.366   8.430   1.129  1.00 20.00     0.171 C 
ENDROOT
BRANCH   3   4
HETATM    4  C3  UNL     1     -32.057   7.828   2.485  1.00 20.00     0.142 C 
HETATM    5  O12 UNL     1     -31.354   8.389   3.326  1.00 20.00    -0.297 OA
BRANCH   4   6
HETATM    6  C7  UNL     1     -32.670   6.468   2.766  1.00 20.00     0.057 C 
HETATM    7  C4  UNL     1     -34.093   6.431   2.210  1.00 20.00     0.013 C 
HETATM    8  C5  UNL     1     -34.996   6.116   3.399  1.00 20.00     0.005 C 
HETATM    9  C8  UNL     1     -34.235   6.674   4.596  1.00 20.00    -0.014 C 
HETATM   10  C6  UNL     1     -32.789   6.289   4.278  1.00 20.00     0.016 C 
BRANCH   9  11
HETATM   11  C11 UNL     1     -34.722   6.123   5.925  1.00 20.00     0.000 C 
HETATM   12  C9  UNL     1     -34.654   4.629   5.971  1.00 20.00     0.005 C 
ENDBRANCH   9  11
ENDBRANCH   4   6
ENDBRANCH   3   4
TORSDOF 3
ENDMDL
