MODEL 1
REMARK VINA RESULT:      -5.9      0.000      0.000
REMARK  4 active torsions:
REMARK  status: ('A' for Active; 'I' for Inactive)
REMARK    1  A    between atoms: C2_2  and  C8_8 
REMARK    2  A    between atoms: C6_6  and  C9_9 
REMARK    3  A    between atoms: C8_8  and  C9_9 
REMARK    4  A    between atoms: C9_9  and  O11_11 
ROOT
HETATM    1  C1  UNL     1     -32.462   9.146   1.462  1.00 20.00    -0.111 C 
HETATM    2  C2  UNL     1     -32.460   8.195   2.195  1.00 20.00    -0.104 C 
HETATM    3  C7  UNL     1     -32.463  10.304   0.570  1.00 20.00     0.112 C 
ENDROOT
BRANCH   2   4
HETATM    4  C8  UNL     1     -32.459   7.029   3.093  1.00 20.00     0.128 C 
BRANCH   4   5
HETATM    5  C9  UNL     1     -33.512   6.001   2.670  1.00 20.00     0.158 C 
BRANCH   5   6
HETATM    6  C6  UNL     1     -34.710   6.024   3.609  1.00 20.00     0.151 C 
HETATM    7  C4  UNL     1     -34.581   7.065   4.710  1.00 20.00     0.036 C 
HETATM    8  C3  UNL     1     -33.946   6.284   5.835  1.00 20.00     0.029 C 
HETATM    9  C5  UNL     1     -34.583   4.924   5.665  1.00 20.00     0.168 C 
HETATM   10  O10 UNL     1     -34.799   4.744   4.260  1.00 20.00    -0.383 OA
ENDBRANCH   5   6
BRANCH   5  11
HETATM   11  O11 UNL     1     -32.927   4.701   2.713  1.00 20.00    -0.392 OA
HETATM   12  H25 UNL     1     -31.993   4.827   2.941  1.00 20.00     0.210 HD
ENDBRANCH   5  11
ENDBRANCH   4   5
ENDBRANCH   2   4
TORSDOF 4
ENDMDL
MODEL 2
REMARK VINA RESULT:      -5.6      1.504      1.771
REMARK  4 active torsions:
REMARK  status: ('A' for Active; 'I' for Inactive)
REMARK    1  A    between atoms: C2_2  and  C8_8 
REMARK    2  A    between atoms: C6_6  and  C9_9 
REMARK    3  A    between atoms: C8_8  and  C9_9 
REMARK    4  A    between atoms: C9_9  and  O11_11 
ROOT
HETATM    1  C1  UNL     1     -32.413   9.320   1.386  1.00 20.00    -0.111 C 
HETATM    2  C2  UNL     1     -32.349   8.266   1.961  1.00 20.00    -0.104 C 
HETATM    3  C7  UNL     1     -32.492  10.602   0.689  1.00 20.00     0.112 C 
ENDROOT
BRANCH   2   4
HETATM    4  C8  UNL     1     -32.269   6.975   2.662  1.00 20.00     0.128 C 
BRANCH   4   5
HETATM    5  C9  UNL     1     -32.458   7.148   4.171  1.00 20.00     0.158 C 
BRANCH   5   6
HETATM    6  C6  UNL     1     -33.935   7.185   4.538  1.00 20.00     0.151 C 
HETATM    7  C4  UNL     1     -34.211   6.660   5.939  1.00 20.00     0.036 C 
HETATM    8  C3  UNL     1     -34.496   5.198   5.696  1.00 20.00     0.029 C 
HETATM    9  C5  UNL     1     -35.214   5.239   4.366  1.00 20.00     0.168 C 
HETATM   10  O10 UNL     1     -34.649   6.330   3.628  1.00 20.00    -0.383 OA
ENDBRANCH   5   6
BRANCH   5  11
HETATM   11  O11 UNL     1     -31.860   8.380   4.570  1.00 20.00    -0.392 OA
HETATM   12  H25 UNL     1     -31.713   8.890   3.759  1.00 20.00     0.210 HD
ENDBRANCH   5  11
ENDBRANCH   4   5
ENDBRANCH   2   4
TORSDOF 4
ENDMDL
MODEL 3
REMARK VINA RESULT:      -5.3      1.459      1.842
REMARK  4 active torsions:
REMARK  status: ('A' for Active; 'I' for Inactive)
REMARK    1  A    between atoms: C2_2  and  C8_8 
REMARK    2  A    between atoms: C6_6  and  C9_9 
REMARK    3  A    between atoms: C8_8  and  C9_9 
REMARK    4  A    between atoms: C9_9  and  O11_11 
ROOT
HETATM    1  C1  UNL     1     -32.618   9.031   0.890  1.00 20.00    -0.111 C 
HETATM    2  C2  UNL     1     -32.268   8.380   1.837  1.00 20.00    -0.104 C 
HETATM    3  C7  UNL     1     -33.046   9.823  -0.261  1.00 20.00     0.112 C 
ENDROOT
BRANCH   2   4
HETATM    4  C8  UNL     1     -31.837   7.582   2.996  1.00 20.00     0.128 C 
BRANCH   4   5
HETATM    5  C9  UNL     1     -33.029   7.172   3.864  1.00 20.00     0.158 C 
BRANCH   5   6
HETATM    6  C6  UNL     1     -33.881   6.121   3.167  1.00 20.00     0.151 C 
HETATM    7  C4  UNL     1     -35.212   5.880   3.862  1.00 20.00     0.036 C 
HETATM    8  C3  UNL     1     -34.896   4.739   4.798  1.00 20.00     0.029 C 
HETATM    9  C5  UNL     1     -33.909   3.934   3.984  1.00 20.00     0.168 C 
HETATM   10  O10 UNL     1     -33.168   4.872   3.192  1.00 20.00    -0.383 OA
ENDBRANCH   5   6
BRANCH   5  11
HETATM   11  O11 UNL     1     -33.836   8.323   4.108  1.00 20.00    -0.392 OA
HETATM   12  H25 UNL     1     -33.310   9.090   3.836  1.00 20.00     0.210 HD
ENDBRANCH   5  11
ENDBRANCH   4   5
ENDBRANCH   2   4
TORSDOF 4
ENDMDL
MODEL 4
REMARK VINA RESULT:      -5.0      2.094      5.243
REMARK  4 active torsions:
REMARK  status: ('A' for Active; 'I' for Inactive)
REMARK    1  A    between atoms: C2_2  and  C8_8 
REMARK    2  A    between atoms: C6_6  and  C9_9 
REMARK    3  A    between atoms: C8_8  and  C9_9 
REMARK    4  A    between atoms: C9_9  and  O11_11 
ROOT
HETATM    1  C1  UNL     1     -34.124   5.723   4.238  1.00 20.00    -0.111 C 
HETATM    2  C2  UNL     1     -33.569   6.314   3.352  1.00 20.00    -0.104 C 
HETATM    3  C7  UNL     1     -34.797   5.004   5.318  1.00 20.00     0.112 C 
ENDROOT
BRANCH   2   4
HETATM    4  C8  UNL     1     -32.891   7.037   2.264  1.00 20.00     0.128 C 
BRANCH   4   5
HETATM    5  C9  UNL     1     -32.457   8.435   2.710  1.00 20.00     0.158 C 
BRANCH   5   6
HETATM    6  C6  UNL     1     -31.790   9.193   1.571  1.00 20.00     0.151 C 
HETATM    7  C4  UNL     1     -32.571  10.426   1.141  1.00 20.00     0.036 C 
HETATM    8  C3  UNL     1     -33.446   9.897   0.032  1.00 20.00     0.029 C 
HETATM    9  C5  UNL     1     -32.540   8.877  -0.618  1.00 20.00     0.168 C 
HETATM   10  O10 UNL     1     -31.727   8.325   0.425  1.00 20.00    -0.383 OA
ENDBRANCH   5   6
BRANCH   5  11
HETATM   11  O11 UNL     1     -31.521   8.307   3.779  1.00 20.00    -0.392 OA
HETATM   12  H25 UNL     1     -31.548   7.378   4.057  1.00 20.00     0.210 HD
ENDBRANCH   5  11
ENDBRANCH   4   5
ENDBRANCH   2   4
TORSDOF 4
ENDMDL
MODEL 5
REMARK VINA RESULT:      -4.7     11.357     12.798
REMARK  4 active torsions:
REMARK  status: ('A' for Active; 'I' for Inactive)
REMARK    1  A    between atoms: C2_2  and  C8_8 
REMARK    2  A    between atoms: C6_6  and  C9_9 
REMARK    3  A    between atoms: C8_8  and  C9_9 
REMARK    4  A    between atoms: C9_9  and  O11_11 
ROOT
HETATM    1  C1  UNL     1     -34.574  16.304  -2.901  1.00 20.00    -0.111 C 
HETATM    2  C2  UNL     1     -35.315  15.693  -3.622  1.00 20.00    -0.104 C 
HETATM    3  C7  UNL     1     -33.672  17.047  -2.023  1.00 20.00     0.112 C 
ENDROOT
BRANCH   2   4
HETATM    4  C8  UNL     1     -36.223  14.945  -4.507  1.00 20.00     0.128 C 
BRANCH   4   5
HETATM    5  C9  UNL     1     -35.471  13.872  -5.298  1.00 20.00     0.158 C 
BRANCH   5   6
HETATM    6  C6  UNL     1     -35.677  14.049  -6.795  1.00 20.00     0.151 C 
HETATM    7  C4  UNL     1     -34.415  13.783  -7.603  1.00 20.00     0.036 C 
HETATM    8  C3  UNL     1     -33.795  15.154  -7.712  1.00 20.00     0.029 C 
HETATM    9  C5  UNL     1     -35.015  16.039  -7.822  1.00 20.00     0.168 C 
HETATM   10  O10 UNL     1     -36.045  15.417  -7.043  1.00 20.00    -0.383 OA
ENDBRANCH   5   6
BRANCH   5  11
HETATM   11  O11 UNL     1     -35.969  12.590  -4.919  1.00 20.00    -0.392 OA
HETATM   12  H25 UNL     1     -35.627  11.959  -5.571  1.00 20.00     0.210 HD
ENDBRANCH   5  11
ENDBRANCH   4   5
ENDBRANCH   2   4
TORSDOF 4
ENDMDL
MODEL 6
REMARK VINA RESULT:      -4.6     11.020     12.334
REMARK  4 active torsions:
REMARK  status: ('A' for Active; 'I' for Inactive)
REMARK    1  A    between atoms: C2_2  and  C8_8 
REMARK    2  A    between atoms: C6_6  and  C9_9 
REMARK    3  A    between atoms: C8_8  and  C9_9 
REMARK    4  A    between atoms: C9_9  and  O11_11 
ROOT
HETATM    1  C1  UNL     1     -34.958  16.549  -2.195  1.00 20.00    -0.111 C 
HETATM    2  C2  UNL     1     -35.439  15.909  -3.091  1.00 20.00    -0.104 C 
HETATM    3  C7  UNL     1     -34.371  17.328  -1.106  1.00 20.00     0.112 C 
ENDROOT
BRANCH   2   4
HETATM    4  C8  UNL     1     -36.029  15.124  -4.187  1.00 20.00     0.128 C 
BRANCH   4   5
HETATM    5  C9  UNL     1     -35.124  13.956  -4.585  1.00 20.00     0.158 C 
BRANCH   5   6
HETATM    6  C6  UNL     1     -34.295  14.297  -5.814  1.00 20.00     0.151 C 
HETATM    7  C4  UNL     1     -34.840  15.490  -6.585  1.00 20.00     0.036 C 
HETATM    8  C3  UNL     1     -35.747  14.843  -7.602  1.00 20.00     0.029 C 
HETATM    9  C5  UNL     1     -34.999  13.568  -7.918  1.00 20.00     0.168 C 
HETATM   10  O10 UNL     1     -34.333  13.173  -6.712  1.00 20.00    -0.383 OA
ENDBRANCH   5   6
BRANCH   5  11
HETATM   11  O11 UNL     1     -35.940  12.825  -4.887  1.00 20.00    -0.392 OA
HETATM   12  H25 UNL     1     -35.951  12.745  -5.853  1.00 20.00     0.210 HD
ENDBRANCH   5  11
ENDBRANCH   4   5
ENDBRANCH   2   4
TORSDOF 4
ENDMDL
MODEL 7
REMARK VINA RESULT:      -4.5     11.032     12.226
REMARK  4 active torsions:
REMARK  status: ('A' for Active; 'I' for Inactive)
REMARK    1  A    between atoms: C2_2  and  C8_8 
REMARK    2  A    between atoms: C6_6  and  C9_9 
REMARK    3  A    between atoms: C8_8  and  C9_9 
REMARK    4  A    between atoms: C9_9  and  O11_11 
ROOT
HETATM    1  C1  UNL     1     -33.795  16.445  -3.049  1.00 20.00    -0.111 C 
HETATM    2  C2  UNL     1     -34.173  15.425  -3.558  1.00 20.00    -0.104 C 
HETATM    3  C7  UNL     1     -33.336  17.687  -2.430  1.00 20.00     0.112 C 
ENDROOT
BRANCH   2   4
HETATM    4  C8  UNL     1     -34.634  14.174  -4.182  1.00 20.00     0.128 C 
BRANCH   4   5
HETATM    5  C9  UNL     1     -34.800  14.334  -5.695  1.00 20.00     0.158 C 
BRANCH   5   6
HETATM    6  C6  UNL     1     -36.113  13.729  -6.170  1.00 20.00     0.151 C 
HETATM    7  C4  UNL     1     -36.812  14.578  -7.221  1.00 20.00     0.036 C 
HETATM    8  C3  UNL     1     -37.724  15.448  -6.392  1.00 20.00     0.029 C 
HETATM    9  C5  UNL     1     -38.128  14.505  -5.282  1.00 20.00     0.168 C 
HETATM   10  O10 UNL     1     -37.006  13.645  -5.046  1.00 20.00    -0.383 OA
ENDBRANCH   5   6
BRANCH   5  11
HETATM   11  O11 UNL     1     -33.726  13.659  -6.348  1.00 20.00    -0.392 OA
HETATM   12  H25 UNL     1     -33.728  12.749  -6.013  1.00 20.00     0.210 HD
ENDBRANCH   5  11
ENDBRANCH   4   5
ENDBRANCH   2   4
TORSDOF 4
ENDMDL
MODEL 8
REMARK VINA RESULT:      -4.5     11.255     12.741
REMARK  4 active torsions:
REMARK  status: ('A' for Active; 'I' for Inactive)
REMARK    1  A    between atoms: C2_2  and  C8_8 
REMARK    2  A    between atoms: C6_6  and  C9_9 
REMARK    3  A    between atoms: C8_8  and  C9_9 
REMARK    4  A    between atoms: C9_9  and  O11_11 
ROOT
HETATM    1  C1  UNL     1     -33.513  17.033  -2.255  1.00 20.00    -0.111 C 
HETATM    2  C2  UNL     1     -33.990  16.189  -2.963  1.00 20.00    -0.104 C 
HETATM    3  C7  UNL     1     -32.933  18.062  -1.393  1.00 20.00     0.112 C 
ENDROOT
BRANCH   2   4
HETATM    4  C8  UNL     1     -34.573  15.152  -3.830  1.00 20.00     0.128 C 
BRANCH   4   5
HETATM    5  C9  UNL     1     -33.639  14.810  -4.993  1.00 20.00     0.158 C 
BRANCH   5   6
HETATM    6  C6  UNL     1     -34.427  14.365  -6.218  1.00 20.00     0.151 C 
HETATM    7  C4  UNL     1     -33.803  14.829  -7.525  1.00 20.00     0.036 C 
HETATM    8  C3  UNL     1     -34.501  16.142  -7.780  1.00 20.00     0.029 C 
HETATM    9  C5  UNL     1     -35.890  15.863  -7.252  1.00 20.00     0.168 C 
HETATM   10  O10 UNL     1     -35.737  14.957  -6.152  1.00 20.00    -0.383 OA
ENDBRANCH   5   6
BRANCH   5  11
HETATM   11  O11 UNL     1     -32.780  13.743  -4.595  1.00 20.00    -0.392 OA
HETATM   12  H25 UNL     1     -33.158  13.376  -3.781  1.00 20.00     0.210 HD
ENDBRANCH   5  11
ENDBRANCH   4   5
ENDBRANCH   2   4
TORSDOF 4
ENDMDL
MODEL 9
REMARK VINA RESULT:      -4.5     11.308     12.184
REMARK  4 active torsions:
REMARK  status: ('A' for Active; 'I' for Inactive)
REMARK    1  A    between atoms: C2_2  and  C8_8 
REMARK    2  A    between atoms: C6_6  and  C9_9 
REMARK    3  A    between atoms: C8_8  and  C9_9 
REMARK    4  A    between atoms: C9_9  and  O11_11 
ROOT
HETATM    1  C1  UNL     1     -33.379  17.255  -2.026  1.00 20.00    -0.111 C 
HETATM    2  C2  UNL     1     -33.864  16.423  -2.744  1.00 20.00    -0.104 C 
HETATM    3  C7  UNL     1     -32.789  18.268  -1.153  1.00 20.00     0.112 C 
ENDROOT
BRANCH   2   4
HETATM    4  C8  UNL     1     -34.457  15.402  -3.623  1.00 20.00     0.128 C 
BRANCH   4   5
HETATM    5  C9  UNL     1     -33.564  15.124  -4.835  1.00 20.00     0.158 C 
BRANCH   5   6
HETATM    6  C6  UNL     1     -34.365  15.166  -6.128  1.00 20.00     0.151 C 
HETATM    7  C4  UNL     1     -35.868  15.129  -5.897  1.00 20.00     0.036 C 
HETATM    8  C3  UNL     1     -36.179  13.654  -5.967  1.00 20.00     0.029 C 
HETATM    9  C5  UNL     1     -35.209  13.181  -7.025  1.00 20.00     0.168 C 
HETATM   10  O10 UNL     1     -34.037  13.997  -6.901  1.00 20.00    -0.383 OA
ENDBRANCH   5   6
BRANCH   5  11
HETATM   11  O11 UNL     1     -32.993  13.824  -4.696  1.00 20.00    -0.392 OA
HETATM   12  H25 UNL     1     -33.731  13.217  -4.529  1.00 20.00     0.210 HD
ENDBRANCH   5  11
ENDBRANCH   4   5
ENDBRANCH   2   4
TORSDOF 4
ENDMDL
