MODEL 1
REMARK VINA RESULT:      -5.0      0.000      0.000
REMARK  2 active torsions:
REMARK  status: ('A' for Active; 'I' for Inactive)
REMARK    1  A    between atoms: C9_9  and  C10_10 
REMARK    2  A    between atoms: C9_9  and  N11_11 
ROOT
HETATM    1  C1  UNL     1     -34.268   7.004   6.532  1.00 20.00     0.002 C 
HETATM    2  C2  UNL     1     -33.063   4.864   2.384  1.00 20.00     0.028 C 
HETATM    3  C3  UNL     1     -34.694   5.708   5.821  1.00 20.00     0.007 C 
HETATM    4  C4  UNL     1     -34.125   4.733   3.482  1.00 20.00     0.008 C 
HETATM    5  C5  UNL     1     -33.296   7.724   5.580  1.00 20.00     0.034 C 
HETATM    6  C6  UNL     1     -32.768   6.318   2.008  1.00 20.00     0.235 C 
HETATM    7  C7  UNL     1     -33.713   5.589   4.664  1.00 20.00     0.016 C 
HETATM    8  C8  UNL     1     -33.550   7.044   4.245  1.00 20.00     0.192 C 
HETATM    9  N11 UNL     1     -32.441   7.142   3.246  1.00 20.00    -0.065 N 
HETATM   10  H31 UNL     1     -31.594   6.736   3.667  1.00 20.00     0.280 HD
ENDROOT
BRANCH   9  11
HETATM   11  C9  UNL     1     -32.104   8.561   2.874  1.00 20.00     0.250 C 
BRANCH  11  12
HETATM   12  C10 UNL     1     -32.139   8.726   1.366  1.00 20.00     0.142 C 
HETATM   13 CL12 UNL     1     -32.604  10.380   0.900  1.00 20.00    -0.129 Cl
ENDBRANCH  11  12
ENDBRANCH   9  11
TORSDOF 2
ENDMDL
MODEL 2
REMARK VINA RESULT:      -4.7      0.947      2.816
REMARK  2 active torsions:
REMARK  status: ('A' for Active; 'I' for Inactive)
REMARK    1  A    between atoms: C9_9  and  C10_10 
REMARK    2  A    between atoms: C9_9  and  N11_11 
ROOT
HETATM    1  C1  UNL     1     -33.669   4.040   2.630  1.00 20.00     0.002 C 
HETATM    2  C2  UNL     1     -34.099   7.420   6.040  1.00 20.00     0.028 C 
HETATM    3  C3  UNL     1     -34.204   4.058   4.072  1.00 20.00     0.007 C 
HETATM    4  C4  UNL     1     -34.215   5.897   5.906  1.00 20.00     0.008 C 
HETATM    5  C5  UNL     1     -33.111   5.448   2.355  1.00 20.00     0.034 C 
HETATM    6  C6  UNL     1     -32.914   7.999   5.264  1.00 20.00     0.235 C 
HETATM    7  C7  UNL     1     -34.225   5.536   4.434  1.00 20.00     0.016 C 
HETATM    8  C8  UNL     1     -32.964   6.041   3.746  1.00 20.00     0.192 C 
HETATM    9  N11 UNL     1     -32.937   7.535   3.814  1.00 20.00    -0.065 N 
HETATM   10  H31 UNL     1     -33.806   7.891   3.394  1.00 20.00     0.280 HD
ENDROOT
BRANCH   9  11
HETATM   11  C9  UNL     1     -31.800   8.142   3.038  1.00 20.00     0.250 C 
BRANCH  11  12
HETATM   12  C10 UNL     1     -32.339   9.019   1.924  1.00 20.00     0.142 C 
HETATM   13 CL12 UNL     1     -31.394   8.830   0.426  1.00 20.00    -0.129 Cl
ENDBRANCH  11  12
ENDBRANCH   9  11
TORSDOF 2
ENDMDL
MODEL 3
REMARK VINA RESULT:      -4.1     11.300     12.051
REMARK  2 active torsions:
REMARK  status: ('A' for Active; 'I' for Inactive)
REMARK    1  A    between atoms: C9_9  and  C10_10 
REMARK    2  A    between atoms: C9_9  and  N11_11 
ROOT
HETATM    1  C1  UNL     1     -37.839  14.416  -5.361  1.00 20.00     0.002 C 
HETATM    2  C2  UNL     1     -33.146  14.752  -4.317  1.00 20.00     0.028 C 
HETATM    3  C3  UNL     1     -36.548  13.887  -6.008  1.00 20.00     0.007 C 
HETATM    4  C4  UNL     1     -34.038  14.287  -5.473  1.00 20.00     0.008 C 
HETATM    5  C5  UNL     1     -37.404  15.288  -4.169  1.00 20.00     0.034 C 
HETATM    6  C6  UNL     1     -33.638  16.045  -3.664  1.00 20.00     0.235 C 
HETATM    7  C7  UNL     1     -35.470  14.206  -4.982  1.00 20.00     0.016 C 
HETATM    8  C8  UNL     1     -35.936  15.556  -4.454  1.00 20.00     0.192 C 
HETATM    9  N11 UNL     1     -35.103  15.929  -3.267  1.00 20.00    -0.065 N 
HETATM   10  H31 UNL     1     -35.172  15.169  -2.577  1.00 20.00     0.280 HD
ENDROOT
BRANCH   9  11
HETATM   11  C9  UNL     1     -35.576  17.182  -2.583  1.00 20.00     0.250 C 
BRANCH  11  12
HETATM   12  C10 UNL     1     -35.422  17.045  -1.080  1.00 20.00     0.142 C 
HETATM   13 CL12 UNL     1     -33.941  17.845  -0.499  1.00 20.00    -0.129 Cl
ENDBRANCH  11  12
ENDBRANCH   9  11
TORSDOF 2
ENDMDL
MODEL 4
REMARK VINA RESULT:      -4.1     11.620     12.180
REMARK  2 active torsions:
REMARK  status: ('A' for Active; 'I' for Inactive)
REMARK    1  A    between atoms: C9_9  and  C10_10 
REMARK    2  A    between atoms: C9_9  and  N11_11 
ROOT
HETATM    1  C1  UNL     1     -30.686  18.958   1.915  1.00 20.00     0.002 C 
HETATM    2  C2  UNL     1     -35.452  18.242   1.925  1.00 20.00     0.028 C 
HETATM    3  C3  UNL     1     -31.799  19.104   2.968  1.00 20.00     0.007 C 
HETATM    4  C4  UNL     1     -34.381  18.876   2.819  1.00 20.00     0.008 C 
HETATM    5  C5  UNL     1     -31.380  18.561   0.600  1.00 20.00     0.034 C 
HETATM    6  C6  UNL     1     -35.251  18.551   0.440  1.00 20.00     0.235 C 
HETATM    7  C7  UNL     1     -33.013  18.476   2.301  1.00 20.00     0.016 C 
HETATM    8  C8  UNL     1     -32.835  18.916   0.855  1.00 20.00     0.192 C 
HETATM    9  N11 UNL     1     -33.835  18.202   0.001  1.00 20.00    -0.065 N 
HETATM   10  H31 UNL     1     -33.713  17.190   0.143  1.00 20.00     0.280 HD
ENDROOT
BRANCH   9  11
HETATM   11  C9  UNL     1     -33.649  18.461  -1.470  1.00 20.00     0.250 C 
BRANCH  11  12
HETATM   12  C10 UNL     1     -33.495  17.148  -2.214  1.00 20.00     0.142 C 
HETATM   13 CL12 UNL     1     -35.065  16.343  -2.453  1.00 20.00    -0.129 Cl
ENDBRANCH  11  12
ENDBRANCH   9  11
TORSDOF 2
ENDMDL
MODEL 5
REMARK VINA RESULT:      -4.1     11.905     12.548
REMARK  2 active torsions:
REMARK  status: ('A' for Active; 'I' for Inactive)
REMARK    1  A    between atoms: C9_9  and  C10_10 
REMARK    2  A    between atoms: C9_9  and  N11_11 
ROOT
HETATM    1  C1  UNL     1     -34.867  16.763  -2.069  1.00 20.00     0.002 C 
HETATM    2  C2  UNL     1     -33.668  15.275  -6.494  1.00 20.00     0.028 C 
HETATM    3  C3  UNL     1     -33.549  16.671  -2.858  1.00 20.00     0.007 C 
HETATM    4  C4  UNL     1     -32.976  15.669  -5.185  1.00 20.00     0.008 C 
HETATM    5  C5  UNL     1     -35.956  16.150  -2.967  1.00 20.00     0.034 C 
HETATM    6  C6  UNL     1     -34.919  14.423  -6.276  1.00 20.00     0.235 C 
HETATM    7  C7  UNL     1     -33.995  16.319  -4.269  1.00 20.00     0.016 C 
HETATM    8  C8  UNL     1     -35.158  15.373  -3.999  1.00 20.00     0.192 C 
HETATM    9  N11 UNL     1     -35.865  15.091  -5.288  1.00 20.00    -0.065 N 
HETATM   10  H31 UNL     1     -36.151  15.990  -5.700  1.00 20.00     0.280 HD
ENDROOT
BRANCH   9  11
HETATM   11  C9  UNL     1     -37.118  14.278  -5.108  1.00 20.00     0.250 C 
BRANCH  11  12
HETATM   12  C10 UNL     1     -38.305  15.011  -5.703  1.00 20.00     0.142 C 
HETATM   13 CL12 UNL     1     -37.874  16.670  -6.186  1.00 20.00    -0.129 Cl
ENDBRANCH  11  12
ENDBRANCH   9  11
TORSDOF 2
ENDMDL
MODEL 6
REMARK VINA RESULT:      -4.0     11.840     12.851
REMARK  2 active torsions:
REMARK  status: ('A' for Active; 'I' for Inactive)
REMARK    1  A    between atoms: C9_9  and  C10_10 
REMARK    2  A    between atoms: C9_9  and  N11_11 
ROOT
HETATM    1  C1  UNL     1     -34.035  14.196  -7.904  1.00 20.00     0.002 C 
HETATM    2  C2  UNL     1     -37.379  15.153  -4.566  1.00 20.00     0.028 C 
HETATM    3  C3  UNL     1     -35.408  13.599  -7.547  1.00 20.00     0.007 C 
HETATM    4  C4  UNL     1     -37.058  14.064  -5.596  1.00 20.00     0.008 C 
HETATM    5  C5  UNL     1     -33.744  15.279  -6.850  1.00 20.00     0.034 C 
HETATM    6  C6  UNL     1     -36.139  15.662  -3.828  1.00 20.00     0.235 C 
HETATM    7  C7  UNL     1     -35.972  14.573  -6.523  1.00 20.00     0.016 C 
HETATM    8  C8  UNL     1     -34.725  14.953  -5.737  1.00 20.00     0.192 C 
HETATM    9  N11 UNL     1     -35.056  16.083  -4.813  1.00 20.00    -0.065 N 
HETATM   10  H31 UNL     1     -35.440  16.855  -5.376  1.00 20.00     0.280 HD
ENDROOT
BRANCH   9  11
HETATM   11  C9  UNL     1     -33.854  16.628  -4.091  1.00 20.00     0.250 C 
BRANCH  11  12
HETATM   12  C10 UNL     1     -34.083  16.585  -2.592  1.00 20.00     0.142 C 
HETATM   13 CL12 UNL     1     -32.988  17.694  -1.731  1.00 20.00    -0.129 Cl
ENDBRANCH  11  12
ENDBRANCH   9  11
TORSDOF 2
ENDMDL
MODEL 7
REMARK VINA RESULT:      -3.9     11.544     12.473
REMARK  2 active torsions:
REMARK  status: ('A' for Active; 'I' for Inactive)
REMARK    1  A    between atoms: C9_9  and  C10_10 
REMARK    2  A    between atoms: C9_9  and  N11_11 
ROOT
HETATM    1  C1  UNL     1     -34.070  16.233  -3.134  1.00 20.00     0.002 C 
HETATM    2  C2  UNL     1     -38.586  15.331  -4.560  1.00 20.00     0.028 C 
HETATM    3  C3  UNL     1     -35.406  16.989  -3.035  1.00 20.00     0.007 C 
HETATM    4  C4  UNL     1     -37.764  16.503  -4.010  1.00 20.00     0.008 C 
HETATM    5  C5  UNL     1     -34.351  14.958  -3.950  1.00 20.00     0.034 C 
HETATM    6  C6  UNL     1     -37.827  14.504  -5.599  1.00 20.00     0.235 C 
HETATM    7  C7  UNL     1     -36.435  15.973  -3.506  1.00 20.00     0.016 C 
HETATM    8  C8  UNL     1     -35.680  15.262  -4.621  1.00 20.00     0.192 C 
HETATM    9  N11 UNL     1     -36.470  14.070  -5.062  1.00 20.00    -0.065 N 
HETATM   10  H31 UNL     1     -36.644  13.478  -4.238  1.00 20.00     0.280 HD
ENDROOT
BRANCH   9  11
HETATM   11  C9  UNL     1     -35.743  13.216  -6.065  1.00 20.00     0.250 C 
BRANCH  11  12
HETATM   12  C10 UNL     1     -35.670  13.930  -7.401  1.00 20.00     0.142 C 
HETATM   13 CL12 UNL     1     -33.986  14.281  -7.865  1.00 20.00    -0.129 Cl
ENDBRANCH  11  12
ENDBRANCH   9  11
TORSDOF 2
ENDMDL
MODEL 8
REMARK VINA RESULT:      -3.9     11.749     12.779
REMARK  2 active torsions:
REMARK  status: ('A' for Active; 'I' for Inactive)
REMARK    1  A    between atoms: C9_9  and  C10_10 
REMARK    2  A    between atoms: C9_9  and  N11_11 
ROOT
HETATM    1  C1  UNL     1     -34.153  14.386  -5.543  1.00 20.00     0.002 C 
HETATM    2  C2  UNL     1     -35.086  17.001  -1.603  1.00 20.00     0.028 C 
HETATM    3  C3  UNL     1     -33.288  15.080  -4.477  1.00 20.00     0.007 C 
HETATM    4  C4  UNL     1     -33.888  16.637  -2.486  1.00 20.00     0.008 C 
HETATM    5  C5  UNL     1     -35.615  14.735  -5.212  1.00 20.00     0.034 C 
HETATM    6  C6  UNL     1     -36.352  17.304  -2.407  1.00 20.00     0.235 C 
HETATM    7  C7  UNL     1     -34.293  15.512  -3.419  1.00 20.00     0.016 C 
HETATM    8  C8  UNL     1     -35.485  15.921  -4.273  1.00 20.00     0.192 C 
HETATM    9  N11 UNL     1     -36.659  16.174  -3.381  1.00 20.00    -0.065 N 
HETATM   10  H31 UNL     1     -36.824  15.326  -2.821  1.00 20.00     0.280 HD
ENDROOT
BRANCH   9  11
HETATM   11  C9  UNL     1     -37.930  16.448  -4.139  1.00 20.00     0.250 C 
BRANCH  11  12
HETATM   12  C10 UNL     1     -37.805  17.747  -4.911  1.00 20.00     0.142 C 
HETATM   13 CL12 UNL     1     -37.755  17.462  -6.668  1.00 20.00    -0.129 Cl
ENDBRANCH  11  12
ENDBRANCH   9  11
TORSDOF 2
ENDMDL
MODEL 9
REMARK VINA RESULT:      -3.8     11.923     12.505
REMARK  2 active torsions:
REMARK  status: ('A' for Active; 'I' for Inactive)
REMARK    1  A    between atoms: C9_9  and  C10_10 
REMARK    2  A    between atoms: C9_9  and  N11_11 
ROOT
HETATM    1  C1  UNL     1     -33.960  17.354  -1.411  1.00 20.00     0.002 C 
HETATM    2  C2  UNL     1     -37.056  15.671  -4.700  1.00 20.00     0.028 C 
HETATM    3  C3  UNL     1     -35.490  17.380  -1.568  1.00 20.00     0.007 C 
HETATM    4  C4  UNL     1     -37.061  16.607  -3.487  1.00 20.00     0.008 C 
HETATM    5  C5  UNL     1     -33.404  16.679  -2.678  1.00 20.00     0.034 C 
HETATM    6  C6  UNL     1     -35.823  15.850  -5.589  1.00 20.00     0.235 C 
HETATM    7  C7  UNL     1     -35.751  16.445  -2.740  1.00 20.00     0.016 C 
HETATM    8  C8  UNL     1     -34.569  16.751  -3.650  1.00 20.00     0.192 C 
HETATM    9  N11 UNL     1     -34.544  15.756  -4.767  1.00 20.00    -0.065 N 
HETATM   10  H31 UNL     1     -34.515  14.813  -4.355  1.00 20.00     0.280 HD
ENDROOT
BRANCH   9  11
HETATM   11  C9  UNL     1     -33.330  15.884  -5.646  1.00 20.00     0.250 C 
BRANCH  11  12
HETATM   12  C10 UNL     1     -33.748  15.993  -7.100  1.00 20.00     0.142 C 
HETATM   13 CL12 UNL     1     -33.689  14.413  -7.918  1.00 20.00    -0.129 Cl
ENDBRANCH  11  12
ENDBRANCH   9  11
TORSDOF 2
ENDMDL
