MODEL 1
REMARK VINA RESULT:      -4.9      0.000      0.000
REMARK  2 active torsions:
REMARK  status: ('A' for Active; 'I' for Inactive)
REMARK    1  A    between atoms: C5_5  and  C8_8 
REMARK    2  A    between atoms: C8_8  and  C9_9 
ROOT
HETATM    1  C1  UNL     1     -34.027   6.649   5.270  1.00 20.00     0.068 C 
HETATM    2  C6  UNL     1     -35.688   6.100   3.538  1.00 20.00     0.031 C 
HETATM    3  C7  UNL     1     -34.412   4.297   4.702  1.00 20.00     0.031 C 
HETATM    4  C9  UNL     1     -34.324   5.731   4.144  1.00 20.00     0.046 C 
HETATM    5  N10 UNL     1     -33.797   7.363   6.154  1.00 20.00    -0.196 NA
ENDROOT
BRANCH   4   6
HETATM    6  C8  UNL     1     -33.188   5.769   3.084  1.00 20.00     0.062 C 
BRANCH   6   7
HETATM    7  C5  UNL     1     -32.714   7.139   2.653  1.00 20.00    -0.050 A 
HETATM    8  C2  UNL     1     -31.717   7.889   3.341  1.00 20.00     0.014 A 
HETATM    9  C3  UNL     1     -31.474   9.103   2.738  1.00 20.00     0.050 A 
HETATM   10  S11 UNL     1     -32.447   9.336   1.347  1.00 20.00    -0.113 SA
HETATM   11  C4  UNL     1     -33.196   7.809   1.549  1.00 20.00     0.056 A 
ENDBRANCH   6   7
ENDBRANCH   4   6
TORSDOF 2
ENDMDL
MODEL 2
REMARK VINA RESULT:      -4.3     11.371     12.071
REMARK  2 active torsions:
REMARK  status: ('A' for Active; 'I' for Inactive)
REMARK    1  A    between atoms: C5_5  and  C8_8 
REMARK    2  A    between atoms: C8_8  and  C9_9 
ROOT
HETATM    1  C1  UNL     1     -35.684  13.919  -4.937  1.00 20.00     0.068 C 
HETATM    2  C6  UNL     1     -36.737  15.884  -3.892  1.00 20.00     0.031 C 
HETATM    3  C7  UNL     1     -35.113  16.151  -5.770  1.00 20.00     0.031 C 
HETATM    4  C9  UNL     1     -35.449  15.320  -4.515  1.00 20.00     0.046 C 
HETATM    5  N10 UNL     1     -35.870  12.824  -5.271  1.00 20.00    -0.196 NA
ENDROOT
BRANCH   4   6
HETATM    6  C8  UNL     1     -34.244  15.410  -3.539  1.00 20.00     0.062 C 
BRANCH   6   7
HETATM    7  C5  UNL     1     -34.111  16.694  -2.749  1.00 20.00    -0.050 A 
HETATM    8  C2  UNL     1     -34.671  16.892  -1.454  1.00 20.00     0.014 A 
HETATM    9  C3  UNL     1     -34.402  18.149  -0.961  1.00 20.00     0.050 A 
HETATM   10  S11 UNL     1     -33.477  19.085  -2.057  1.00 20.00    -0.113 SA
HETATM   11  C4  UNL     1     -33.434  17.807  -3.196  1.00 20.00     0.056 A 
ENDBRANCH   6   7
ENDBRANCH   4   6
TORSDOF 2
ENDMDL
MODEL 3
REMARK VINA RESULT:      -4.3     11.547     12.620
REMARK  2 active torsions:
REMARK  status: ('A' for Active; 'I' for Inactive)
REMARK    1  A    between atoms: C5_5  and  C8_8 
REMARK    2  A    between atoms: C8_8  and  C9_9 
ROOT
HETATM    1  C1  UNL     1     -35.307  13.742  -5.836  1.00 20.00     0.068 C 
HETATM    2  C6  UNL     1     -35.627  15.990  -6.788  1.00 20.00     0.031 C 
HETATM    3  C7  UNL     1     -34.152  14.322  -7.918  1.00 20.00     0.031 C 
HETATM    4  C9  UNL     1     -34.625  14.849  -6.548  1.00 20.00     0.046 C 
HETATM    5  N10 UNL     1     -35.842  12.875  -5.283  1.00 20.00    -0.196 NA
ENDROOT
BRANCH   4   6
HETATM    6  C8  UNL     1     -33.375  15.329  -5.758  1.00 20.00     0.062 C 
BRANCH   6   7
HETATM    7  C5  UNL     1     -33.633  16.245  -4.582  1.00 20.00    -0.050 A 
HETATM    8  C2  UNL     1     -34.101  15.797  -3.313  1.00 20.00     0.014 A 
HETATM    9  C3  UNL     1     -34.252  16.835  -2.421  1.00 20.00     0.050 A 
HETATM   10  S11 UNL     1     -33.829  18.344  -3.113  1.00 20.00    -0.113 SA
HETATM   11  C4  UNL     1     -33.442  17.610  -4.611  1.00 20.00     0.056 A 
ENDBRANCH   6   7
ENDBRANCH   4   6
TORSDOF 2
ENDMDL
MODEL 4
REMARK VINA RESULT:      -4.3      1.598      2.123
REMARK  2 active torsions:
REMARK  status: ('A' for Active; 'I' for Inactive)
REMARK    1  A    between atoms: C5_5  and  C8_8 
REMARK    2  A    between atoms: C8_8  and  C9_9 
ROOT
HETATM    1  C1  UNL     1     -33.519   4.968   3.309  1.00 20.00     0.068 C 
HETATM    2  C6  UNL     1     -34.546   4.802   5.541  1.00 20.00     0.031 C 
HETATM    3  C7  UNL     1     -35.728   5.963   3.673  1.00 20.00     0.031 C 
HETATM    4  C9  UNL     1     -34.347   5.692   4.303  1.00 20.00     0.046 C 
HETATM    5  N10 UNL     1     -32.875   4.398   2.531  1.00 20.00    -0.196 NA
ENDROOT
BRANCH   4   6
HETATM    6  C8  UNL     1     -33.704   7.059   4.667  1.00 20.00     0.062 C 
BRANCH   6   7
HETATM    7  C5  UNL     1     -32.929   7.753   3.569  1.00 20.00    -0.050 A 
HETATM    8  C2  UNL     1     -31.551   8.104   3.668  1.00 20.00     0.014 A 
HETATM    9  C3  UNL     1     -31.092   8.726   2.528  1.00 20.00     0.050 A 
HETATM   10  S11 UNL     1     -32.320   8.884   1.345  1.00 20.00    -0.113 SA
HETATM   11  C4  UNL     1     -33.470   8.119   2.356  1.00 20.00     0.056 A 
ENDBRANCH   6   7
ENDBRANCH   4   6
TORSDOF 2
ENDMDL
MODEL 5
REMARK VINA RESULT:      -4.2     11.348     12.116
REMARK  2 active torsions:
REMARK  status: ('A' for Active; 'I' for Inactive)
REMARK    1  A    between atoms: C5_5  and  C8_8 
REMARK    2  A    between atoms: C8_8  and  C9_9 
ROOT
HETATM    1  C1  UNL     1     -35.369  13.831  -4.984  1.00 20.00     0.068 C 
HETATM    2  C6  UNL     1     -34.608  15.938  -6.006  1.00 20.00     0.031 C 
HETATM    3  C7  UNL     1     -33.211  14.768  -4.299  1.00 20.00     0.031 C 
HETATM    4  C9  UNL     1     -34.657  15.104  -4.716  1.00 20.00     0.046 C 
HETATM    5  N10 UNL     1     -35.922  12.834  -5.196  1.00 20.00    -0.196 NA
ENDROOT
BRANCH   4   6
HETATM    6  C8  UNL     1     -35.329  15.879  -3.548  1.00 20.00     0.062 C 
BRANCH   6   7
HETATM    7  C5  UNL     1     -34.524  17.003  -2.935  1.00 20.00    -0.050 A 
HETATM    8  C2  UNL     1     -34.058  17.004  -1.588  1.00 20.00     0.014 A 
HETATM    9  C3  UNL     1     -33.351  18.147  -1.286  1.00 20.00     0.050 A 
HETATM   10  S11 UNL     1     -33.250  19.212  -2.623  1.00 20.00    -0.113 SA
HETATM   11  C4  UNL     1     -34.153  18.144  -3.612  1.00 20.00     0.056 A 
ENDBRANCH   6   7
ENDBRANCH   4   6
TORSDOF 2
ENDMDL
MODEL 6
REMARK VINA RESULT:      -4.1     10.848     11.947
REMARK  2 active torsions:
REMARK  status: ('A' for Active; 'I' for Inactive)
REMARK    1  A    between atoms: C5_5  and  C8_8 
REMARK    2  A    between atoms: C8_8  and  C9_9 
ROOT
HETATM    1  C1  UNL     1     -36.715  14.270  -5.084  1.00 20.00     0.068 C 
HETATM    2  C6  UNL     1     -34.773  14.268  -6.598  1.00 20.00     0.031 C 
HETATM    3  C7  UNL     1     -34.482  13.903  -4.145  1.00 20.00     0.031 C 
HETATM    4  C9  UNL     1     -35.293  14.671  -5.208  1.00 20.00     0.046 C 
HETATM    5  N10 UNL     1     -37.826  13.952  -4.986  1.00 20.00    -0.196 NA
ENDROOT
BRANCH   4   6
HETATM    6  C8  UNL     1     -35.121  16.192  -4.942  1.00 20.00     0.062 C 
BRANCH   6   7
HETATM    7  C5  UNL     1     -34.916  16.605  -3.501  1.00 20.00    -0.050 A 
HETATM    8  C2  UNL     1     -33.646  16.920  -2.938  1.00 20.00     0.014 A 
HETATM    9  C3  UNL     1     -33.741  17.265  -1.608  1.00 20.00     0.050 A 
HETATM   10  S11 UNL     1     -35.356  17.208  -1.043  1.00 20.00    -0.113 SA
HETATM   11  C4  UNL     1     -35.934  16.722  -2.580  1.00 20.00     0.056 A 
ENDBRANCH   6   7
ENDBRANCH   4   6
TORSDOF 2
ENDMDL
MODEL 7
REMARK VINA RESULT:      -4.1     11.380     12.232
REMARK  2 active torsions:
REMARK  status: ('A' for Active; 'I' for Inactive)
REMARK    1  A    between atoms: C5_5  and  C8_8 
REMARK    2  A    between atoms: C8_8  and  C9_9 
ROOT
HETATM    1  C1  UNL     1     -33.334  18.019  -2.488  1.00 20.00     0.068 C 
HETATM    2  C6  UNL     1     -35.111  17.675  -4.157  1.00 20.00     0.031 C 
HETATM    3  C7  UNL     1     -35.273  16.648  -1.887  1.00 20.00     0.031 C 
HETATM    4  C9  UNL     1     -34.301  17.030  -3.021  1.00 20.00     0.046 C 
HETATM    5  N10 UNL     1     -32.582  18.796  -2.069  1.00 20.00    -0.196 NA
ENDROOT
BRANCH   4   6
HETATM    6  C8  UNL     1     -33.572  15.739  -3.488  1.00 20.00     0.062 C 
BRANCH   6   7
HETATM    7  C5  UNL     1     -34.210  14.981  -4.631  1.00 20.00    -0.050 A 
HETATM    8  C2  UNL     1     -35.341  14.128  -4.485  1.00 20.00     0.014 A 
HETATM    9  C3  UNL     1     -35.720  13.561  -5.682  1.00 20.00     0.050 A 
HETATM   10  S11 UNL     1     -34.713  14.058  -6.975  1.00 20.00    -0.113 SA
HETATM   11  C4  UNL     1     -33.767  15.036  -5.935  1.00 20.00     0.056 A 
ENDBRANCH   6   7
ENDBRANCH   4   6
TORSDOF 2
ENDMDL
MODEL 8
REMARK VINA RESULT:      -4.1      2.854      4.479
REMARK  2 active torsions:
REMARK  status: ('A' for Active; 'I' for Inactive)
REMARK    1  A    between atoms: C5_5  and  C8_8 
REMARK    2  A    between atoms: C8_8  and  C9_9 
ROOT
HETATM    1  C1  UNL     1     -32.471   9.377   1.629  1.00 20.00     0.068 C 
HETATM    2  C6  UNL     1     -31.339   8.373   3.572  1.00 20.00     0.031 C 
HETATM    3  C7  UNL     1     -32.236   6.941   1.734  1.00 20.00     0.031 C 
HETATM    4  C9  UNL     1     -32.484   8.221   2.557  1.00 20.00     0.046 C 
HETATM    5  N10 UNL     1     -32.457  10.280   0.901  1.00 20.00    -0.196 NA
ENDROOT
BRANCH   4   6
HETATM    6  C8  UNL     1     -33.866   8.087   3.255  1.00 20.00     0.062 C 
BRANCH   6   7
HETATM    7  C5  UNL     1     -34.098   6.822   4.052  1.00 20.00    -0.050 A 
HETATM    8  C2  UNL     1     -34.104   6.769   5.476  1.00 20.00     0.014 A 
HETATM    9  C3  UNL     1     -34.338   5.496   5.946  1.00 20.00     0.050 A 
HETATM   10  S11 UNL     1     -34.549   4.370   4.673  1.00 20.00    -0.113 SA
HETATM   11  C4  UNL     1     -34.328   5.586   3.487  1.00 20.00     0.056 A 
ENDBRANCH   6   7
ENDBRANCH   4   6
TORSDOF 2
ENDMDL
MODEL 9
REMARK VINA RESULT:      -3.9     11.554     12.415
REMARK  2 active torsions:
REMARK  status: ('A' for Active; 'I' for Inactive)
REMARK    1  A    between atoms: C5_5  and  C8_8 
REMARK    2  A    between atoms: C8_8  and  C9_9 
ROOT
HETATM    1  C1  UNL     1     -34.861  17.713  -4.120  1.00 20.00     0.068 C 
HETATM    2  C6  UNL     1     -35.384  16.564  -2.006  1.00 20.00     0.031 C 
HETATM    3  C7  UNL     1     -33.238  17.810  -2.288  1.00 20.00     0.031 C 
HETATM    4  C9  UNL     1     -34.276  16.926  -3.009  1.00 20.00     0.046 C 
HETATM    5  N10 UNL     1     -35.320  18.333  -4.987  1.00 20.00    -0.196 NA
ENDROOT
BRANCH   4   6
HETATM    6  C8  UNL     1     -33.545  15.665  -3.548  1.00 20.00     0.062 C 
BRANCH   6   7
HETATM    7  C5  UNL     1     -34.225  14.925  -4.679  1.00 20.00    -0.050 A 
HETATM    8  C2  UNL     1     -35.355  14.073  -4.507  1.00 20.00     0.014 A 
HETATM    9  C3  UNL     1     -35.776  13.525  -5.697  1.00 20.00     0.050 A 
HETATM   10  S11 UNL     1     -34.812  14.036  -7.017  1.00 20.00    -0.113 SA
HETATM   11  C4  UNL     1     -33.827  14.996  -5.996  1.00 20.00     0.056 A 
ENDBRANCH   6   7
ENDBRANCH   4   6
TORSDOF 2
ENDMDL
