MODEL 1
REMARK VINA RESULT:      -4.7      0.000      0.000
REMARK  3 active torsions:
REMARK  status: ('A' for Active; 'I' for Inactive)
REMARK    1  A    between atoms: C6_6  and  C11_11 
REMARK    2  A    between atoms: C7_7  and  C12_12 
REMARK    3  A    between atoms: C12_12  and  C13_13 
ROOT
HETATM    1  C1  UNL     1     -35.903  17.410  -4.603  1.00 20.00     0.069 C 
HETATM    2  C2  UNL     1     -33.308  16.021  -5.656  1.00 20.00     0.002 C 
HETATM    3  C3  UNL     1     -33.398  14.651  -4.992  1.00 20.00     0.005 C 
HETATM    4  C4  UNL     1     -33.440  17.148  -4.632  1.00 20.00     0.024 C 
HETATM    5  C5  UNL     1     -34.884  15.636  -3.185  1.00 20.00     0.029 C 
HETATM    6  C6  UNL     1     -34.677  14.467  -4.168  1.00 20.00    -0.013 C 
HETATM    7  C7  UNL     1     -34.725  17.055  -3.782  1.00 20.00     0.050 C 
HETATM    8  N14 UNL     1     -36.827  17.689  -5.247  1.00 20.00    -0.196 NA
ENDROOT
BRANCH   7   9
HETATM    9  C12 UNL     1     -34.640  18.076  -2.632  1.00 20.00     0.028 C 
BRANCH   9  10
HETATM   10  C13 UNL     1     -33.964  17.510  -1.379  1.00 20.00    -0.021 C 
HETATM   11  C9  UNL     1     -32.597  18.141  -1.112  1.00 20.00     0.009 C 
HETATM   12  C10 UNL     1     -34.879  17.726  -0.172  1.00 20.00     0.009 C 
ENDBRANCH   9  10
ENDBRANCH   7   9
BRANCH   6  13
HETATM   13  C11 UNL     1     -35.893  14.212  -5.060  1.00 20.00     0.000 C 
HETATM   14  C8  UNL     1     -35.565  13.292  -6.190  1.00 20.00     0.005 C 
ENDBRANCH   6  13
TORSDOF 3
ENDMDL
MODEL 2
REMARK VINA RESULT:      -4.7      1.275      2.066
REMARK  3 active torsions:
REMARK  status: ('A' for Active; 'I' for Inactive)
REMARK    1  A    between atoms: C6_6  and  C11_11 
REMARK    2  A    between atoms: C7_7  and  C12_12 
REMARK    3  A    between atoms: C12_12  and  C13_13 
ROOT
HETATM    1  C1  UNL     1     -35.291  16.810  -4.960  1.00 20.00     0.069 C 
HETATM    2  C2  UNL     1     -33.968  14.941  -7.088  1.00 20.00     0.002 C 
HETATM    3  C3  UNL     1     -34.679  13.617  -6.824  1.00 20.00     0.005 C 
HETATM    4  C4  UNL     1     -33.359  15.513  -5.809  1.00 20.00     0.024 C 
HETATM    5  C5  UNL     1     -35.184  14.375  -4.454  1.00 20.00     0.029 C 
HETATM    6  C6  UNL     1     -35.748  13.719  -5.730  1.00 20.00    -0.013 C 
HETATM    7  C7  UNL     1     -34.381  15.680  -4.666  1.00 20.00     0.050 C 
HETATM    8  N14 UNL     1     -36.003  17.695  -5.191  1.00 20.00    -0.196 NA
ENDROOT
BRANCH   7   9
HETATM    9  C12 UNL     1     -33.629  16.022  -3.366  1.00 20.00     0.028 C 
BRANCH   9  10
HETATM   10  C13 UNL     1     -34.244  17.206  -2.613  1.00 20.00    -0.021 C 
HETATM   11  C9  UNL     1     -35.162  16.767  -1.473  1.00 20.00     0.009 C 
HETATM   12  C10 UNL     1     -33.122  18.091  -2.064  1.00 20.00     0.009 C 
ENDBRANCH   9  10
ENDBRANCH   7   9
BRANCH   6  13
HETATM   13  C11 UNL     1     -37.019  14.400  -6.242  1.00 20.00     0.000 C 
HETATM   14  C8  UNL     1     -38.077  14.455  -5.189  1.00 20.00     0.005 C 
ENDBRANCH   6  13
TORSDOF 3
ENDMDL
MODEL 3
REMARK VINA RESULT:      -4.7      2.103      3.101
REMARK  3 active torsions:
REMARK  status: ('A' for Active; 'I' for Inactive)
REMARK    1  A    between atoms: C6_6  and  C11_11 
REMARK    2  A    between atoms: C7_7  and  C12_12 
REMARK    3  A    between atoms: C12_12  and  C13_13 
ROOT
HETATM    1  C1  UNL     1     -34.616  14.730  -4.292  1.00 20.00     0.069 C 
HETATM    2  C2  UNL     1     -37.623  14.429  -5.093  1.00 20.00     0.002 C 
HETATM    3  C3  UNL     1     -37.612  14.926  -6.535  1.00 20.00     0.005 C 
HETATM    4  C4  UNL     1     -36.984  15.445  -4.147  1.00 20.00     0.024 C 
HETATM    5  C5  UNL     1     -35.504  16.254  -6.049  1.00 20.00     0.029 C 
HETATM    6  C6  UNL     1     -36.209  15.297  -7.030  1.00 20.00    -0.013 C 
HETATM    7  C7  UNL     1     -35.551  15.846  -4.558  1.00 20.00     0.050 C 
HETATM    8  N14 UNL     1     -33.884  13.855  -4.084  1.00 20.00    -0.196 NA
ENDROOT
BRANCH   7   9
HETATM    9  C12 UNL     1     -35.099  17.040  -3.697  1.00 20.00     0.028 C 
BRANCH   9  10
HETATM   10  C13 UNL     1     -34.511  16.615  -2.347  1.00 20.00    -0.021 C 
HETATM   11  C9  UNL     1     -33.173  17.291  -2.049  1.00 20.00     0.009 C 
HETATM   12  C10 UNL     1     -35.513  16.938  -1.237  1.00 20.00     0.009 C 
ENDBRANCH   9  10
ENDBRANCH   7   9
BRANCH   6  13
HETATM   13  C11 UNL     1     -35.378  14.055  -7.358  1.00 20.00     0.000 C 
HETATM   14  C8  UNL     1     -34.041  14.419  -7.917  1.00 20.00     0.005 C 
ENDBRANCH   6  13
TORSDOF 3
ENDMDL
MODEL 4
REMARK VINA RESULT:      -4.7      1.630      2.498
REMARK  3 active torsions:
REMARK  status: ('A' for Active; 'I' for Inactive)
REMARK    1  A    between atoms: C6_6  and  C11_11 
REMARK    2  A    between atoms: C7_7  and  C12_12 
REMARK    3  A    between atoms: C12_12  and  C13_13 
ROOT
HETATM    1  C1  UNL     1     -35.673  15.426  -4.514  1.00 20.00     0.069 C 
HETATM    2  C2  UNL     1     -35.156  18.012  -6.194  1.00 20.00     0.002 C 
HETATM    3  C3  UNL     1     -34.040  17.556  -7.129  1.00 20.00     0.005 C 
HETATM    4  C4  UNL     1     -34.807  17.737  -4.732  1.00 20.00     0.024 C 
HETATM    5  C5  UNL     1     -33.395  15.753  -5.463  1.00 20.00     0.029 C 
HETATM    6  C6  UNL     1     -33.668  16.081  -6.944  1.00 20.00    -0.013 C 
HETATM    7  C7  UNL     1     -34.453  16.261  -4.455  1.00 20.00     0.050 C 
HETATM    8  N14 UNL     1     -36.630  14.773  -4.561  1.00 20.00    -0.196 NA
ENDROOT
BRANCH   7   9
HETATM    9  C12 UNL     1     -33.883  16.142  -3.029  1.00 20.00     0.028 C 
BRANCH   9  10
HETATM   10  C13 UNL     1     -34.245  17.335  -2.138  1.00 20.00    -0.021 C 
HETATM   11  C9  UNL     1     -35.288  16.984  -1.078  1.00 20.00     0.009 C 
HETATM   12  C10 UNL     1     -32.976  17.862  -1.463  1.00 20.00     0.009 C 
ENDBRANCH   9  10
ENDBRANCH   7   9
BRANCH   6  13
HETATM   13  C11 UNL     1     -34.702  15.152  -7.583  1.00 20.00     0.000 C 
HETATM   14  C8  UNL     1     -34.294  13.719  -7.479  1.00 20.00     0.005 C 
ENDBRANCH   6  13
TORSDOF 3
ENDMDL
MODEL 5
REMARK VINA RESULT:      -4.5      1.428      4.784
REMARK  3 active torsions:
REMARK  status: ('A' for Active; 'I' for Inactive)
REMARK    1  A    between atoms: C6_6  and  C11_11 
REMARK    2  A    between atoms: C7_7  and  C12_12 
REMARK    3  A    between atoms: C12_12  and  C13_13 
ROOT
HETATM    1  C1  UNL     1     -34.922  18.159  -4.758  1.00 20.00     0.069 C 
HETATM    2  C2  UNL     1     -36.299  17.734  -1.984  1.00 20.00     0.002 C 
HETATM    3  C3  UNL     1     -35.217  16.985  -1.212  1.00 20.00     0.005 C 
HETATM    4  C4  UNL     1     -36.606  17.053  -3.317  1.00 20.00     0.024 C 
HETATM    5  C5  UNL     1     -34.216  16.192  -3.405  1.00 20.00     0.029 C 
HETATM    6  C6  UNL     1     -33.927  16.797  -2.017  1.00 20.00    -0.013 C 
HETATM    7  C7  UNL     1     -35.360  16.858  -4.206  1.00 20.00     0.050 C 
HETATM    8  N14 UNL     1     -34.579  19.179  -5.190  1.00 20.00    -0.196 NA
ENDROOT
BRANCH   7   9
HETATM    9  C12 UNL     1     -35.730  15.954  -5.397  1.00 20.00     0.028 C 
BRANCH   9  10
HETATM   10  C13 UNL     1     -35.014  14.600  -5.365  1.00 20.00    -0.021 C 
HETATM   11  C9  UNL     1     -35.977  13.429  -5.166  1.00 20.00     0.009 C 
HETATM   12  C10 UNL     1     -34.233  14.413  -6.667  1.00 20.00     0.009 C 
ENDBRANCH   9  10
ENDBRANCH   7   9
BRANCH   6  13
HETATM   13  C11 UNL     1     -33.109  18.088  -2.085  1.00 20.00     0.000 C 
HETATM   14  C8  UNL     1     -32.546  18.455  -0.751  1.00 20.00     0.005 C 
ENDBRANCH   6  13
TORSDOF 3
ENDMDL
MODEL 6
REMARK VINA RESULT:      -4.5      1.234      1.569
REMARK  3 active torsions:
REMARK  status: ('A' for Active; 'I' for Inactive)
REMARK    1  A    between atoms: C6_6  and  C11_11 
REMARK    2  A    between atoms: C7_7  and  C12_12 
REMARK    3  A    between atoms: C12_12  and  C13_13 
ROOT
HETATM    1  C1  UNL     1     -34.307  17.466  -5.132  1.00 20.00     0.069 C 
HETATM    2  C2  UNL     1     -33.745  14.468  -4.446  1.00 20.00     0.002 C 
HETATM    3  C3  UNL     1     -35.147  13.869  -4.501  1.00 20.00     0.005 C 
HETATM    4  C4  UNL     1     -33.694  15.685  -3.523  1.00 20.00     0.024 C 
HETATM    5  C5  UNL     1     -36.134  16.164  -4.052  1.00 20.00     0.029 C 
HETATM    6  C6  UNL     1     -36.218  14.886  -4.910  1.00 20.00    -0.013 C 
HETATM    7  C7  UNL     1     -34.722  16.775  -3.891  1.00 20.00     0.050 C 
HETATM    8  N14 UNL     1     -33.982  18.007  -6.105  1.00 20.00    -0.196 NA
ENDROOT
BRANCH   7   9
HETATM    9  C12 UNL     1     -34.758  17.829  -2.768  1.00 20.00     0.028 C 
BRANCH   9  10
HETATM   10  C13 UNL     1     -34.213  17.303  -1.436  1.00 20.00    -0.021 C 
HETATM   11  C9  UNL     1     -33.079  18.165  -0.881  1.00 20.00     0.009 C 
HETATM   12  C10 UNL     1     -35.354  17.230  -0.419  1.00 20.00     0.009 C 
ENDBRANCH   9  10
ENDBRANCH   7   9
BRANCH   6  13
HETATM   13  C11 UNL     1     -36.185  15.171  -6.413  1.00 20.00     0.000 C 
HETATM   14  C8  UNL     1     -36.037  13.915  -7.208  1.00 20.00     0.005 C 
ENDBRANCH   6  13
TORSDOF 3
ENDMDL
MODEL 7
REMARK VINA RESULT:      -4.4      2.021      4.988
REMARK  3 active torsions:
REMARK  status: ('A' for Active; 'I' for Inactive)
REMARK    1  A    between atoms: C6_6  and  C11_11 
REMARK    2  A    between atoms: C7_7  and  C12_12 
REMARK    3  A    between atoms: C12_12  and  C13_13 
ROOT
HETATM    1  C1  UNL     1     -33.285  18.248  -2.171  1.00 20.00     0.069 C 
HETATM    2  C2  UNL     1     -36.199  18.967  -3.045  1.00 20.00     0.002 C 
HETATM    3  C3  UNL     1     -37.018  18.400  -1.890  1.00 20.00     0.005 C 
HETATM    4  C4  UNL     1     -35.258  17.916  -3.631  1.00 20.00     0.024 C 
HETATM    5  C5  UNL     1     -35.130  16.790  -1.355  1.00 20.00     0.029 C 
HETATM    6  C6  UNL     1     -36.151  17.792  -0.782  1.00 20.00    -0.013 C 
HETATM    7  C7  UNL     1     -34.323  17.278  -2.582  1.00 20.00     0.050 C 
HETATM    8  N14 UNL     1     -32.471  19.010  -1.848  1.00 20.00    -0.196 NA
ENDROOT
BRANCH   7   9
HETATM    9  C12 UNL     1     -33.602  16.075  -3.218  1.00 20.00     0.028 C 
BRANCH   9  10
HETATM   10  C13 UNL     1     -34.223  15.642  -4.550  1.00 20.00    -0.021 C 
HETATM   11  C9  UNL     1     -33.216  15.656  -5.701  1.00 20.00     0.009 C 
HETATM   12  C10 UNL     1     -34.817  14.240  -4.398  1.00 20.00     0.009 C 
ENDBRANCH   9  10
ENDBRANCH   7   9
BRANCH   6  13
HETATM   13  C11 UNL     1     -35.507  18.872   0.090  1.00 20.00     0.000 C 
HETATM   14  C8  UNL     1     -34.772  18.280   1.247  1.00 20.00     0.005 C 
ENDBRANCH   6  13
TORSDOF 3
ENDMDL
MODEL 8
REMARK VINA RESULT:      -4.3      1.580      2.311
REMARK  3 active torsions:
REMARK  status: ('A' for Active; 'I' for Inactive)
REMARK    1  A    between atoms: C6_6  and  C11_11 
REMARK    2  A    between atoms: C7_7  and  C12_12 
REMARK    3  A    between atoms: C12_12  and  C13_13 
ROOT
HETATM    1  C1  UNL     1     -35.728  18.203  -2.062  1.00 20.00     0.069 C 
HETATM    2  C2  UNL     1     -34.221  18.321  -4.798  1.00 20.00     0.002 C 
HETATM    3  C3  UNL     1     -33.397  17.039  -4.755  1.00 20.00     0.005 C 
HETATM    4  C4  UNL     1     -33.998  19.171  -3.547  1.00 20.00     0.024 C 
HETATM    5  C5  UNL     1     -33.525  17.055  -2.220  1.00 20.00     0.029 C 
HETATM    6  C6  UNL     1     -33.656  16.202  -3.497  1.00 20.00    -0.013 C 
HETATM    7  C7  UNL     1     -34.273  18.409  -2.234  1.00 20.00     0.050 C 
HETATM    8  N14 UNL     1     -36.869  18.041  -1.928  1.00 20.00    -0.196 NA
ENDROOT
BRANCH   7   9
HETATM    9  C12 UNL     1     -33.786  19.263  -1.048  1.00 20.00     0.028 C 
BRANCH   9  10
HETATM   10  C13 UNL     1     -33.245  18.421   0.112  1.00 20.00    -0.021 C 
HETATM   11  C9  UNL     1     -31.830  18.825   0.523  1.00 20.00     0.009 C 
HETATM   12  C10 UNL     1     -34.189  18.549   1.310  1.00 20.00     0.009 C 
ENDBRANCH   9  10
ENDBRANCH   7   9
BRANCH   6  13
HETATM   13  C11 UNL     1     -34.986  15.450  -3.581  1.00 20.00     0.000 C 
HETATM   14  C8  UNL     1     -34.844  14.162  -4.324  1.00 20.00     0.005 C 
ENDBRANCH   6  13
TORSDOF 3
ENDMDL
MODEL 9
REMARK VINA RESULT:      -4.0      1.422      2.431
REMARK  3 active torsions:
REMARK  status: ('A' for Active; 'I' for Inactive)
REMARK    1  A    between atoms: C6_6  and  C11_11 
REMARK    2  A    between atoms: C7_7  and  C12_12 
REMARK    3  A    between atoms: C12_12  and  C13_13 
ROOT
HETATM    1  C1  UNL     1     -34.243  18.024  -3.823  1.00 20.00     0.069 C 
HETATM    2  C2  UNL     1     -34.195  15.118  -4.973  1.00 20.00     0.002 C 
HETATM    3  C3  UNL     1     -35.582  14.610  -4.593  1.00 20.00     0.005 C 
HETATM    4  C4  UNL     1     -33.453  15.678  -3.760  1.00 20.00     0.024 C 
HETATM    5  C5  UNL     1     -35.681  16.319  -2.718  1.00 20.00     0.029 C 
HETATM    6  C6  UNL     1     -36.439  15.672  -3.895  1.00 20.00    -0.013 C 
HETATM    7  C7  UNL     1     -34.236  16.782  -3.020  1.00 20.00     0.050 C 
HETATM    8  N14 UNL     1     -34.249  18.998  -4.453  1.00 20.00    -0.196 NA
ENDROOT
BRANCH   7   9
HETATM    9  C12 UNL     1     -33.524  17.097  -1.691  1.00 20.00     0.028 C 
BRANCH   9  10
HETATM   10  C13 UNL     1     -34.136  18.292  -0.953  1.00 20.00    -0.021 C 
HETATM   11  C9  UNL     1     -34.929  17.877   0.285  1.00 20.00     0.009 C 
HETATM   12  C10 UNL     1     -33.021  19.262  -0.554  1.00 20.00     0.009 C 
ENDBRANCH   9  10
ENDBRANCH   7   9
BRANCH   6  13
HETATM   13  C11 UNL     1     -36.990  16.698  -4.888  1.00 20.00     0.000 C 
HETATM   14  C8  UNL     1     -37.918  17.662  -4.226  1.00 20.00     0.005 C 
ENDBRANCH   6  13
TORSDOF 3
ENDMDL
