MODEL 1
REMARK VINA RESULT:      -4.6      0.000      0.000
REMARK  1 active torsions:
REMARK  status: ('A' for Active; 'I' for Inactive)
REMARK    1  A    between atoms: C5_5  and  C9_9 
ROOT
HETATM    1  C1  UNL     1     -33.743   7.094   5.123  1.00 20.00     0.069 C 
HETATM    2  C2  UNL     1     -31.870   7.076   2.637  1.00 20.00     0.006 C 
HETATM    3  C3  UNL     1     -32.802   5.977   3.129  1.00 20.00     0.024 C 
HETATM    4  C4  UNL     1     -34.097   8.029   2.854  1.00 20.00     0.029 C 
HETATM    5  C5  UNL     1     -32.831   8.063   1.981  1.00 20.00    -0.013 C 
HETATM    6  C6  UNL     1     -34.005   6.742   3.709  1.00 20.00     0.046 C 
HETATM    7  C7  UNL     1     -35.286   5.911   3.632  1.00 20.00     0.031 C 
HETATM    8  N10 UNL     1     -33.538   7.370   6.231  1.00 20.00    -0.196 NA
ENDROOT
BRANCH   5   9
HETATM    9  C9  UNL     1     -32.241   9.456   1.833  1.00 20.00     0.000 C 
HETATM   10  C8  UNL     1     -32.701  10.128   0.578  1.00 20.00     0.005 C 
ENDBRANCH   5   9
TORSDOF 1
ENDMDL
MODEL 2
REMARK VINA RESULT:      -4.4     10.842     11.780
REMARK  1 active torsions:
REMARK  status: ('A' for Active; 'I' for Inactive)
REMARK    1  A    between atoms: C5_5  and  C9_9 
ROOT
HETATM    1  C1  UNL     1     -35.602  13.903  -5.549  1.00 20.00     0.069 C 
HETATM    2  C2  UNL     1     -33.024  15.557  -4.995  1.00 20.00     0.006 C 
HETATM    3  C3  UNL     1     -33.743  15.338  -6.320  1.00 20.00     0.024 C 
HETATM    4  C4  UNL     1     -35.346  16.218  -4.702  1.00 20.00     0.029 C 
HETATM    5  C5  UNL     1     -33.908  16.589  -4.301  1.00 20.00    -0.013 C 
HETATM    6  C6  UNL     1     -35.230  15.284  -5.931  1.00 20.00     0.046 C 
HETATM    7  C7  UNL     1     -36.127  15.740  -7.082  1.00 20.00     0.031 C 
HETATM    8  N10 UNL     1     -35.892  12.820  -5.250  1.00 20.00    -0.196 NA
ENDROOT
BRANCH   5   9
HETATM    9  C9  UNL     1     -33.697  16.632  -2.795  1.00 20.00     0.000 C 
HETATM   10  C8  UNL     1     -34.994  16.603  -2.049  1.00 20.00     0.005 C 
ENDBRANCH   5   9
TORSDOF 1
ENDMDL
MODEL 3
REMARK VINA RESULT:      -4.4     10.727     11.558
REMARK  1 active torsions:
REMARK  status: ('A' for Active; 'I' for Inactive)
REMARK    1  A    between atoms: C5_5  and  C9_9 
ROOT
HETATM    1  C1  UNL     1     -35.517  13.941  -5.399  1.00 20.00     0.069 C 
HETATM    2  C2  UNL     1     -33.519  15.608  -3.690  1.00 20.00     0.006 C 
HETATM    3  C3  UNL     1     -33.551  15.426  -5.202  1.00 20.00     0.024 C 
HETATM    4  C4  UNL     1     -35.738  16.229  -4.470  1.00 20.00     0.029 C 
HETATM    5  C5  UNL     1     -34.650  16.603  -3.448  1.00 20.00    -0.013 C 
HETATM    6  C6  UNL     1     -35.051  15.339  -5.534  1.00 20.00     0.046 C 
HETATM    7  C7  UNL     1     -35.338  15.824  -6.956  1.00 20.00     0.031 C 
HETATM    8  N10 UNL     1     -35.881  12.845  -5.293  1.00 20.00    -0.196 NA
ENDROOT
BRANCH   5   9
HETATM    9  C9  UNL     1     -35.148  16.597  -2.012  1.00 20.00     0.000 C 
HETATM   10  C8  UNL     1     -34.247  17.372  -1.104  1.00 20.00     0.005 C 
ENDBRANCH   5   9
TORSDOF 1
ENDMDL
MODEL 4
REMARK VINA RESULT:      -4.1      1.829      2.562
REMARK  1 active torsions:
REMARK  status: ('A' for Active; 'I' for Inactive)
REMARK    1  A    between atoms: C5_5  and  C9_9 
ROOT
HETATM    1  C1  UNL     1     -35.518   6.050   3.645  1.00 20.00     0.069 C 
HETATM    2  C2  UNL     1     -33.344   7.722   5.116  1.00 20.00     0.006 C 
HETATM    3  C3  UNL     1     -33.977   6.404   5.544  1.00 20.00     0.024 C 
HETATM    4  C4  UNL     1     -33.066   6.134   3.294  1.00 20.00     0.029 C 
HETATM    5  C5  UNL     1     -32.362   7.286   4.032  1.00 20.00    -0.013 C 
HETATM    6  C6  UNL     1     -34.212   5.657   4.219  1.00 20.00     0.046 C 
HETATM    7  C7  UNL     1     -34.191   4.141   4.419  1.00 20.00     0.031 C 
HETATM    8  N10 UNL     1     -36.543   6.357   3.195  1.00 20.00    -0.196 NA
ENDROOT
BRANCH   5   9
HETATM    9  C9  UNL     1     -31.950   8.425   3.113  1.00 20.00     0.000 C 
HETATM   10  C8  UNL     1     -32.575   8.304   1.759  1.00 20.00     0.005 C 
ENDBRANCH   5   9
TORSDOF 1
ENDMDL
MODEL 5
REMARK VINA RESULT:      -4.1     10.361     11.389
REMARK  1 active torsions:
REMARK  status: ('A' for Active; 'I' for Inactive)
REMARK    1  A    between atoms: C5_5  and  C9_9 
ROOT
HETATM    1  C1  UNL     1     -34.632  14.669  -4.002  1.00 20.00     0.069 C 
HETATM    2  C2  UNL     1     -33.610  17.609  -3.951  1.00 20.00     0.006 C 
HETATM    3  C3  UNL     1     -34.801  17.033  -4.705  1.00 20.00     0.024 C 
HETATM    4  C4  UNL     1     -35.030  16.466  -2.341  1.00 20.00     0.029 C 
HETATM    5  C5  UNL     1     -34.131  17.702  -2.521  1.00 20.00    -0.013 C 
HETATM    6  C6  UNL     1     -35.345  15.944  -3.764  1.00 20.00     0.046 C 
HETATM    7  C7  UNL     1     -36.844  15.722  -3.973  1.00 20.00     0.031 C 
HETATM    8  N10 UNL     1     -34.073  13.670  -4.190  1.00 20.00    -0.196 NA
ENDROOT
BRANCH   5   9
HETATM    9  C9  UNL     1     -33.018  17.789  -1.488  1.00 20.00     0.000 C 
HETATM   10  C8  UNL     1     -33.513  18.313  -0.177  1.00 20.00     0.005 C 
ENDBRANCH   5   9
TORSDOF 1
ENDMDL
MODEL 6
REMARK VINA RESULT:      -4.0     10.848     11.679
REMARK  1 active torsions:
REMARK  status: ('A' for Active; 'I' for Inactive)
REMARK    1  A    between atoms: C5_5  and  C9_9 
ROOT
HETATM    1  C1  UNL     1     -33.852  16.526  -5.331  1.00 20.00     0.069 C 
HETATM    2  C2  UNL     1     -35.978  16.360  -3.065  1.00 20.00     0.006 C 
HETATM    3  C3  UNL     1     -35.429  15.236  -3.933  1.00 20.00     0.024 C 
HETATM    4  C4  UNL     1     -33.554  16.387  -2.874  1.00 20.00     0.029 C 
HETATM    5  C5  UNL     1     -34.848  16.598  -2.068  1.00 20.00    -0.013 C 
HETATM    6  C6  UNL     1     -33.959  15.627  -4.161  1.00 20.00     0.046 C 
HETATM    7  C7  UNL     1     -33.082  14.396  -4.397  1.00 20.00     0.031 C 
HETATM    8  N10 UNL     1     -33.769  17.230  -6.249  1.00 20.00    -0.196 NA
ENDROOT
BRANCH   5   9
HETATM    9  C9  UNL     1     -34.923  17.962  -1.400  1.00 20.00     0.000 C 
HETATM   10  C8  UNL     1     -33.881  18.122  -0.339  1.00 20.00     0.005 C 
ENDBRANCH   5   9
TORSDOF 1
ENDMDL
MODEL 7
REMARK VINA RESULT:      -4.0     10.999     11.687
REMARK  1 active torsions:
REMARK  status: ('A' for Active; 'I' for Inactive)
REMARK    1  A    between atoms: C5_5  and  C9_9 
ROOT
HETATM    1  C1  UNL     1     -35.386  15.522  -6.215  1.00 20.00     0.069 C 
HETATM    2  C2  UNL     1     -36.037  16.669  -3.396  1.00 20.00     0.006 C 
HETATM    3  C3  UNL     1     -36.762  15.571  -4.163  1.00 20.00     0.024 C 
HETATM    4  C4  UNL     1     -34.398  14.980  -4.007  1.00 20.00     0.029 C 
HETATM    5  C5  UNL     1     -34.791  15.955  -2.883  1.00 20.00    -0.013 C 
HETATM    6  C6  UNL     1     -35.638  14.845  -4.923  1.00 20.00     0.046 C 
HETATM    7  C7  UNL     1     -35.996  13.382  -5.189  1.00 20.00     0.031 C 
HETATM    8  N10 UNL     1     -35.188  16.052  -7.228  1.00 20.00    -0.196 NA
ENDROOT
BRANCH   5   9
HETATM    9  C9  UNL     1     -33.674  16.913  -2.501  1.00 20.00     0.000 C 
HETATM   10  C8  UNL     1     -33.893  17.517  -1.150  1.00 20.00     0.005 C 
ENDBRANCH   5   9
TORSDOF 1
ENDMDL
MODEL 8
REMARK VINA RESULT:      -4.0     10.850     11.646
REMARK  1 active torsions:
REMARK  status: ('A' for Active; 'I' for Inactive)
REMARK    1  A    between atoms: C5_5  and  C9_9 
ROOT
HETATM    1  C1  UNL     1     -36.116  13.898  -5.169  1.00 20.00     0.069 C 
HETATM    2  C2  UNL     1     -34.364  16.471  -5.161  1.00 20.00     0.006 C 
HETATM    3  C3  UNL     1     -35.643  16.198  -5.941  1.00 20.00     0.024 C 
HETATM    4  C4  UNL     1     -36.077  15.794  -3.572  1.00 20.00     0.029 C 
HETATM    5  C5  UNL     1     -34.882  16.747  -3.753  1.00 20.00    -0.013 C 
HETATM    6  C6  UNL     1     -36.478  15.322  -4.991  1.00 20.00     0.046 C 
HETATM    7  C7  UNL     1     -37.977  15.491  -5.247  1.00 20.00     0.031 C 
HETATM    8  N10 UNL     1     -35.832  12.782  -5.309  1.00 20.00    -0.196 NA
ENDROOT
BRANCH   5   9
HETATM    9  C9  UNL     1     -33.814  16.579  -2.684  1.00 20.00     0.000 C 
HETATM   10  C8  UNL     1     -34.231  17.177  -1.378  1.00 20.00     0.005 C 
ENDBRANCH   5   9
TORSDOF 1
ENDMDL
MODEL 9
REMARK VINA RESULT:      -4.0     10.895     11.579
REMARK  1 active torsions:
REMARK  status: ('A' for Active; 'I' for Inactive)
REMARK    1  A    between atoms: C5_5  and  C9_9 
ROOT
HETATM    1  C1  UNL     1     -34.860  17.426  -4.384  1.00 20.00     0.069 C 
HETATM    2  C2  UNL     1     -33.763  14.569  -4.955  1.00 20.00     0.006 C 
HETATM    3  C3  UNL     1     -33.444  15.490  -3.785  1.00 20.00     0.024 C 
HETATM    4  C4  UNL     1     -35.866  15.210  -3.914  1.00 20.00     0.029 C 
HETATM    5  C5  UNL     1     -35.144  14.032  -4.592  1.00 20.00    -0.013 C 
HETATM    6  C6  UNL     1     -34.768  16.227  -3.520  1.00 20.00     0.046 C 
HETATM    7  C7  UNL     1     -34.886  16.658  -2.057  1.00 20.00     0.031 C 
HETATM    8  N10 UNL     1     -34.931  18.365  -5.060  1.00 20.00    -0.196 NA
ENDROOT
BRANCH   5   9
HETATM    9  C9  UNL     1     -35.898  13.475  -5.789  1.00 20.00     0.000 C 
HETATM   10  C8  UNL     1     -35.015  13.337  -6.990  1.00 20.00     0.005 C 
ENDBRANCH   5   9
TORSDOF 1
ENDMDL
