MODEL 1
REMARK VINA RESULT:      -5.3      0.000      0.000
REMARK  2 active torsions:
REMARK  status: ('A' for Active; 'I' for Inactive)
REMARK    1  A    between atoms: C1_1  and  C7_7 
REMARK    2  A    between atoms: C6_6  and  C10_10 
ROOT
HETATM    1  C2  UNL     1     -33.312  15.693  -4.599  1.00 20.00     0.002 C 
HETATM    2  C3  UNL     1     -33.605  16.159  -3.175  1.00 20.00     0.005 C 
HETATM    3  C4  UNL     1     -34.274  14.593  -5.043  1.00 20.00     0.020 C 
HETATM    4  C5  UNL     1     -36.028  15.489  -3.451  1.00 20.00     0.025 C 
HETATM    5  C6  UNL     1     -35.064  16.602  -3.006  1.00 20.00    -0.014 C 
HETATM    6  C7  UNL     1     -35.742  15.001  -4.875  1.00 20.00     0.045 C 
HETATM    7  C8  UNL     1     -36.202  15.991  -5.942  1.00 20.00     0.027 C 
ENDROOT
BRANCH   6   8
HETATM    8  C1  UNL     1     -36.545  13.722  -5.101  1.00 20.00     0.181 C 
HETATM    9  O11 UNL     1     -37.799  13.855  -5.036  1.00 20.00    -0.647 OA
HETATM   10  O12 UNL     1     -35.849  12.692  -5.325  1.00 20.00    -0.647 OA
ENDBRANCH   6   8
BRANCH   5  11
HETATM   11  C10 UNL     1     -35.338  17.003  -1.556  1.00 20.00     0.000 C 
HETATM   12  C9  UNL     1     -34.123  17.576  -0.904  1.00 20.00     0.005 C 
ENDBRANCH   5  11
TORSDOF 2
ENDMDL
MODEL 2
REMARK VINA RESULT:      -5.2      0.830      1.394
REMARK  2 active torsions:
REMARK  status: ('A' for Active; 'I' for Inactive)
REMARK    1  A    between atoms: C1_1  and  C7_7 
REMARK    2  A    between atoms: C6_6  and  C10_10 
ROOT
HETATM    1  C2  UNL     1     -33.749  16.090  -6.125  1.00 20.00     0.002 C 
HETATM    2  C3  UNL     1     -33.261  16.356  -4.702  1.00 20.00     0.005 C 
HETATM    3  C4  UNL     1     -34.720  14.913  -6.178  1.00 20.00     0.020 C 
HETATM    4  C5  UNL     1     -35.400  15.369  -3.782  1.00 20.00     0.025 C 
HETATM    5  C6  UNL     1     -34.428  16.559  -3.726  1.00 20.00    -0.014 C 
HETATM    6  C7  UNL     1     -35.892  15.080  -5.205  1.00 20.00     0.045 C 
HETATM    7  C8  UNL     1     -36.920  16.098  -5.692  1.00 20.00     0.027 C 
ENDROOT
BRANCH   6   8
HETATM    8  C1  UNL     1     -36.600  13.728  -5.188  1.00 20.00     0.181 C 
HETATM    9  O11 UNL     1     -35.852  12.725  -5.352  1.00 20.00    -0.647 OA
HETATM   10  O12 UNL     1     -37.850  13.787  -5.012  1.00 20.00    -0.647 OA
ENDBRANCH   6   8
BRANCH   5  11
HETATM   11  C10 UNL     1     -33.906  16.762  -2.303  1.00 20.00     0.000 C 
HETATM   12  C9  UNL     1     -35.015  17.056  -1.347  1.00 20.00     0.005 C 
ENDBRANCH   5  11
TORSDOF 2
ENDMDL
MODEL 3
REMARK VINA RESULT:      -5.1     11.816     12.345
REMARK  2 active torsions:
REMARK  status: ('A' for Active; 'I' for Inactive)
REMARK    1  A    between atoms: C1_1  and  C7_7 
REMARK    2  A    between atoms: C6_6  and  C10_10 
ROOT
HETATM    1  C2  UNL     1     -33.090   4.820   2.388  1.00 20.00     0.002 C 
HETATM    2  C3  UNL     1     -32.213   6.046   2.143  1.00 20.00     0.005 C 
HETATM    3  C4  UNL     1     -33.586   4.760   3.831  1.00 20.00     0.020 C 
HETATM    4  C5  UNL     1     -33.418   7.282   3.991  1.00 20.00     0.025 C 
HETATM    5  C6  UNL     1     -32.924   7.347   2.536  1.00 20.00    -0.014 C 
HETATM    6  C7  UNL     1     -34.292   6.051   4.259  1.00 20.00     0.045 C 
HETATM    7  C8  UNL     1     -35.691   6.181   3.663  1.00 20.00     0.027 C 
ENDROOT
BRANCH   6   8
HETATM    8  C1  UNL     1     -34.477   5.930   5.769  1.00 20.00     0.181 C 
HETATM    9  O11 UNL     1     -34.828   4.789   6.180  1.00 20.00    -0.647 OA
HETATM   10  O12 UNL     1     -34.255   6.992   6.417  1.00 20.00    -0.647 OA
ENDBRANCH   6   8
BRANCH   5  11
HETATM   11  C10 UNL     1     -31.997   8.547   2.336  1.00 20.00     0.000 C 
HETATM   12  C9  UNL     1     -32.197   9.180   0.998  1.00 20.00     0.005 C 
ENDBRANCH   5  11
TORSDOF 2
ENDMDL
MODEL 4
REMARK VINA RESULT:      -5.0      1.121      1.291
REMARK  2 active torsions:
REMARK  status: ('A' for Active; 'I' for Inactive)
REMARK    1  A    between atoms: C1_1  and  C7_7 
REMARK    2  A    between atoms: C6_6  and  C10_10 
ROOT
HETATM    1  C2  UNL     1     -33.397  16.688  -5.518  1.00 20.00     0.002 C 
HETATM    2  C3  UNL     1     -33.642  16.825  -4.017  1.00 20.00     0.005 C 
HETATM    3  C4  UNL     1     -33.756  15.292  -6.024  1.00 20.00     0.020 C 
HETATM    4  C5  UNL     1     -35.435  15.045  -4.144  1.00 20.00     0.025 C 
HETATM    5  C6  UNL     1     -35.081  16.453  -3.636  1.00 20.00    -0.014 C 
HETATM    6  C7  UNL     1     -35.185  14.886  -5.648  1.00 20.00     0.045 C 
HETATM    7  C8  UNL     1     -36.239  15.589  -6.499  1.00 20.00     0.027 C 
ENDROOT
BRANCH   6   8
HETATM    8  C1  UNL     1     -35.284  13.399  -5.983  1.00 20.00     0.181 C 
HETATM    9  O11 UNL     1     -35.998  12.717  -5.197  1.00 20.00    -0.647 OA
HETATM   10  O12 UNL     1     -34.636  13.043  -7.007  1.00 20.00    -0.647 OA
ENDBRANCH   6   8
BRANCH   5  11
HETATM   11  C10 UNL     1     -35.274  16.542  -2.121  1.00 20.00     0.000 C 
HETATM   12  C9  UNL     1     -34.101  17.181  -1.453  1.00 20.00     0.005 C 
ENDBRANCH   5  11
TORSDOF 2
ENDMDL
MODEL 5
REMARK VINA RESULT:      -4.7     10.596     11.120
REMARK  2 active torsions:
REMARK  status: ('A' for Active; 'I' for Inactive)
REMARK    1  A    between atoms: C1_1  and  C7_7 
REMARK    2  A    between atoms: C6_6  and  C10_10 
ROOT
HETATM    1  C2  UNL     1     -31.410   8.076   3.851  1.00 20.00     0.002 C 
HETATM    2  C3  UNL     1     -31.771   8.940   2.645  1.00 20.00     0.005 C 
HETATM    3  C4  UNL     1     -32.639   7.387   4.440  1.00 20.00     0.020 C 
HETATM    4  C5  UNL     1     -33.760   7.452   2.170  1.00 20.00     0.025 C 
HETATM    5  C6  UNL     1     -32.521   8.140   1.572  1.00 20.00    -0.014 C 
HETATM    6  C7  UNL     1     -33.419   6.589   3.390  1.00 20.00     0.045 C 
HETATM    7  C8  UNL     1     -32.726   5.282   3.012  1.00 20.00     0.027 C 
ENDROOT
BRANCH   6   8
HETATM    8  C1  UNL     1     -34.730   6.200   4.068  1.00 20.00     0.181 C 
HETATM    9  O11 UNL     1     -35.723   6.086   3.297  1.00 20.00    -0.647 OA
HETATM   10  O12 UNL     1     -34.652   6.041   5.319  1.00 20.00    -0.647 OA
ENDBRANCH   6   8
BRANCH   5  11
HETATM   11  C10 UNL     1     -32.920   9.048   0.408  1.00 20.00     0.000 C 
HETATM   12  C9  UNL     1     -32.598  10.479   0.690  1.00 20.00     0.005 C 
ENDBRANCH   5  11
TORSDOF 2
ENDMDL
MODEL 6
REMARK VINA RESULT:      -4.7      1.257      1.620
REMARK  2 active torsions:
REMARK  status: ('A' for Active; 'I' for Inactive)
REMARK    1  A    between atoms: C1_1  and  C7_7 
REMARK    2  A    between atoms: C6_6  and  C10_10 
ROOT
HETATM    1  C2  UNL     1     -33.770  15.713  -3.390  1.00 20.00     0.002 C 
HETATM    2  C3  UNL     1     -34.653  16.625  -2.541  1.00 20.00     0.005 C 
HETATM    3  C4  UNL     1     -34.564  14.550  -3.983  1.00 20.00     0.020 C 
HETATM    4  C5  UNL     1     -36.668  15.958  -3.916  1.00 20.00     0.025 C 
HETATM    5  C6  UNL     1     -35.870  17.133  -3.325  1.00 20.00    -0.014 C 
HETATM    6  C7  UNL     1     -35.795  15.024  -4.762  1.00 20.00     0.045 C 
HETATM    7  C8  UNL     1     -35.437  15.622  -6.120  1.00 20.00     0.027 C 
ENDROOT
BRANCH   6   8
HETATM    8  C1  UNL     1     -36.604  13.761  -5.048  1.00 20.00     0.181 C 
HETATM    9  O11 UNL     1     -37.857  13.903  -5.009  1.00 20.00    -0.647 OA
HETATM   10  O12 UNL     1     -35.911  12.732  -5.288  1.00 20.00    -0.647 OA
ENDBRANCH   6   8
BRANCH   5  11
HETATM   11  C10 UNL     1     -36.763  17.992  -2.429  1.00 20.00     0.000 C 
HETATM   12  C9  UNL     1     -38.197  17.912  -2.841  1.00 20.00     0.005 C 
ENDBRANCH   5  11
TORSDOF 2
ENDMDL
MODEL 7
REMARK VINA RESULT:      -4.5      1.975      2.968
REMARK  2 active torsions:
REMARK  status: ('A' for Active; 'I' for Inactive)
REMARK    1  A    between atoms: C1_1  and  C7_7 
REMARK    2  A    between atoms: C6_6  and  C10_10 
ROOT
HETATM    1  C2  UNL     1     -36.871  16.442  -3.803  1.00 20.00     0.002 C 
HETATM    2  C3  UNL     1     -36.219  17.210  -2.657  1.00 20.00     0.005 C 
HETATM    3  C4  UNL     1     -35.897  16.215  -4.958  1.00 20.00     0.020 C 
HETATM    4  C5  UNL     1     -33.956  16.307  -3.334  1.00 20.00     0.025 C 
HETATM    5  C6  UNL     1     -34.934  16.529  -2.168  1.00 20.00    -0.014 C 
HETATM    6  C7  UNL     1     -34.597  15.546  -4.500  1.00 20.00     0.045 C 
HETATM    7  C8  UNL     1     -34.773  14.058  -4.207  1.00 20.00     0.027 C 
ENDROOT
BRANCH   6   8
HETATM    8  C1  UNL     1     -33.651  15.639  -5.695  1.00 20.00     0.181 C 
HETATM    9  O11 UNL     1     -32.422  15.562  -5.417  1.00 20.00    -0.647 OA
HETATM   10  O12 UNL     1     -34.222  15.783  -6.813  1.00 20.00    -0.647 OA
ENDBRANCH   6   8
BRANCH   5  11
HETATM   11  C10 UNL     1     -34.275  17.356  -1.063  1.00 20.00     0.000 C 
HETATM   12  C9  UNL     1     -32.946  17.886  -1.491  1.00 20.00     0.005 C 
ENDBRANCH   5  11
TORSDOF 2
ENDMDL
MODEL 8
REMARK VINA RESULT:      -4.3      2.096      3.269
REMARK  2 active torsions:
REMARK  status: ('A' for Active; 'I' for Inactive)
REMARK    1  A    between atoms: C1_1  and  C7_7 
REMARK    2  A    between atoms: C6_6  and  C10_10 
ROOT
HETATM    1  C2  UNL     1     -33.305  14.724  -4.502  1.00 20.00     0.002 C 
HETATM    2  C3  UNL     1     -33.073  15.893  -5.457  1.00 20.00     0.005 C 
HETATM    3  C4  UNL     1     -34.755  14.664  -4.025  1.00 20.00     0.020 C 
HETATM    4  C5  UNL     1     -35.501  15.806  -6.159  1.00 20.00     0.025 C 
HETATM    5  C6  UNL     1     -34.043  15.862  -6.646  1.00 20.00    -0.014 C 
HETATM    6  C7  UNL     1     -35.751  14.645  -5.190  1.00 20.00     0.045 C 
HETATM    7  C8  UNL     1     -35.806  13.291  -5.893  1.00 20.00     0.027 C 
ENDROOT
BRANCH   6   8
HETATM    8  C1  UNL     1     -37.123  14.855  -4.553  1.00 20.00     0.181 C 
HETATM    9  O11 UNL     1     -37.225  15.875  -3.817  1.00 20.00    -0.647 OA
HETATM   10  O12 UNL     1     -37.983  13.977  -4.847  1.00 20.00    -0.647 OA
ENDBRANCH   6   8
BRANCH   5  11
HETATM   11  C10 UNL     1     -33.824  17.077  -7.548  1.00 20.00     0.000 C 
HETATM   12  C9  UNL     1     -34.487  18.297  -6.999  1.00 20.00     0.005 C 
ENDBRANCH   5  11
TORSDOF 2
ENDMDL
MODEL 9
REMARK VINA RESULT:      -4.3      1.761      2.042
REMARK  2 active torsions:
REMARK  status: ('A' for Active; 'I' for Inactive)
REMARK    1  A    between atoms: C1_1  and  C7_7 
REMARK    2  A    between atoms: C6_6  and  C10_10 
ROOT
HETATM    1  C2  UNL     1     -33.586  15.591  -6.705  1.00 20.00     0.002 C 
HETATM    2  C3  UNL     1     -33.685  16.789  -5.764  1.00 20.00     0.005 C 
HETATM    3  C4  UNL     1     -34.471  14.435  -6.241  1.00 20.00     0.020 C 
HETATM    4  C5  UNL     1     -36.020  16.082  -5.101  1.00 20.00     0.025 C 
HETATM    5  C6  UNL     1     -35.136  17.249  -5.571  1.00 20.00    -0.014 C 
HETATM    6  C7  UNL     1     -35.926  14.865  -6.028  1.00 20.00     0.045 C 
HETATM    7  C8  UNL     1     -36.678  15.064  -7.341  1.00 20.00     0.027 C 
ENDROOT
BRANCH   6   8
HETATM    8  C1  UNL     1     -36.597  13.688  -5.323  1.00 20.00     0.181 C 
HETATM    9  O11 UNL     1     -37.786  13.889  -4.951  1.00 20.00    -0.647 OA
HETATM   10  O12 UNL     1     -35.872  12.660  -5.203  1.00 20.00    -0.647 OA
ENDBRANCH   6   8
BRANCH   5  11
HETATM   11  C10 UNL     1     -35.203  18.409  -4.578  1.00 20.00     0.000 C 
HETATM   12  C9  UNL     1     -36.180  18.138  -3.481  1.00 20.00     0.005 C 
ENDBRANCH   5  11
TORSDOF 2
ENDMDL
