MODEL 1
REMARK VINA RESULT:      -6.0      0.000      0.000
REMARK  3 active torsions:
REMARK  status: ('A' for Active; 'I' for Inactive)
REMARK    1  A    between atoms: C3_3  and  C7_7 
REMARK    2  A    between atoms: C3_3  and  C9_9 
REMARK    3  A    between atoms: C8_8  and  C9_9 
ROOT
HETATM    1  C1  UNL     1     -32.903  10.217   0.772  1.00 20.00     0.012 C 
HETATM    2  C2  UNL     1     -32.267   9.341   1.291  1.00 20.00    -0.117 C 
HETATM    3  C8  UNL     1     -31.486   8.267   1.924  1.00 20.00     0.100 C 
ENDROOT
BRANCH   3   4
HETATM    4  C9  UNL     1     -32.036   7.898   3.299  1.00 20.00     0.091 C 
BRANCH   4   5
HETATM    5  C3  UNL     1     -33.036   6.752   3.273  1.00 20.00     0.134 C 
HETATM    6  O10 UNL     1     -32.827   5.694   2.682  1.00 20.00    -0.297 OA
BRANCH   5   7
HETATM    7  C7  UNL     1     -34.326   6.973   4.045  1.00 20.00     0.081 C 
HETATM    8  C4  UNL     1     -34.045   6.886   5.522  1.00 20.00     0.040 C 
HETATM    9  C5  UNL     1     -34.142   5.401   5.803  1.00 20.00     0.168 C 
HETATM   10  O11 UNL     1     -35.057   4.855   4.846  1.00 20.00    -0.390 OA
HETATM   11  C6  UNL     1     -35.273   5.819   3.803  1.00 20.00     0.179 C 
ENDBRANCH   5   7
ENDBRANCH   4   5
ENDBRANCH   3   4
TORSDOF 3
ENDMDL
MODEL 2
REMARK VINA RESULT:      -5.9      1.365      1.591
REMARK  3 active torsions:
REMARK  status: ('A' for Active; 'I' for Inactive)
REMARK    1  A    between atoms: C3_3  and  C7_7 
REMARK    2  A    between atoms: C3_3  and  C9_9 
REMARK    3  A    between atoms: C8_8  and  C9_9 
ROOT
HETATM    1  C1  UNL     1     -32.548  10.580   1.094  1.00 20.00     0.012 C 
HETATM    2  C2  UNL     1     -32.385   9.436   1.423  1.00 20.00    -0.117 C 
HETATM    3  C8  UNL     1     -32.186   8.035   1.823  1.00 20.00     0.100 C 
ENDROOT
BRANCH   3   4
HETATM    4  C9  UNL     1     -31.992   7.895   3.331  1.00 20.00     0.091 C 
BRANCH   4   5
HETATM    5  C3  UNL     1     -33.145   7.198   4.036  1.00 20.00     0.134 C 
HETATM    6  O10 UNL     1     -33.395   7.358   5.230  1.00 20.00    -0.297 OA
BRANCH   5   7
HETATM    7  C7  UNL     1     -34.006   6.291   3.173  1.00 20.00     0.081 C 
HETATM    8  C4  UNL     1     -35.256   5.923   3.928  1.00 20.00     0.040 C 
HETATM    9  C5  UNL     1     -34.823   4.721   4.742  1.00 20.00     0.168 C 
HETATM   10  O11 UNL     1     -33.777   4.075   4.008  1.00 20.00    -0.390 OA
HETATM   11  C6  UNL     1     -33.312   4.961   2.978  1.00 20.00     0.179 C 
ENDBRANCH   5   7
ENDBRANCH   4   5
ENDBRANCH   3   4
TORSDOF 3
ENDMDL
MODEL 3
REMARK VINA RESULT:      -4.7      1.560      4.931
REMARK  3 active torsions:
REMARK  status: ('A' for Active; 'I' for Inactive)
REMARK    1  A    between atoms: C3_3  and  C7_7 
REMARK    2  A    between atoms: C3_3  and  C9_9 
REMARK    3  A    between atoms: C8_8  and  C9_9 
ROOT
HETATM    1  C1  UNL     1     -34.734   5.036   5.536  1.00 20.00     0.012 C 
HETATM    2  C2  UNL     1     -34.190   6.093   5.364  1.00 20.00    -0.117 C 
HETATM    3  C8  UNL     1     -33.523   7.388   5.157  1.00 20.00     0.100 C 
ENDROOT
BRANCH   3   4
HETATM    4  C9  UNL     1     -33.785   7.947   3.761  1.00 20.00     0.091 C 
BRANCH   4   5
HETATM    5  C3  UNL     1     -32.717   7.580   2.742  1.00 20.00     0.134 C 
HETATM    6  O10 UNL     1     -32.587   6.445   2.287  1.00 20.00    -0.297 OA
BRANCH   5   7
HETATM    7  C7  UNL     1     -31.812   8.712   2.287  1.00 20.00     0.081 C 
HETATM    8  C4  UNL     1     -32.633   9.959   2.086  1.00 20.00     0.040 C 
HETATM    9  C5  UNL     1     -33.141   9.808   0.667  1.00 20.00     0.168 C 
HETATM   10  O11 UNL     1     -32.171   9.030  -0.043  1.00 20.00    -0.390 OA
HETATM   11  C6  UNL     1     -31.280   8.418   0.902  1.00 20.00     0.179 C 
ENDBRANCH   5   7
ENDBRANCH   4   5
ENDBRANCH   3   4
TORSDOF 3
ENDMDL
MODEL 4
REMARK VINA RESULT:      -4.5     11.204     11.779
REMARK  3 active torsions:
REMARK  status: ('A' for Active; 'I' for Inactive)
REMARK    1  A    between atoms: C3_3  and  C7_7 
REMARK    2  A    between atoms: C3_3  and  C9_9 
REMARK    3  A    between atoms: C8_8  and  C9_9 
ROOT
HETATM    1  C1  UNL     1     -32.811  18.103  -1.215  1.00 20.00     0.012 C 
HETATM    2  C2  UNL     1     -33.387  17.314  -1.915  1.00 20.00    -0.117 C 
HETATM    3  C8  UNL     1     -34.094  16.348  -2.769  1.00 20.00     0.100 C 
ENDROOT
BRANCH   3   4
HETATM    4  C9  UNL     1     -33.540  16.334  -4.191  1.00 20.00     0.091 C 
BRANCH   4   5
HETATM    5  C3  UNL     1     -33.607  14.971  -4.863  1.00 20.00     0.134 C 
HETATM    6  O10 UNL     1     -33.008  13.985  -4.439  1.00 20.00    -0.297 OA
BRANCH   5   7
HETATM    7  C7  UNL     1     -34.486  14.878  -6.099  1.00 20.00     0.081 C 
HETATM    8  C4  UNL     1     -35.931  15.010  -5.695  1.00 20.00     0.040 C 
HETATM    9  C5  UNL     1     -36.315  13.591  -5.328  1.00 20.00     0.168 C 
HETATM   10  O11 UNL     1     -35.488  12.720  -6.108  1.00 20.00    -0.390 OA
HETATM   11  C6  UNL     1     -34.412  13.482  -6.677  1.00 20.00     0.179 C 
ENDBRANCH   5   7
ENDBRANCH   4   5
ENDBRANCH   3   4
TORSDOF 3
ENDMDL
MODEL 5
REMARK VINA RESULT:      -4.5     10.995     11.657
REMARK  3 active torsions:
REMARK  status: ('A' for Active; 'I' for Inactive)
REMARK    1  A    between atoms: C3_3  and  C7_7 
REMARK    2  A    between atoms: C3_3  and  C9_9 
REMARK    3  A    between atoms: C8_8  and  C9_9 
ROOT
HETATM    1  C1  UNL     1     -32.853  18.168  -1.184  1.00 20.00     0.012 C 
HETATM    2  C2  UNL     1     -33.582  17.397  -1.745  1.00 20.00    -0.117 C 
HETATM    3  C8  UNL     1     -34.477  16.451  -2.430  1.00 20.00     0.100 C 
ENDROOT
BRANCH   3   4
HETATM    4  C9  UNL     1     -33.971  16.098  -3.826  1.00 20.00     0.091 C 
BRANCH   4   5
HETATM    5  C3  UNL     1     -34.500  14.773  -4.353  1.00 20.00     0.134 C 
HETATM    6  O10 UNL     1     -34.204  13.688  -3.856  1.00 20.00    -0.297 OA
BRANCH   5   7
HETATM    7  C7  UNL     1     -35.448  14.856  -5.537  1.00 20.00     0.081 C 
HETATM    8  C4  UNL     1     -36.499  15.899  -5.263  1.00 20.00     0.040 C 
HETATM    9  C5  UNL     1     -37.550  15.133  -4.487  1.00 20.00     0.168 C 
HETATM   10  O11 UNL     1     -37.471  13.769  -4.915  1.00 20.00    -0.390 OA
HETATM   11  C6  UNL     1     -36.248  13.576  -5.643  1.00 20.00     0.179 C 
ENDBRANCH   5   7
ENDBRANCH   4   5
ENDBRANCH   3   4
TORSDOF 3
ENDMDL
MODEL 6
REMARK VINA RESULT:      -4.4     10.943     11.866
REMARK  3 active torsions:
REMARK  status: ('A' for Active; 'I' for Inactive)
REMARK    1  A    between atoms: C3_3  and  C7_7 
REMARK    2  A    between atoms: C3_3  and  C9_9 
REMARK    3  A    between atoms: C8_8  and  C9_9 
ROOT
HETATM    1  C1  UNL     1     -33.757  16.559  -2.939  1.00 20.00     0.012 C 
HETATM    2  C2  UNL     1     -33.625  15.593  -3.641  1.00 20.00    -0.117 C 
HETATM    3  C8  UNL     1     -33.461  14.409  -4.497  1.00 20.00     0.100 C 
ENDROOT
BRANCH   3   4
HETATM    4  C9  UNL     1     -34.313  14.497  -5.760  1.00 20.00     0.091 C 
BRANCH   4   5
HETATM    5  C3  UNL     1     -35.691  13.868  -5.617  1.00 20.00     0.134 C 
HETATM    6  O10 UNL     1     -35.867  12.734  -5.174  1.00 20.00    -0.297 OA
BRANCH   5   7
HETATM    7  C7  UNL     1     -36.867  14.734  -6.036  1.00 20.00     0.081 C 
HETATM    8  C4  UNL     1     -36.697  16.117  -5.466  1.00 20.00     0.040 C 
HETATM    9  C5  UNL     1     -37.295  15.992  -4.080  1.00 20.00     0.168 C 
HETATM   10  O11 UNL     1     -38.296  14.970  -4.148  1.00 20.00    -0.390 OA
HETATM   11  C6  UNL     1     -38.131  14.236  -5.372  1.00 20.00     0.179 C 
ENDBRANCH   5   7
ENDBRANCH   4   5
ENDBRANCH   3   4
TORSDOF 3
ENDMDL
MODEL 7
REMARK VINA RESULT:      -4.4     11.103     12.323
REMARK  3 active torsions:
REMARK  status: ('A' for Active; 'I' for Inactive)
REMARK    1  A    between atoms: C3_3  and  C7_7 
REMARK    2  A    between atoms: C3_3  and  C9_9 
REMARK    3  A    between atoms: C8_8  and  C9_9 
ROOT
HETATM    1  C1  UNL     1     -32.632  18.088  -1.191  1.00 20.00     0.012 C 
HETATM    2  C2  UNL     1     -33.694  17.573  -1.418  1.00 20.00    -0.117 C 
HETATM    3  C8  UNL     1     -34.995  16.944  -1.692  1.00 20.00     0.100 C 
ENDROOT
BRANCH   3   4
HETATM    4  C9  UNL     1     -34.926  15.989  -2.880  1.00 20.00     0.091 C 
BRANCH   4   5
HETATM    5  C3  UNL     1     -34.471  16.648  -4.173  1.00 20.00     0.134 C 
HETATM    6  O10 UNL     1     -35.018  17.641  -4.648  1.00 20.00    -0.297 OA
BRANCH   5   7
HETATM    7  C7  UNL     1     -33.267  16.020  -4.855  1.00 20.00     0.081 C 
HETATM    8  C4  UNL     1     -33.515  15.947  -6.338  1.00 20.00     0.040 C 
HETATM    9  C5  UNL     1     -34.272  14.645  -6.496  1.00 20.00     0.168 C 
HETATM   10  O11 UNL     1     -33.851  13.786  -5.430  1.00 20.00    -0.390 OA
HETATM   11  C6  UNL     1     -33.150  14.567  -4.450  1.00 20.00     0.179 C 
ENDBRANCH   5   7
ENDBRANCH   4   5
ENDBRANCH   3   4
TORSDOF 3
ENDMDL
MODEL 8
REMARK VINA RESULT:      -4.4     10.920     11.891
REMARK  3 active torsions:
REMARK  status: ('A' for Active; 'I' for Inactive)
REMARK    1  A    between atoms: C3_3  and  C7_7 
REMARK    2  A    between atoms: C3_3  and  C9_9 
REMARK    3  A    between atoms: C8_8  and  C9_9 
ROOT
HETATM    1  C1  UNL     1     -35.129  17.333  -0.766  1.00 20.00     0.012 C 
HETATM    2  C2  UNL     1     -34.721  16.809  -1.768  1.00 20.00    -0.117 C 
HETATM    3  C8  UNL     1     -34.220  16.170  -2.994  1.00 20.00     0.100 C 
ENDROOT
BRANCH   3   4
HETATM    4  C9  UNL     1     -35.327  15.441  -3.750  1.00 20.00     0.091 C 
BRANCH   4   5
HETATM    5  C3  UNL     1     -34.851  14.201  -4.490  1.00 20.00     0.134 C 
HETATM    6  O10 UNL     1     -33.682  13.822  -4.480  1.00 20.00    -0.297 OA
BRANCH   5   7
HETATM    7  C7  UNL     1     -35.917  13.422  -5.243  1.00 20.00     0.081 C 
HETATM    8  C4  UNL     1     -35.474  13.216  -6.667  1.00 20.00     0.040 C 
HETATM    9  C5  UNL     1     -35.929  14.487  -7.355  1.00 20.00     0.168 C 
HETATM   10  O11 UNL     1     -37.077  14.958  -6.641  1.00 20.00    -0.390 OA
HETATM   11  C6  UNL     1     -37.164  14.267  -5.385  1.00 20.00     0.179 C 
ENDBRANCH   5   7
ENDBRANCH   4   5
ENDBRANCH   3   4
TORSDOF 3
ENDMDL
MODEL 9
REMARK VINA RESULT:      -4.2      1.682      4.658
REMARK  3 active torsions:
REMARK  status: ('A' for Active; 'I' for Inactive)
REMARK    1  A    between atoms: C3_3  and  C7_7 
REMARK    2  A    between atoms: C3_3  and  C9_9 
REMARK    3  A    between atoms: C8_8  and  C9_9 
ROOT
HETATM    1  C1  UNL     1     -34.381   3.920   4.532  1.00 20.00     0.012 C 
HETATM    2  C2  UNL     1     -34.389   4.915   5.205  1.00 20.00    -0.117 C 
HETATM    3  C8  UNL     1     -34.402   6.132   6.031  1.00 20.00     0.100 C 
ENDROOT
BRANCH   3   4
HETATM    4  C9  UNL     1     -33.604   7.264   5.390  1.00 20.00     0.091 C 
BRANCH   4   5
HETATM    5  C3  UNL     1     -33.699   7.299   3.872  1.00 20.00     0.134 C 
HETATM    6  O10 UNL     1     -34.763   7.433   3.270  1.00 20.00    -0.297 OA
BRANCH   5   7
HETATM    7  C7  UNL     1     -32.385   7.178   3.118  1.00 20.00     0.081 C 
HETATM    8  C4  UNL     1     -31.481   8.318   3.506  1.00 20.00     0.040 C 
HETATM    9  C5  UNL     1     -31.906   9.428   2.567  1.00 20.00     0.168 C 
HETATM   10  O11 UNL     1     -32.403   8.802   1.379  1.00 20.00    -0.390 OA
HETATM   11  C6  UNL     1     -32.620   7.407   1.641  1.00 20.00     0.179 C 
ENDBRANCH   5   7
ENDBRANCH   4   5
ENDBRANCH   3   4
TORSDOF 3
ENDMDL
