MODEL 1
REMARK VINA RESULT:      -6.4      0.000      0.000
REMARK  3 active torsions:
REMARK  status: ('A' for Active; 'I' for Inactive)
REMARK    1  A    between atoms: C1_1  and  C7_7 
REMARK    2  A    between atoms: C1_1  and  C8_8 
REMARK    3  A    between atoms: C9_9  and  C11_11 
ROOT
HETATM    1  C4  UNL     1     -32.201   7.710   4.143  1.00 20.00     0.013 C 
HETATM    2  C5  UNL     1     -31.405   8.538   3.139  1.00 20.00     0.005 C 
HETATM    3  C6  UNL     1     -33.486   8.057   2.087  1.00 20.00     0.016 C 
HETATM    4  C8  UNL     1     -33.564   7.469   3.493  1.00 20.00     0.056 C 
HETATM    5  C9  UNL     1     -31.988   8.139   1.789  1.00 20.00    -0.014 C 
ENDROOT
BRANCH   4   6
HETATM    6  C1  UNL     1     -33.810   5.975   3.385  1.00 20.00     0.135 C 
HETATM    7  O12 UNL     1     -33.190   5.277   2.584  1.00 20.00    -0.297 OA
BRANCH   6   8
HETATM    8  C7  UNL     1     -34.846   5.391   4.306  1.00 20.00     0.056 A 
HETATM    9  C2  UNL     1     -34.432   4.293   5.220  1.00 20.00     0.013 A 
HETATM   10  C3  UNL     1     -34.718   5.661   5.763  1.00 20.00     0.013 A 
ENDBRANCH   6   8
ENDBRANCH   4   6
BRANCH   5  11
HETATM   11  C11 UNL     1     -31.654   9.118   0.678  1.00 20.00     0.000 C 
HETATM   12  C10 UNL     1     -32.566  10.304   0.683  1.00 20.00     0.005 C 
ENDBRANCH   5  11
TORSDOF 3
ENDMDL
MODEL 2
REMARK VINA RESULT:      -6.3      1.382      5.030
REMARK  3 active torsions:
REMARK  status: ('A' for Active; 'I' for Inactive)
REMARK    1  A    between atoms: C1_1  and  C7_7 
REMARK    2  A    between atoms: C1_1  and  C8_8 
REMARK    3  A    between atoms: C9_9  and  C11_11 
ROOT
HETATM    1  C4  UNL     1     -32.994   6.031   2.231  1.00 20.00     0.013 C 
HETATM    2  C5  UNL     1     -33.543   5.385   3.500  1.00 20.00     0.005 C 
HETATM    3  C6  UNL     1     -33.927   7.723   3.735  1.00 20.00     0.016 C 
HETATM    4  C8  UNL     1     -33.311   7.521   2.354  1.00 20.00     0.056 C 
HETATM    5  C9  UNL     1     -33.480   6.500   4.536  1.00 20.00    -0.014 C 
ENDROOT
BRANCH   4   6
HETATM    6  C1  UNL     1     -32.021   8.316   2.274  1.00 20.00     0.135 C 
HETATM    7  O12 UNL     1     -31.197   8.299   3.187  1.00 20.00    -0.297 OA
BRANCH   6   8
HETATM    8  C7  UNL     1     -31.798   9.122   1.024  1.00 20.00     0.056 A 
HETATM    9  C2  UNL     1     -32.921   9.237   0.055  1.00 20.00     0.013 A 
HETATM   10  C3  UNL     1     -32.518  10.416   0.889  1.00 20.00     0.013 A 
ENDBRANCH   6   8
ENDBRANCH   4   6
BRANCH   5  11
HETATM   11  C11 UNL     1     -34.346   6.235   5.755  1.00 20.00     0.000 C 
HETATM   12  C10 UNL     1     -34.765   4.801   5.844  1.00 20.00     0.005 C 
ENDBRANCH   5  11
TORSDOF 3
ENDMDL
MODEL 3
REMARK VINA RESULT:      -6.2      1.481      4.793
REMARK  3 active torsions:
REMARK  status: ('A' for Active; 'I' for Inactive)
REMARK    1  A    between atoms: C1_1  and  C7_7 
REMARK    2  A    between atoms: C1_1  and  C8_8 
REMARK    3  A    between atoms: C9_9  and  C11_11 
ROOT
HETATM    1  C4  UNL     1     -32.128   8.256   4.150  1.00 20.00     0.013 C 
HETATM    2  C5  UNL     1     -33.315   7.530   4.776  1.00 20.00     0.005 C 
HETATM    3  C6  UNL     1     -32.823   6.362   2.761  1.00 20.00     0.016 C 
HETATM    4  C8  UNL     1     -31.768   7.457   2.897  1.00 20.00     0.056 C 
HETATM    5  C9  UNL     1     -34.004   6.863   3.593  1.00 20.00    -0.014 C 
ENDROOT
BRANCH   4   6
HETATM    6  C1  UNL     1     -31.849   8.366   1.684  1.00 20.00     0.135 C 
HETATM    7  O12 UNL     1     -31.066   8.254   0.742  1.00 20.00    -0.297 OA
BRANCH   6   8
HETATM    8  C7  UNL     1     -32.935   9.406   1.689  1.00 20.00     0.056 A 
HETATM    9  C2  UNL     1     -32.550  10.823   1.448  1.00 20.00     0.013 A 
HETATM   10  C3  UNL     1     -33.292  10.052   0.398  1.00 20.00     0.013 A 
ENDBRANCH   6   8
ENDBRANCH   4   6
BRANCH   5  11
HETATM   11  C11 UNL     1     -34.959   5.755   4.001  1.00 20.00     0.000 C 
HETATM   12  C10 UNL     1     -34.655   5.230   5.369  1.00 20.00     0.005 C 
ENDBRANCH   5  11
TORSDOF 3
ENDMDL
MODEL 4
REMARK VINA RESULT:      -5.4      1.437      1.868
REMARK  3 active torsions:
REMARK  status: ('A' for Active; 'I' for Inactive)
REMARK    1  A    between atoms: C1_1  and  C7_7 
REMARK    2  A    between atoms: C1_1  and  C8_8 
REMARK    3  A    between atoms: C9_9  and  C11_11 
ROOT
HETATM    1  C4  UNL     1     -33.532   6.409   2.223  1.00 20.00     0.013 C 
HETATM    2  C5  UNL     1     -33.309   7.549   1.234  1.00 20.00     0.005 C 
HETATM    3  C6  UNL     1     -32.001   8.079   3.152  1.00 20.00     0.016 C 
HETATM    4  C8  UNL     1     -32.631   6.716   3.420  1.00 20.00     0.056 C 
HETATM    5  C9  UNL     1     -32.920   8.729   2.116  1.00 20.00    -0.014 C 
ENDROOT
BRANCH   4   6
HETATM    6  C1  UNL     1     -33.480   6.809   4.675  1.00 20.00     0.135 C 
HETATM    7  O12 UNL     1     -33.220   7.612   5.570  1.00 20.00    -0.297 OA
BRANCH   6   8
HETATM    8  C7  UNL     1     -34.656   5.875   4.768  1.00 20.00     0.056 A 
HETATM    9  C2  UNL     1     -34.412   4.420   4.579  1.00 20.00     0.013 A 
HETATM   10  C3  UNL     1     -34.734   4.963   5.939  1.00 20.00     0.013 A 
ENDBRANCH   6   8
ENDBRANCH   4   6
BRANCH   5  11
HETATM   11  C11 UNL     1     -32.251   9.856   1.348  1.00 20.00     0.000 C 
HETATM   12  C10 UNL     1     -32.699   9.905  -0.078  1.00 20.00     0.005 C 
ENDBRANCH   5  11
TORSDOF 3
ENDMDL
MODEL 5
REMARK VINA RESULT:      -4.9      1.422      1.685
REMARK  3 active torsions:
REMARK  status: ('A' for Active; 'I' for Inactive)
REMARK    1  A    between atoms: C1_1  and  C7_7 
REMARK    2  A    between atoms: C1_1  and  C8_8 
REMARK    3  A    between atoms: C9_9  and  C11_11 
ROOT
HETATM    1  C4  UNL     1     -32.403   8.191   4.996  1.00 20.00     0.013 C 
HETATM    2  C5  UNL     1     -31.559   8.560   3.780  1.00 20.00     0.005 C 
HETATM    3  C6  UNL     1     -33.684   7.908   2.929  1.00 20.00     0.016 C 
HETATM    4  C8  UNL     1     -33.789   7.847   4.450  1.00 20.00     0.056 C 
HETATM    5  C9  UNL     1     -32.189   7.767   2.641  1.00 20.00    -0.014 C 
ENDROOT
BRANCH   4   6
HETATM    6  C1  UNL     1     -34.150   6.430   4.858  1.00 20.00     0.135 C 
HETATM    7  O12 UNL     1     -34.221   6.099   6.040  1.00 20.00    -0.297 OA
BRANCH   6   8
HETATM    8  C7  UNL     1     -34.419   5.454   3.746  1.00 20.00     0.056 A 
HETATM    9  C2  UNL     1     -33.271   4.688   3.192  1.00 20.00     0.013 A 
HETATM   10  C3  UNL     1     -34.296   4.003   4.044  1.00 20.00     0.013 A 
ENDBRANCH   6   8
ENDBRANCH   4   6
BRANCH   5  11
HETATM   11  C11 UNL     1     -31.795   8.277   1.266  1.00 20.00     0.000 C 
HETATM   12  C10 UNL     1     -32.388   9.619   0.975  1.00 20.00     0.005 C 
ENDBRANCH   5  11
TORSDOF 3
ENDMDL
MODEL 6
REMARK VINA RESULT:      -4.8     10.669     11.713
REMARK  3 active torsions:
REMARK  status: ('A' for Active; 'I' for Inactive)
REMARK    1  A    between atoms: C1_1  and  C7_7 
REMARK    2  A    between atoms: C1_1  and  C8_8 
REMARK    3  A    between atoms: C9_9  and  C11_11 
ROOT
HETATM    1  C4  UNL     1     -34.472  15.967  -5.975  1.00 20.00     0.013 C 
HETATM    2  C5  UNL     1     -33.979  16.950  -4.917  1.00 20.00     0.005 C 
HETATM    3  C6  UNL     1     -33.972  14.809  -3.876  1.00 20.00     0.016 C 
HETATM    4  C8  UNL     1     -34.392  14.585  -5.326  1.00 20.00     0.056 C 
HETATM    5  C9  UNL     1     -34.322  16.271  -3.597  1.00 20.00    -0.014 C 
ENDROOT
BRANCH   4   6
HETATM    6  C1  UNL     1     -35.768  13.945  -5.342  1.00 20.00     0.135 C 
HETATM    7  O12 UNL     1     -35.917  12.734  -5.185  1.00 20.00    -0.297 OA
BRANCH   6   8
HETATM    8  C7  UNL     1     -36.940  14.864  -5.554  1.00 20.00     0.056 A 
HETATM    9  C2  UNL     1     -38.305  14.332  -5.295  1.00 20.00     0.013 A 
HETATM   10  C3  UNL     1     -37.691  15.328  -4.358  1.00 20.00     0.013 A 
ENDBRANCH   6   8
ENDBRANCH   4   6
BRANCH   5  11
HETATM   11  C11 UNL     1     -33.569  16.850  -2.412  1.00 20.00     0.000 C 
HETATM   12  C10 UNL     1     -34.482  17.181  -1.275  1.00 20.00     0.005 C 
ENDBRANCH   5  11
TORSDOF 3
ENDMDL
MODEL 7
REMARK VINA RESULT:      -4.8     10.579     12.172
REMARK  3 active torsions:
REMARK  status: ('A' for Active; 'I' for Inactive)
REMARK    1  A    between atoms: C1_1  and  C7_7 
REMARK    2  A    between atoms: C1_1  and  C8_8 
REMARK    3  A    between atoms: C9_9  and  C11_11 
ROOT
HETATM    1  C4  UNL     1     -33.381  15.786  -5.764  1.00 20.00     0.013 C 
HETATM    2  C5  UNL     1     -33.539  16.704  -4.556  1.00 20.00     0.005 C 
HETATM    3  C6  UNL     1     -34.313  14.564  -3.857  1.00 20.00     0.016 C 
HETATM    4  C8  UNL     1     -33.807  14.397  -5.287  1.00 20.00     0.056 C 
HETATM    5  C9  UNL     1     -34.648  16.051  -3.741  1.00 20.00    -0.014 C 
ENDROOT
BRANCH   4   6
HETATM    6  C1  UNL     1     -34.949  13.899  -6.154  1.00 20.00     0.135 C 
HETATM    7  O12 UNL     1     -35.348  12.737  -6.088  1.00 20.00    -0.297 OA
BRANCH   6   8
HETATM    8  C7  UNL     1     -35.570  14.895  -7.094  1.00 20.00     0.056 A 
HETATM    9  C2  UNL     1     -36.750  14.466  -7.891  1.00 20.00     0.013 A 
HETATM   10  C3  UNL     1     -36.915  15.431  -6.756  1.00 20.00     0.013 A 
ENDBRANCH   6   8
ENDBRANCH   4   6
BRANCH   5  11
HETATM   11  C11 UNL     1     -34.704  16.540  -2.304  1.00 20.00     0.000 C 
HETATM   12  C10 UNL     1     -33.472  17.299  -1.923  1.00 20.00     0.005 C 
ENDBRANCH   5  11
TORSDOF 3
ENDMDL
MODEL 8
REMARK VINA RESULT:      -4.8     11.087     11.901
REMARK  3 active torsions:
REMARK  status: ('A' for Active; 'I' for Inactive)
REMARK    1  A    between atoms: C1_1  and  C7_7 
REMARK    2  A    between atoms: C1_1  and  C8_8 
REMARK    3  A    between atoms: C9_9  and  C11_11 
ROOT
HETATM    1  C4  UNL     1     -35.830  15.822  -3.343  1.00 20.00     0.013 C 
HETATM    2  C5  UNL     1     -35.256  16.655  -2.202  1.00 20.00     0.005 C 
HETATM    3  C6  UNL     1     -33.675  16.796  -3.977  1.00 20.00     0.016 C 
HETATM    4  C8  UNL     1     -34.849  15.978  -4.506  1.00 20.00     0.056 C 
HETATM    5  C9  UNL     1     -33.754  16.642  -2.457  1.00 20.00    -0.014 C 
ENDROOT
BRANCH   4   6
HETATM    6  C1  UNL     1     -34.342  14.609  -4.920  1.00 20.00     0.135 C 
HETATM    7  O12 UNL     1     -34.426  13.637  -4.171  1.00 20.00    -0.297 OA
BRANCH   6   8
HETATM    8  C7  UNL     1     -33.735  14.499  -6.292  1.00 20.00     0.056 A 
HETATM    9  C2  UNL     1     -34.419  13.638  -7.294  1.00 20.00     0.013 A 
HETATM   10  C3  UNL     1     -34.455  15.131  -7.428  1.00 20.00     0.013 A 
ENDBRANCH   6   8
ENDBRANCH   4   6
BRANCH   5  11
HETATM   11  C11 UNL     1     -33.009  17.732  -1.707  1.00 20.00     0.000 C 
HETATM   12  C10 UNL     1     -33.720  18.137  -0.455  1.00 20.00     0.005 C 
ENDBRANCH   5  11
TORSDOF 3
ENDMDL
MODEL 9
REMARK VINA RESULT:      -4.7     11.013     12.210
REMARK  3 active torsions:
REMARK  status: ('A' for Active; 'I' for Inactive)
REMARK    1  A    between atoms: C1_1  and  C7_7 
REMARK    2  A    between atoms: C1_1  and  C8_8 
REMARK    3  A    between atoms: C9_9  and  C11_11 
ROOT
HETATM    1  C4  UNL     1     -35.040  17.032  -5.070  1.00 20.00     0.013 C 
HETATM    2  C5  UNL     1     -35.603  17.511  -3.736  1.00 20.00     0.005 C 
HETATM    3  C6  UNL     1     -33.741  16.127  -3.201  1.00 20.00     0.016 C 
HETATM    4  C8  UNL     1     -33.800  16.206  -4.724  1.00 20.00     0.056 C 
HETATM    5  C9  UNL     1     -35.168  16.437  -2.746  1.00 20.00    -0.014 C 
ENDROOT
BRANCH   4   6
HETATM    6  C1  UNL     1     -33.961  14.803  -5.280  1.00 20.00     0.135 C 
HETATM    7  O12 UNL     1     -33.490  13.824  -4.704  1.00 20.00    -0.297 OA
BRANCH   6   8
HETATM    8  C7  UNL     1     -34.727  14.670  -6.568  1.00 20.00     0.056 A 
HETATM    9  C2  UNL     1     -33.957  14.597  -7.838  1.00 20.00     0.013 A 
HETATM   10  C3  UNL     1     -34.645  13.378  -7.300  1.00 20.00     0.013 A 
ENDBRANCH   6   8
ENDBRANCH   4   6
BRANCH   5  11
HETATM   11  C11 UNL     1     -35.248  16.889  -1.299  1.00 20.00     0.000 C 
HETATM   12  C10 UNL     1     -34.049  17.686  -0.893  1.00 20.00     0.005 C 
ENDBRANCH   5  11
TORSDOF 3
ENDMDL
