MODEL 1
REMARK VINA RESULT:      -4.5      0.000      0.000
REMARK  1 active torsions:
REMARK  status: ('A' for Active; 'I' for Inactive)
REMARK    1  A    between atoms: C3_3  and  C8_8 
ROOT
HETATM    1  C1  UNL     1     -31.777   8.246   3.554  1.00 20.00     0.285 C 
HETATM    2  C2  UNL     1     -32.575   8.334   2.254  1.00 20.00     0.073 C 
HETATM    3  C3  UNL     1     -33.015   6.262   3.829  1.00 20.00     0.289 C 
HETATM    4  C4  UNL     1     -31.718   8.722   1.063  1.00 20.00     0.023 C 
HETATM    5  N9  UNL     1     -32.595   7.492   4.505  1.00 20.00     0.099 N 
HETATM    6  S10 UNL     1     -33.267   6.666   2.071  1.00 20.00    -0.127 SA
HETATM    7  H27 UNL     1     -32.060   7.273   5.345  1.00 20.00     0.317 HD
ENDROOT
BRANCH   3   8
HETATM    8  C8  UNL     1     -34.291   5.724   4.453  1.00 20.00    -0.011 C 
HETATM    9  C5  UNL     1     -34.253   4.184   4.489  1.00 20.00     0.017 C 
HETATM   10  C6  UNL     1     -35.512   6.174   3.628  1.00 20.00     0.017 C 
HETATM   11  C7  UNL     1     -34.438   6.253   5.892  1.00 20.00     0.017 C 
ENDBRANCH   3   8
TORSDOF 1
ENDMDL
MODEL 2
REMARK VINA RESULT:      -3.9     11.842     12.606
REMARK  1 active torsions:
REMARK  status: ('A' for Active; 'I' for Inactive)
REMARK    1  A    between atoms: C3_3  and  C8_8 
ROOT
HETATM    1  C1  UNL     1     -33.253  15.837  -6.181  1.00 20.00     0.285 C 
HETATM    2  C2  UNL     1     -34.554  15.049  -6.038  1.00 20.00     0.073 C 
HETATM    3  C3  UNL     1     -33.562  16.185  -3.873  1.00 20.00     0.289 C 
HETATM    4  C4  UNL     1     -34.519  13.719  -6.768  1.00 20.00     0.023 C 
HETATM    5  N9  UNL     1     -33.261  16.863  -5.136  1.00 20.00     0.099 N 
HETATM    6  S10 UNL     1     -34.719  14.829  -4.244  1.00 20.00    -0.127 SA
HETATM    7  H27 UNL     1     -32.356  17.330  -5.084  1.00 20.00     0.317 HD
ENDROOT
BRANCH   3   8
HETATM    8  C8  UNL     1     -34.168  17.163  -2.879  1.00 20.00    -0.011 C 
HETATM    9  C5  UNL     1     -35.388  16.524  -2.188  1.00 20.00     0.017 C 
HETATM   10  C6  UNL     1     -34.619  18.443  -3.608  1.00 20.00     0.017 C 
HETATM   11  C7  UNL     1     -33.127  17.538  -1.808  1.00 20.00     0.017 C 
ENDBRANCH   3   8
TORSDOF 1
ENDMDL
MODEL 3
REMARK VINA RESULT:      -3.9     11.849     12.640
REMARK  1 active torsions:
REMARK  status: ('A' for Active; 'I' for Inactive)
REMARK    1  A    between atoms: C3_3  and  C8_8 
ROOT
HETATM    1  C1  UNL     1     -33.248  15.846  -6.172  1.00 20.00     0.285 C 
HETATM    2  C2  UNL     1     -34.550  15.058  -6.032  1.00 20.00     0.073 C 
HETATM    3  C3  UNL     1     -33.560  16.191  -3.864  1.00 20.00     0.289 C 
HETATM    4  C4  UNL     1     -34.514  13.729  -6.764  1.00 20.00     0.023 C 
HETATM    5  N9  UNL     1     -33.257  16.870  -5.127  1.00 20.00     0.099 N 
HETATM    6  S10 UNL     1     -34.718  14.836  -4.239  1.00 20.00    -0.127 SA
HETATM    7  H27 UNL     1     -32.352  17.337  -5.072  1.00 20.00     0.317 HD
ENDROOT
BRANCH   3   8
HETATM    8  C8  UNL     1     -34.167  17.168  -2.870  1.00 20.00    -0.011 C 
HETATM    9  C5  UNL     1     -33.131  17.533  -1.789  1.00 20.00     0.017 C 
HETATM   10  C6  UNL     1     -35.395  16.532  -2.191  1.00 20.00     0.017 C 
HETATM   11  C7  UNL     1     -34.607  18.453  -3.595  1.00 20.00     0.017 C 
ENDBRANCH   3   8
TORSDOF 1
ENDMDL
MODEL 4
REMARK VINA RESULT:      -3.8     11.693     12.617
REMARK  1 active torsions:
REMARK  status: ('A' for Active; 'I' for Inactive)
REMARK    1  A    between atoms: C3_3  and  C8_8 
ROOT
HETATM    1  C1  UNL     1     -33.055  14.880  -4.341  1.00 20.00     0.285 C 
HETATM    2  C2  UNL     1     -34.144  15.620  -3.567  1.00 20.00     0.073 C 
HETATM    3  C3  UNL     1     -34.613  15.038  -6.098  1.00 20.00     0.289 C 
HETATM    4  C4  UNL     1     -33.598  16.756  -2.722  1.00 20.00     0.023 C 
HETATM    5  N9  UNL     1     -33.725  14.112  -5.391  1.00 20.00     0.099 N 
HETATM    6  S10 UNL     1     -35.252  16.224  -4.873  1.00 20.00    -0.127 SA
HETATM    7  H27 UNL     1     -33.044  13.710  -6.034  1.00 20.00     0.317 HD
ENDROOT
BRANCH   3   8
HETATM    8  C8  UNL     1     -35.749  14.279  -6.765  1.00 20.00    -0.011 C 
HETATM    9  C5  UNL     1     -36.859  13.980  -5.738  1.00 20.00     0.017 C 
HETATM   10  C6  UNL     1     -35.226  12.947  -7.337  1.00 20.00     0.017 C 
HETATM   11  C7  UNL     1     -36.342  15.117  -7.912  1.00 20.00     0.017 C 
ENDBRANCH   3   8
TORSDOF 1
ENDMDL
MODEL 5
REMARK VINA RESULT:      -3.8     11.636     12.557
REMARK  1 active torsions:
REMARK  status: ('A' for Active; 'I' for Inactive)
REMARK    1  A    between atoms: C3_3  and  C8_8 
ROOT
HETATM    1  C1  UNL     1     -33.055  14.906  -4.247  1.00 20.00     0.285 C 
HETATM    2  C2  UNL     1     -34.173  15.608  -3.478  1.00 20.00     0.073 C 
HETATM    3  C3  UNL     1     -34.601  15.031  -6.017  1.00 20.00     0.289 C 
HETATM    4  C4  UNL     1     -33.668  16.753  -2.620  1.00 20.00     0.023 C 
HETATM    5  N9  UNL     1     -33.693  14.126  -5.308  1.00 20.00     0.099 N 
HETATM    6  S10 UNL     1     -35.285  16.189  -4.790  1.00 20.00    -0.127 SA
HETATM    7  H27 UNL     1     -32.994  13.749  -5.947  1.00 20.00     0.317 HD
ENDROOT
BRANCH   3   8
HETATM    8  C8  UNL     1     -35.707  14.243  -6.700  1.00 20.00    -0.011 C 
HETATM    9  C5  UNL     1     -36.239  15.025  -7.917  1.00 20.00     0.017 C 
HETATM   10  C6  UNL     1     -36.868  14.004  -5.715  1.00 20.00     0.017 C 
HETATM   11  C7  UNL     1     -35.168  12.883  -7.177  1.00 20.00     0.017 C 
ENDBRANCH   3   8
TORSDOF 1
ENDMDL
MODEL 6
REMARK VINA RESULT:      -3.6     11.364     12.356
REMARK  1 active torsions:
REMARK  status: ('A' for Active; 'I' for Inactive)
REMARK    1  A    between atoms: C3_3  and  C8_8 
ROOT
HETATM    1  C1  UNL     1     -36.440  13.431  -5.374  1.00 20.00     0.285 C 
HETATM    2  C2  UNL     1     -37.160  14.772  -5.505  1.00 20.00     0.073 C 
HETATM    3  C3  UNL     1     -34.934  14.705  -4.088  1.00 20.00     0.289 C 
HETATM    4  C4  UNL     1     -38.661  14.656  -5.310  1.00 20.00     0.023 C 
HETATM    5  N9  UNL     1     -35.020  13.728  -5.177  1.00 20.00     0.099 N 
HETATM    6  S10 UNL     1     -36.391  15.791  -4.214  1.00 20.00    -0.127 SA
HETATM    7  H27 UNL     1     -34.506  12.881  -4.938  1.00 20.00     0.317 HD
ENDROOT
BRANCH   3   8
HETATM    8  C8  UNL     1     -33.646  15.504  -4.195  1.00 20.00    -0.011 C 
HETATM    9  C5  UNL     1     -33.510  16.450  -2.986  1.00 20.00     0.017 C 
HETATM   10  C6  UNL     1     -33.653  16.344  -5.488  1.00 20.00     0.017 C 
HETATM   11  C7  UNL     1     -32.436  14.553  -4.224  1.00 20.00     0.017 C 
ENDBRANCH   3   8
TORSDOF 1
ENDMDL
MODEL 7
REMARK VINA RESULT:      -3.5     11.353     12.155
REMARK  1 active torsions:
REMARK  status: ('A' for Active; 'I' for Inactive)
REMARK    1  A    between atoms: C3_3  and  C8_8 
ROOT
HETATM    1  C1  UNL     1     -33.875  17.345  -1.803  1.00 20.00     0.285 C 
HETATM    2  C2  UNL     1     -35.274  16.839  -1.455  1.00 20.00     0.073 C 
HETATM    3  C3  UNL     1     -34.423  16.494  -3.929  1.00 20.00     0.289 C 
HETATM    4  C4  UNL     1     -36.072  17.835  -0.633  1.00 20.00     0.023 C 
HETATM    5  N9  UNL     1     -33.381  16.509  -2.898  1.00 20.00     0.099 N 
HETATM    6  S10 UNL     1     -36.032  16.544  -3.078  1.00 20.00    -0.127 SA
HETATM    7  H27 UNL     1     -32.512  16.887  -3.275  1.00 20.00     0.317 HD
ENDROOT
BRANCH   3   8
HETATM    8  C8  UNL     1     -34.299  15.246  -4.787  1.00 20.00    -0.011 C 
HETATM    9  C5  UNL     1     -33.080  14.415  -4.340  1.00 20.00     0.017 C 
HETATM   10  C6  UNL     1     -34.120  15.640  -6.266  1.00 20.00     0.017 C 
HETATM   11  C7  UNL     1     -35.567  14.384  -4.650  1.00 20.00     0.017 C 
ENDBRANCH   3   8
TORSDOF 1
ENDMDL
MODEL 8
REMARK VINA RESULT:      -3.4     11.558     12.298
REMARK  1 active torsions:
REMARK  status: ('A' for Active; 'I' for Inactive)
REMARK    1  A    between atoms: C3_3  and  C8_8 
ROOT
HETATM    1  C1  UNL     1     -34.343  14.690  -4.765  1.00 20.00     0.285 C 
HETATM    2  C2  UNL     1     -35.591  15.343  -5.357  1.00 20.00     0.073 C 
HETATM    3  C3  UNL     1     -34.982  15.905  -2.852  1.00 20.00     0.289 C 
HETATM    4  C4  UNL     1     -36.443  14.371  -6.152  1.00 20.00     0.023 C 
HETATM    5  N9  UNL     1     -33.846  15.590  -3.723  1.00 20.00     0.099 N 
HETATM    6  S10 UNL     1     -36.470  15.973  -3.899  1.00 20.00    -0.127 SA
HETATM    7  H27 UNL     1     -33.100  15.146  -3.189  1.00 20.00     0.317 HD
ENDROOT
BRANCH   3   8
HETATM    8  C8  UNL     1     -34.753  17.230  -2.142  1.00 20.00    -0.011 C 
HETATM    9  C5  UNL     1     -35.364  18.382  -2.964  1.00 20.00     0.017 C 
HETATM   10  C6  UNL     1     -33.243  17.483  -1.974  1.00 20.00     0.017 C 
HETATM   11  C7  UNL     1     -35.414  17.204  -0.752  1.00 20.00     0.017 C 
ENDBRANCH   3   8
TORSDOF 1
ENDMDL
MODEL 9
REMARK VINA RESULT:      -3.4     11.682     12.317
REMARK  1 active torsions:
REMARK  status: ('A' for Active; 'I' for Inactive)
REMARK    1  A    between atoms: C3_3  and  C8_8 
ROOT
HETATM    1  C1  UNL     1     -35.502  16.751  -2.021  1.00 20.00     0.285 C 
HETATM    2  C2  UNL     1     -34.235  17.328  -2.651  1.00 20.00     0.073 C 
HETATM    3  C3  UNL     1     -35.348  15.240  -3.820  1.00 20.00     0.289 C 
HETATM    4  C4  UNL     1     -33.161  17.647  -1.627  1.00 20.00     0.023 C 
HETATM    5  N9  UNL     1     -36.267  16.126  -3.101  1.00 20.00     0.099 N 
HETATM    6  S10 UNL     1     -33.705  16.027  -3.800  1.00 20.00    -0.127 SA
HETATM    7  H27 UNL     1     -37.052  15.596  -2.726  1.00 20.00     0.317 HD
ENDROOT
BRANCH   3   8
HETATM    8  C8  UNL     1     -35.830  15.020  -5.245  1.00 20.00    -0.011 C 
HETATM    9  C5  UNL     1     -37.132  14.197  -5.240  1.00 20.00     0.017 C 
HETATM   10  C6  UNL     1     -34.760  14.258  -6.051  1.00 20.00     0.017 C 
HETATM   11  C7  UNL     1     -36.098  16.375  -5.925  1.00 20.00     0.017 C 
ENDBRANCH   3   8
TORSDOF 1
ENDMDL
