MODEL 1
REMARK VINA RESULT:      -4.9      0.000      0.000
REMARK  3 active torsions:
REMARK  status: ('A' for Active; 'I' for Inactive)
REMARK    1  A    between atoms: C4_4  and  C6_6 
REMARK    2  A    between atoms: C4_4  and  O7_7 
REMARK    3  A    between atoms: C5_5  and  C6_6 
ROOT
HETATM    1  C6  UNL     1     -33.853   7.065   4.080  1.00 20.00     0.109 C 
HETATM    2 CL8  UNL     1     -33.632   7.291   5.850  1.00 20.00    -0.122 Cl
ENDROOT
BRANCH   1   3
HETATM    3  C4  UNL     1     -32.569   7.476   3.357  1.00 20.00     0.187 C 
BRANCH   3   4
HETATM    4  O7  UNL     1     -32.887   8.346   2.276  1.00 20.00    -0.394 OA
HETATM    5  C3  UNL     1     -31.744   8.622   1.478  1.00 20.00     0.201 C 
ENDBRANCH   3   4
ENDBRANCH   1   3
BRANCH   1   6
HETATM    6  C5  UNL     1     -34.300   5.624   3.736  1.00 20.00    -0.002 C 
HETATM    7  C1  UNL     1     -34.601   4.753   4.960  1.00 20.00     0.011 C 
HETATM    8  C2  UNL     1     -33.288   4.915   2.830  1.00 20.00     0.011 C 
ENDBRANCH   1   6
TORSDOF 3
ENDMDL
MODEL 2
REMARK VINA RESULT:      -4.7      1.738      2.128
REMARK  3 active torsions:
REMARK  status: ('A' for Active; 'I' for Inactive)
REMARK    1  A    between atoms: C4_4  and  C6_6 
REMARK    2  A    between atoms: C4_4  and  O7_7 
REMARK    3  A    between atoms: C5_5  and  C6_6 
ROOT
HETATM    1  C6  UNL     1     -32.975   6.722   3.465  1.00 20.00     0.109 C 
HETATM    2 CL8  UNL     1     -32.960   5.153   2.588  1.00 20.00    -0.122 Cl
ENDROOT
BRANCH   1   3
HETATM    3  C4  UNL     1     -33.049   7.864   2.450  1.00 20.00     0.187 C 
BRANCH   3   4
HETATM    4  O7  UNL     1     -31.732   8.256   2.076  1.00 20.00    -0.394 OA
HETATM    5  C3  UNL     1     -31.732   8.971   0.848  1.00 20.00     0.201 C 
ENDBRANCH   3   4
ENDBRANCH   1   3
BRANCH   1   6
HETATM    6  C5  UNL     1     -34.109   6.781   4.516  1.00 20.00    -0.002 C 
HETATM    7  C1  UNL     1     -33.666   7.302   5.887  1.00 20.00     0.011 C 
HETATM    8  C2  UNL     1     -34.809   5.427   4.676  1.00 20.00     0.011 C 
ENDBRANCH   1   6
TORSDOF 3
ENDMDL
MODEL 3
REMARK VINA RESULT:      -4.3      2.210      3.945
REMARK  3 active torsions:
REMARK  status: ('A' for Active; 'I' for Inactive)
REMARK    1  A    between atoms: C4_4  and  C6_6 
REMARK    2  A    between atoms: C4_4  and  O7_7 
REMARK    3  A    between atoms: C5_5  and  C6_6 
ROOT
HETATM    1  C6  UNL     1     -33.352   6.690   2.843  1.00 20.00     0.109 C 
HETATM    2 CL8  UNL     1     -32.951   4.959   2.571  1.00 20.00    -0.122 Cl
ENDROOT
BRANCH   1   3
HETATM    3  C4  UNL     1     -33.884   6.864   4.267  1.00 20.00     0.187 C 
BRANCH   3   4
HETATM    4  O7  UNL     1     -34.898   5.896   4.520  1.00 20.00    -0.394 OA
HETATM    5  C3  UNL     1     -34.613   5.138   5.687  1.00 20.00     0.201 C 
ENDBRANCH   3   4
ENDBRANCH   1   3
BRANCH   1   6
HETATM    6  C5  UNL     1     -32.149   7.613   2.536  1.00 20.00    -0.002 C 
HETATM    7  C1  UNL     1     -31.525   8.261   3.776  1.00 20.00     0.011 C 
HETATM    8  C2  UNL     1     -32.507   8.692   1.509  1.00 20.00     0.011 C 
ENDBRANCH   1   6
TORSDOF 3
ENDMDL
MODEL 4
REMARK VINA RESULT:      -4.3      0.380      1.305
REMARK  3 active torsions:
REMARK  status: ('A' for Active; 'I' for Inactive)
REMARK    1  A    between atoms: C4_4  and  C6_6 
REMARK    2  A    between atoms: C4_4  and  O7_7 
REMARK    3  A    between atoms: C5_5  and  C6_6 
ROOT
HETATM    1  C6  UNL     1     -33.621   6.917   4.107  1.00 20.00     0.109 C 
HETATM    2 CL8  UNL     1     -33.690   7.462   5.818  1.00 20.00    -0.122 Cl
ENDROOT
BRANCH   1   3
HETATM    3  C4  UNL     1     -32.447   7.605   3.407  1.00 20.00     0.187 C 
BRANCH   3   4
HETATM    4  O7  UNL     1     -32.923   8.332   2.279  1.00 20.00    -0.394 OA
HETATM    5  C3  UNL     1     -31.855   8.729   1.430  1.00 20.00     0.201 C 
ENDBRANCH   3   4
ENDBRANCH   1   3
BRANCH   1   6
HETATM    6  C5  UNL     1     -33.562   5.374   3.998  1.00 20.00    -0.002 C 
HETATM    7  C1  UNL     1     -33.256   4.857   2.588  1.00 20.00     0.011 C 
HETATM    8  C2  UNL     1     -34.841   4.716   4.526  1.00 20.00     0.011 C 
ENDBRANCH   1   6
TORSDOF 3
ENDMDL
MODEL 5
REMARK VINA RESULT:      -4.0      1.873      2.231
REMARK  3 active torsions:
REMARK  status: ('A' for Active; 'I' for Inactive)
REMARK    1  A    between atoms: C4_4  and  C6_6 
REMARK    2  A    between atoms: C4_4  and  O7_7 
REMARK    3  A    between atoms: C5_5  and  C6_6 
ROOT
HETATM    1  C6  UNL     1     -32.878   6.242   3.454  1.00 20.00     0.109 C 
HETATM    2 CL8  UNL     1     -32.891   4.839   2.331  1.00 20.00    -0.122 Cl
ENDROOT
BRANCH   1   3
HETATM    3  C4  UNL     1     -33.120   7.526   2.658  1.00 20.00     0.187 C 
BRANCH   3   4
HETATM    4  O7  UNL     1     -31.871   8.132   2.339  1.00 20.00    -0.394 OA
HETATM    5  C3  UNL     1     -31.974   8.955   1.185  1.00 20.00     0.201 C 
ENDBRANCH   3   4
ENDBRANCH   1   3
BRANCH   1   6
HETATM    6  C5  UNL     1     -33.885   6.059   4.614  1.00 20.00    -0.002 C 
HETATM    7  C1  UNL     1     -35.323   5.792   4.158  1.00 20.00     0.011 C 
HETATM    8  C2  UNL     1     -33.859   7.244   5.585  1.00 20.00     0.011 C 
ENDBRANCH   1   6
TORSDOF 3
ENDMDL
MODEL 6
REMARK VINA RESULT:      -4.0      2.445      4.052
REMARK  3 active torsions:
REMARK  status: ('A' for Active; 'I' for Inactive)
REMARK    1  A    between atoms: C4_4  and  C6_6 
REMARK    2  A    between atoms: C4_4  and  O7_7 
REMARK    3  A    between atoms: C5_5  and  C6_6 
ROOT
HETATM    1  C6  UNL     1     -34.063   6.214   2.943  1.00 20.00     0.109 C 
HETATM    2 CL8  UNL     1     -32.893   4.873   2.687  1.00 20.00    -0.122 Cl
ENDROOT
BRANCH   1   3
HETATM    3  C4  UNL     1     -35.175   5.738   3.880  1.00 20.00     0.187 C 
BRANCH   3   4
HETATM    4  O7  UNL     1     -34.831   4.467   4.423  1.00 20.00    -0.394 OA
HETATM    5  C3  UNL     1     -34.546   4.556   5.812  1.00 20.00     0.201 C 
ENDBRANCH   3   4
ENDBRANCH   1   3
BRANCH   1   6
HETATM    6  C5  UNL     1     -33.362   7.498   3.448  1.00 20.00    -0.002 C 
HETATM    7  C1  UNL     1     -31.980   7.740   2.833  1.00 20.00     0.011 C 
HETATM    8  C2  UNL     1     -33.264   7.530   4.977  1.00 20.00     0.011 C 
ENDBRANCH   1   6
TORSDOF 3
ENDMDL
MODEL 7
REMARK VINA RESULT:      -3.8      1.919      3.634
REMARK  3 active torsions:
REMARK  status: ('A' for Active; 'I' for Inactive)
REMARK    1  A    between atoms: C4_4  and  C6_6 
REMARK    2  A    between atoms: C4_4  and  O7_7 
REMARK    3  A    between atoms: C5_5  and  C6_6 
ROOT
HETATM    1  C6  UNL     1     -33.471   6.758   4.220  1.00 20.00     0.109 C 
HETATM    2 CL8  UNL     1     -33.726   7.404   5.878  1.00 20.00    -0.122 Cl
ENDROOT
BRANCH   1   3
HETATM    3  C4  UNL     1     -34.795   6.207   3.687  1.00 20.00     0.187 C 
BRANCH   3   4
HETATM    4  O7  UNL     1     -35.176   5.063   4.445  1.00 20.00    -0.394 OA
HETATM    5  C3  UNL     1     -34.176   4.055   4.402  1.00 20.00     0.201 C 
ENDBRANCH   3   4
ENDBRANCH   1   3
BRANCH   1   6
HETATM    6  C5  UNL     1     -32.841   7.815   3.282  1.00 20.00    -0.002 C 
HETATM    7  C1  UNL     1     -32.778   7.389   1.812  1.00 20.00     0.011 C 
HETATM    8  C2  UNL     1     -31.450   8.243   3.760  1.00 20.00     0.011 C 
ENDBRANCH   1   6
TORSDOF 3
ENDMDL
MODEL 8
REMARK VINA RESULT:      -3.6      1.993      4.356
REMARK  3 active torsions:
REMARK  status: ('A' for Active; 'I' for Inactive)
REMARK    1  A    between atoms: C4_4  and  C6_6 
REMARK    2  A    between atoms: C4_4  and  O7_7 
REMARK    3  A    between atoms: C5_5  and  C6_6 
ROOT
HETATM    1  C6  UNL     1     -32.072   8.192   1.878  1.00 20.00     0.109 C 
HETATM    2 CL8  UNL     1     -31.255   8.576   3.433  1.00 20.00    -0.122 Cl
ENDROOT
BRANCH   1   3
HETATM    3  C4  UNL     1     -33.437   7.565   2.170  1.00 20.00     0.187 C 
BRANCH   3   4
HETATM    4  O7  UNL     1     -33.259   6.341   2.876  1.00 20.00    -0.394 OA
HETATM    5  C3  UNL     1     -34.434   5.977   3.586  1.00 20.00     0.201 C 
ENDBRANCH   3   4
ENDBRANCH   1   3
BRANCH   1   6
HETATM    6  C5  UNL     1     -32.167   9.432   0.958  1.00 20.00    -0.002 C 
HETATM    7  C1  UNL     1     -32.790  10.662   1.626  1.00 20.00     0.011 C 
HETATM    8  C2  UNL     1     -32.907   9.118  -0.347  1.00 20.00     0.011 C 
ENDBRANCH   1   6
TORSDOF 3
ENDMDL
MODEL 9
REMARK VINA RESULT:      -3.4      2.029      2.940
REMARK  3 active torsions:
REMARK  status: ('A' for Active; 'I' for Inactive)
REMARK    1  A    between atoms: C4_4  and  C6_6 
REMARK    2  A    between atoms: C4_4  and  O7_7 
REMARK    3  A    between atoms: C5_5  and  C6_6 
ROOT
HETATM    1  C6  UNL     1     -33.671   7.154   3.848  1.00 20.00     0.109 C 
HETATM    2 CL8  UNL     1     -32.081   7.873   3.417  1.00 20.00    -0.122 Cl
ENDROOT
BRANCH   1   3
HETATM    3  C4  UNL     1     -34.061   6.124   2.786  1.00 20.00     0.187 C 
BRANCH   3   4
HETATM    4  O7  UNL     1     -32.891   5.477   2.296  1.00 20.00    -0.394 OA
HETATM    5  C3  UNL     1     -32.917   4.083   2.566  1.00 20.00     0.201 C 
ENDBRANCH   3   4
ENDBRANCH   1   3
BRANCH   1   6
HETATM    6  C5  UNL     1     -33.666   6.565   5.279  1.00 20.00    -0.002 C 
HETATM    7  C1  UNL     1     -34.688   5.446   5.499  1.00 20.00     0.011 C 
HETATM    8  C2  UNL     1     -33.848   7.652   6.344  1.00 20.00     0.011 C 
ENDBRANCH   1   6
TORSDOF 3
ENDMDL
