MODEL 1
REMARK VINA RESULT:      -5.0      0.000      0.000
REMARK  2 active torsions:
REMARK  status: ('A' for Active; 'I' for Inactive)
REMARK    1  A    between atoms: C1_1  and  C3_3 
REMARK    2  A    between atoms: C1_1  and  C9_9 
ROOT
HETATM    1  C1  UNL     1     -33.169   6.298   3.483  1.00 20.00     0.139 C 
HETATM    2  O10 UNL     1     -32.662   5.649   2.564  1.00 20.00    -0.297 OA
ENDROOT
BRANCH   1   3
HETATM    3  C3  UNL     1     -32.652   7.682   3.795  1.00 20.00     0.060 A 
HETATM    4  C2  UNL     1     -31.263   8.015   3.384  1.00 20.00     0.017 A 
HETATM    5  C4  UNL     1     -32.432   8.650   2.685  1.00 20.00    -0.007 A 
HETATM    6  C5  UNL     1     -32.705   8.338   1.253  1.00 20.00     0.011 C 
ENDBRANCH   1   3
BRANCH   1   7
HETATM    7  C9  UNL     1     -34.342   5.746   4.316  1.00 20.00     0.010 C 
HETATM    8  C6  UNL     1     -35.659   6.112   3.620  1.00 20.00     0.022 C 
HETATM    9  C7  UNL     1     -34.320   6.321   5.738  1.00 20.00     0.022 C 
HETATM   10  C8  UNL     1     -34.232   4.214   4.406  1.00 20.00     0.022 C 
ENDBRANCH   1   7
TORSDOF 2
ENDMDL
MODEL 2
REMARK VINA RESULT:      -4.6      1.599      4.363
REMARK  2 active torsions:
REMARK  status: ('A' for Active; 'I' for Inactive)
REMARK    1  A    between atoms: C1_1  and  C3_3 
REMARK    2  A    between atoms: C1_1  and  C9_9 
ROOT
HETATM    1  C1  UNL     1     -32.433   8.107   2.367  1.00 20.00     0.139 C 
HETATM    2  O10 UNL     1     -31.635   8.196   3.304  1.00 20.00    -0.297 OA
ENDROOT
BRANCH   1   3
HETATM    3  C3  UNL     1     -33.540   7.081   2.424  1.00 20.00     0.060 A 
HETATM    4  C2  UNL     1     -33.219   5.739   2.978  1.00 20.00     0.017 A 
HETATM    5  C4  UNL     1     -34.104   6.683   3.743  1.00 20.00    -0.007 A 
HETATM    6  C5  UNL     1     -33.643   7.250   5.042  1.00 20.00     0.011 C 
ENDBRANCH   1   3
BRANCH   1   7
HETATM    7  C9  UNL     1     -32.351   9.034   1.140  1.00 20.00     0.010 C 
HETATM    8  C6  UNL     1     -30.983   8.850   0.471  1.00 20.00     0.022 C 
HETATM    9  C7  UNL     1     -32.546  10.499   1.549  1.00 20.00     0.022 C 
HETATM   10  C8  UNL     1     -33.454   8.655   0.136  1.00 20.00     0.022 C 
ENDBRANCH   1   7
TORSDOF 2
ENDMDL
MODEL 3
REMARK VINA RESULT:      -4.4      1.281      1.713
REMARK  2 active torsions:
REMARK  status: ('A' for Active; 'I' for Inactive)
REMARK    1  A    between atoms: C1_1  and  C3_3 
REMARK    2  A    between atoms: C1_1  and  C9_9 
ROOT
HETATM    1  C1  UNL     1     -33.495   6.805   4.106  1.00 20.00     0.139 C 
HETATM    2  O10 UNL     1     -33.197   7.572   5.025  1.00 20.00    -0.297 OA
ENDROOT
BRANCH   1   3
HETATM    3  C3  UNL     1     -32.915   7.028   2.730  1.00 20.00     0.060 A 
HETATM    4  C2  UNL     1     -33.056   8.379   2.124  1.00 20.00     0.017 A 
HETATM    5  C4  UNL     1     -31.709   7.886   2.572  1.00 20.00    -0.007 A 
HETATM    6  C5  UNL     1     -31.014   8.548   3.712  1.00 20.00     0.011 C 
ENDBRANCH   1   3
BRANCH   1   7
HETATM    7  C9  UNL     1     -34.430   5.600   4.324  1.00 20.00     0.010 C 
HETATM    8  C6  UNL     1     -35.784   5.900   3.670  1.00 20.00     0.022 C 
HETATM    9  C7  UNL     1     -34.617   5.319   5.820  1.00 20.00     0.022 C 
HETATM   10  C8  UNL     1     -33.820   4.352   3.664  1.00 20.00     0.022 C 
ENDBRANCH   1   7
TORSDOF 2
ENDMDL
MODEL 4
REMARK VINA RESULT:      -4.2     11.548     12.331
REMARK  2 active torsions:
REMARK  status: ('A' for Active; 'I' for Inactive)
REMARK    1  A    between atoms: C1_1  and  C3_3 
REMARK    2  A    between atoms: C1_1  and  C9_9 
ROOT
HETATM    1  C1  UNL     1     -34.794  16.103  -3.224  1.00 20.00     0.139 C 
HETATM    2  O10 UNL     1     -35.906  15.684  -3.555  1.00 20.00    -0.297 OA
ENDROOT
BRANCH   1   3
HETATM    3  C3  UNL     1     -33.553  15.459  -3.795  1.00 20.00     0.060 A 
HETATM    4  C2  UNL     1     -33.723  14.479  -4.901  1.00 20.00     0.017 A 
HETATM    5  C4  UNL     1     -33.102  15.822  -5.166  1.00 20.00    -0.007 A 
HETATM    6  C5  UNL     1     -33.807  16.812  -6.030  1.00 20.00     0.011 C 
ENDBRANCH   1   3
BRANCH   1   7
HETATM    7  C9  UNL     1     -34.627  17.291  -2.257  1.00 20.00     0.010 C 
HETATM    8  C6  UNL     1     -35.139  18.564  -2.943  1.00 20.00     0.022 C 
HETATM    9  C7  UNL     1     -33.158  17.463  -1.853  1.00 20.00     0.022 C 
HETATM   10  C8  UNL     1     -35.457  17.038  -0.986  1.00 20.00     0.022 C 
ENDBRANCH   1   7
TORSDOF 2
ENDMDL
MODEL 5
REMARK VINA RESULT:      -4.1      0.902      3.823
REMARK  2 active torsions:
REMARK  status: ('A' for Active; 'I' for Inactive)
REMARK    1  A    between atoms: C1_1  and  C3_3 
REMARK    2  A    between atoms: C1_1  and  C9_9 
ROOT
HETATM    1  C1  UNL     1     -33.058   6.564   2.880  1.00 20.00     0.139 C 
HETATM    2  O10 UNL     1     -32.387   5.543   2.710  1.00 20.00    -0.297 OA
ENDROOT
BRANCH   1   3
HETATM    3  C3  UNL     1     -34.456   6.454   3.439  1.00 20.00     0.060 A 
HETATM    4  C2  UNL     1     -34.777   5.274   4.286  1.00 20.00     0.017 A 
HETATM    5  C4  UNL     1     -34.680   6.643   4.899  1.00 20.00    -0.007 A 
HETATM    6  C5  UNL     1     -33.589   6.951   5.866  1.00 20.00     0.011 C 
ENDBRANCH   1   3
BRANCH   1   7
HETATM    7  C9  UNL     1     -32.502   7.965   2.561  1.00 20.00     0.010 C 
HETATM    8  C6  UNL     1     -31.444   8.329   3.610  1.00 20.00     0.022 C 
HETATM    9  C7  UNL     1     -33.625   9.010   2.560  1.00 20.00     0.022 C 
HETATM   10  C8  UNL     1     -31.845   7.952   1.170  1.00 20.00     0.022 C 
ENDBRANCH   1   7
TORSDOF 2
ENDMDL
MODEL 6
REMARK VINA RESULT:      -4.1      0.834      3.776
REMARK  2 active torsions:
REMARK  status: ('A' for Active; 'I' for Inactive)
REMARK    1  A    between atoms: C1_1  and  C3_3 
REMARK    2  A    between atoms: C1_1  and  C9_9 
ROOT
HETATM    1  C1  UNL     1     -33.140   6.408   2.932  1.00 20.00     0.139 C 
HETATM    2  O10 UNL     1     -32.417   5.427   2.736  1.00 20.00    -0.297 OA
ENDROOT
BRANCH   1   3
HETATM    3  C3  UNL     1     -34.529   6.212   3.490  1.00 20.00     0.060 A 
HETATM    4  C2  UNL     1     -34.779   5.012   4.332  1.00 20.00     0.017 A 
HETATM    5  C4  UNL     1     -34.763   6.382   4.950  1.00 20.00    -0.007 A 
HETATM    6  C5  UNL     1     -33.692   6.750   5.920  1.00 20.00     0.011 C 
ENDBRANCH   1   3
BRANCH   1   7
HETATM    7  C9  UNL     1     -32.657   7.843   2.645  1.00 20.00     0.010 C 
HETATM    8  C6  UNL     1     -33.835   8.808   2.834  1.00 20.00     0.022 C 
HETATM    9  C7  UNL     1     -32.104   7.958   1.219  1.00 20.00     0.022 C 
HETATM   10  C8  UNL     1     -31.541   8.216   3.635  1.00 20.00     0.022 C 
ENDBRANCH   1   7
TORSDOF 2
ENDMDL
MODEL 7
REMARK VINA RESULT:      -4.1     11.537     12.619
REMARK  2 active torsions:
REMARK  status: ('A' for Active; 'I' for Inactive)
REMARK    1  A    between atoms: C1_1  and  C3_3 
REMARK    2  A    between atoms: C1_1  and  C9_9 
ROOT
HETATM    1  C1  UNL     1     -33.779  16.950  -3.902  1.00 20.00     0.139 C 
HETATM    2  O10 UNL     1     -33.504  18.089  -4.286  1.00 20.00    -0.297 OA
ENDROOT
BRANCH   1   3
HETATM    3  C3  UNL     1     -33.689  16.615  -2.432  1.00 20.00     0.060 A 
HETATM    4  C2  UNL     1     -33.580  17.741  -1.467  1.00 20.00     0.017 A 
HETATM    5  C4  UNL     1     -34.839  16.923  -1.538  1.00 20.00    -0.007 A 
HETATM    6  C5  UNL     1     -36.107  17.547  -2.011  1.00 20.00     0.011 C 
ENDBRANCH   1   3
BRANCH   1   7
HETATM    7  C9  UNL     1     -34.241  15.852  -4.880  1.00 20.00     0.010 C 
HETATM    8  C6  UNL     1     -35.620  16.232  -5.435  1.00 20.00     0.022 C 
HETATM    9  C7  UNL     1     -34.313  14.491  -4.177  1.00 20.00     0.022 C 
HETATM   10  C8  UNL     1     -33.242  15.749  -6.045  1.00 20.00     0.022 C 
ENDBRANCH   1   7
TORSDOF 2
ENDMDL
MODEL 8
REMARK VINA RESULT:      -4.0     11.037     12.361
REMARK  2 active torsions:
REMARK  status: ('A' for Active; 'I' for Inactive)
REMARK    1  A    between atoms: C1_1  and  C3_3 
REMARK    2  A    between atoms: C1_1  and  C9_9 
ROOT
HETATM    1  C1  UNL     1     -35.714  14.174  -5.048  1.00 20.00     0.139 C 
HETATM    2  O10 UNL     1     -35.607  12.960  -5.239  1.00 20.00    -0.297 OA
ENDROOT
BRANCH   1   3
HETATM    3  C3  UNL     1     -34.653  14.902  -4.258  1.00 20.00     0.060 A 
HETATM    4  C2  UNL     1     -33.298  14.291  -4.182  1.00 20.00     0.017 A 
HETATM    5  C4  UNL     1     -33.519  15.549  -4.974  1.00 20.00    -0.007 A 
HETATM    6  C5  UNL     1     -33.365  15.534  -6.456  1.00 20.00     0.011 C 
ENDBRANCH   1   3
BRANCH   1   7
HETATM    7  C9  UNL     1     -36.894  14.985  -5.615  1.00 20.00     0.010 C 
HETATM    8  C6  UNL     1     -36.895  14.856  -7.144  1.00 20.00     0.022 C 
HETATM    9  C7  UNL     1     -36.786  16.461  -5.211  1.00 20.00     0.022 C 
HETATM   10  C8  UNL     1     -38.215  14.422  -5.064  1.00 20.00     0.022 C 
ENDBRANCH   1   7
TORSDOF 2
ENDMDL
MODEL 9
REMARK VINA RESULT:      -4.0     11.604     12.541
REMARK  2 active torsions:
REMARK  status: ('A' for Active; 'I' for Inactive)
REMARK    1  A    between atoms: C1_1  and  C3_3 
REMARK    2  A    between atoms: C1_1  and  C9_9 
ROOT
HETATM    1  C1  UNL     1     -34.268  15.239  -5.336  1.00 20.00     0.139 C 
HETATM    2  O10 UNL     1     -33.404  15.952  -5.853  1.00 20.00    -0.297 OA
ENDROOT
BRANCH   1   3
HETATM    3  C3  UNL     1     -34.407  15.205  -3.833  1.00 20.00     0.060 A 
HETATM    4  C2  UNL     1     -33.746  16.281  -3.047  1.00 20.00     0.017 A 
HETATM    5  C4  UNL     1     -35.244  16.229  -3.150  1.00 20.00    -0.007 A 
HETATM    6  C5  UNL     1     -35.979  17.307  -3.871  1.00 20.00     0.011 C 
ENDBRANCH   1   3
BRANCH   1   7
HETATM    7  C9  UNL     1     -35.238  14.394  -6.184  1.00 20.00     0.010 C 
HETATM    8  C6  UNL     1     -34.430  13.601  -7.219  1.00 20.00     0.022 C 
HETATM    9  C7  UNL     1     -36.266  15.288  -6.890  1.00 20.00     0.022 C 
HETATM   10  C8  UNL     1     -35.990  13.409  -5.273  1.00 20.00     0.022 C 
ENDBRANCH   1   7
TORSDOF 2
ENDMDL
