MODEL 1
REMARK VINA RESULT:      -5.0      0.000      0.000
REMARK  2 active torsions:
REMARK  status: ('A' for Active; 'I' for Inactive)
REMARK    1  A    between atoms: C2_2  and  C9_9 
REMARK    2  A    between atoms: C9_9  and  N11_11 
ROOT
HETATM    1  C3  UNL     1     -34.251   5.629   2.920  1.00 20.00     0.300 C 
HETATM    2  C4  UNL     1     -33.118   6.307   2.146  1.00 20.00     0.302 C 
HETATM    3  C5  UNL     1     -32.790   7.840   3.981  1.00 20.00     0.307 C 
HETATM    4  C6  UNL     1     -33.933   7.161   4.755  1.00 20.00     0.244 C 
HETATM    5  C8  UNL     1     -33.687   7.241   6.260  1.00 20.00     0.044 C 
HETATM    6  N10 UNL     1     -34.057   5.754   4.363  1.00 20.00     0.091 N 
HETATM    7  N11 UNL     1     -32.998   7.718   2.531  1.00 20.00     0.096 N 
HETATM    8  H29 UNL     1     -34.844   5.327   4.852  1.00 20.00     0.316 HD
ENDROOT
BRANCH   7   9
HETATM    9  C9  UNL     1     -31.914   8.366   1.795  1.00 20.00     0.305 C 
BRANCH   9  10
HETATM   10  C2  UNL     1     -32.465   9.479   0.952  1.00 20.00    -0.065 C 
HETATM   11  C1  UNL     1     -32.590  10.726   1.433  1.00 20.00     0.015 C 
HETATM   12  C7  UNL     1     -32.908   9.128  -0.440  1.00 20.00     0.044 C 
ENDBRANCH   9  10
ENDBRANCH   7   9
TORSDOF 2
ENDMDL
MODEL 2
REMARK VINA RESULT:      -4.0      1.388      4.821
REMARK  2 active torsions:
REMARK  status: ('A' for Active; 'I' for Inactive)
REMARK    1  A    between atoms: C2_2  and  C9_9 
REMARK    2  A    between atoms: C9_9  and  N11_11 
ROOT
HETATM    1  C3  UNL     1     -31.217   8.415   3.218  1.00 20.00     0.300 C 
HETATM    2  C4  UNL     1     -32.103   7.215   3.560  1.00 20.00     0.302 C 
HETATM    3  C5  UNL     1     -33.654   7.875   1.833  1.00 20.00     0.307 C 
HETATM    4  C6  UNL     1     -32.766   9.084   1.494  1.00 20.00     0.244 C 
HETATM    5  C8  UNL     1     -32.877   9.436   0.012  1.00 20.00     0.044 C 
HETATM    6  N10 UNL     1     -31.363   8.799   1.815  1.00 20.00     0.091 N 
HETATM    7  N11 UNL     1     -33.509   7.501   3.247  1.00 20.00     0.096 N 
HETATM    8  H29 UNL     1     -30.791   9.622   1.625  1.00 20.00     0.316 HD
ENDROOT
BRANCH   7   9
HETATM    9  C9  UNL     1     -34.355   6.354   3.570  1.00 20.00     0.305 C 
BRANCH   9  10
HETATM   10  C2  UNL     1     -34.314   6.093   5.049  1.00 20.00    -0.065 C 
HETATM   11  C1  UNL     1     -34.623   4.889   5.556  1.00 20.00     0.015 C 
HETATM   12  C7  UNL     1     -33.951   7.248   5.938  1.00 20.00     0.044 C 
ENDBRANCH   9  10
ENDBRANCH   7   9
TORSDOF 2
ENDMDL
MODEL 3
REMARK VINA RESULT:      -4.0      1.393      4.747
REMARK  2 active torsions:
REMARK  status: ('A' for Active; 'I' for Inactive)
REMARK    1  A    between atoms: C2_2  and  C9_9 
REMARK    2  A    between atoms: C9_9  and  N11_11 
ROOT
HETATM    1  C3  UNL     1     -31.169   8.386   3.089  1.00 20.00     0.300 C 
HETATM    2  C4  UNL     1     -32.073   7.214   3.475  1.00 20.00     0.302 C 
HETATM    3  C5  UNL     1     -33.675   7.906   1.808  1.00 20.00     0.307 C 
HETATM    4  C6  UNL     1     -32.768   9.088   1.425  1.00 20.00     0.244 C 
HETATM    5  C8  UNL     1     -32.930   9.434  -0.054  1.00 20.00     0.044 C 
HETATM    6  N10 UNL     1     -31.362   8.766   1.691  1.00 20.00     0.091 N 
HETATM    7  N11 UNL     1     -33.482   7.536   3.217  1.00 20.00     0.096 N 
HETATM    8  H29 UNL     1     -30.776   9.572   1.472  1.00 20.00     0.316 HD
ENDROOT
BRANCH   7   9
HETATM    9  C9  UNL     1     -34.346   6.415   3.582  1.00 20.00     0.305 C 
BRANCH   9  10
HETATM   10  C2  UNL     1     -34.295   6.197   5.067  1.00 20.00    -0.065 C 
HETATM   11  C1  UNL     1     -33.979   7.192   5.911  1.00 20.00     0.015 C 
HETATM   12  C7  UNL     1     -34.575   4.807   5.564  1.00 20.00     0.044 C 
ENDBRANCH   9  10
ENDBRANCH   7   9
TORSDOF 2
ENDMDL
MODEL 4
REMARK VINA RESULT:      -4.0     10.163     11.684
REMARK  2 active torsions:
REMARK  status: ('A' for Active; 'I' for Inactive)
REMARK    1  A    between atoms: C2_2  and  C9_9 
REMARK    2  A    between atoms: C9_9  and  N11_11 
ROOT
HETATM    1  C3  UNL     1     -33.161  14.404  -4.831  1.00 20.00     0.300 C 
HETATM    2  C4  UNL     1     -34.251  14.752  -3.815  1.00 20.00     0.302 C 
HETATM    3  C5  UNL     1     -34.675  16.819  -4.985  1.00 20.00     0.307 C 
HETATM    4  C6  UNL     1     -33.575  16.471  -6.002  1.00 20.00     0.244 C 
HETATM    5  C8  UNL     1     -33.902  17.063  -7.372  1.00 20.00     0.044 C 
HETATM    6  N10 UNL     1     -33.432  15.017  -6.129  1.00 20.00     0.091 N 
HETATM    7  N11 UNL     1     -34.391  16.207  -3.679  1.00 20.00     0.096 N 
HETATM    8  H29 UNL     1     -32.672  14.801  -6.775  1.00 20.00     0.316 HD
ENDROOT
BRANCH   7   9
HETATM    9  C9  UNL     1     -35.434  16.540  -2.712  1.00 20.00     0.305 C 
BRANCH   9  10
HETATM   10  C2  UNL     1     -34.814  17.130  -1.477  1.00 20.00    -0.065 C 
HETATM   11  C1  UNL     1     -35.522  17.299  -0.350  1.00 20.00     0.015 C 
HETATM   12  C7  UNL     1     -33.377  17.559  -1.572  1.00 20.00     0.044 C 
ENDBRANCH   9  10
ENDBRANCH   7   9
TORSDOF 2
ENDMDL
MODEL 5
REMARK VINA RESULT:      -3.8     10.404     11.484
REMARK  2 active torsions:
REMARK  status: ('A' for Active; 'I' for Inactive)
REMARK    1  A    between atoms: C2_2  and  C9_9 
REMARK    2  A    between atoms: C9_9  and  N11_11 
ROOT
HETATM    1  C3  UNL     1     -36.064  17.139  -5.459  1.00 20.00     0.300 C 
HETATM    2  C4  UNL     1     -34.828  17.418  -4.602  1.00 20.00     0.302 C 
HETATM    3  C5  UNL     1     -34.771  15.098  -3.940  1.00 20.00     0.307 C 
HETATM    4  C6  UNL     1     -36.018  14.821  -4.796  1.00 20.00     0.244 C 
HETATM    5  C8  UNL     1     -35.997  13.390  -5.332  1.00 20.00     0.044 C 
HETATM    6  N10 UNL     1     -36.085  15.754  -5.925  1.00 20.00     0.091 N 
HETATM    7  N11 UNL     1     -34.762  16.489  -3.467  1.00 20.00     0.096 N 
HETATM    8  H29 UNL     1     -36.937  15.588  -6.461  1.00 20.00     0.316 HD
ENDROOT
BRANCH   7   9
HETATM    9  C9  UNL     1     -33.579  16.752  -2.649  1.00 20.00     0.305 C 
BRANCH   9  10
HETATM   10  C2  UNL     1     -33.983  17.434  -1.374  1.00 20.00    -0.065 C 
HETATM   11  C1  UNL     1     -33.140  18.245  -0.716  1.00 20.00     0.015 C 
HETATM   12  C7  UNL     1     -35.358  17.137  -0.845  1.00 20.00     0.044 C 
ENDBRANCH   9  10
ENDBRANCH   7   9
TORSDOF 2
ENDMDL
MODEL 6
REMARK VINA RESULT:      -3.8     10.579     11.865
REMARK  2 active torsions:
REMARK  status: ('A' for Active; 'I' for Inactive)
REMARK    1  A    between atoms: C2_2  and  C9_9 
REMARK    2  A    between atoms: C9_9  and  N11_11 
ROOT
HETATM    1  C3  UNL     1     -34.039  16.540  -7.116  1.00 20.00     0.300 C 
HETATM    2  C4  UNL     1     -33.424  16.514  -5.715  1.00 20.00     0.302 C 
HETATM    3  C5  UNL     1     -34.440  14.361  -5.316  1.00 20.00     0.307 C 
HETATM    4  C6  UNL     1     -35.062  14.392  -6.722  1.00 20.00     0.244 C 
HETATM    5  C8  UNL     1     -35.201  12.977  -7.281  1.00 20.00     0.044 C 
HETATM    6  N10 UNL     1     -34.234  15.188  -7.635  1.00 20.00     0.091 N 
HETATM    7  N11 UNL     1     -34.255  15.723  -4.797  1.00 20.00     0.096 N 
HETATM    8  H29 UNL     1     -34.679  15.235  -8.552  1.00 20.00     0.316 HD
ENDROOT
BRANCH   7   9
HETATM    9  C9  UNL     1     -33.666  15.695  -3.460  1.00 20.00     0.305 C 
BRANCH   9  10
HETATM   10  C2  UNL     1     -34.461  16.572  -2.536  1.00 20.00    -0.065 C 
HETATM   11  C1  UNL     1     -33.873  17.259  -1.543  1.00 20.00     0.015 C 
HETATM   12  C7  UNL     1     -35.948  16.617  -2.745  1.00 20.00     0.044 C 
ENDBRANCH   9  10
ENDBRANCH   7   9
TORSDOF 2
ENDMDL
MODEL 7
REMARK VINA RESULT:      -3.8     10.239     11.460
REMARK  2 active torsions:
REMARK  status: ('A' for Active; 'I' for Inactive)
REMARK    1  A    between atoms: C2_2  and  C9_9 
REMARK    2  A    between atoms: C9_9  and  N11_11 
ROOT
HETATM    1  C3  UNL     1     -33.256  18.867  -3.926  1.00 20.00     0.300 C 
HETATM    2  C4  UNL     1     -34.365  17.828  -4.101  1.00 20.00     0.302 C 
HETATM    3  C5  UNL     1     -33.989  17.055  -1.846  1.00 20.00     0.307 C 
HETATM    4  C6  UNL     1     -32.869  18.095  -1.674  1.00 20.00     0.244 C 
HETATM    5  C8  UNL     1     -32.775  18.549  -0.219  1.00 20.00     0.044 C 
HETATM    6  N10 UNL     1     -33.115  19.263  -2.526  1.00 20.00     0.091 N 
HETATM    7  N11 UNL     1     -34.117  16.655  -3.255  1.00 20.00     0.096 N 
HETATM    8  H29 UNL     1     -32.345  19.925  -2.434  1.00 20.00     0.316 HD
ENDROOT
BRANCH   7   9
HETATM    9  C9  UNL     1     -35.179  15.664  -3.418  1.00 20.00     0.305 C 
BRANCH   9  10
HETATM   10  C2  UNL     1     -34.694  14.537  -4.285  1.00 20.00    -0.065 C 
HETATM   11  C1  UNL     1     -35.551  13.730  -4.930  1.00 20.00     0.015 C 
HETATM   12  C7  UNL     1     -33.208  14.327  -4.366  1.00 20.00     0.044 C 
ENDBRANCH   9  10
ENDBRANCH   7   9
TORSDOF 2
ENDMDL
MODEL 8
REMARK VINA RESULT:      -3.7     10.562     11.136
REMARK  2 active torsions:
REMARK  status: ('A' for Active; 'I' for Inactive)
REMARK    1  A    between atoms: C2_2  and  C9_9 
REMARK    2  A    between atoms: C9_9  and  N11_11 
ROOT
HETATM    1  C3  UNL     1     -36.748  16.241  -3.592  1.00 20.00     0.300 C 
HETATM    2  C4  UNL     1     -35.966  15.159  -4.340  1.00 20.00     0.302 C 
HETATM    3  C5  UNL     1     -33.918  15.959  -3.347  1.00 20.00     0.307 C 
HETATM    4  C6  UNL     1     -34.704  17.051  -2.601  1.00 20.00     0.244 C 
HETATM    5  C8  UNL     1     -34.031  17.384  -1.270  1.00 20.00     0.044 C 
HETATM    6  N10 UNL     1     -36.080  16.612  -2.346  1.00 20.00     0.091 N 
HETATM    7  N11 UNL     1     -34.591  15.599  -4.603  1.00 20.00     0.096 N 
HETATM    8  H29 UNL     1     -36.601  17.360  -1.889  1.00 20.00     0.316 HD
ENDROOT
BRANCH   7   9
HETATM    9  C9  UNL     1     -33.843  14.564  -5.315  1.00 20.00     0.305 C 
BRANCH   9  10
HETATM   10  C2  UNL     1     -34.165  14.621  -6.781  1.00 20.00    -0.065 C 
HETATM   11  C1  UNL     1     -33.981  15.742  -7.495  1.00 20.00     0.015 C 
HETATM   12  C7  UNL     1     -34.738  13.380  -7.404  1.00 20.00     0.044 C 
ENDBRANCH   9  10
ENDBRANCH   7   9
TORSDOF 2
ENDMDL
MODEL 9
REMARK VINA RESULT:      -3.7     10.617     11.458
REMARK  2 active torsions:
REMARK  status: ('A' for Active; 'I' for Inactive)
REMARK    1  A    between atoms: C2_2  and  C9_9 
REMARK    2  A    between atoms: C9_9  and  N11_11 
ROOT
HETATM    1  C3  UNL     1     -38.580  15.083  -4.622  1.00 20.00     0.300 C 
HETATM    2  C4  UNL     1     -37.832  16.368  -4.258  1.00 20.00     0.302 C 
HETATM    3  C5  UNL     1     -35.739  15.296  -4.801  1.00 20.00     0.307 C 
HETATM    4  C6  UNL     1     -36.492  14.004  -5.160  1.00 20.00     0.244 C 
HETATM    5  C8  UNL     1     -35.752  13.236  -6.255  1.00 20.00     0.044 C 
HETATM    6  N10 UNL     1     -37.849  14.310  -5.623  1.00 20.00     0.091 N 
HETATM    7  N11 UNL     1     -36.475  16.063  -3.787  1.00 20.00     0.096 N 
HETATM    8  H29 UNL     1     -38.351  13.443  -5.818  1.00 20.00     0.316 HD
ENDROOT
BRANCH   7   9
HETATM    9  C9  UNL     1     -35.758  17.290  -3.443  1.00 20.00     0.305 C 
BRANCH   9  10
HETATM   10  C2  UNL     1     -34.967  17.081  -2.184  1.00 20.00    -0.065 C 
HETATM   11  C1  UNL     1     -35.566  17.000  -0.985  1.00 20.00     0.015 C 
HETATM   12  C7  UNL     1     -33.473  17.005  -2.319  1.00 20.00     0.044 C 
ENDBRANCH   9  10
ENDBRANCH   7   9
TORSDOF 2
ENDMDL
