MODEL 1
REMARK VINA RESULT:      -5.4      0.000      0.000
REMARK  2 active torsions:
REMARK  status: ('A' for Active; 'I' for Inactive)
REMARK    1  A    between atoms: C1_1  and  C3_3 
REMARK    2  A    between atoms: C1_1  and  C7_7 
ROOT
HETATM    1  C2  UNL     1     -33.980   6.693   5.736  1.00 20.00     0.017 A 
HETATM    2  C3  UNL     1     -34.484   6.818   4.320  1.00 20.00     0.059 A 
HETATM    3  C4  UNL     1     -34.837   5.606   5.148  1.00 20.00    -0.007 A 
HETATM    4  C5  UNL     1     -34.253   4.262   4.877  1.00 20.00     0.011 C 
ENDROOT
BRANCH   2   5
HETATM    5  C1  UNL     1     -33.533   6.721   3.207  1.00 20.00     0.131 C 
HETATM    6  O8  UNL     1     -33.766   6.005   2.234  1.00 20.00    -0.298 OA
BRANCH   5   7
HETATM    7  C7  UNL     1     -32.266   7.548   3.335  1.00 20.00     0.074 C 
HETATM    8  C6  UNL     1     -32.005   8.411   2.114  1.00 20.00     0.013 C 
ENDBRANCH   5   7
ENDBRANCH   2   5
TORSDOF 2
ENDMDL
MODEL 2
REMARK VINA RESULT:      -5.1      1.801      2.254
REMARK  2 active torsions:
REMARK  status: ('A' for Active; 'I' for Inactive)
REMARK    1  A    between atoms: C1_1  and  C3_3 
REMARK    2  A    between atoms: C1_1  and  C7_7 
ROOT
HETATM    1  C2  UNL     1     -33.747   6.863   4.519  1.00 20.00     0.017 A 
HETATM    2  C3  UNL     1     -33.592   7.654   3.245  1.00 20.00     0.059 A 
HETATM    3  C4  UNL     1     -33.969   6.193   3.192  1.00 20.00    -0.007 A 
HETATM    4  C5  UNL     1     -33.022   5.145   2.718  1.00 20.00     0.011 C 
ENDROOT
BRANCH   2   5
HETATM    5  C1  UNL     1     -32.257   8.104   2.835  1.00 20.00     0.131 C 
HETATM    6  O8  UNL     1     -31.321   8.122   3.634  1.00 20.00    -0.298 OA
BRANCH   5   7
HETATM    7  C7  UNL     1     -32.113   8.538   1.388  1.00 20.00     0.074 C 
HETATM    8  C6  UNL     1     -32.551   9.973   1.161  1.00 20.00     0.013 C 
ENDBRANCH   5   7
ENDBRANCH   2   5
TORSDOF 2
ENDMDL
MODEL 3
REMARK VINA RESULT:      -4.9      1.500      1.639
REMARK  2 active torsions:
REMARK  status: ('A' for Active; 'I' for Inactive)
REMARK    1  A    between atoms: C1_1  and  C3_3 
REMARK    2  A    between atoms: C1_1  and  C7_7 
ROOT
HETATM    1  C2  UNL     1     -34.672   5.293   5.755  1.00 20.00     0.017 A 
HETATM    2  C3  UNL     1     -34.724   6.284   4.621  1.00 20.00     0.059 A 
HETATM    3  C4  UNL     1     -34.709   4.802   4.335  1.00 20.00    -0.007 A 
HETATM    4  C5  UNL     1     -33.520   4.118   3.753  1.00 20.00     0.011 C 
ENDROOT
BRANCH   2   5
HETATM    5  C1  UNL     1     -33.550   7.119   4.340  1.00 20.00     0.131 C 
HETATM    6  O8  UNL     1     -32.878   7.596   5.254  1.00 20.00    -0.298 OA
BRANCH   5   7
HETATM    7  C7  UNL     1     -33.229   7.352   2.875  1.00 20.00     0.074 C 
HETATM    8  C6  UNL     1     -31.938   8.123   2.675  1.00 20.00     0.013 C 
ENDBRANCH   5   7
ENDBRANCH   2   5
TORSDOF 2
ENDMDL
MODEL 4
REMARK VINA RESULT:      -4.9      0.844      3.767
REMARK  2 active torsions:
REMARK  status: ('A' for Active; 'I' for Inactive)
REMARK    1  A    between atoms: C1_1  and  C3_3 
REMARK    2  A    between atoms: C1_1  and  C7_7 
ROOT
HETATM    1  C2  UNL     1     -31.474   8.348   3.454  1.00 20.00     0.017 A 
HETATM    2  C3  UNL     1     -32.078   7.114   2.834  1.00 20.00     0.059 A 
HETATM    3  C4  UNL     1     -31.841   8.348   1.997  1.00 20.00    -0.007 A 
HETATM    4  C5  UNL     1     -32.959   9.204   1.509  1.00 20.00     0.011 C 
ENDROOT
BRANCH   2   5
HETATM    5  C1  UNL     1     -33.437   6.710   3.213  1.00 20.00     0.131 C 
HETATM    6  O8  UNL     1     -34.144   6.062   2.442  1.00 20.00    -0.298 OA
BRANCH   5   7
HETATM    7  C7  UNL     1     -33.901   7.136   4.594  1.00 20.00     0.074 C 
HETATM    8  C6  UNL     1     -34.443   5.978   5.412  1.00 20.00     0.013 C 
ENDBRANCH   5   7
ENDBRANCH   2   5
TORSDOF 2
ENDMDL
MODEL 5
REMARK VINA RESULT:      -4.8      2.065      4.638
REMARK  2 active torsions:
REMARK  status: ('A' for Active; 'I' for Inactive)
REMARK    1  A    between atoms: C1_1  and  C3_3 
REMARK    2  A    between atoms: C1_1  and  C7_7 
ROOT
HETATM    1  C2  UNL     1     -31.241   8.780   0.710  1.00 20.00     0.017 A 
HETATM    2  C3  UNL     1     -32.356   8.065   1.429  1.00 20.00     0.059 A 
HETATM    3  C4  UNL     1     -32.612   9.393   0.758  1.00 20.00    -0.007 A 
HETATM    4  C5  UNL     1     -32.842  10.644   1.536  1.00 20.00     0.011 C 
ENDROOT
BRANCH   2   5
HETATM    5  C1  UNL     1     -32.314   7.953   2.891  1.00 20.00     0.131 C 
HETATM    6  O8  UNL     1     -31.343   8.357   3.531  1.00 20.00    -0.298 OA
BRANCH   5   7
HETATM    7  C7  UNL     1     -33.526   7.318   3.550  1.00 20.00     0.074 C 
HETATM    8  C6  UNL     1     -33.843   5.944   2.988  1.00 20.00     0.013 C 
ENDBRANCH   5   7
ENDBRANCH   2   5
TORSDOF 2
ENDMDL
MODEL 6
REMARK VINA RESULT:      -4.8      1.418      1.923
REMARK  2 active torsions:
REMARK  status: ('A' for Active; 'I' for Inactive)
REMARK    1  A    between atoms: C1_1  and  C3_3 
REMARK    2  A    between atoms: C1_1  and  C7_7 
ROOT
HETATM    1  C2  UNL     1     -33.659   7.315   6.033  1.00 20.00     0.017 A 
HETATM    2  C3  UNL     1     -34.199   7.250   4.627  1.00 20.00     0.059 A 
HETATM    3  C4  UNL     1     -34.637   6.236   5.656  1.00 20.00    -0.007 A 
HETATM    4  C5  UNL     1     -34.195   4.814   5.608  1.00 20.00     0.011 C 
ENDROOT
BRANCH   2   5
HETATM    5  C1  UNL     1     -33.303   6.872   3.528  1.00 20.00     0.131 C 
HETATM    6  O8  UNL     1     -32.169   7.342   3.445  1.00 20.00    -0.298 OA
BRANCH   5   7
HETATM    7  C7  UNL     1     -33.859   5.881   2.522  1.00 20.00     0.074 C 
HETATM    8  C6  UNL     1     -32.982   4.652   2.365  1.00 20.00     0.013 C 
ENDBRANCH   5   7
ENDBRANCH   2   5
TORSDOF 2
ENDMDL
MODEL 7
REMARK VINA RESULT:      -4.8      1.585      3.717
REMARK  2 active torsions:
REMARK  status: ('A' for Active; 'I' for Inactive)
REMARK    1  A    between atoms: C1_1  and  C3_3 
REMARK    2  A    between atoms: C1_1  and  C7_7 
ROOT
HETATM    1  C2  UNL     1     -33.049   6.043   2.773  1.00 20.00     0.017 A 
HETATM    2  C3  UNL     1     -33.982   6.861   3.630  1.00 20.00     0.059 A 
HETATM    3  C4  UNL     1     -32.870   7.533   2.861  1.00 20.00    -0.007 A 
HETATM    4  C5  UNL     1     -31.668   8.100   3.536  1.00 20.00     0.011 C 
ENDROOT
BRANCH   2   5
HETATM    5  C1  UNL     1     -33.918   6.730   5.090  1.00 20.00     0.131 C 
HETATM    6  O8  UNL     1     -33.408   7.609   5.784  1.00 20.00    -0.298 OA
BRANCH   5   7
HETATM    7  C7  UNL     1     -34.511   5.461   5.675  1.00 20.00     0.074 C 
HETATM    8  C6  UNL     1     -34.592   4.333   4.663  1.00 20.00     0.013 C 
ENDBRANCH   5   7
ENDBRANCH   2   5
TORSDOF 2
ENDMDL
MODEL 8
REMARK VINA RESULT:      -4.4      1.123      3.237
REMARK  2 active torsions:
REMARK  status: ('A' for Active; 'I' for Inactive)
REMARK    1  A    between atoms: C1_1  and  C3_3 
REMARK    2  A    between atoms: C1_1  and  C7_7 
ROOT
HETATM    1  C2  UNL     1     -32.130   7.634   3.230  1.00 20.00     0.017 A 
HETATM    2  C3  UNL     1     -33.508   7.066   3.009  1.00 20.00     0.059 A 
HETATM    3  C4  UNL     1     -33.245   7.993   4.171  1.00 20.00    -0.007 A 
HETATM    4  C5  UNL     1     -33.215   7.511   5.580  1.00 20.00     0.011 C 
ENDROOT
BRANCH   2   5
HETATM    5  C1  UNL     1     -33.739   5.633   3.223  1.00 20.00     0.131 C 
HETATM    6  O8  UNL     1     -32.973   4.790   2.756  1.00 20.00    -0.298 OA
BRANCH   5   7
HETATM    7  C7  UNL     1     -34.963   5.268   4.044  1.00 20.00     0.074 C 
HETATM    8  C6  UNL     1     -34.621   4.430   5.263  1.00 20.00     0.013 C 
ENDBRANCH   5   7
ENDBRANCH   2   5
TORSDOF 2
ENDMDL
MODEL 9
REMARK VINA RESULT:      -4.4      1.109      1.744
REMARK  2 active torsions:
REMARK  status: ('A' for Active; 'I' for Inactive)
REMARK    1  A    between atoms: C1_1  and  C3_3 
REMARK    2  A    between atoms: C1_1  and  C7_7 
ROOT
HETATM    1  C2  UNL     1     -35.599   6.012   4.004  1.00 20.00     0.017 A 
HETATM    2  C3  UNL     1     -34.413   5.106   3.795  1.00 20.00     0.059 A 
HETATM    3  C4  UNL     1     -34.705   5.672   5.164  1.00 20.00    -0.007 A 
HETATM    4  C5  UNL     1     -33.855   6.728   5.784  1.00 20.00     0.011 C 
ENDROOT
BRANCH   2   5
HETATM    5  C1  UNL     1     -33.272   5.585   3.007  1.00 20.00     0.131 C 
HETATM    6  O8  UNL     1     -32.340   4.834   2.718  1.00 20.00    -0.298 OA
BRANCH   5   7
HETATM    7  C7  UNL     1     -33.316   7.042   2.582  1.00 20.00     0.074 C 
HETATM    8  C6  UNL     1     -32.026   7.780   2.886  1.00 20.00     0.013 C 
ENDBRANCH   5   7
ENDBRANCH   2   5
TORSDOF 2
ENDMDL
