MODEL 1
REMARK VINA RESULT:      -6.5      0.000      0.000
REMARK  3 active torsions:
REMARK  status: ('A' for Active; 'I' for Inactive)
REMARK    1  A    between atoms: C3_3  and  C5_5 
REMARK    2  A    between atoms: C3_3  and  C9_9 
REMARK    3  A    between atoms: C8_8  and  C9_9 
ROOT
HETATM    1  C1  UNL     1     -32.171   9.748   0.682  1.00 20.00     0.012 C 
HETATM    2  C2  UNL     1     -32.209   8.858   1.487  1.00 20.00    -0.117 C 
HETATM    3  C8  UNL     1     -32.250   7.768   2.472  1.00 20.00     0.100 C 
ENDROOT
BRANCH   3   4
HETATM    4  C9  UNL     1     -33.663   7.220   2.658  1.00 20.00     0.090 C 
BRANCH   4   5
HETATM    5  C3  UNL     1     -33.704   5.773   3.125  1.00 20.00     0.132 C 
HETATM    6  O10 UNL     1     -32.904   4.922   2.740  1.00 20.00    -0.298 OA
BRANCH   5   7
HETATM    7  C5  UNL     1     -34.781   5.429   4.122  1.00 20.00     0.059 A 
HETATM    8  C4  UNL     1     -34.407   4.599   5.299  1.00 20.00     0.017 A 
HETATM    9  C6  UNL     1     -34.758   6.050   5.476  1.00 20.00    -0.007 A 
HETATM   10  C7  UNL     1     -33.716   7.020   5.917  1.00 20.00     0.011 C 
ENDBRANCH   5   7
ENDBRANCH   4   5
ENDBRANCH   3   4
TORSDOF 3
ENDMDL
MODEL 2
REMARK VINA RESULT:      -6.3      1.503      1.955
REMARK  3 active torsions:
REMARK  status: ('A' for Active; 'I' for Inactive)
REMARK    1  A    between atoms: C3_3  and  C5_5 
REMARK    2  A    between atoms: C3_3  and  C9_9 
REMARK    3  A    between atoms: C8_8  and  C9_9 
ROOT
HETATM    1  C1  UNL     1     -32.592  10.474   1.109  1.00 20.00     0.012 C 
HETATM    2  C2  UNL     1     -32.425   9.349   1.494  1.00 20.00    -0.117 C 
HETATM    3  C8  UNL     1     -32.223   7.970   1.961  1.00 20.00     0.100 C 
ENDROOT
BRANCH   3   4
HETATM    4  C9  UNL     1     -31.961   7.910   3.464  1.00 20.00     0.090 C 
BRANCH   4   5
HETATM    5  C3  UNL     1     -33.123   7.345   4.268  1.00 20.00     0.132 C 
HETATM    6  O10 UNL     1     -33.282   7.574   5.466  1.00 20.00    -0.298 OA
BRANCH   5   7
HETATM    7  C5  UNL     1     -34.103   6.492   3.505  1.00 20.00     0.059 A 
HETATM    8  C4  UNL     1     -33.716   5.088   3.195  1.00 20.00     0.017 A 
HETATM    9  C6  UNL     1     -34.799   5.372   4.197  1.00 20.00    -0.007 A 
HETATM   10  C7  UNL     1     -34.591   5.038   5.635  1.00 20.00     0.011 C 
ENDBRANCH   5   7
ENDBRANCH   4   5
ENDBRANCH   3   4
TORSDOF 3
ENDMDL
MODEL 3
REMARK VINA RESULT:      -6.0      1.565      5.012
REMARK  3 active torsions:
REMARK  status: ('A' for Active; 'I' for Inactive)
REMARK    1  A    between atoms: C3_3  and  C5_5 
REMARK    2  A    between atoms: C3_3  and  C9_9 
REMARK    3  A    between atoms: C8_8  and  C9_9 
ROOT
HETATM    1  C1  UNL     1     -34.754   4.799   4.710  1.00 20.00     0.012 C 
HETATM    2  C2  UNL     1     -34.345   5.877   4.374  1.00 20.00    -0.117 C 
HETATM    3  C8  UNL     1     -33.848   7.200   3.966  1.00 20.00     0.100 C 
ENDROOT
BRANCH   3   4
HETATM    4  C9  UNL     1     -33.143   7.151   2.613  1.00 20.00     0.090 C 
BRANCH   4   5
HETATM    5  C3  UNL     1     -31.960   8.101   2.502  1.00 20.00     0.132 C 
HETATM    6  O10 UNL     1     -31.240   8.389   3.457  1.00 20.00    -0.298 OA
BRANCH   5   7
HETATM    7  C5  UNL     1     -31.694   8.670   1.132  1.00 20.00     0.059 A 
HETATM    8  C4  UNL     1     -32.842   8.802   0.193  1.00 20.00     0.017 A 
HETATM    9  C6  UNL     1     -32.202  10.026   0.785  1.00 20.00    -0.007 A 
HETATM   10  C7  UNL     1     -32.968  10.884   1.734  1.00 20.00     0.011 C 
ENDBRANCH   5   7
ENDBRANCH   4   5
ENDBRANCH   3   4
TORSDOF 3
ENDMDL
MODEL 4
REMARK VINA RESULT:      -5.9      1.023      1.610
REMARK  3 active torsions:
REMARK  status: ('A' for Active; 'I' for Inactive)
REMARK    1  A    between atoms: C3_3  and  C5_5 
REMARK    2  A    between atoms: C3_3  and  C9_9 
REMARK    3  A    between atoms: C8_8  and  C9_9 
ROOT
HETATM    1  C1  UNL     1     -32.857  10.255   0.981  1.00 20.00     0.012 C 
HETATM    2  C2  UNL     1     -32.249   9.354   1.490  1.00 20.00    -0.117 C 
HETATM    3  C8  UNL     1     -31.502   8.249   2.111  1.00 20.00     0.100 C 
ENDROOT
BRANCH   3   4
HETATM    4  C9  UNL     1     -32.130   7.807   3.430  1.00 20.00     0.090 C 
BRANCH   4   5
HETATM    5  C3  UNL     1     -33.101   6.644   3.288  1.00 20.00     0.132 C 
HETATM    6  O10 UNL     1     -32.940   5.732   2.479  1.00 20.00    -0.298 OA
BRANCH   5   7
HETATM    7  C5  UNL     1     -34.284   6.652   4.222  1.00 20.00     0.059 A 
HETATM    8  C4  UNL     1     -35.546   6.011   3.760  1.00 20.00     0.017 A 
HETATM    9  C6  UNL     1     -34.732   5.380   4.854  1.00 20.00    -0.007 A 
HETATM   10  C7  UNL     1     -34.063   4.067   4.624  1.00 20.00     0.011 C 
ENDBRANCH   5   7
ENDBRANCH   4   5
ENDBRANCH   3   4
TORSDOF 3
ENDMDL
MODEL 5
REMARK VINA RESULT:      -5.3      1.101      4.774
REMARK  3 active torsions:
REMARK  status: ('A' for Active; 'I' for Inactive)
REMARK    1  A    between atoms: C3_3  and  C5_5 
REMARK    2  A    between atoms: C3_3  and  C9_9 
REMARK    3  A    between atoms: C8_8  and  C9_9 
ROOT
HETATM    1  C1  UNL     1     -34.750   4.887   5.565  1.00 20.00     0.012 C 
HETATM    2  C2  UNL     1     -34.225   5.964   5.484  1.00 20.00    -0.117 C 
HETATM    3  C8  UNL     1     -33.580   7.282   5.390  1.00 20.00     0.100 C 
ENDROOT
BRANCH   3   4
HETATM    4  C9  UNL     1     -33.850   7.954   4.047  1.00 20.00     0.090 C 
BRANCH   4   5
HETATM    5  C3  UNL     1     -32.932   7.481   2.928  1.00 20.00     0.132 C 
HETATM    6  O10 UNL     1     -33.075   6.402   2.357  1.00 20.00    -0.298 OA
BRANCH   5   7
HETATM    7  C5  UNL     1     -31.829   8.429   2.532  1.00 20.00     0.059 A 
HETATM    8  C4  UNL     1     -31.388   8.434   1.110  1.00 20.00     0.017 A 
HETATM    9  C6  UNL     1     -32.142   9.605   1.674  1.00 20.00    -0.007 A 
HETATM   10  C7  UNL     1     -33.512   9.920   1.177  1.00 20.00     0.011 C 
ENDBRANCH   5   7
ENDBRANCH   4   5
ENDBRANCH   3   4
TORSDOF 3
ENDMDL
MODEL 6
REMARK VINA RESULT:      -5.0      1.083      3.939
REMARK  3 active torsions:
REMARK  status: ('A' for Active; 'I' for Inactive)
REMARK    1  A    between atoms: C3_3  and  C5_5 
REMARK    2  A    between atoms: C3_3  and  C9_9 
REMARK    3  A    between atoms: C8_8  and  C9_9 
ROOT
HETATM    1  C1  UNL     1     -33.661   7.533   6.334  1.00 20.00     0.012 C 
HETATM    2  C2  UNL     1     -34.154   6.706   5.616  1.00 20.00    -0.117 C 
HETATM    3  C8  UNL     1     -34.757   5.691   4.740  1.00 20.00     0.100 C 
ENDROOT
BRANCH   3   4
HETATM    4  C9  UNL     1     -34.707   6.103   3.271  1.00 20.00     0.090 C 
BRANCH   4   5
HETATM    5  C3  UNL     1     -33.326   5.974   2.644  1.00 20.00     0.132 C 
HETATM    6  O10 UNL     1     -32.609   4.988   2.802  1.00 20.00    -0.298 OA
BRANCH   5   7
HETATM    7  C5  UNL     1     -32.878   7.128   1.785  1.00 20.00     0.059 A 
HETATM    8  C4  UNL     1     -33.387   8.487   2.118  1.00 20.00     0.017 A 
HETATM    9  C6  UNL     1     -31.942   8.143   2.344  1.00 20.00    -0.007 A 
HETATM   10  C7  UNL     1     -31.397   8.084   3.730  1.00 20.00     0.011 C 
ENDBRANCH   5   7
ENDBRANCH   4   5
ENDBRANCH   3   4
TORSDOF 3
ENDMDL
MODEL 7
REMARK VINA RESULT:      -4.7      1.363      4.226
REMARK  3 active torsions:
REMARK  status: ('A' for Active; 'I' for Inactive)
REMARK    1  A    between atoms: C3_3  and  C5_5 
REMARK    2  A    between atoms: C3_3  and  C9_9 
REMARK    3  A    between atoms: C8_8  and  C9_9 
ROOT
HETATM    1  C1  UNL     1     -34.749   5.277   6.028  1.00 20.00     0.012 C 
HETATM    2  C2  UNL     1     -34.438   4.647   5.054  1.00 20.00    -0.117 C 
HETATM    3  C8  UNL     1     -34.060   3.871   3.864  1.00 20.00     0.100 C 
ENDROOT
BRANCH   3   4
HETATM    4  C9  UNL     1     -33.006   4.590   3.026  1.00 20.00     0.090 C 
BRANCH   4   5
HETATM    5  C3  UNL     1     -33.413   5.993   2.600  1.00 20.00     0.132 C 
HETATM    6  O10 UNL     1     -34.579   6.311   2.370  1.00 20.00    -0.298 OA
BRANCH   5   7
HETATM    7  C5  UNL     1     -32.299   7.002   2.492  1.00 20.00     0.059 A 
HETATM    8  C4  UNL     1     -32.666   8.439   2.359  1.00 20.00     0.017 A 
HETATM    9  C6  UNL     1     -32.035   7.932   3.626  1.00 20.00    -0.007 A 
HETATM   10  C7  UNL     1     -32.815   7.923   4.896  1.00 20.00     0.011 C 
ENDBRANCH   5   7
ENDBRANCH   4   5
ENDBRANCH   3   4
TORSDOF 3
ENDMDL
MODEL 8
REMARK VINA RESULT:      -4.7      1.723      4.595
REMARK  3 active torsions:
REMARK  status: ('A' for Active; 'I' for Inactive)
REMARK    1  A    between atoms: C3_3  and  C5_5 
REMARK    2  A    between atoms: C3_3  and  C9_9 
REMARK    3  A    between atoms: C8_8  and  C9_9 
ROOT
HETATM    1  C1  UNL     1     -34.574   4.250   4.639  1.00 20.00     0.012 C 
HETATM    2  C2  UNL     1     -34.370   5.307   5.172  1.00 20.00    -0.117 C 
HETATM    3  C8  UNL     1     -34.121   6.598   5.829  1.00 20.00     0.100 C 
ENDROOT
BRANCH   3   4
HETATM    4  C9  UNL     1     -33.985   7.735   4.819  1.00 20.00     0.090 C 
BRANCH   4   5
HETATM    5  C3  UNL     1     -32.556   7.978   4.358  1.00 20.00     0.132 C 
HETATM    6  O10 UNL     1     -31.759   8.675   4.985  1.00 20.00    -0.298 OA
BRANCH   5   7
HETATM    7  C5  UNL     1     -32.146   7.292   3.081  1.00 20.00     0.059 A 
HETATM    8  C4  UNL     1     -33.195   7.036   2.055  1.00 20.00     0.017 A 
HETATM    9  C6  UNL     1     -32.124   8.061   1.805  1.00 20.00    -0.007 A 
HETATM   10  C7  UNL     1     -32.481   9.505   1.710  1.00 20.00     0.011 C 
ENDBRANCH   5   7
ENDBRANCH   4   5
ENDBRANCH   3   4
TORSDOF 3
ENDMDL
MODEL 9
REMARK VINA RESULT:      -4.6     10.861     12.165
REMARK  3 active torsions:
REMARK  status: ('A' for Active; 'I' for Inactive)
REMARK    1  A    between atoms: C3_3  and  C5_5 
REMARK    2  A    between atoms: C3_3  and  C9_9 
REMARK    3  A    between atoms: C8_8  and  C9_9 
ROOT
HETATM    1  C1  UNL     1     -35.177  16.756  -1.707  1.00 20.00     0.012 C 
HETATM    2  C2  UNL     1     -34.701  16.278  -2.700  1.00 20.00    -0.117 C 
HETATM    3  C8  UNL     1     -34.116  15.697  -3.918  1.00 20.00     0.100 C 
ENDROOT
BRANCH   3   4
HETATM    4  C9  UNL     1     -34.402  14.202  -4.029  1.00 20.00     0.090 C 
BRANCH   4   5
HETATM    5  C3  UNL     1     -35.450  13.853  -5.076  1.00 20.00     0.132 C 
HETATM    6  O10 UNL     1     -35.894  12.716  -5.225  1.00 20.00    -0.298 OA
BRANCH   5   7
HETATM    7  C5  UNL     1     -35.944  14.996  -5.924  1.00 20.00     0.059 A 
HETATM    8  C4  UNL     1     -37.090  14.744  -6.840  1.00 20.00     0.017 A 
HETATM    9  C6  UNL     1     -37.267  15.614  -5.628  1.00 20.00    -0.007 A 
HETATM   10  C7  UNL     1     -38.151  15.170  -4.514  1.00 20.00     0.011 C 
ENDBRANCH   5   7
ENDBRANCH   4   5
ENDBRANCH   3   4
TORSDOF 3
ENDMDL
