MODEL 1
REMARK VINA RESULT:      -4.5      0.000      0.000
REMARK  2 active torsions:
REMARK  status: ('A' for Active; 'I' for Inactive)
REMARK    1  A    between atoms: C2_2  and  C8_8 
REMARK    2  A    between atoms: C3_3  and  C5_5 
ROOT
HETATM    1  C1  UNL     1     -34.010   5.584   3.479  1.00 20.00     0.080 A 
HETATM    2  C2  UNL     1     -33.826   6.501   4.493  1.00 20.00     0.055 A 
HETATM    3  C3  UNL     1     -32.748   7.552   2.899  1.00 20.00     0.080 A 
HETATM    4  N9  UNL     1     -33.102   7.629   4.162  1.00 20.00    -0.248 NA
HETATM    5  S10 UNL     1     -33.252   6.150   2.048  1.00 20.00    -0.084 SA
ENDROOT
BRANCH   3   6
HETATM    6  C5  UNL     1     -31.941   8.640   2.231  1.00 20.00     0.049 A 
HETATM    7  C4  UNL     1     -31.566   8.523   0.770  1.00 20.00     0.016 A 
HETATM    8  C6  UNL     1     -32.589   9.535   1.195  1.00 20.00    -0.007 A 
HETATM    9  C7  UNL     1     -32.267  10.989   1.157  1.00 20.00     0.011 C 
ENDBRANCH   3   6
BRANCH   2  10
HETATM   10  C8  UNL     1     -34.331   6.371   5.874  1.00 20.00     0.174 C 
HETATM   11 CL11 UNL     1     -34.849   4.698   6.216  1.00 20.00    -0.124 Cl
ENDBRANCH   2  10
TORSDOF 2
ENDMDL
MODEL 2
REMARK VINA RESULT:      -4.3      2.979      5.177
REMARK  2 active torsions:
REMARK  status: ('A' for Active; 'I' for Inactive)
REMARK    1  A    between atoms: C2_2  and  C8_8 
REMARK    2  A    between atoms: C3_3  and  C5_5 
ROOT
HETATM    1  C1  UNL     1     -31.165   8.812   2.763  1.00 20.00     0.080 A 
HETATM    2  C2  UNL     1     -32.025   8.489   1.733  1.00 20.00     0.055 A 
HETATM    3  C3  UNL     1     -33.159   7.617   3.396  1.00 20.00     0.080 A 
HETATM    4  N9  UNL     1     -33.168   7.803   2.094  1.00 20.00    -0.248 NA
HETATM    5  S10 UNL     1     -31.807   8.241   4.248  1.00 20.00    -0.084 SA
ENDROOT
BRANCH   3   6
HETATM    6  C5  UNL     1     -34.281   6.894   4.103  1.00 20.00     0.049 A 
HETATM    7  C4  UNL     1     -35.108   5.864   3.366  1.00 20.00     0.016 A 
HETATM    8  C6  UNL     1     -34.145   5.421   4.428  1.00 20.00    -0.007 A 
HETATM    9  C7  UNL     1     -34.650   4.892   5.725  1.00 20.00     0.011 C 
ENDBRANCH   3   6
BRANCH   2  10
HETATM   10  C8  UNL     1     -31.820   8.810   0.308  1.00 20.00     0.174 C 
HETATM   11 CL11 UNL     1     -33.280   9.551  -0.401  1.00 20.00    -0.124 Cl
ENDBRANCH   2  10
TORSDOF 2
ENDMDL
MODEL 3
REMARK VINA RESULT:      -4.1      1.525      1.749
REMARK  2 active torsions:
REMARK  status: ('A' for Active; 'I' for Inactive)
REMARK    1  A    between atoms: C2_2  and  C8_8 
REMARK    2  A    between atoms: C3_3  and  C5_5 
ROOT
HETATM    1  C1  UNL     1     -33.709   7.032   5.538  1.00 20.00     0.080 A 
HETATM    2  C2  UNL     1     -34.072   6.392   4.371  1.00 20.00     0.055 A 
HETATM    3  C3  UNL     1     -32.716   7.889   3.517  1.00 20.00     0.080 A 
HETATM    4  N9  UNL     1     -33.504   6.882   3.212  1.00 20.00    -0.248 NA
HETATM    5  S10 UNL     1     -32.610   8.300   5.180  1.00 20.00    -0.084 SA
ENDROOT
BRANCH   3   6
HETATM    6  C5  UNL     1     -31.944   8.643   2.460  1.00 20.00     0.049 A 
HETATM    7  C4  UNL     1     -31.844   8.096   1.053  1.00 20.00     0.016 A 
HETATM    8  C6  UNL     1     -32.681   9.313   1.319  1.00 20.00    -0.007 A 
HETATM    9  C7  UNL     1     -32.241  10.647   0.826  1.00 20.00     0.011 C 
ENDBRANCH   3   6
BRANCH   2  10
HETATM   10  C8  UNL     1     -35.001   5.250   4.269  1.00 20.00     0.174 C 
HETATM   11 CL11 UNL     1     -34.121   3.699   4.305  1.00 20.00    -0.124 Cl
ENDBRANCH   2  10
TORSDOF 2
ENDMDL
MODEL 4
REMARK VINA RESULT:      -4.1     11.187     11.526
REMARK  2 active torsions:
REMARK  status: ('A' for Active; 'I' for Inactive)
REMARK    1  A    between atoms: C2_2  and  C8_8 
REMARK    2  A    between atoms: C3_3  and  C5_5 
ROOT
HETATM    1  C1  UNL     1     -34.212  14.572  -5.635  1.00 20.00     0.080 A 
HETATM    2  C2  UNL     1     -35.459  14.538  -5.044  1.00 20.00     0.055 A 
HETATM    3  C3  UNL     1     -34.588  16.180  -3.880  1.00 20.00     0.080 A 
HETATM    4  N9  UNL     1     -35.675  15.458  -4.038  1.00 20.00    -0.248 NA
HETATM    5  S10 UNL     1     -33.267  15.805  -4.909  1.00 20.00    -0.084 SA
ENDROOT
BRANCH   3   6
HETATM    6  C5  UNL     1     -34.506  17.280  -2.849  1.00 20.00     0.049 A 
HETATM    7  C4  UNL     1     -35.029  17.052  -1.447  1.00 20.00     0.016 A 
HETATM    8  C6  UNL     1     -33.551  17.153  -1.681  1.00 20.00    -0.007 A 
HETATM    9  C7  UNL     1     -32.795  18.343  -1.200  1.00 20.00     0.011 C 
ENDBRANCH   3   6
BRANCH   2  10
HETATM   10  C8  UNL     1     -36.554  13.613  -5.397  1.00 20.00     0.174 C 
HETATM   11 CL11 UNL     1     -38.146  14.333  -5.038  1.00 20.00    -0.124 Cl
ENDBRANCH   2  10
TORSDOF 2
ENDMDL
MODEL 5
REMARK VINA RESULT:      -4.0     11.224     11.732
REMARK  2 active torsions:
REMARK  status: ('A' for Active; 'I' for Inactive)
REMARK    1  A    between atoms: C2_2  and  C8_8 
REMARK    2  A    between atoms: C3_3  and  C5_5 
ROOT
HETATM    1  C1  UNL     1     -34.405  15.660  -6.023  1.00 20.00     0.080 A 
HETATM    2  C2  UNL     1     -34.969  14.743  -5.160  1.00 20.00     0.055 A 
HETATM    3  C3  UNL     1     -34.095  16.098  -3.674  1.00 20.00     0.080 A 
HETATM    4  N9  UNL     1     -34.791  14.992  -3.814  1.00 20.00    -0.248 NA
HETATM    5  S10 UNL     1     -33.621  16.890  -5.121  1.00 20.00    -0.084 SA
ENDROOT
BRANCH   3   6
HETATM    6  C5  UNL     1     -33.731  16.643  -2.313  1.00 20.00     0.049 A 
HETATM    7  C4  UNL     1     -33.202  18.054  -2.174  1.00 20.00     0.016 A 
HETATM    8  C6  UNL     1     -34.581  17.726  -1.681  1.00 20.00    -0.007 A 
HETATM    9  C7  UNL     1     -34.867  17.694  -0.219  1.00 20.00     0.011 C 
ENDBRANCH   3   6
BRANCH   2  10
HETATM   10  C8  UNL     1     -35.729  13.542  -5.557  1.00 20.00     0.174 C 
HETATM   11 CL11 UNL     1     -35.203  12.944  -7.153  1.00 20.00    -0.124 Cl
ENDBRANCH   2  10
TORSDOF 2
ENDMDL
MODEL 6
REMARK VINA RESULT:      -4.0     10.740     11.343
REMARK  2 active torsions:
REMARK  status: ('A' for Active; 'I' for Inactive)
REMARK    1  A    between atoms: C2_2  and  C8_8 
REMARK    2  A    between atoms: C3_3  and  C5_5 
ROOT
HETATM    1  C1  UNL     1     -34.639  17.855  -0.608  1.00 20.00     0.080 A 
HETATM    2  C2  UNL     1     -33.344  17.872  -1.084  1.00 20.00     0.055 A 
HETATM    3  C3  UNL     1     -34.274  16.717  -2.700  1.00 20.00     0.080 A 
HETATM    4  N9  UNL     1     -33.133  17.219  -2.283  1.00 20.00    -0.248 NA
HETATM    5  S10 UNL     1     -35.641  16.991  -1.700  1.00 20.00    -0.084 SA
ENDROOT
BRANCH   3   6
HETATM    6  C5  UNL     1     -34.376  15.939  -3.991  1.00 20.00     0.049 A 
HETATM    7  C4  UNL     1     -33.248  15.027  -4.423  1.00 20.00     0.016 A 
HETATM    8  C6  UNL     1     -34.546  14.435  -3.957  1.00 20.00    -0.007 A 
HETATM    9  C7  UNL     1     -35.455  13.764  -4.928  1.00 20.00     0.011 C 
ENDBRANCH   3   6
BRANCH   2  10
HETATM   10  C8  UNL     1     -32.193  18.518  -0.425  1.00 20.00     0.174 C 
HETATM   11 CL11 UNL     1     -32.502  18.765   1.315  1.00 20.00    -0.124 Cl
ENDBRANCH   2  10
TORSDOF 2
ENDMDL
MODEL 7
REMARK VINA RESULT:      -4.0     11.128     11.482
REMARK  2 active torsions:
REMARK  status: ('A' for Active; 'I' for Inactive)
REMARK    1  A    between atoms: C2_2  and  C8_8 
REMARK    2  A    between atoms: C3_3  and  C5_5 
ROOT
HETATM    1  C1  UNL     1     -34.618  18.472   2.661  1.00 20.00     0.080 A 
HETATM    2  C2  UNL     1     -33.341  18.647   2.170  1.00 20.00     0.055 A 
HETATM    3  C3  UNL     1     -34.374  18.276   0.272  1.00 20.00     0.080 A 
HETATM    4  N9  UNL     1     -33.199  18.535   0.801  1.00 20.00    -0.248 NA
HETATM    5  S10 UNL     1     -35.694  18.156   1.363  1.00 20.00    -0.084 SA
ENDROOT
BRANCH   3   6
HETATM    6  C5  UNL     1     -34.554  18.096  -1.217  1.00 20.00     0.049 A 
HETATM    7  C4  UNL     1     -33.496  17.385  -2.032  1.00 20.00     0.016 A 
HETATM    8  C6  UNL     1     -34.817  16.718  -1.786  1.00 20.00    -0.007 A 
HETATM    9  C7  UNL     1     -35.787  16.542  -2.902  1.00 20.00     0.011 C 
ENDBRANCH   3   6
BRANCH   2  10
HETATM   10  C8  UNL     1     -32.141  18.938   2.978  1.00 20.00     0.174 C 
HETATM   11 CL11 UNL     1     -30.649  18.657   2.040  1.00 20.00    -0.124 Cl
ENDBRANCH   2  10
TORSDOF 2
ENDMDL
MODEL 8
REMARK VINA RESULT:      -3.8     11.326     12.265
REMARK  2 active torsions:
REMARK  status: ('A' for Active; 'I' for Inactive)
REMARK    1  A    between atoms: C2_2  and  C8_8 
REMARK    2  A    between atoms: C3_3  and  C5_5 
ROOT
HETATM    1  C1  UNL     1     -35.950  15.653  -5.760  1.00 20.00     0.080 A 
HETATM    2  C2  UNL     1     -34.592  15.889  -5.808  1.00 20.00     0.055 A 
HETATM    3  C3  UNL     1     -34.885  16.090  -3.644  1.00 20.00     0.080 A 
HETATM    4  N9  UNL     1     -33.980  16.141  -4.595  1.00 20.00    -0.248 NA
HETATM    5  S10 UNL     1     -36.493  15.745  -4.135  1.00 20.00    -0.084 SA
ENDROOT
BRANCH   3   6
HETATM    6  C5  UNL     1     -34.530  16.323  -2.194  1.00 20.00     0.049 A 
HETATM    7  C4  UNL     1     -33.542  17.406  -1.816  1.00 20.00     0.016 A 
HETATM    8  C6  UNL     1     -34.997  17.582  -1.493  1.00 20.00    -0.007 A 
HETATM    9  C7  UNL     1     -35.464  17.521  -0.081  1.00 20.00     0.011 C 
ENDBRANCH   3   6
BRANCH   2  10
HETATM   10  C8  UNL     1     -33.761  15.895  -7.027  1.00 20.00     0.174 C 
HETATM   11 CL11 UNL     1     -33.910  14.355  -7.916  1.00 20.00    -0.124 Cl
ENDBRANCH   2  10
TORSDOF 2
ENDMDL
MODEL 9
REMARK VINA RESULT:      -3.8     11.023     11.448
REMARK  2 active torsions:
REMARK  status: ('A' for Active; 'I' for Inactive)
REMARK    1  A    between atoms: C2_2  and  C8_8 
REMARK    2  A    between atoms: C3_3  and  C5_5 
ROOT
HETATM    1  C1  UNL     1     -35.917  17.037  -2.603  1.00 20.00     0.080 A 
HETATM    2  C2  UNL     1     -34.577  16.742  -2.464  1.00 20.00     0.055 A 
HETATM    3  C3  UNL     1     -35.087  15.248  -3.986  1.00 20.00     0.080 A 
HETATM    4  N9  UNL     1     -34.099  15.716  -3.256  1.00 20.00    -0.248 NA
HETATM    5  S10 UNL     1     -36.617  15.995  -3.773  1.00 20.00    -0.084 SA
ENDROOT
BRANCH   3   6
HETATM    6  C5  UNL     1     -34.885  14.113  -4.963  1.00 20.00     0.049 A 
HETATM    7  C4  UNL     1     -36.079  13.412  -5.573  1.00 20.00     0.016 A 
HETATM    8  C6  UNL     1     -35.227  14.305  -6.426  1.00 20.00    -0.007 A 
HETATM    9  C7  UNL     1     -34.351  13.722  -7.481  1.00 20.00     0.011 C 
ENDBRANCH   3   6
BRANCH   2  10
HETATM   10  C8  UNL     1     -33.635  17.422  -1.554  1.00 20.00     0.174 C 
HETATM   11 CL11 UNL     1     -34.439  17.899  -0.034  1.00 20.00    -0.124 Cl
ENDBRANCH   2  10
TORSDOF 2
ENDMDL
