MODEL 1
REMARK VINA RESULT:      -5.6      0.000      0.000
REMARK  2 active torsions:
REMARK  status: ('A' for Active; 'I' for Inactive)
REMARK    1  A    between atoms: C3_3  and  C5_5 
REMARK    2  A    between atoms: C5_5  and  C7_7 
ROOT
HETATM    1  C1  UNL     1     -33.435   6.153   3.386  1.00 20.00     0.029 A 
HETATM    2  C2  UNL     1     -33.043   7.853   4.922  1.00 20.00     0.065 A 
HETATM    3  C3  UNL     1     -32.793   7.397   3.645  1.00 20.00     0.018 A 
HETATM    4  C4  UNL     1     -34.152   5.704   4.473  1.00 20.00    -0.021 A 
HETATM    5  C9  UNL     1     -34.953   4.466   4.601  1.00 20.00     0.056 C 
HETATM    6  S12 UNL     1     -34.049   6.781   5.800  1.00 20.00    -0.106 SA
ENDROOT
BRANCH   3   7
HETATM    7  C5  UNL     1     -31.958   8.136   2.695  1.00 20.00     0.164 C 
HETATM    8  O11 UNL     1     -30.839   8.572   2.944  1.00 20.00    -0.292 OA
BRANCH   7   9
HETATM    9  C7  UNL     1     -32.509   8.360   1.353  1.00 20.00     0.065 A 
HETATM   10  C6  UNL     1     -31.678   9.086   0.325  1.00 20.00     0.018 A 
HETATM   11  C8  UNL     1     -32.902   9.744   0.895  1.00 20.00    -0.006 A 
HETATM   12  C10 UNL     1     -32.764  10.940   1.774  1.00 20.00     0.011 C 
ENDBRANCH   7   9
ENDBRANCH   3   7
TORSDOF 2
ENDMDL
MODEL 2
REMARK VINA RESULT:      -5.0      1.051      1.481
REMARK  2 active torsions:
REMARK  status: ('A' for Active; 'I' for Inactive)
REMARK    1  A    between atoms: C3_3  and  C5_5 
REMARK    2  A    between atoms: C5_5  and  C7_7 
ROOT
HETATM    1  C1  UNL     1     -33.580   6.703   2.946  1.00 20.00     0.029 A 
HETATM    2  C2  UNL     1     -32.461   8.141   4.389  1.00 20.00     0.065 A 
HETATM    3  C3  UNL     1     -32.630   7.756   3.077  1.00 20.00     0.018 A 
HETATM    4  C4  UNL     1     -34.102   6.323   4.163  1.00 20.00    -0.021 A 
HETATM    5  C9  UNL     1     -35.109   5.276   4.446  1.00 20.00     0.056 C 
HETATM    6  S12 UNL     1     -33.447   7.235   5.456  1.00 20.00    -0.106 SA
ENDROOT
BRANCH   3   7
HETATM    7  C5  UNL     1     -31.898   8.381   1.972  1.00 20.00     0.164 C 
HETATM    8  O11 UNL     1     -31.081   7.804   1.264  1.00 20.00    -0.292 OA
BRANCH   7   9
HETATM    9  C7  UNL     1     -32.176   9.797   1.702  1.00 20.00     0.065 A 
HETATM   10  C6  UNL     1     -33.605  10.275   1.657  1.00 20.00     0.018 A 
HETATM   11  C8  UNL     1     -32.792  10.233   0.395  1.00 20.00    -0.006 A 
HETATM   12  C10 UNL     1     -33.138   9.263  -0.682  1.00 20.00     0.011 C 
ENDBRANCH   7   9
ENDBRANCH   3   7
TORSDOF 2
ENDMDL
MODEL 3
REMARK VINA RESULT:      -4.9     10.622     11.595
REMARK  2 active torsions:
REMARK  status: ('A' for Active; 'I' for Inactive)
REMARK    1  A    between atoms: C3_3  and  C5_5 
REMARK    2  A    between atoms: C5_5  and  C7_7 
ROOT
HETATM    1  C1  UNL     1     -34.240  15.323  -3.609  1.00 20.00     0.029 A 
HETATM    2  C2  UNL     1     -36.474  15.649  -4.163  1.00 20.00     0.065 A 
HETATM    3  C3  UNL     1     -35.350  14.884  -4.386  1.00 20.00     0.018 A 
HETATM    4  C4  UNL     1     -34.558  16.407  -2.820  1.00 20.00    -0.021 A 
HETATM    5  C9  UNL     1     -33.689  17.145  -1.877  1.00 20.00     0.056 C 
HETATM    6  S12 UNL     1     -36.188  16.891  -3.018  1.00 20.00    -0.106 SA
ENDROOT
BRANCH   3   7
HETATM    7  C5  UNL     1     -35.338  13.758  -5.323  1.00 20.00     0.164 C 
HETATM    8  O11 UNL     1     -35.922  12.695  -5.141  1.00 20.00    -0.292 OA
BRANCH   7   9
HETATM    9  C7  UNL     1     -34.573  13.928  -6.564  1.00 20.00     0.065 A 
HETATM   10  C6  UNL     1     -34.338  15.316  -7.103  1.00 20.00     0.018 A 
HETATM   11  C8  UNL     1     -35.248  14.375  -7.838  1.00 20.00    -0.006 A 
HETATM   12  C10 UNL     1     -36.711  14.652  -7.906  1.00 20.00     0.011 C 
ENDBRANCH   7   9
ENDBRANCH   3   7
TORSDOF 2
ENDMDL
MODEL 4
REMARK VINA RESULT:      -4.7     10.503     11.029
REMARK  2 active torsions:
REMARK  status: ('A' for Active; 'I' for Inactive)
REMARK    1  A    between atoms: C3_3  and  C5_5 
REMARK    2  A    between atoms: C5_5  and  C7_7 
ROOT
HETATM    1  C1  UNL     1     -35.000  16.956  -1.502  1.00 20.00     0.029 A 
HETATM    2  C2  UNL     1     -32.932  18.002  -1.690  1.00 20.00     0.065 A 
HETATM    3  C3  UNL     1     -33.855  17.192  -2.315  1.00 20.00     0.018 A 
HETATM    4  C4  UNL     1     -34.909  17.595  -0.285  1.00 20.00    -0.021 A 
HETATM    5  C9  UNL     1     -35.886  17.599   0.828  1.00 20.00     0.056 C 
HETATM    6  S12 UNL     1     -33.449  18.475  -0.127  1.00 20.00    -0.106 SA
ENDROOT
BRANCH   3   7
HETATM    7  C5  UNL     1     -33.646  16.656  -3.663  1.00 20.00     0.164 C 
HETATM    8  O11 UNL     1     -33.547  17.339  -4.677  1.00 20.00    -0.292 OA
BRANCH   7   9
HETATM    9  C7  UNL     1     -33.546  15.197  -3.795  1.00 20.00     0.065 A 
HETATM   10  C6  UNL     1     -33.626  14.572  -5.164  1.00 20.00     0.018 A 
HETATM   11  C8  UNL     1     -34.745  14.367  -4.184  1.00 20.00    -0.006 A 
HETATM   12  C10 UNL     1     -36.082  14.976  -4.440  1.00 20.00     0.011 C 
ENDBRANCH   7   9
ENDBRANCH   3   7
TORSDOF 2
ENDMDL
MODEL 5
REMARK VINA RESULT:      -4.5      2.178      4.788
REMARK  2 active torsions:
REMARK  status: ('A' for Active; 'I' for Inactive)
REMARK    1  A    between atoms: C3_3  and  C5_5 
REMARK    2  A    between atoms: C5_5  and  C7_7 
ROOT
HETATM    1  C1  UNL     1     -33.614   8.468   1.905  1.00 20.00     0.029 A 
HETATM    2  C2  UNL     1     -31.493   8.056   2.762  1.00 20.00     0.065 A 
HETATM    3  C3  UNL     1     -32.848   7.946   2.987  1.00 20.00     0.018 A 
HETATM    4  C4  UNL     1     -32.816   8.955   0.894  1.00 20.00    -0.021 A 
HETATM    5  C9  UNL     1     -33.227   9.570  -0.388  1.00 20.00     0.056 C 
HETATM    6  S12 UNL     1     -31.150   8.784   1.250  1.00 20.00    -0.106 SA
ENDROOT
BRANCH   3   7
HETATM    7  C5  UNL     1     -33.398   7.356   4.210  1.00 20.00     0.164 C 
HETATM    8  O11 UNL     1     -32.984   7.587   5.341  1.00 20.00    -0.292 OA
BRANCH   7   9
HETATM    9  C7  UNL     1     -34.525   6.428   4.058  1.00 20.00     0.065 A 
HETATM   10  C6  UNL     1     -34.569   5.175   4.895  1.00 20.00     0.018 A 
HETATM   11  C8  UNL     1     -34.336   5.075   3.415  1.00 20.00    -0.006 A 
HETATM   12  C10 UNL     1     -33.015   4.619   2.897  1.00 20.00     0.011 C 
ENDBRANCH   7   9
ENDBRANCH   3   7
TORSDOF 2
ENDMDL
MODEL 6
REMARK VINA RESULT:      -4.4     10.919     11.501
REMARK  2 active torsions:
REMARK  status: ('A' for Active; 'I' for Inactive)
REMARK    1  A    between atoms: C3_3  and  C5_5 
REMARK    2  A    between atoms: C5_5  and  C7_7 
ROOT
HETATM    1  C1  UNL     1     -31.723  18.532  -0.040  1.00 20.00     0.029 A 
HETATM    2  C2  UNL     1     -34.025  18.503   0.281  1.00 20.00     0.065 A 
HETATM    3  C3  UNL     1     -33.006  18.371  -0.637  1.00 20.00     0.018 A 
HETATM    4  C4  UNL     1     -31.809  18.780   1.312  1.00 20.00    -0.021 A 
HETATM    5  C9  UNL     1     -30.712  19.001   2.280  1.00 20.00     0.056 C 
HETATM    6  S12 UNL     1     -33.432  18.819   1.857  1.00 20.00    -0.106 SA
ENDROOT
BRANCH   3   7
HETATM    7  C5  UNL     1     -33.254  18.096  -2.054  1.00 20.00     0.164 C 
HETATM    8  O11 UNL     1     -33.178  18.932  -2.949  1.00 20.00    -0.292 OA
BRANCH   7   9
HETATM    9  C7  UNL     1     -33.615  16.720  -2.417  1.00 20.00     0.065 A 
HETATM   10  C6  UNL     1     -34.160  16.438  -3.794  1.00 20.00     0.018 A 
HETATM   11  C8  UNL     1     -35.059  16.317  -2.596  1.00 20.00    -0.006 A 
HETATM   12  C10 UNL     1     -36.181  17.278  -2.406  1.00 20.00     0.011 C 
ENDBRANCH   7   9
ENDBRANCH   3   7
TORSDOF 2
ENDMDL
MODEL 7
REMARK VINA RESULT:      -4.4     10.701     12.085
REMARK  2 active torsions:
REMARK  status: ('A' for Active; 'I' for Inactive)
REMARK    1  A    between atoms: C3_3  and  C5_5 
REMARK    2  A    between atoms: C5_5  and  C7_7 
ROOT
HETATM    1  C1  UNL     1     -38.067  14.535  -4.944  1.00 20.00     0.029 A 
HETATM    2  C2  UNL     1     -36.878  15.304  -6.788  1.00 20.00     0.065 A 
HETATM    3  C3  UNL     1     -36.851  14.479  -5.685  1.00 20.00     0.018 A 
HETATM    4  C4  UNL     1     -38.977  15.399  -5.510  1.00 20.00    -0.021 A 
HETATM    5  C9  UNL     1     -40.344  15.730  -5.047  1.00 20.00     0.056 C 
HETATM    6  S12 UNL     1     -38.367  16.140  -6.927  1.00 20.00    -0.106 SA
ENDROOT
BRANCH   3   7
HETATM    7  C5  UNL     1     -35.688  13.656  -5.346  1.00 20.00     0.164 C 
HETATM    8  O11 UNL     1     -35.351  12.644  -5.952  1.00 20.00    -0.292 OA
BRANCH   7   9
HETATM    9  C7  UNL     1     -34.874  14.085  -4.203  1.00 20.00     0.065 A 
HETATM   10  C6  UNL     1     -34.931  15.523  -3.753  1.00 20.00     0.018 A 
HETATM   11  C8  UNL     1     -33.681  14.991  -4.394  1.00 20.00    -0.006 A 
HETATM   12  C10 UNL     1     -33.264  15.482  -5.738  1.00 20.00     0.011 C 
ENDBRANCH   7   9
ENDBRANCH   3   7
TORSDOF 2
ENDMDL
MODEL 8
REMARK VINA RESULT:      -4.3     10.549     11.451
REMARK  2 active torsions:
REMARK  status: ('A' for Active; 'I' for Inactive)
REMARK    1  A    between atoms: C3_3  and  C5_5 
REMARK    2  A    between atoms: C5_5  and  C7_7 
ROOT
HETATM    1  C1  UNL     1     -34.762  16.344  -2.193  1.00 20.00     0.029 A 
HETATM    2  C2  UNL     1     -33.589  16.936  -4.110  1.00 20.00     0.065 A 
HETATM    3  C3  UNL     1     -34.329  15.952  -3.492  1.00 20.00     0.018 A 
HETATM    4  C4  UNL     1     -34.337  17.613  -1.867  1.00 20.00    -0.021 A 
HETATM    5  C9  UNL     1     -34.580  18.374  -0.622  1.00 20.00     0.056 C 
HETATM    6  S12 UNL     1     -33.420  18.327  -3.125  1.00 20.00    -0.106 SA
ENDROOT
BRANCH   3   7
HETATM    7  C5  UNL     1     -34.616  14.665  -4.130  1.00 20.00     0.164 C 
HETATM    8  O11 UNL     1     -33.970  13.638  -3.948  1.00 20.00    -0.292 OA
BRANCH   7   9
HETATM    9  C7  UNL     1     -35.761  14.612  -5.047  1.00 20.00     0.065 A 
HETATM   10  C6  UNL     1     -35.962  13.392  -5.909  1.00 20.00     0.018 A 
HETATM   11  C8  UNL     1     -35.566  14.695  -6.541  1.00 20.00    -0.006 A 
HETATM   12  C10 UNL     1     -34.217  14.844  -7.158  1.00 20.00     0.011 C 
ENDBRANCH   7   9
ENDBRANCH   3   7
TORSDOF 2
ENDMDL
MODEL 9
REMARK VINA RESULT:      -4.3     10.945     11.689
REMARK  2 active torsions:
REMARK  status: ('A' for Active; 'I' for Inactive)
REMARK    1  A    between atoms: C3_3  and  C5_5 
REMARK    2  A    between atoms: C5_5  and  C7_7 
ROOT
HETATM    1  C1  UNL     1     -34.933  15.600  -4.775  1.00 20.00     0.029 A 
HETATM    2  C2  UNL     1     -37.175  15.265  -4.260  1.00 20.00     0.065 A 
HETATM    3  C3  UNL     1     -36.022  15.940  -3.923  1.00 20.00     0.018 A 
HETATM    4  C4  UNL     1     -35.295  14.677  -5.732  1.00 20.00    -0.021 A 
HETATM    5  C9  UNL     1     -34.458  14.078  -6.796  1.00 20.00     0.056 C 
HETATM    6  S12 UNL     1     -36.940  14.225  -5.601  1.00 20.00    -0.106 SA
ENDROOT
BRANCH   3   7
HETATM    7  C5  UNL     1     -35.964  16.891  -2.810  1.00 20.00     0.164 C 
HETATM    8  O11 UNL     1     -36.659  17.897  -2.716  1.00 20.00    -0.292 OA
BRANCH   7   9
HETATM    9  C7  UNL     1     -35.007  16.605  -1.735  1.00 20.00     0.065 A 
HETATM   10  C6  UNL     1     -34.744  17.652  -0.681  1.00 20.00     0.018 A 
HETATM   11  C8  UNL     1     -33.672  17.308  -1.675  1.00 20.00    -0.006 A 
HETATM   12  C10 UNL     1     -33.255  18.308  -2.699  1.00 20.00     0.011 C 
ENDBRANCH   7   9
ENDBRANCH   3   7
TORSDOF 2
ENDMDL
