MODEL 1
REMARK VINA RESULT:      -4.6      0.000      0.000
REMARK  1 active torsions:
REMARK  status: ('A' for Active; 'I' for Inactive)
REMARK    1  A    between atoms: C3_3  and  C4_4 
ROOT
HETATM    1  C1  UNL     1     -34.385   4.974   4.052  1.00 20.00     0.064 C 
HETATM    2  C4  UNL     1     -34.400   6.338   3.507  1.00 20.00     0.175 C 
HETATM    3  N5  UNL     1     -34.375   3.895   4.479  1.00 20.00    -0.197 NA
ENDROOT
BRANCH   2   4
HETATM    4  C3  UNL     1     -33.425   7.211   4.248  1.00 20.00     0.035 C 
HETATM    5  C2  UNL     1     -32.408   7.904   3.722  1.00 20.00     0.105 C 
HETATM    6 CL6  UNL     1     -32.020   7.982   2.056  1.00 20.00    -0.096 Cl
HETATM    7 CL7  UNL     1     -33.649   7.254   5.973  1.00 20.00    -0.087 Cl
ENDBRANCH   2   4
TORSDOF 1
ENDMDL
MODEL 2
REMARK VINA RESULT:      -4.2      0.619      2.387
REMARK  1 active torsions:
REMARK  status: ('A' for Active; 'I' for Inactive)
REMARK    1  A    between atoms: C3_3  and  C4_4 
ROOT
HETATM    1  C1  UNL     1     -34.342   4.865   3.929  1.00 20.00     0.064 C 
HETATM    2  C4  UNL     1     -34.466   6.153   3.233  1.00 20.00     0.175 C 
HETATM    3  N5  UNL     1     -34.247   3.847   4.476  1.00 20.00    -0.197 NA
ENDROOT
BRANCH   2   4
HETATM    4  C3  UNL     1     -33.347   7.076   3.628  1.00 20.00     0.035 C 
HETATM    5  C2  UNL     1     -33.105   7.569   4.849  1.00 20.00     0.105 C 
HETATM    6 CL6  UNL     1     -34.012   7.212   6.258  1.00 20.00    -0.096 Cl
HETATM    7 CL7  UNL     1     -32.311   7.569   2.320  1.00 20.00    -0.087 Cl
ENDBRANCH   2   4
TORSDOF 1
ENDMDL
MODEL 3
REMARK VINA RESULT:      -4.1      2.734      3.463
REMARK  1 active torsions:
REMARK  status: ('A' for Active; 'I' for Inactive)
REMARK    1  A    between atoms: C3_3  and  C4_4 
ROOT
HETATM    1  C1  UNL     1     -32.453   7.656   3.426  1.00 20.00     0.064 C 
HETATM    2  C4  UNL     1     -33.708   6.897   3.516  1.00 20.00     0.175 C 
HETATM    3  N5  UNL     1     -31.463   8.256   3.351  1.00 20.00    -0.197 NA
ENDROOT
BRANCH   2   4
HETATM    4  C3  UNL     1     -33.951   6.448   4.930  1.00 20.00     0.035 C 
HETATM    5  C2  UNL     1     -34.285   5.217   5.336  1.00 20.00     0.105 C 
HETATM    6 CL6  UNL     1     -34.464   3.853   4.315  1.00 20.00    -0.096 Cl
HETATM    7 CL7  UNL     1     -33.826   7.705   6.127  1.00 20.00    -0.087 Cl
ENDBRANCH   2   4
TORSDOF 1
ENDMDL
MODEL 4
REMARK VINA RESULT:      -4.1      2.824      3.987
REMARK  1 active torsions:
REMARK  status: ('A' for Active; 'I' for Inactive)
REMARK    1  A    between atoms: C3_3  and  C4_4 
ROOT
HETATM    1  C1  UNL     1     -32.350   8.472   2.072  1.00 20.00     0.064 C 
HETATM    2  C4  UNL     1     -32.175   7.664   3.287  1.00 20.00     0.175 C 
HETATM    3  N5  UNL     1     -32.484   9.111   1.114  1.00 20.00    -0.197 NA
ENDROOT
BRANCH   2   4
HETATM    4  C3  UNL     1     -33.386   6.807   3.528  1.00 20.00     0.035 C 
HETATM    5  C2  UNL     1     -34.059   6.671   4.677  1.00 20.00     0.105 C 
HETATM    6 CL6  UNL     1     -33.703   7.497   6.135  1.00 20.00    -0.096 Cl
HETATM    7 CL7  UNL     1     -33.902   5.870   2.155  1.00 20.00    -0.087 Cl
ENDBRANCH   2   4
TORSDOF 1
ENDMDL
MODEL 5
REMARK VINA RESULT:      -4.0      2.623      3.418
REMARK  1 active torsions:
REMARK  status: ('A' for Active; 'I' for Inactive)
REMARK    1  A    between atoms: C3_3  and  C4_4 
ROOT
HETATM    1  C1  UNL     1     -32.811   7.221   3.237  1.00 20.00     0.064 C 
HETATM    2  C4  UNL     1     -34.048   6.430   3.215  1.00 20.00     0.175 C 
HETATM    3  N5  UNL     1     -31.835   7.848   3.251  1.00 20.00    -0.197 NA
ENDROOT
BRANCH   2   4
HETATM    4  C3  UNL     1     -34.163   5.598   4.462  1.00 20.00     0.035 C 
HETATM    5  C2  UNL     1     -34.125   6.036   5.726  1.00 20.00     0.105 C 
HETATM    6 CL6  UNL     1     -33.981   7.675   6.202  1.00 20.00    -0.096 Cl
HETATM    7 CL7  UNL     1     -34.306   3.885   4.187  1.00 20.00    -0.087 Cl
ENDBRANCH   2   4
TORSDOF 1
ENDMDL
MODEL 6
REMARK VINA RESULT:      -3.9      1.961      2.033
REMARK  1 active torsions:
REMARK  status: ('A' for Active; 'I' for Inactive)
REMARK    1  A    between atoms: C3_3  and  C4_4 
ROOT
HETATM    1  C1  UNL     1     -34.263   6.159   5.173  1.00 20.00     0.064 C 
HETATM    2  C4  UNL     1     -33.641   7.281   4.458  1.00 20.00     0.175 C 
HETATM    3  N5  UNL     1     -34.756   5.275   5.740  1.00 20.00    -0.197 NA
ENDROOT
BRANCH   2   4
HETATM    4  C3  UNL     1     -33.072   6.819   3.146  1.00 20.00     0.035 C 
HETATM    5  C2  UNL     1     -32.435   7.568   2.238  1.00 20.00     0.105 C 
HETATM    6 CL6  UNL     1     -32.087   9.238   2.401  1.00 20.00    -0.096 Cl
HETATM    7 CL7  UNL     1     -33.336   5.136   2.788  1.00 20.00    -0.087 Cl
ENDBRANCH   2   4
TORSDOF 1
ENDMDL
MODEL 7
REMARK VINA RESULT:      -3.8      2.115      2.603
REMARK  1 active torsions:
REMARK  status: ('A' for Active; 'I' for Inactive)
REMARK    1  A    between atoms: C3_3  and  C4_4 
ROOT
HETATM    1  C1  UNL     1     -33.717   6.889   3.794  1.00 20.00     0.064 C 
HETATM    2  C4  UNL     1     -33.257   7.112   2.417  1.00 20.00     0.175 C 
HETATM    3  N5  UNL     1     -34.083   6.710   4.880  1.00 20.00    -0.197 NA
ENDROOT
BRANCH   2   4
HETATM    4  C3  UNL     1     -32.272   8.247   2.368  1.00 20.00     0.035 C 
HETATM    5  C2  UNL     1     -32.100   9.119   1.367  1.00 20.00     0.105 C 
HETATM    6 CL6  UNL     1     -33.014   9.155  -0.081  1.00 20.00    -0.096 Cl
HETATM    7 CL7  UNL     1     -31.232   8.372   3.758  1.00 20.00    -0.087 Cl
ENDBRANCH   2   4
TORSDOF 1
ENDMDL
MODEL 8
REMARK VINA RESULT:      -3.7      2.481      2.786
REMARK  1 active torsions:
REMARK  status: ('A' for Active; 'I' for Inactive)
REMARK    1  A    between atoms: C3_3  and  C4_4 
ROOT
HETATM    1  C1  UNL     1     -34.060   6.946   5.494  1.00 20.00     0.064 C 
HETATM    2  C4  UNL     1     -34.829   6.097   4.575  1.00 20.00     0.175 C 
HETATM    3  N5  UNL     1     -33.457   7.618   6.222  1.00 20.00    -0.197 NA
ENDROOT
BRANCH   2   4
HETATM    4  C3  UNL     1     -33.904   5.286   3.709  1.00 20.00     0.035 C 
HETATM    5  C2  UNL     1     -33.087   5.748   2.755  1.00 20.00     0.105 C 
HETATM    6 CL6  UNL     1     -32.881   7.397   2.341  1.00 20.00    -0.096 Cl
HETATM    7 CL7  UNL     1     -33.976   3.568   3.974  1.00 20.00    -0.087 Cl
ENDBRANCH   2   4
TORSDOF 1
ENDMDL
MODEL 9
REMARK VINA RESULT:      -3.5      2.542      3.132
REMARK  1 active torsions:
REMARK  status: ('A' for Active; 'I' for Inactive)
REMARK    1  A    between atoms: C3_3  and  C4_4 
ROOT
HETATM    1  C1  UNL     1     -32.617   7.688   3.548  1.00 20.00     0.064 C 
HETATM    2  C4  UNL     1     -34.002   7.213   3.666  1.00 20.00     0.175 C 
HETATM    3  N5  UNL     1     -31.525   8.067   3.452  1.00 20.00    -0.197 NA
ENDROOT
BRANCH   2   4
HETATM    4  C3  UNL     1     -34.038   5.853   4.307  1.00 20.00     0.035 C 
HETATM    5  C2  UNL     1     -33.679   4.691   3.747  1.00 20.00     0.105 C 
HETATM    6 CL6  UNL     1     -33.046   4.509   2.166  1.00 20.00    -0.096 Cl
HETATM    7 CL7  UNL     1     -34.669   5.827   5.928  1.00 20.00    -0.087 Cl
ENDBRANCH   2   4
TORSDOF 1
ENDMDL
