MODEL 1
REMARK VINA RESULT:      -4.8      0.000      0.000
REMARK  2 active torsions:
REMARK  status: ('A' for Active; 'I' for Inactive)
REMARK    1  A    between atoms: C2_2  and  C8_8 
REMARK    2  A    between atoms: C3_3  and  C5_5 
ROOT
HETATM    1  C1  UNL     1     -31.732   8.471   3.680  1.00 20.00     0.080 A 
HETATM    2  C2  UNL     1     -32.275   8.084   2.473  1.00 20.00     0.055 A 
HETATM    3  C3  UNL     1     -33.670   7.048   3.812  1.00 20.00     0.080 A 
HETATM    4  N9  UNL     1     -33.387   7.267   2.548  1.00 20.00    -0.248 NA
HETATM    5  S10 UNL     1     -32.641   7.794   4.966  1.00 20.00    -0.084 SA
ENDROOT
BRANCH   3   6
HETATM    6  C5  UNL     1     -34.861   6.170   4.236  1.00 20.00     0.049 A 
HETATM    7  C4  UNL     1     -34.776   5.426   5.551  1.00 20.00     0.016 A 
HETATM    8  C6  UNL     1     -34.734   4.658   4.263  1.00 20.00    -0.007 A 
HETATM    9  C7  UNL     1     -33.487   3.952   3.854  1.00 20.00     0.011 C 
ENDBRANCH   3   6
BRANCH   2  10
HETATM   10  C8  UNL     1     -31.772   8.465   1.139  1.00 20.00     0.174 C 
HETATM   11 CL11 UNL     1     -32.520   9.984   0.579  1.00 20.00    -0.124 Cl
ENDBRANCH   2  10
TORSDOF 2
ENDMDL
MODEL 2
REMARK VINA RESULT:      -4.6      2.503      4.850
REMARK  2 active torsions:
REMARK  status: ('A' for Active; 'I' for Inactive)
REMARK    1  A    between atoms: C2_2  and  C8_8 
REMARK    2  A    between atoms: C3_3  and  C5_5 
ROOT
HETATM    1  C1  UNL     1     -32.935   7.433   4.842  1.00 20.00     0.080 A 
HETATM    2  C2  UNL     1     -33.826   6.694   4.092  1.00 20.00     0.055 A 
HETATM    3  C3  UNL     1     -32.735   7.657   2.452  1.00 20.00     0.080 A 
HETATM    4  N9  UNL     1     -33.712   6.822   2.721  1.00 20.00    -0.248 NA
HETATM    5  S10 UNL     1     -31.908   8.327   3.799  1.00 20.00    -0.084 SA
ENDROOT
BRANCH   3   6
HETATM    6  C5  UNL     1     -32.350   8.016   1.006  1.00 20.00     0.049 A 
HETATM    7  C4  UNL     1     -31.142   8.898   0.778  1.00 20.00     0.016 A 
HETATM    8  C6  UNL     1     -32.512   9.436   0.494  1.00 20.00    -0.007 A 
HETATM    9  C7  UNL     1     -33.075  10.531   1.335  1.00 20.00     0.011 C 
ENDBRANCH   3   6
BRANCH   2  10
HETATM   10  C8  UNL     1     -34.868   5.797   4.630  1.00 20.00     0.174 C 
HETATM   11 CL11 UNL     1     -34.391   4.086   4.467  1.00 20.00    -0.124 Cl
ENDBRANCH   2  10
TORSDOF 2
ENDMDL
MODEL 3
REMARK VINA RESULT:      -4.6      1.366      1.833
REMARK  2 active torsions:
REMARK  status: ('A' for Active; 'I' for Inactive)
REMARK    1  A    between atoms: C2_2  and  C8_8 
REMARK    2  A    between atoms: C3_3  and  C5_5 
ROOT
HETATM    1  C1  UNL     1     -31.459   9.159   2.628  1.00 20.00     0.080 A 
HETATM    2  C2  UNL     1     -32.530   9.077   1.763  1.00 20.00     0.055 A 
HETATM    3  C3  UNL     1     -32.925   7.274   2.949  1.00 20.00     0.080 A 
HETATM    4  N9  UNL     1     -33.371   7.996   1.946  1.00 20.00    -0.248 NA
HETATM    5  S10 UNL     1     -31.498   7.837   3.719  1.00 20.00    -0.084 SA
ENDROOT
BRANCH   3   6
HETATM    6  C5  UNL     1     -33.642   5.993   3.410  1.00 20.00     0.049 A 
HETATM    7  C4  UNL     1     -35.133   6.051   3.659  1.00 20.00     0.016 A 
HETATM    8  C6  UNL     1     -34.197   5.885   4.818  1.00 20.00    -0.007 A 
HETATM    9  C7  UNL     1     -34.050   6.975   5.824  1.00 20.00     0.011 C 
ENDBRANCH   3   6
BRANCH   2  10
HETATM   10  C8  UNL     1     -32.840  10.032   0.681  1.00 20.00     0.174 C 
HETATM   11 CL11 UNL     1     -33.161   9.183  -0.854  1.00 20.00    -0.124 Cl
ENDBRANCH   2  10
TORSDOF 2
ENDMDL
MODEL 4
REMARK VINA RESULT:      -3.9      2.817      5.000
REMARK  2 active torsions:
REMARK  status: ('A' for Active; 'I' for Inactive)
REMARK    1  A    between atoms: C2_2  and  C8_8 
REMARK    2  A    between atoms: C3_3  and  C5_5 
ROOT
HETATM    1  C1  UNL     1     -33.753   5.934   3.194  1.00 20.00     0.080 A 
HETATM    2  C2  UNL     1     -33.597   6.909   4.157  1.00 20.00     0.055 A 
HETATM    3  C3  UNL     1     -32.553   7.907   2.506  1.00 20.00     0.080 A 
HETATM    4  N9  UNL     1     -32.909   8.041   3.764  1.00 20.00    -0.248 NA
HETATM    5  S10 UNL     1     -33.014   6.445   1.734  1.00 20.00    -0.084 SA
ENDROOT
BRANCH   3   6
HETATM    6  C5  UNL     1     -31.767   9.001   1.764  1.00 20.00     0.049 A 
HETATM    7  C4  UNL     1     -32.377  10.382   1.656  1.00 20.00     0.016 A 
HETATM    8  C6  UNL     1     -32.255   9.530   0.428  1.00 20.00    -0.007 A 
HETATM    9  C7  UNL     1     -33.478   9.005  -0.243  1.00 20.00     0.011 C 
ENDBRANCH   3   6
BRANCH   2  10
HETATM   10  C8  UNL     1     -34.097   6.838   5.545  1.00 20.00     0.174 C 
HETATM   11 CL11 UNL     1     -34.667   5.195   5.940  1.00 20.00    -0.124 Cl
ENDBRANCH   2  10
TORSDOF 2
ENDMDL
MODEL 5
REMARK VINA RESULT:      -3.9     11.551     12.317
REMARK  2 active torsions:
REMARK  status: ('A' for Active; 'I' for Inactive)
REMARK    1  A    between atoms: C2_2  and  C8_8 
REMARK    2  A    between atoms: C3_3  and  C5_5 
ROOT
HETATM    1  C1  UNL     1     -34.286  14.963  -5.979  1.00 20.00     0.080 A 
HETATM    2  C2  UNL     1     -35.244  14.560  -5.072  1.00 20.00     0.055 A 
HETATM    3  C3  UNL     1     -34.117  15.923  -3.776  1.00 20.00     0.080 A 
HETATM    4  N9  UNL     1     -35.148  15.109  -3.808  1.00 20.00    -0.248 NA
HETATM    5  S10 UNL     1     -33.218  16.076  -5.230  1.00 20.00    -0.084 SA
ENDROOT
BRANCH   3   6
HETATM    6  C5  UNL     1     -33.735  16.698  -2.502  1.00 20.00     0.049 A 
HETATM    7  C4  UNL     1     -34.797  16.928  -1.451  1.00 20.00     0.016 A 
HETATM    8  C6  UNL     1     -34.288  18.089  -2.251  1.00 20.00    -0.007 A 
HETATM    9  C7  UNL     1     -35.184  18.782  -3.219  1.00 20.00     0.011 C 
ENDBRANCH   3   6
BRANCH   2  10
HETATM   10  C8  UNL     1     -36.340  13.608  -5.342  1.00 20.00     0.174 C 
HETATM   11 CL11 UNL     1     -37.932  14.373  -5.096  1.00 20.00    -0.124 Cl
ENDBRANCH   2  10
TORSDOF 2
ENDMDL
MODEL 6
REMARK VINA RESULT:      -3.8     11.661     12.494
REMARK  2 active torsions:
REMARK  status: ('A' for Active; 'I' for Inactive)
REMARK    1  A    between atoms: C2_2  and  C8_8 
REMARK    2  A    between atoms: C3_3  and  C5_5 
ROOT
HETATM    1  C1  UNL     1     -33.644  16.750  -4.136  1.00 20.00     0.080 A 
HETATM    2  C2  UNL     1     -34.703  16.143  -3.495  1.00 20.00     0.055 A 
HETATM    3  C3  UNL     1     -34.594  14.840  -5.255  1.00 20.00     0.080 A 
HETATM    4  N9  UNL     1     -35.249  15.048  -4.136  1.00 20.00    -0.248 NA
HETATM    5  S10 UNL     1     -33.308  15.923  -5.601  1.00 20.00    -0.084 SA
ENDROOT
BRANCH   3   6
HETATM    6  C5  UNL     1     -34.958  13.687  -6.207  1.00 20.00     0.049 A 
HETATM    7  C4  UNL     1     -34.452  13.739  -7.632  1.00 20.00     0.016 A 
HETATM    8  C6  UNL     1     -35.917  13.913  -7.362  1.00 20.00    -0.007 A 
HETATM    9  C7  UNL     1     -36.573  15.227  -7.612  1.00 20.00     0.011 C 
ENDBRANCH   3   6
BRANCH   2  10
HETATM   10  C8  UNL     1     -35.285  16.564  -2.205  1.00 20.00     0.174 C 
HETATM   11 CL11 UNL     1     -34.045  17.283  -1.144  1.00 20.00    -0.124 Cl
ENDBRANCH   2  10
TORSDOF 2
ENDMDL
MODEL 7
REMARK VINA RESULT:      -3.6      2.601      4.845
REMARK  2 active torsions:
REMARK  status: ('A' for Active; 'I' for Inactive)
REMARK    1  A    between atoms: C2_2  and  C8_8 
REMARK    2  A    between atoms: C3_3  and  C5_5 
ROOT
HETATM    1  C1  UNL     1     -34.003   6.819   3.924  1.00 20.00     0.080 A 
HETATM    2  C2  UNL     1     -33.272   6.083   3.015  1.00 20.00     0.055 A 
HETATM    3  C3  UNL     1     -32.578   8.086   2.452  1.00 20.00     0.080 A 
HETATM    4  N9  UNL     1     -32.455   6.809   2.169  1.00 20.00    -0.248 NA
HETATM    5  S10 UNL     1     -33.659   8.487   3.724  1.00 20.00    -0.084 SA
ENDROOT
BRANCH   3   6
HETATM    6  C5  UNL     1     -31.794   9.166   1.685  1.00 20.00     0.049 A 
HETATM    7  C4  UNL     1     -32.450  10.511   1.461  1.00 20.00     0.016 A 
HETATM    8  C6  UNL     1     -32.229   9.593   0.295  1.00 20.00    -0.007 A 
HETATM    9  C7  UNL     1     -33.393   8.979  -0.405  1.00 20.00     0.011 C 
ENDBRANCH   3   6
BRANCH   2  10
HETATM   10  C8  UNL     1     -33.297   4.613   2.877  1.00 20.00     0.174 C 
HETATM   11 CL11 UNL     1     -34.150   3.854   4.246  1.00 20.00    -0.124 Cl
ENDBRANCH   2  10
TORSDOF 2
ENDMDL
MODEL 8
REMARK VINA RESULT:      -3.6     11.533     12.632
REMARK  2 active torsions:
REMARK  status: ('A' for Active; 'I' for Inactive)
REMARK    1  A    between atoms: C2_2  and  C8_8 
REMARK    2  A    between atoms: C3_3  and  C5_5 
ROOT
HETATM    1  C1  UNL     1     -37.835  14.352  -5.428  1.00 20.00     0.080 A 
HETATM    2  C2  UNL     1     -37.869  15.403  -4.535  1.00 20.00     0.055 A 
HETATM    3  C3  UNL     1     -35.751  14.869  -4.336  1.00 20.00     0.080 A 
HETATM    4  N9  UNL     1     -36.674  15.700  -3.908  1.00 20.00    -0.248 NA
HETATM    5  S10 UNL     1     -36.249  13.704  -5.494  1.00 20.00    -0.084 SA
ENDROOT
BRANCH   3   6
HETATM    6  C5  UNL     1     -34.300  14.935  -3.828  1.00 20.00     0.049 A 
HETATM    7  C4  UNL     1     -33.779  16.255  -3.302  1.00 20.00     0.016 A 
HETATM    8  C6  UNL     1     -33.249  15.715  -4.597  1.00 20.00    -0.007 A 
HETATM    9  C7  UNL     1     -33.548  16.416  -5.878  1.00 20.00     0.011 C 
ENDBRANCH   3   6
BRANCH   2  10
HETATM   10  C8  UNL     1     -39.056  16.216  -4.205  1.00 20.00     0.174 C 
HETATM   11 CL11 UNL     1     -38.608  17.918  -3.912  1.00 20.00    -0.124 Cl
ENDBRANCH   2  10
TORSDOF 2
ENDMDL
MODEL 9
REMARK VINA RESULT:      -3.5     12.037     12.550
REMARK  2 active torsions:
REMARK  status: ('A' for Active; 'I' for Inactive)
REMARK    1  A    between atoms: C2_2  and  C8_8 
REMARK    2  A    between atoms: C3_3  and  C5_5 
ROOT
HETATM    1  C1  UNL     1     -33.729  17.817  -4.830  1.00 20.00     0.080 A 
HETATM    2  C2  UNL     1     -33.486  16.547  -4.352  1.00 20.00     0.055 A 
HETATM    3  C3  UNL     1     -34.197  17.467  -2.493  1.00 20.00     0.080 A 
HETATM    4  N9  UNL     1     -33.753  16.345  -3.012  1.00 20.00    -0.248 NA
HETATM    5  S10 UNL     1     -34.320  18.807  -3.560  1.00 20.00    -0.084 SA
ENDROOT
BRANCH   3   6
HETATM    6  C5  UNL     1     -34.589  17.577  -1.009  1.00 20.00     0.049 A 
HETATM    7  C4  UNL     1     -34.841  18.951  -0.429  1.00 20.00     0.016 A 
HETATM    8  C6  UNL     1     -33.628  18.180  -0.001  1.00 20.00    -0.007 A 
HETATM    9  C7  UNL     1     -32.267  18.657  -0.377  1.00 20.00     0.011 C 
ENDBRANCH   3   6
BRANCH   2  10
HETATM   10  C8  UNL     1     -32.971  15.412  -5.144  1.00 20.00     0.174 C 
HETATM   11 CL11 UNL     1     -33.502  15.521  -6.844  1.00 20.00    -0.124 Cl
ENDBRANCH   2  10
TORSDOF 2
ENDMDL
