MODEL 1
REMARK VINA RESULT:      -6.0      0.000      0.000
REMARK  3 active torsions:
REMARK  status: ('A' for Active; 'I' for Inactive)
REMARK    1  A    between atoms: C3_3  and  C5_5 
REMARK    2  A    between atoms: C3_3  and  C9_9 
REMARK    3  A    between atoms: C8_8  and  C9_9 
ROOT
HETATM    1  C1  UNL     1     -34.502   4.397   4.534  1.00 20.00     0.012 C 
HETATM    2  C2  UNL     1     -34.274   5.527   4.200  1.00 20.00    -0.117 C 
HETATM    3  C8  UNL     1     -34.000   6.913   3.791  1.00 20.00     0.100 C 
ENDROOT
BRANCH   3   4
HETATM    4  C9  UNL     1     -33.030   6.979   2.614  1.00 20.00     0.090 C 
BRANCH   4   5
HETATM    5  C3  UNL     1     -32.042   8.133   2.696  1.00 20.00     0.132 C 
HETATM    6  O10 UNL     1     -31.371   8.370   3.699  1.00 20.00    -0.298 OA
BRANCH   5   7
HETATM    7  C5  UNL     1     -31.904   8.976   1.455  1.00 20.00     0.059 A 
HETATM    8  C4  UNL     1     -32.396  10.379   1.507  1.00 20.00     0.017 A 
HETATM    9  C6  UNL     1     -33.156   9.344   0.721  1.00 20.00    -0.007 A 
HETATM   10  C7  UNL     1     -33.140   9.373  -0.769  1.00 20.00     0.011 C 
ENDBRANCH   5   7
ENDBRANCH   4   5
ENDBRANCH   3   4
TORSDOF 3
ENDMDL
MODEL 2
REMARK VINA RESULT:      -5.8      1.292      4.884
REMARK  3 active torsions:
REMARK  status: ('A' for Active; 'I' for Inactive)
REMARK    1  A    between atoms: C3_3  and  C5_5 
REMARK    2  A    between atoms: C3_3  and  C9_9 
REMARK    3  A    between atoms: C8_8  and  C9_9 
ROOT
HETATM    1  C1  UNL     1     -32.559  10.266   0.731  1.00 20.00     0.012 C 
HETATM    2  C2  UNL     1     -32.387   9.243   1.335  1.00 20.00    -0.117 C 
HETATM    3  C8  UNL     1     -32.178   7.986   2.070  1.00 20.00     0.100 C 
ENDROOT
BRANCH   3   4
HETATM    4  C9  UNL     1     -32.021   8.224   3.570  1.00 20.00     0.090 C 
BRANCH   4   5
HETATM    5  C3  UNL     1     -32.988   7.417   4.424  1.00 20.00     0.132 C 
HETATM    6  O10 UNL     1     -33.269   7.717   5.583  1.00 20.00    -0.298 OA
BRANCH   5   7
HETATM    7  C5  UNL     1     -33.616   6.219   3.761  1.00 20.00     0.059 A 
HETATM    8  C4  UNL     1     -35.099   6.177   3.655  1.00 20.00     0.017 A 
HETATM    9  C6  UNL     1     -34.388   5.271   4.624  1.00 20.00    -0.007 A 
HETATM   10  C7  UNL     1     -34.298   3.808   4.355  1.00 20.00     0.011 C 
ENDBRANCH   5   7
ENDBRANCH   4   5
ENDBRANCH   3   4
TORSDOF 3
ENDMDL
MODEL 3
REMARK VINA RESULT:      -5.8      1.787      2.566
REMARK  3 active torsions:
REMARK  status: ('A' for Active; 'I' for Inactive)
REMARK    1  A    between atoms: C3_3  and  C5_5 
REMARK    2  A    between atoms: C3_3  and  C9_9 
REMARK    3  A    between atoms: C8_8  and  C9_9 
ROOT
HETATM    1  C1  UNL     1     -33.702   7.298   6.334  1.00 20.00     0.012 C 
HETATM    2  C2  UNL     1     -34.243   6.612   5.510  1.00 20.00    -0.117 C 
HETATM    3  C8  UNL     1     -34.906   5.768   4.504  1.00 20.00     0.100 C 
ENDROOT
BRANCH   3   4
HETATM    4  C9  UNL     1     -34.548   6.190   3.082  1.00 20.00     0.090 C 
BRANCH   4   5
HETATM    5  C3  UNL     1     -33.128   5.828   2.672  1.00 20.00     0.132 C 
HETATM    6  O10 UNL     1     -32.710   4.672   2.655  1.00 20.00    -0.298 OA
BRANCH   5   7
HETATM    7  C5  UNL     1     -32.244   6.976   2.258  1.00 20.00     0.059 A 
HETATM    8  C4  UNL     1     -31.838   7.955   3.302  1.00 20.00     0.017 A 
HETATM    9  C6  UNL     1     -32.843   8.348   2.252  1.00 20.00    -0.007 A 
HETATM   10  C7  UNL     1     -32.463   9.299   1.169  1.00 20.00     0.011 C 
ENDBRANCH   5   7
ENDBRANCH   4   5
ENDBRANCH   3   4
TORSDOF 3
ENDMDL
MODEL 4
REMARK VINA RESULT:      -5.7      0.971      4.984
REMARK  3 active torsions:
REMARK  status: ('A' for Active; 'I' for Inactive)
REMARK    1  A    between atoms: C3_3  and  C5_5 
REMARK    2  A    between atoms: C3_3  and  C9_9 
REMARK    3  A    between atoms: C8_8  and  C9_9 
ROOT
HETATM    1  C1  UNL     1     -33.001   9.840  -0.437  1.00 20.00     0.012 C 
HETATM    2  C2  UNL     1     -32.593   9.486   0.635  1.00 20.00    -0.117 C 
HETATM    3  C8  UNL     1     -32.089   9.055   1.948  1.00 20.00     0.100 C 
ENDROOT
BRANCH   3   4
HETATM    4  C9  UNL     1     -32.309   7.563   2.181  1.00 20.00     0.090 C 
BRANCH   4   5
HETATM    5  C3  UNL     1     -32.756   7.221   3.594  1.00 20.00     0.132 C 
HETATM    6  O10 UNL     1     -32.462   7.904   4.574  1.00 20.00    -0.298 OA
BRANCH   5   7
HETATM    7  C5  UNL     1     -33.613   5.990   3.739  1.00 20.00     0.059 A 
HETATM    8  C4  UNL     1     -35.080   6.135   3.540  1.00 20.00     0.017 A 
HETATM    9  C6  UNL     1     -34.526   5.913   4.923  1.00 20.00    -0.007 A 
HETATM   10  C7  UNL     1     -34.717   4.603   5.606  1.00 20.00     0.011 C 
ENDBRANCH   5   7
ENDBRANCH   4   5
ENDBRANCH   3   4
TORSDOF 3
ENDMDL
MODEL 5
REMARK VINA RESULT:      -5.6      1.337      4.998
REMARK  3 active torsions:
REMARK  status: ('A' for Active; 'I' for Inactive)
REMARK    1  A    between atoms: C3_3  and  C5_5 
REMARK    2  A    between atoms: C3_3  and  C9_9 
REMARK    3  A    between atoms: C8_8  and  C9_9 
ROOT
HETATM    1  C1  UNL     1     -33.227   9.509  -0.401  1.00 20.00     0.012 C 
HETATM    2  C2  UNL     1     -32.526   9.069   0.469  1.00 20.00    -0.117 C 
HETATM    3  C8  UNL     1     -31.666   8.526   1.531  1.00 20.00     0.100 C 
ENDROOT
BRANCH   3   4
HETATM    4  C9  UNL     1     -32.411   8.398   2.857  1.00 20.00     0.090 C 
BRANCH   4   5
HETATM    5  C3  UNL     1     -32.963   7.005   3.119  1.00 20.00     0.132 C 
HETATM    6  O10 UNL     1     -32.598   6.011   2.494  1.00 20.00    -0.298 OA
BRANCH   5   7
HETATM    7  C5  UNL     1     -33.986   6.894   4.220  1.00 20.00     0.059 A 
HETATM    8  C4  UNL     1     -33.612   7.385   5.573  1.00 20.00     0.017 A 
HETATM    9  C6  UNL     1     -33.727   5.906   5.314  1.00 20.00    -0.007 A 
HETATM   10  C7  UNL     1     -34.870   5.133   5.877  1.00 20.00     0.011 C 
ENDBRANCH   5   7
ENDBRANCH   4   5
ENDBRANCH   3   4
TORSDOF 3
ENDMDL
MODEL 6
REMARK VINA RESULT:      -5.6      1.508      1.891
REMARK  3 active torsions:
REMARK  status: ('A' for Active; 'I' for Inactive)
REMARK    1  A    between atoms: C3_3  and  C5_5 
REMARK    2  A    between atoms: C3_3  and  C9_9 
REMARK    3  A    between atoms: C8_8  and  C9_9 
ROOT
HETATM    1  C1  UNL     1     -34.744   4.664   5.862  1.00 20.00     0.012 C 
HETATM    2  C2  UNL     1     -34.320   5.760   5.615  1.00 20.00    -0.117 C 
HETATM    3  C8  UNL     1     -33.802   7.104   5.318  1.00 20.00     0.100 C 
ENDROOT
BRANCH   3   4
HETATM    4  C9  UNL     1     -33.990   7.474   3.849  1.00 20.00     0.090 C 
BRANCH   4   5
HETATM    5  C3  UNL     1     -33.038   6.753   2.907  1.00 20.00     0.132 C 
HETATM    6  O10 UNL     1     -33.047   5.533   2.750  1.00 20.00    -0.298 OA
BRANCH   5   7
HETATM    7  C5  UNL     1     -32.076   7.624   2.141  1.00 20.00     0.059 A 
HETATM    8  C4  UNL     1     -31.452   8.769   2.856  1.00 20.00     0.017 A 
HETATM    9  C6  UNL     1     -32.509   9.019   1.814  1.00 20.00    -0.007 A 
HETATM   10  C7  UNL     1     -32.139   9.601   0.494  1.00 20.00     0.011 C 
ENDBRANCH   5   7
ENDBRANCH   4   5
ENDBRANCH   3   4
TORSDOF 3
ENDMDL
MODEL 7
REMARK VINA RESULT:      -5.4      2.355      3.783
REMARK  3 active torsions:
REMARK  status: ('A' for Active; 'I' for Inactive)
REMARK    1  A    between atoms: C3_3  and  C5_5 
REMARK    2  A    between atoms: C3_3  and  C9_9 
REMARK    3  A    between atoms: C8_8  and  C9_9 
ROOT
HETATM    1  C1  UNL     1     -33.636   7.607   6.170  1.00 20.00     0.012 C 
HETATM    2  C2  UNL     1     -34.067   6.491   6.066  1.00 20.00    -0.117 C 
HETATM    3  C8  UNL     1     -34.593   5.123   5.943  1.00 20.00     0.100 C 
ENDROOT
BRANCH   3   4
HETATM    4  C9  UNL     1     -34.570   4.632   4.498  1.00 20.00     0.090 C 
BRANCH   4   5
HETATM    5  C3  UNL     1     -35.021   5.676   3.487  1.00 20.00     0.132 C 
HETATM    6  O10 UNL     1     -36.145   6.176   3.496  1.00 20.00    -0.298 OA
BRANCH   5   7
HETATM    7  C5  UNL     1     -33.996   6.095   2.465  1.00 20.00     0.059 A 
HETATM    8  C4  UNL     1     -32.677   5.407   2.478  1.00 20.00     0.017 A 
HETATM    9  C6  UNL     1     -32.788   6.832   2.953  1.00 20.00    -0.007 A 
HETATM   10  C7  UNL     1     -32.236   7.943   2.127  1.00 20.00     0.011 C 
ENDBRANCH   5   7
ENDBRANCH   4   5
ENDBRANCH   3   4
TORSDOF 3
ENDMDL
MODEL 8
REMARK VINA RESULT:      -4.9      1.494      2.768
REMARK  3 active torsions:
REMARK  status: ('A' for Active; 'I' for Inactive)
REMARK    1  A    between atoms: C3_3  and  C5_5 
REMARK    2  A    between atoms: C3_3  and  C9_9 
REMARK    3  A    between atoms: C8_8  and  C9_9 
ROOT
HETATM    1  C1  UNL     1     -33.839   3.406   3.746  1.00 20.00     0.012 C 
HETATM    2  C2  UNL     1     -34.148   4.136   4.649  1.00 20.00    -0.117 C 
HETATM    3  C8  UNL     1     -34.528   5.026   5.756  1.00 20.00     0.100 C 
ENDROOT
BRANCH   3   4
HETATM    4  C9  UNL     1     -34.871   6.430   5.266  1.00 20.00     0.090 C 
BRANCH   4   5
HETATM    5  C3  UNL     1     -33.657   7.250   4.855  1.00 20.00     0.132 C 
HETATM    6  O10 UNL     1     -32.844   7.695   5.663  1.00 20.00    -0.298 OA
BRANCH   5   7
HETATM    7  C5  UNL     1     -33.481   7.478   3.376  1.00 20.00     0.059 A 
HETATM    8  C4  UNL     1     -32.558   6.576   2.636  1.00 20.00     0.017 A 
HETATM    9  C6  UNL     1     -32.162   8.004   2.904  1.00 20.00    -0.007 A 
HETATM   10  C7  UNL     1     -32.133   8.996   1.793  1.00 20.00     0.011 C 
ENDBRANCH   5   7
ENDBRANCH   4   5
ENDBRANCH   3   4
TORSDOF 3
ENDMDL
MODEL 9
REMARK VINA RESULT:      -4.7      2.362      3.224
REMARK  3 active torsions:
REMARK  status: ('A' for Active; 'I' for Inactive)
REMARK    1  A    between atoms: C3_3  and  C5_5 
REMARK    2  A    between atoms: C3_3  and  C9_9 
REMARK    3  A    between atoms: C8_8  and  C9_9 
ROOT
HETATM    1  C1  UNL     1     -34.763   4.906   5.965  1.00 20.00     0.012 C 
HETATM    2  C2  UNL     1     -34.244   5.988   5.921  1.00 20.00    -0.117 C 
HETATM    3  C8  UNL     1     -33.609   7.314   5.871  1.00 20.00     0.100 C 
ENDROOT
BRANCH   3   4
HETATM    4  C9  UNL     1     -33.727   7.950   4.488  1.00 20.00     0.090 C 
BRANCH   4   5
HETATM    5  C3  UNL     1     -32.573   7.613   3.556  1.00 20.00     0.132 C 
HETATM    6  O10 UNL     1     -31.449   8.096   3.680  1.00 20.00    -0.298 OA
BRANCH   5   7
HETATM    7  C5  UNL     1     -32.872   6.620   2.463  1.00 20.00     0.059 A 
HETATM    8  C4  UNL     1     -34.271   6.133   2.327  1.00 20.00     0.017 A 
HETATM    9  C6  UNL     1     -33.205   5.218   2.868  1.00 20.00    -0.007 A 
HETATM   10  C7  UNL     1     -32.697   4.086   2.042  1.00 20.00     0.011 C 
ENDBRANCH   5   7
ENDBRANCH   4   5
ENDBRANCH   3   4
TORSDOF 3
ENDMDL
