MODEL 1
REMARK VINA RESULT:      -5.8      0.000      0.000
REMARK  3 active torsions:
REMARK  status: ('A' for Active; 'I' for Inactive)
REMARK    1  A    between atoms: C1_1  and  C3_3 
REMARK    2  A    between atoms: C1_1  and  C7_7 
REMARK    3  A    between atoms: C7_7  and  C8_8 
ROOT
HETATM    1  C1  UNL     1     -33.614   5.816   3.106  1.00 20.00     0.131 C 
HETATM    2  O9  UNL     1     -32.817   4.955   2.735  1.00 20.00    -0.298 OA
ENDROOT
BRANCH   1   3
HETATM    3  C3  UNL     1     -34.741   5.476   4.048  1.00 20.00     0.059 A 
HETATM    4  C2  UNL     1     -34.436   4.614   5.223  1.00 20.00     0.017 A 
HETATM    5  C4  UNL     1     -34.762   6.068   5.416  1.00 20.00    -0.007 A 
HETATM    6  C5  UNL     1     -33.720   7.005   5.921  1.00 20.00     0.011 C 
ENDBRANCH   1   3
BRANCH   1   7
HETATM    7  C7  UNL     1     -33.534   7.263   2.656  1.00 20.00     0.078 C 
BRANCH   7   8
HETATM    8  C8  UNL     1     -32.105   7.797   2.653  1.00 20.00     0.003 C 
HETATM    9  C6  UNL     1     -31.842   8.683   1.447  1.00 20.00     0.005 C 
ENDBRANCH   7   8
ENDBRANCH   1   7
TORSDOF 3
ENDMDL
MODEL 2
REMARK VINA RESULT:      -5.5      1.517      2.094
REMARK  3 active torsions:
REMARK  status: ('A' for Active; 'I' for Inactive)
REMARK    1  A    between atoms: C1_1  and  C3_3 
REMARK    2  A    between atoms: C1_1  and  C7_7 
REMARK    3  A    between atoms: C7_7  and  C8_8 
ROOT
HETATM    1  C1  UNL     1     -32.902   7.453   4.018  1.00 20.00     0.131 C 
HETATM    2  O9  UNL     1     -33.070   7.599   5.228  1.00 20.00    -0.298 OA
ENDROOT
BRANCH   1   3
HETATM    3  C3  UNL     1     -33.831   6.590   3.204  1.00 20.00     0.059 A 
HETATM    4  C2  UNL     1     -33.474   5.157   3.018  1.00 20.00     0.017 A 
HETATM    5  C4  UNL     1     -34.643   5.539   3.881  1.00 20.00    -0.007 A 
HETATM    6  C5  UNL     1     -34.601   5.287   5.348  1.00 20.00     0.011 C 
ENDBRANCH   1   3
BRANCH   1   7
HETATM    7  C7  UNL     1     -31.767   8.115   3.258  1.00 20.00     0.078 C 
BRANCH   7   8
HETATM    8  C8  UNL     1     -32.075   8.278   1.772  1.00 20.00     0.003 C 
HETATM    9  C6  UNL     1     -32.388   9.724   1.422  1.00 20.00     0.005 C 
ENDBRANCH   7   8
ENDBRANCH   1   7
TORSDOF 3
ENDMDL
MODEL 3
REMARK VINA RESULT:      -5.2      1.760      4.732
REMARK  3 active torsions:
REMARK  status: ('A' for Active; 'I' for Inactive)
REMARK    1  A    between atoms: C1_1  and  C3_3 
REMARK    2  A    between atoms: C1_1  and  C7_7 
REMARK    3  A    between atoms: C7_7  and  C8_8 
ROOT
HETATM    1  C1  UNL     1     -32.020   8.081   2.519  1.00 20.00     0.131 C 
HETATM    2  O9  UNL     1     -31.376   8.398   3.518  1.00 20.00    -0.298 OA
ENDROOT
BRANCH   1   3
HETATM    3  C3  UNL     1     -31.686   8.654   1.166  1.00 20.00     0.059 A 
HETATM    4  C2  UNL     1     -32.788   8.800   0.176  1.00 20.00     0.017 A 
HETATM    5  C4  UNL     1     -32.169  10.017   0.804  1.00 20.00    -0.007 A 
HETATM    6  C5  UNL     1     -32.973  10.874   1.720  1.00 20.00     0.011 C 
ENDBRANCH   1   3
BRANCH   1   7
HETATM    7  C7  UNL     1     -33.183   7.105   2.562  1.00 20.00     0.078 C 
BRANCH   7   8
HETATM    8  C8  UNL     1     -33.790   6.980   3.957  1.00 20.00     0.003 C 
HETATM    9  C6  UNL     1     -34.811   5.856   4.022  1.00 20.00     0.005 C 
ENDBRANCH   7   8
ENDBRANCH   1   7
TORSDOF 3
ENDMDL
MODEL 4
REMARK VINA RESULT:      -5.0      1.677      2.429
REMARK  3 active torsions:
REMARK  status: ('A' for Active; 'I' for Inactive)
REMARK    1  A    between atoms: C1_1  and  C3_3 
REMARK    2  A    between atoms: C1_1  and  C7_7 
REMARK    3  A    between atoms: C7_7  and  C8_8 
ROOT
HETATM    1  C1  UNL     1     -32.778   7.600   3.434  1.00 20.00     0.131 C 
HETATM    2  O9  UNL     1     -31.765   7.972   4.024  1.00 20.00    -0.298 OA
ENDROOT
BRANCH   1   3
HETATM    3  C3  UNL     1     -33.785   6.705   4.109  1.00 20.00     0.059 A 
HETATM    4  C2  UNL     1     -34.957   6.245   3.316  1.00 20.00     0.017 A 
HETATM    5  C4  UNL     1     -33.883   5.273   3.710  1.00 20.00    -0.007 A 
HETATM    6  C5  UNL     1     -33.021   4.650   2.666  1.00 20.00     0.011 C 
ENDBRANCH   1   3
BRANCH   1   7
HETATM    7  C7  UNL     1     -33.094   8.000   2.004  1.00 20.00     0.078 C 
BRANCH   7   8
HETATM    8  C8  UNL     1     -32.035   8.922   1.406  1.00 20.00     0.003 C 
HETATM    9  C6  UNL     1     -32.636  10.241   0.950  1.00 20.00     0.005 C 
ENDBRANCH   7   8
ENDBRANCH   1   7
TORSDOF 3
ENDMDL
MODEL 5
REMARK VINA RESULT:      -4.9      1.007      3.994
REMARK  3 active torsions:
REMARK  status: ('A' for Active; 'I' for Inactive)
REMARK    1  A    between atoms: C1_1  and  C3_3 
REMARK    2  A    between atoms: C1_1  and  C7_7 
REMARK    3  A    between atoms: C7_7  and  C8_8 
ROOT
HETATM    1  C1  UNL     1     -33.327   6.407   3.133  1.00 20.00     0.131 C 
HETATM    2  O9  UNL     1     -32.571   5.621   2.565  1.00 20.00    -0.298 OA
ENDROOT
BRANCH   1   3
HETATM    3  C3  UNL     1     -32.849   7.770   3.563  1.00 20.00     0.059 A 
HETATM    4  C2  UNL     1     -31.404   8.089   3.401  1.00 20.00     0.017 A 
HETATM    5  C4  UNL     1     -32.428   8.762   2.532  1.00 20.00    -0.007 A 
HETATM    6  C5  UNL     1     -32.460   8.488   1.068  1.00 20.00     0.011 C 
ENDBRANCH   1   3
BRANCH   1   7
HETATM    7  C7  UNL     1     -34.776   6.079   3.446  1.00 20.00     0.078 C 
BRANCH   7   8
HETATM    8  C8  UNL     1     -34.914   4.929   4.440  1.00 20.00     0.003 C 
HETATM    9  C6  UNL     1     -34.542   5.361   5.849  1.00 20.00     0.005 C 
ENDBRANCH   7   8
ENDBRANCH   1   7
TORSDOF 3
ENDMDL
MODEL 6
REMARK VINA RESULT:      -4.7      0.874      3.579
REMARK  3 active torsions:
REMARK  status: ('A' for Active; 'I' for Inactive)
REMARK    1  A    between atoms: C1_1  and  C3_3 
REMARK    2  A    between atoms: C1_1  and  C7_7 
REMARK    3  A    between atoms: C7_7  and  C8_8 
ROOT
HETATM    1  C1  UNL     1     -33.317   6.068   2.839  1.00 20.00     0.131 C 
HETATM    2  O9  UNL     1     -32.723   4.994   2.931  1.00 20.00    -0.298 OA
ENDROOT
BRANCH   1   3
HETATM    3  C3  UNL     1     -32.832   7.146   1.905  1.00 20.00     0.059 A 
HETATM    4  C2  UNL     1     -33.291   8.541   2.148  1.00 20.00     0.017 A 
HETATM    5  C4  UNL     1     -31.858   8.163   2.395  1.00 20.00    -0.007 A 
HETATM    6  C5  UNL     1     -31.312   8.176   3.781  1.00 20.00     0.011 C 
ENDBRANCH   1   3
BRANCH   1   7
HETATM    7  C7  UNL     1     -34.563   6.392   3.644  1.00 20.00     0.078 C 
BRANCH   7   8
HETATM    8  C8  UNL     1     -34.428   6.004   5.114  1.00 20.00     0.003 C 
HETATM    9  C6  UNL     1     -33.861   7.145   5.942  1.00 20.00     0.005 C 
ENDBRANCH   7   8
ENDBRANCH   1   7
TORSDOF 3
ENDMDL
MODEL 7
REMARK VINA RESULT:      -4.5      1.683      4.062
REMARK  3 active torsions:
REMARK  status: ('A' for Active; 'I' for Inactive)
REMARK    1  A    between atoms: C1_1  and  C3_3 
REMARK    2  A    between atoms: C1_1  and  C7_7 
REMARK    3  A    between atoms: C7_7  and  C8_8 
ROOT
HETATM    1  C1  UNL     1     -33.784   7.173   4.889  1.00 20.00     0.131 C 
HETATM    2  O9  UNL     1     -33.229   7.367   5.970  1.00 20.00    -0.298 OA
ENDROOT
BRANCH   1   3
HETATM    3  C3  UNL     1     -33.357   7.920   3.653  1.00 20.00     0.059 A 
HETATM    4  C2  UNL     1     -31.907   7.950   3.318  1.00 20.00     0.017 A 
HETATM    5  C4  UNL     1     -32.863   7.163   2.468  1.00 20.00    -0.007 A 
HETATM    6  C5  UNL     1     -32.771   5.676   2.423  1.00 20.00     0.011 C 
ENDBRANCH   1   3
BRANCH   1   7
HETATM    7  C7  UNL     1     -34.924   6.186   4.712  1.00 20.00     0.078 C 
BRANCH   7   8
HETATM    8  C8  UNL     1     -34.694   4.884   5.475  1.00 20.00     0.003 C 
HETATM    9  C6  UNL     1     -34.145   3.795   4.568  1.00 20.00     0.005 C 
ENDBRANCH   7   8
ENDBRANCH   1   7
TORSDOF 3
ENDMDL
MODEL 8
REMARK VINA RESULT:      -4.0     11.378     12.282
REMARK  3 active torsions:
REMARK  status: ('A' for Active; 'I' for Inactive)
REMARK    1  A    between atoms: C1_1  and  C3_3 
REMARK    2  A    between atoms: C1_1  and  C7_7 
REMARK    3  A    between atoms: C7_7  and  C8_8 
ROOT
HETATM    1  C1  UNL     1     -34.744  14.182  -4.339  1.00 20.00     0.131 C 
HETATM    2  O9  UNL     1     -33.653  13.663  -4.104  1.00 20.00    -0.298 OA
ENDROOT
BRANCH   1   3
HETATM    3  C3  UNL     1     -35.775  13.474  -5.179  1.00 20.00     0.059 A 
HETATM    4  C2  UNL     1     -36.608  14.291  -6.103  1.00 20.00     0.017 A 
HETATM    5  C4  UNL     1     -35.570  13.354  -6.651  1.00 20.00    -0.007 A 
HETATM    6  C5  UNL     1     -34.377  13.895  -7.361  1.00 20.00     0.011 C 
ENDBRANCH   1   3
BRANCH   1   7
HETATM    7  C7  UNL     1     -35.136  15.552  -3.815  1.00 20.00     0.078 C 
BRANCH   7   8
HETATM    8  C8  UNL     1     -33.965  16.290  -3.173  1.00 20.00     0.003 C 
HETATM    9  C6  UNL     1     -34.354  16.898  -1.836  1.00 20.00     0.005 C 
ENDBRANCH   7   8
ENDBRANCH   1   7
TORSDOF 3
ENDMDL
MODEL 9
REMARK VINA RESULT:      -4.0     11.668     13.098
REMARK  3 active torsions:
REMARK  status: ('A' for Active; 'I' for Inactive)
REMARK    1  A    between atoms: C1_1  and  C3_3 
REMARK    2  A    between atoms: C1_1  and  C7_7 
REMARK    3  A    between atoms: C7_7  and  C8_8 
ROOT
HETATM    1  C1  UNL     1     -35.976  13.775  -5.433  1.00 20.00     0.131 C 
HETATM    2  O9  UNL     1     -35.878  12.569  -5.205  1.00 20.00    -0.298 OA
ENDROOT
BRANCH   1   3
HETATM    3  C3  UNL     1     -36.541  14.275  -6.737  1.00 20.00     0.059 A 
HETATM    4  C2  UNL     1     -36.156  15.640  -7.189  1.00 20.00     0.017 A 
HETATM    5  C4  UNL     1     -35.643  14.430  -7.917  1.00 20.00    -0.007 A 
HETATM    6  C5  UNL     1     -34.190  14.105  -7.892  1.00 20.00     0.011 C 
ENDBRANCH   1   3
BRANCH   1   7
HETATM    7  C7  UNL     1     -35.545  14.839  -4.440  1.00 20.00     0.078 C 
BRANCH   7   8
HETATM    8  C8  UNL     1     -34.040  14.828  -4.187  1.00 20.00     0.003 C 
HETATM    9  C6  UNL     1     -33.393  16.137  -4.608  1.00 20.00     0.005 C 
ENDBRANCH   7   8
ENDBRANCH   1   7
TORSDOF 3
ENDMDL
