MODEL 1
REMARK VINA RESULT:      -4.9      0.000      0.000
REMARK  4 active torsions:
REMARK  status: ('A' for Active; 'I' for Inactive)
REMARK    1  A    between atoms: C5_5  and  C7_7 
REMARK    2  A    between atoms: C6_6  and  C7_7 
REMARK    3  A    between atoms: C6_6  and  C8_8 
REMARK    4  A    between atoms: C8_8  and  N9_9 
ROOT
HETATM    1  C1  UNL     1     -32.566   9.392   0.836  1.00 20.00     0.158 C 
HETATM    2  N9  UNL     1     -32.146   9.382   1.931  1.00 20.00    -0.271 NA
HETATM    3  S10 UNL     1     -33.133   9.440  -0.651  1.00 20.00    -0.055 SA
ENDROOT
BRANCH   2   4
HETATM    4  C8  UNL     1     -31.986   8.046   2.516  1.00 20.00     0.106 C 
HETATM    5  C4  UNL     1     -31.368   8.210   3.899  1.00 20.00     0.034 C 
BRANCH   4   6
HETATM    6  C6  UNL     1     -33.357   7.361   2.604  1.00 20.00     0.031 C 
BRANCH   6   7
HETATM    7  C7  UNL     1     -33.394   6.068   3.452  1.00 20.00    -0.017 C 
HETATM    8  C3  UNL     1     -33.069   4.826   2.613  1.00 20.00     0.010 C 
BRANCH   7   9
HETATM    9  C5  UNL     1     -34.769   5.869   4.125  1.00 20.00    -0.000 C 
HETATM   10  C2  UNL     1     -34.703   5.130   5.454  1.00 20.00     0.005 C 
ENDBRANCH   7   9
ENDBRANCH   6   7
ENDBRANCH   4   6
ENDBRANCH   2   4
TORSDOF 4
ENDMDL
MODEL 2
REMARK VINA RESULT:      -4.7      1.568      2.626
REMARK  4 active torsions:
REMARK  status: ('A' for Active; 'I' for Inactive)
REMARK    1  A    between atoms: C5_5  and  C7_7 
REMARK    2  A    between atoms: C6_6  and  C7_7 
REMARK    3  A    between atoms: C6_6  and  C8_8 
REMARK    4  A    between atoms: C8_8  and  N9_9 
ROOT
HETATM    1  C1  UNL     1     -32.479   8.082   2.126  1.00 20.00     0.158 C 
HETATM    2  N9  UNL     1     -32.465   7.109   2.780  1.00 20.00    -0.271 NA
HETATM    3  S10 UNL     1     -32.471   9.415   1.254  1.00 20.00    -0.055 SA
ENDROOT
BRANCH   2   4
HETATM    4  C8  UNL     1     -33.534   6.150   2.479  1.00 20.00     0.106 C 
HETATM    5  C4  UNL     1     -32.905   4.767   2.366  1.00 20.00     0.034 C 
BRANCH   4   6
HETATM    6  C6  UNL     1     -34.583   6.188   3.599  1.00 20.00     0.031 C 
BRANCH   6   7
HETATM    7  C7  UNL     1     -34.091   5.694   4.979  1.00 20.00    -0.017 C 
HETATM    8  C3  UNL     1     -34.824   4.423   5.425  1.00 20.00     0.010 C 
BRANCH   7   9
HETATM    9  C5  UNL     1     -34.264   6.777   6.065  1.00 20.00    -0.000 C 
HETATM   10  C2  UNL     1     -33.259   7.916   5.967  1.00 20.00     0.005 C 
ENDBRANCH   7   9
ENDBRANCH   6   7
ENDBRANCH   4   6
ENDBRANCH   2   4
TORSDOF 4
ENDMDL
MODEL 3
REMARK VINA RESULT:      -4.7      0.965      1.395
REMARK  4 active torsions:
REMARK  status: ('A' for Active; 'I' for Inactive)
REMARK    1  A    between atoms: C5_5  and  C7_7 
REMARK    2  A    between atoms: C6_6  and  C7_7 
REMARK    3  A    between atoms: C6_6  and  C8_8 
REMARK    4  A    between atoms: C8_8  and  N9_9 
ROOT
HETATM    1  C1  UNL     1     -32.964   9.077   1.055  1.00 20.00     0.158 C 
HETATM    2  N9  UNL     1     -33.030   8.764   2.184  1.00 20.00    -0.271 NA
HETATM    3  S10 UNL     1     -32.899   9.524  -0.472  1.00 20.00    -0.055 SA
ENDROOT
BRANCH   2   4
HETATM    4  C8  UNL     1     -32.059   7.744   2.596  1.00 20.00     0.106 C 
HETATM    5  C4  UNL     1     -31.142   8.365   3.644  1.00 20.00     0.034 C 
BRANCH   4   6
HETATM    6  C6  UNL     1     -32.806   6.531   3.169  1.00 20.00     0.031 C 
BRANCH   6   7
HETATM    7  C7  UNL     1     -34.051   6.868   4.021  1.00 20.00    -0.017 C 
HETATM    8  C3  UNL     1     -33.672   7.262   5.454  1.00 20.00     0.010 C 
BRANCH   7   9
HETATM    9  C5  UNL     1     -35.041   5.684   4.075  1.00 20.00    -0.000 C 
HETATM   10  C2  UNL     1     -34.674   4.619   5.098  1.00 20.00     0.005 C 
ENDBRANCH   7   9
ENDBRANCH   6   7
ENDBRANCH   4   6
ENDBRANCH   2   4
TORSDOF 4
ENDMDL
MODEL 4
REMARK VINA RESULT:      -4.5      2.935      4.935
REMARK  4 active torsions:
REMARK  status: ('A' for Active; 'I' for Inactive)
REMARK    1  A    between atoms: C5_5  and  C7_7 
REMARK    2  A    between atoms: C6_6  and  C7_7 
REMARK    3  A    between atoms: C6_6  and  C8_8 
REMARK    4  A    between atoms: C8_8  and  N9_9 
ROOT
HETATM    1  C1  UNL     1     -34.495   5.867   4.630  1.00 20.00     0.158 C 
HETATM    2  N9  UNL     1     -34.372   6.508   3.655  1.00 20.00    -0.271 NA
HETATM    3  S10 UNL     1     -34.693   5.009   5.957  1.00 20.00    -0.055 SA
ENDROOT
BRANCH   2   4
HETATM    4  C8  UNL     1     -33.089   6.336   2.964  1.00 20.00     0.106 C 
HETATM    5  C4  UNL     1     -33.001   4.890   2.492  1.00 20.00     0.034 C 
BRANCH   4   6
HETATM    6  C6  UNL     1     -33.014   7.308   1.778  1.00 20.00     0.031 C 
BRANCH   6   7
HETATM    7  C7  UNL     1     -31.893   8.369   1.867  1.00 20.00    -0.017 C 
HETATM    8  C3  UNL     1     -31.396   8.555   3.306  1.00 20.00     0.010 C 
BRANCH   7   9
HETATM    9  C5  UNL     1     -32.359   9.735   1.320  1.00 20.00    -0.000 C 
HETATM   10  C2  UNL     1     -32.943   9.671  -0.085  1.00 20.00     0.005 C 
ENDBRANCH   7   9
ENDBRANCH   6   7
ENDBRANCH   4   6
ENDBRANCH   2   4
TORSDOF 4
ENDMDL
MODEL 5
REMARK VINA RESULT:      -4.3      2.758      4.794
REMARK  4 active torsions:
REMARK  status: ('A' for Active; 'I' for Inactive)
REMARK    1  A    between atoms: C5_5  and  C7_7 
REMARK    2  A    between atoms: C6_6  and  C7_7 
REMARK    3  A    between atoms: C6_6  and  C8_8 
REMARK    4  A    between atoms: C8_8  and  N9_9 
ROOT
HETATM    1  C1  UNL     1     -33.785   5.512   3.441  1.00 20.00     0.158 C 
HETATM    2  N9  UNL     1     -33.299   6.270   2.688  1.00 20.00    -0.271 NA
HETATM    3  S10 UNL     1     -34.441   4.459   4.439  1.00 20.00    -0.055 SA
ENDROOT
BRANCH   2   4
HETATM    4  C8  UNL     1     -33.141   7.634   3.205  1.00 20.00     0.106 C 
HETATM    5  C4  UNL     1     -33.209   7.569   4.726  1.00 20.00     0.034 C 
BRANCH   4   6
HETATM    6  C6  UNL     1     -31.794   8.203   2.738  1.00 20.00     0.031 C 
BRANCH   6   7
HETATM    7  C7  UNL     1     -31.886   9.324   1.677  1.00 20.00    -0.017 C 
HETATM    8  C3  UNL     1     -33.118  10.212   1.890  1.00 20.00     0.010 C 
BRANCH   7   9
HETATM    9  C5  UNL     1     -31.928   8.749   0.245  1.00 20.00    -0.000 C 
HETATM   10  C2  UNL     1     -33.108   9.239  -0.583  1.00 20.00     0.005 C 
ENDBRANCH   7   9
ENDBRANCH   6   7
ENDBRANCH   4   6
ENDBRANCH   2   4
TORSDOF 4
ENDMDL
MODEL 6
REMARK VINA RESULT:      -4.2     10.448     11.178
REMARK  4 active torsions:
REMARK  status: ('A' for Active; 'I' for Inactive)
REMARK    1  A    between atoms: C5_5  and  C7_7 
REMARK    2  A    between atoms: C6_6  and  C7_7 
REMARK    3  A    between atoms: C6_6  and  C8_8 
REMARK    4  A    between atoms: C8_8  and  N9_9 
ROOT
HETATM    1  C1  UNL     1     -35.313  13.942  -4.794  1.00 20.00     0.158 C 
HETATM    2  N9  UNL     1     -34.328  13.858  -4.162  1.00 20.00    -0.271 NA
HETATM    3  S10 UNL     1     -36.655  14.023  -5.649  1.00 20.00    -0.055 SA
ENDROOT
BRANCH   2   4
HETATM    4  C8  UNL     1     -33.659  15.135  -3.893  1.00 20.00     0.106 C 
HETATM    5  C4  UNL     1     -33.158  15.691  -5.221  1.00 20.00     0.034 C 
BRANCH   4   6
HETATM    6  C6  UNL     1     -34.652  16.102  -3.232  1.00 20.00     0.031 C 
BRANCH   6   7
HETATM    7  C7  UNL     1     -34.178  16.720  -1.897  1.00 20.00    -0.017 C 
HETATM    8  C3  UNL     1     -35.358  17.165  -1.024  1.00 20.00     0.010 C 
BRANCH   7   9
HETATM    9  C5  UNL     1     -33.246  17.928  -2.129  1.00 20.00    -0.000 C 
HETATM   10  C2  UNL     1     -32.489  18.372  -0.885  1.00 20.00     0.005 C 
ENDBRANCH   7   9
ENDBRANCH   6   7
ENDBRANCH   4   6
ENDBRANCH   2   4
TORSDOF 4
ENDMDL
MODEL 7
REMARK VINA RESULT:      -3.8     10.568     11.254
REMARK  4 active torsions:
REMARK  status: ('A' for Active; 'I' for Inactive)
REMARK    1  A    between atoms: C5_5  and  C7_7 
REMARK    2  A    between atoms: C6_6  and  C7_7 
REMARK    3  A    between atoms: C6_6  and  C8_8 
REMARK    4  A    between atoms: C8_8  and  N9_9 
ROOT
HETATM    1  C1  UNL     1     -35.118  14.089  -5.428  1.00 20.00     0.158 C 
HETATM    2  N9  UNL     1     -33.950  14.091  -5.538  1.00 20.00    -0.271 NA
HETATM    3  S10 UNL     1     -36.704  14.057  -5.292  1.00 20.00    -0.055 SA
ENDROOT
BRANCH   2   4
HETATM    4  C8  UNL     1     -33.282  15.277  -4.991  1.00 20.00     0.106 C 
HETATM    5  C4  UNL     1     -33.788  16.495  -5.755  1.00 20.00     0.034 C 
BRANCH   4   6
HETATM    6  C6  UNL     1     -33.600  15.396  -3.493  1.00 20.00     0.031 C 
BRANCH   6   7
HETATM    7  C7  UNL     1     -34.153  16.768  -3.045  1.00 20.00    -0.017 C 
HETATM    8  C3  UNL     1     -33.158  17.520  -2.153  1.00 20.00     0.010 C 
BRANCH   7   9
HETATM    9  C5  UNL     1     -35.491  16.622  -2.288  1.00 20.00    -0.000 C 
HETATM   10  C2  UNL     1     -35.440  17.105  -0.846  1.00 20.00     0.005 C 
ENDBRANCH   7   9
ENDBRANCH   6   7
ENDBRANCH   4   6
ENDBRANCH   2   4
TORSDOF 4
ENDMDL
MODEL 8
REMARK VINA RESULT:      -3.8     10.395     11.365
REMARK  4 active torsions:
REMARK  status: ('A' for Active; 'I' for Inactive)
REMARK    1  A    between atoms: C5_5  and  C7_7 
REMARK    2  A    between atoms: C6_6  and  C7_7 
REMARK    3  A    between atoms: C6_6  and  C8_8 
REMARK    4  A    between atoms: C8_8  and  N9_9 
ROOT
HETATM    1  C1  UNL     1     -36.807  13.759  -5.311  1.00 20.00     0.158 C 
HETATM    2  N9  UNL     1     -35.832  13.111  -5.370  1.00 20.00    -0.271 NA
HETATM    3  S10 UNL     1     -38.146  14.616  -5.211  1.00 20.00    -0.055 SA
ENDROOT
BRANCH   2   4
HETATM    4  C8  UNL     1     -34.725  13.732  -6.107  1.00 20.00     0.106 C 
HETATM    5  C4  UNL     1     -35.023  13.605  -7.596  1.00 20.00     0.034 C 
BRANCH   4   6
HETATM    6  C6  UNL     1     -34.601  15.205  -5.694  1.00 20.00     0.031 C 
BRANCH   6   7
HETATM    7  C7  UNL     1     -33.636  15.481  -4.519  1.00 20.00    -0.017 C 
HETATM    8  C3  UNL     1     -32.710  14.288  -4.250  1.00 20.00     0.010 C 
BRANCH   7   9
HETATM    9  C5  UNL     1     -34.401  15.820  -3.222  1.00 20.00    -0.000 C 
HETATM   10  C2  UNL     1     -33.729  16.887  -2.370  1.00 20.00     0.005 C 
ENDBRANCH   7   9
ENDBRANCH   6   7
ENDBRANCH   4   6
ENDBRANCH   2   4
TORSDOF 4
ENDMDL
MODEL 9
REMARK VINA RESULT:      -3.7     10.303     11.480
REMARK  4 active torsions:
REMARK  status: ('A' for Active; 'I' for Inactive)
REMARK    1  A    between atoms: C5_5  and  C7_7 
REMARK    2  A    between atoms: C6_6  and  C7_7 
REMARK    3  A    between atoms: C6_6  and  C8_8 
REMARK    4  A    between atoms: C8_8  and  N9_9 
ROOT
HETATM    1  C1  UNL     1     -34.510  14.251  -6.334  1.00 20.00     0.158 C 
HETATM    2  N9  UNL     1     -34.840  13.656  -5.378  1.00 20.00    -0.271 NA
HETATM    3  S10 UNL     1     -34.080  15.038  -7.650  1.00 20.00    -0.055 SA
ENDROOT
BRANCH   2   4
HETATM    4  C8  UNL     1     -34.316  14.184  -4.113  1.00 20.00     0.106 C 
HETATM    5  C4  UNL     1     -32.800  14.272  -4.235  1.00 20.00     0.034 C 
BRANCH   4   6
HETATM    6  C6  UNL     1     -34.928  15.566  -3.845  1.00 20.00     0.031 C 
BRANCH   6   7
HETATM    7  C7  UNL     1     -34.225  16.395  -2.746  1.00 20.00    -0.017 C 
HETATM    8  C3  UNL     1     -35.188  16.778  -1.616  1.00 20.00     0.010 C 
BRANCH   7   9
HETATM    9  C5  UNL     1     -33.594  17.681  -3.321  1.00 20.00    -0.000 C 
HETATM   10  C2  UNL     1     -33.787  17.846  -4.822  1.00 20.00     0.005 C 
ENDBRANCH   7   9
ENDBRANCH   6   7
ENDBRANCH   4   6
ENDBRANCH   2   4
TORSDOF 4
ENDMDL
