MODEL 1
REMARK VINA RESULT:      -4.3      0.000      0.000
REMARK  2 active torsions:
REMARK  status: ('A' for Active; 'I' for Inactive)
REMARK    1  A    between atoms: C2_2  and  C9_9 
REMARK    2  A    between atoms: C9_9  and  N11_11 
ROOT
HETATM    1  C3  UNL     1     -34.230   6.134   5.964  1.00 20.00     0.300 C 
HETATM    2  C4  UNL     1     -33.633   7.370   5.288  1.00 20.00     0.303 C 
HETATM    3  C5  UNL     1     -34.090   6.411   3.125  1.00 20.00     0.308 C 
HETATM    4  C6  UNL     1     -34.702   5.162   3.782  1.00 20.00     0.244 C 
HETATM    5  C7  UNL     1     -33.724   3.984   3.825  1.00 20.00     0.044 C 
HETATM    6  N10 UNL     1     -35.228   5.471   5.122  1.00 20.00     0.091 N 
HETATM    7  N11 UNL     1     -33.064   7.026   3.979  1.00 20.00     0.100 N 
HETATM    8  H29 UNL     1     -35.514   4.595   5.577  1.00 20.00     0.316 HD
ENDROOT
BRANCH   7   9
HETATM    9  C9  UNL     1     -32.494   8.208   3.336  1.00 20.00     0.241 C 
HETATM   10  C8  UNL     1     -31.040   8.401   3.748  1.00 20.00     0.047 C 
BRANCH   9  11
HETATM   11  C2  UNL     1     -32.623   8.034   1.850  1.00 20.00    -0.002 C 
HETATM   12  C1  UNL     1     -32.236   8.952   0.955  1.00 20.00     0.009 C 
ENDBRANCH   9  11
ENDBRANCH   7   9
TORSDOF 2
ENDMDL
MODEL 2
REMARK VINA RESULT:      -4.2     11.511     12.463
REMARK  2 active torsions:
REMARK  status: ('A' for Active; 'I' for Inactive)
REMARK    1  A    between atoms: C2_2  and  C9_9 
REMARK    2  A    between atoms: C9_9  and  N11_11 
ROOT
HETATM    1  C3  UNL     1     -33.863  14.998  -6.780  1.00 20.00     0.300 C 
HETATM    2  C4  UNL     1     -33.289  15.858  -5.652  1.00 20.00     0.303 C 
HETATM    3  C5  UNL     1     -34.539  14.580  -4.036  1.00 20.00     0.308 C 
HETATM    4  C6  UNL     1     -35.123  13.696  -5.153  1.00 20.00     0.244 C 
HETATM    5  C7  UNL     1     -36.540  14.118  -5.551  1.00 20.00     0.044 C 
HETATM    6  N10 UNL     1     -34.228  13.656  -6.321  1.00 20.00     0.091 N 
HETATM    7  N11 UNL     1     -34.223  15.931  -4.522  1.00 20.00     0.100 N 
HETATM    8  H29 UNL     1     -34.703  13.163  -7.087  1.00 20.00     0.316 HD
ENDROOT
BRANCH   7   9
HETATM    9  C9  UNL     1     -33.673  16.753  -3.447  1.00 20.00     0.241 C 
HETATM   10  C8  UNL     1     -33.565  18.210  -3.880  1.00 20.00     0.047 C 
BRANCH   9  11
HETATM   11  C2  UNL     1     -34.563  16.603  -2.247  1.00 20.00    -0.002 C 
HETATM   12  C1  UNL     1     -34.419  17.310  -1.119  1.00 20.00     0.009 C 
ENDBRANCH   9  11
ENDBRANCH   7   9
TORSDOF 2
ENDMDL
MODEL 3
REMARK VINA RESULT:      -4.2      1.295      4.287
REMARK  2 active torsions:
REMARK  status: ('A' for Active; 'I' for Inactive)
REMARK    1  A    between atoms: C2_2  and  C9_9 
REMARK    2  A    between atoms: C9_9  and  N11_11 
ROOT
HETATM    1  C3  UNL     1     -32.004   8.684   4.404  1.00 20.00     0.300 C 
HETATM    2  C4  UNL     1     -32.866   7.432   4.583  1.00 20.00     0.303 C 
HETATM    3  C5  UNL     1     -32.706   6.980   2.221  1.00 20.00     0.308 C 
HETATM    4  C6  UNL     1     -31.830   8.229   2.018  1.00 20.00     0.244 C 
HETATM    5  C7  UNL     1     -32.629   9.423   1.486  1.00 20.00     0.044 C 
HETATM    6  N10 UNL     1     -31.106   8.577   3.251  1.00 20.00     0.091 N 
HETATM    7  N11 UNL     1     -33.622   7.139   3.360  1.00 20.00     0.100 N 
HETATM    8  H29 UNL     1     -30.634   9.479   3.116  1.00 20.00     0.316 HD
ENDROOT
BRANCH   7   9
HETATM    9  C9  UNL     1     -34.445   5.944   3.533  1.00 20.00     0.241 C 
HETATM   10  C8  UNL     1     -33.723   4.709   3.005  1.00 20.00     0.047 C 
BRANCH   9  11
HETATM   11  C2  UNL     1     -34.764   5.808   4.994  1.00 20.00    -0.002 C 
HETATM   12  C1  UNL     1     -34.637   4.667   5.682  1.00 20.00     0.009 C 
ENDBRANCH   9  11
ENDBRANCH   7   9
TORSDOF 2
ENDMDL
MODEL 4
REMARK VINA RESULT:      -3.8     11.413     12.310
REMARK  2 active torsions:
REMARK  status: ('A' for Active; 'I' for Inactive)
REMARK    1  A    between atoms: C2_2  and  C9_9 
REMARK    2  A    between atoms: C9_9  and  N11_11 
ROOT
HETATM    1  C3  UNL     1     -34.268  14.119  -4.922  1.00 20.00     0.300 C 
HETATM    2  C4  UNL     1     -34.427  15.253  -3.907  1.00 20.00     0.303 C 
HETATM    3  C5  UNL     1     -36.813  15.221  -4.240  1.00 20.00     0.308 C 
HETATM    4  C6  UNL     1     -36.679  14.075  -5.258  1.00 20.00     0.244 C 
HETATM    5  C7  UNL     1     -36.731  14.571  -6.707  1.00 20.00     0.044 C 
HETATM    6  N10 UNL     1     -35.466  13.280  -5.007  1.00 20.00     0.091 N 
HETATM    7  N11 UNL     1     -35.611  16.065  -4.211  1.00 20.00     0.100 N 
HETATM    8  H29 UNL     1     -35.344  12.609  -5.774  1.00 20.00     0.316 HD
ENDROOT
BRANCH   7   9
HETATM    9  C9  UNL     1     -35.760  17.147  -3.240  1.00 20.00     0.241 C 
HETATM   10  C8  UNL     1     -37.217  17.584  -3.138  1.00 20.00     0.047 C 
BRANCH   9  11
HETATM   11  C2  UNL     1     -35.241  16.659  -1.919  1.00 20.00    -0.002 C 
HETATM   12  C1  UNL     1     -35.429  17.304  -0.760  1.00 20.00     0.009 C 
ENDBRANCH   9  11
ENDBRANCH   7   9
TORSDOF 2
ENDMDL
MODEL 5
REMARK VINA RESULT:      -3.8      1.216      1.978
REMARK  2 active torsions:
REMARK  status: ('A' for Active; 'I' for Inactive)
REMARK    1  A    between atoms: C2_2  and  C9_9 
REMARK    2  A    between atoms: C9_9  and  N11_11 
ROOT
HETATM    1  C3  UNL     1     -33.260   4.837   2.690  1.00 20.00     0.300 C 
HETATM    2  C4  UNL     1     -32.446   6.126   2.553  1.00 20.00     0.303 C 
HETATM    3  C5  UNL     1     -33.769   7.150   4.288  1.00 20.00     0.308 C 
HETATM    4  C6  UNL     1     -34.596   5.862   4.449  1.00 20.00     0.244 C 
HETATM    5  C7  UNL     1     -35.941   5.935   3.719  1.00 20.00     0.044 C 
HETATM    6  N10 UNL     1     -33.825   4.679   4.032  1.00 20.00     0.091 N 
HETATM    7  N11 UNL     1     -33.253   7.296   2.919  1.00 20.00     0.100 N 
HETATM    8  H29 UNL     1     -34.445   3.860   4.035  1.00 20.00     0.316 HD
ENDROOT
BRANCH   7   9
HETATM    9  C9  UNL     1     -32.474   8.524   2.788  1.00 20.00     0.241 C 
HETATM   10  C8  UNL     1     -31.150   8.408   3.533  1.00 20.00     0.047 C 
BRANCH   9  11
HETATM   11  C2  UNL     1     -32.258   8.783   1.325  1.00 20.00    -0.002 C 
HETATM   12  C1  UNL     1     -32.468   9.968   0.738  1.00 20.00     0.009 C 
ENDBRANCH   9  11
ENDBRANCH   7   9
TORSDOF 2
ENDMDL
MODEL 6
REMARK VINA RESULT:      -3.8     11.747     12.748
REMARK  2 active torsions:
REMARK  status: ('A' for Active; 'I' for Inactive)
REMARK    1  A    between atoms: C2_2  and  C9_9 
REMARK    2  A    between atoms: C9_9  and  N11_11 
ROOT
HETATM    1  C3  UNL     1     -36.521  15.840  -6.993  1.00 20.00     0.300 C 
HETATM    2  C4  UNL     1     -35.177  15.757  -6.266  1.00 20.00     0.303 C 
HETATM    3  C5  UNL     1     -36.067  14.059  -4.806  1.00 20.00     0.308 C 
HETATM    4  C6  UNL     1     -37.426  14.118  -5.528  1.00 20.00     0.244 C 
HETATM    5  C7  UNL     1     -38.454  14.963  -4.769  1.00 20.00     0.044 C 
HETATM    6  N10 UNL     1     -37.270  14.583  -6.916  1.00 20.00     0.091 N 
HETATM    7  N11 UNL     1     -35.363  15.347  -4.869  1.00 20.00     0.100 N 
HETATM    8  H29 UNL     1     -38.201  14.729  -7.323  1.00 20.00     0.316 HD
ENDROOT
BRANCH   7   9
HETATM    9  C9  UNL     1     -34.078  15.269  -4.177  1.00 20.00     0.241 C 
HETATM   10  C8  UNL     1     -32.925  15.477  -5.152  1.00 20.00     0.047 C 
BRANCH   9  11
HETATM   11  C2  UNL     1     -34.072  16.307  -3.093  1.00 20.00    -0.002 C 
HETATM   12  C1  UNL     1     -35.101  16.529  -2.266  1.00 20.00     0.009 C 
ENDBRANCH   9  11
ENDBRANCH   7   9
TORSDOF 2
ENDMDL
MODEL 7
REMARK VINA RESULT:      -3.7     11.622     12.750
REMARK  2 active torsions:
REMARK  status: ('A' for Active; 'I' for Inactive)
REMARK    1  A    between atoms: C2_2  and  C9_9 
REMARK    2  A    between atoms: C9_9  and  N11_11 
ROOT
HETATM    1  C3  UNL     1     -33.376  15.093  -4.404  1.00 20.00     0.300 C 
HETATM    2  C4  UNL     1     -34.764  15.212  -3.770  1.00 20.00     0.303 C 
HETATM    3  C5  UNL     1     -35.731  14.081  -5.666  1.00 20.00     0.308 C 
HETATM    4  C6  UNL     1     -34.344  13.941  -6.319  1.00 20.00     0.244 C 
HETATM    5  C7  UNL     1     -34.093  15.005  -7.393  1.00 20.00     0.044 C 
HETATM    6  N10 UNL     1     -33.277  13.942  -5.305  1.00 20.00     0.091 N 
HETATM    7  N11 UNL     1     -35.806  15.268  -4.802  1.00 20.00     0.100 N 
HETATM    8  H29 UNL     1     -32.367  13.973  -5.781  1.00 20.00     0.316 HD
ENDROOT
BRANCH   7   9
HETATM    9  C9  UNL     1     -37.130  15.382  -4.195  1.00 20.00     0.241 C 
HETATM   10  C8  UNL     1     -37.538  16.845  -4.059  1.00 20.00     0.047 C 
BRANCH   9  11
HETATM   11  C2  UNL     1     -38.101  14.621  -5.051  1.00 20.00    -0.002 C 
HETATM   12  C1  UNL     1     -39.335  15.051  -5.341  1.00 20.00     0.009 C 
ENDBRANCH   9  11
ENDBRANCH   7   9
TORSDOF 2
ENDMDL
MODEL 8
REMARK VINA RESULT:      -3.7     10.953     12.096
REMARK  2 active torsions:
REMARK  status: ('A' for Active; 'I' for Inactive)
REMARK    1  A    between atoms: C2_2  and  C9_9 
REMARK    2  A    between atoms: C9_9  and  N11_11 
ROOT
HETATM    1  C3  UNL     1     -35.432  13.803  -4.880  1.00 20.00     0.300 C 
HETATM    2  C4  UNL     1     -35.960  15.088  -4.238  1.00 20.00     0.303 C 
HETATM    3  C5  UNL     1     -33.760  16.064  -4.375  1.00 20.00     0.308 C 
HETATM    4  C6  UNL     1     -33.208  14.784  -5.030  1.00 20.00     0.244 C 
HETATM    5  C7  UNL     1     -32.479  13.883  -4.029  1.00 20.00     0.044 C 
HETATM    6  N10 UNL     1     -34.270  14.050  -5.737  1.00 20.00     0.091 N 
HETATM    7  N11 UNL     1     -34.898  15.773  -3.491  1.00 20.00     0.100 N 
HETATM    8  H29 UNL     1     -33.896  13.147  -6.053  1.00 20.00     0.316 HD
ENDROOT
BRANCH   7   9
HETATM    9  C9  UNL     1     -35.404  17.000  -2.879  1.00 20.00     0.241 C 
HETATM   10  C8  UNL     1     -36.847  17.256  -3.294  1.00 20.00     0.047 C 
BRANCH   9  11
HETATM   11  C2  UNL     1     -35.280  16.860  -1.389  1.00 20.00    -0.002 C 
HETATM   12  C1  UNL     1     -34.489  17.630  -0.631  1.00 20.00     0.009 C 
ENDBRANCH   9  11
ENDBRANCH   7   9
TORSDOF 2
ENDMDL
MODEL 9
REMARK VINA RESULT:      -3.6     11.456     12.455
REMARK  2 active torsions:
REMARK  status: ('A' for Active; 'I' for Inactive)
REMARK    1  A    between atoms: C2_2  and  C9_9 
REMARK    2  A    between atoms: C9_9  and  N11_11 
ROOT
HETATM    1  C3  UNL     1     -35.916  16.907  -5.302  1.00 20.00     0.300 C 
HETATM    2  C4  UNL     1     -35.345  17.384  -3.965  1.00 20.00     0.303 C 
HETATM    3  C5  UNL     1     -34.012  15.382  -3.817  1.00 20.00     0.308 C 
HETATM    4  C6  UNL     1     -34.566  14.885  -5.164  1.00 20.00     0.244 C 
HETATM    5  C7  UNL     1     -35.688  13.857  -4.992  1.00 20.00     0.044 C 
HETATM    6  N10 UNL     1     -34.997  16.011  -6.008  1.00 20.00     0.091 N 
HETATM    7  N11 UNL     1     -34.976  16.243  -3.118  1.00 20.00     0.100 N 
HETATM    8  H29 UNL     1     -35.472  15.640  -6.840  1.00 20.00     0.316 HD
ENDROOT
BRANCH   7   9
HETATM    9  C9  UNL     1     -34.431  16.701  -1.841  1.00 20.00     0.241 C 
HETATM   10  C8  UNL     1     -33.302  17.700  -2.062  1.00 20.00     0.047 C 
BRANCH   9  11
HETATM   11  C2  UNL     1     -35.553  17.309  -1.050  1.00 20.00    -0.002 C 
HETATM   12  C1  UNL     1     -35.512  17.500   0.275  1.00 20.00     0.009 C 
ENDBRANCH   9  11
ENDBRANCH   7   9
TORSDOF 2
ENDMDL
