MODEL 1
REMARK VINA RESULT:      -5.7      0.000      0.000
REMARK  3 active torsions:
REMARK  status: ('A' for Active; 'I' for Inactive)
REMARK    1  A    between atoms: C1_1  and  C3_3 
REMARK    2  A    between atoms: C1_1  and  C8_8 
REMARK    3  A    between atoms: C8_8  and  C9_9 
ROOT
HETATM    1  C1  UNL     1     -32.217   8.002   3.001  1.00 20.00     0.131 C 
HETATM    2  O10 UNL     1     -31.359   8.016   3.882  1.00 20.00    -0.298 OA
ENDROOT
BRANCH   1   3
HETATM    3  C3  UNL     1     -33.624   7.552   3.295  1.00 20.00     0.059 A 
HETATM    4  C2  UNL     1     -33.858   6.749   4.527  1.00 20.00     0.017 A 
HETATM    5  C4  UNL     1     -33.979   6.110   3.173  1.00 20.00    -0.007 A 
HETATM    6  C5  UNL     1     -33.007   5.058   2.756  1.00 20.00     0.011 C 
ENDBRANCH   1   3
BRANCH   1   7
HETATM    7  C8  UNL     1     -31.926   8.388   1.558  1.00 20.00     0.082 C 
BRANCH   7   8
HETATM    8  C9  UNL     1     -32.928   9.393   0.971  1.00 20.00    -0.016 C 
HETATM    9  C6  UNL     1     -33.003   9.285  -0.554  1.00 20.00     0.010 C 
HETATM   10  C7  UNL     1     -32.536  10.818   1.368  1.00 20.00     0.010 C 
ENDBRANCH   7   8
ENDBRANCH   1   7
TORSDOF 3
ENDMDL
MODEL 2
REMARK VINA RESULT:      -5.6      1.042      4.362
REMARK  3 active torsions:
REMARK  status: ('A' for Active; 'I' for Inactive)
REMARK    1  A    between atoms: C1_1  and  C3_3 
REMARK    2  A    between atoms: C1_1  and  C8_8 
REMARK    3  A    between atoms: C8_8  and  C9_9 
ROOT
HETATM    1  C1  UNL     1     -32.459   7.970   2.845  1.00 20.00     0.131 C 
HETATM    2  O10 UNL     1     -31.462   8.191   3.530  1.00 20.00    -0.298 OA
ENDROOT
BRANCH   1   3
HETATM    3  C3  UNL     1     -32.407   8.082   1.343  1.00 20.00     0.059 A 
HETATM    4  C2  UNL     1     -31.226   8.752   0.732  1.00 20.00     0.017 A 
HETATM    5  C4  UNL     1     -32.575   9.414   0.696  1.00 20.00    -0.007 A 
HETATM    6  C5  UNL     1     -32.807  10.674   1.459  1.00 20.00     0.011 C 
ENDBRANCH   1   3
BRANCH   1   7
HETATM    7  C8  UNL     1     -33.811   7.616   3.443  1.00 20.00     0.082 C 
BRANCH   7   8
HETATM    8  C9  UNL     1     -33.742   6.545   4.542  1.00 20.00    -0.016 C 
HETATM    9  C6  UNL     1     -34.870   5.520   4.397  1.00 20.00     0.010 C 
HETATM   10  C7  UNL     1     -33.818   7.203   5.922  1.00 20.00     0.010 C 
ENDBRANCH   7   8
ENDBRANCH   1   7
TORSDOF 3
ENDMDL
MODEL 3
REMARK VINA RESULT:      -5.5      1.459      1.695
REMARK  3 active torsions:
REMARK  status: ('A' for Active; 'I' for Inactive)
REMARK    1  A    between atoms: C1_1  and  C3_3 
REMARK    2  A    between atoms: C1_1  and  C8_8 
REMARK    3  A    between atoms: C8_8  and  C9_9 
ROOT
HETATM    1  C1  UNL     1     -32.995   6.894   3.154  1.00 20.00     0.131 C 
HETATM    2  O10 UNL     1     -32.790   5.792   2.647  1.00 20.00    -0.298 OA
ENDROOT
BRANCH   1   3
HETATM    3  C3  UNL     1     -34.138   7.104   4.113  1.00 20.00     0.059 A 
HETATM    4  C2  UNL     1     -33.897   6.837   5.558  1.00 20.00     0.017 A 
HETATM    5  C4  UNL     1     -34.787   5.928   4.758  1.00 20.00    -0.007 A 
HETATM    6  C5  UNL     1     -34.374   4.519   4.500  1.00 20.00     0.011 C 
ENDBRANCH   1   3
BRANCH   1   7
HETATM    7  C8  UNL     1     -32.159   8.122   2.830  1.00 20.00     0.082 C 
BRANCH   7   8
HETATM    8  C9  UNL     1     -32.454   8.726   1.448  1.00 20.00    -0.016 C 
HETATM    9  C6  UNL     1     -31.273   8.542   0.492  1.00 20.00     0.010 C 
HETATM   10  C7  UNL     1     -32.779  10.215   1.585  1.00 20.00     0.010 C 
ENDBRANCH   7   8
ENDBRANCH   1   7
TORSDOF 3
ENDMDL
MODEL 4
REMARK VINA RESULT:      -5.4      0.798      1.881
REMARK  3 active torsions:
REMARK  status: ('A' for Active; 'I' for Inactive)
REMARK    1  A    between atoms: C1_1  and  C3_3 
REMARK    2  A    between atoms: C1_1  and  C8_8 
REMARK    3  A    between atoms: C8_8  and  C9_9 
ROOT
HETATM    1  C1  UNL     1     -32.525   7.641   2.901  1.00 20.00     0.131 C 
HETATM    2  O10 UNL     1     -31.437   8.006   3.345  1.00 20.00    -0.298 OA
ENDROOT
BRANCH   1   3
HETATM    3  C3  UNL     1     -33.121   6.318   3.305  1.00 20.00     0.059 A 
HETATM    4  C2  UNL     1     -34.603   6.220   3.405  1.00 20.00     0.017 A 
HETATM    5  C4  UNL     1     -33.756   6.172   4.645  1.00 20.00    -0.007 A 
HETATM    6  C5  UNL     1     -33.832   7.278   5.642  1.00 20.00     0.011 C 
ENDBRANCH   1   3
BRANCH   1   7
HETATM    7  C8  UNL     1     -33.322   8.455   1.894  1.00 20.00     0.082 C 
BRANCH   7   8
HETATM    8  C9  UNL     1     -32.454   9.329   0.977  1.00 20.00    -0.016 C 
HETATM    9  C6  UNL     1     -32.492  10.799   1.405  1.00 20.00     0.010 C 
HETATM   10  C7  UNL     1     -32.928   9.203  -0.472  1.00 20.00     0.010 C 
ENDBRANCH   7   8
ENDBRANCH   1   7
TORSDOF 3
ENDMDL
MODEL 5
REMARK VINA RESULT:      -5.2      1.569      2.835
REMARK  3 active torsions:
REMARK  status: ('A' for Active; 'I' for Inactive)
REMARK    1  A    between atoms: C1_1  and  C3_3 
REMARK    2  A    between atoms: C1_1  and  C8_8 
REMARK    3  A    between atoms: C8_8  and  C9_9 
ROOT
HETATM    1  C1  UNL     1     -33.292   5.660   2.988  1.00 20.00     0.131 C 
HETATM    2  O10 UNL     1     -32.358   4.950   2.619  1.00 20.00    -0.298 OA
ENDROOT
BRANCH   1   3
HETATM    3  C3  UNL     1     -34.382   5.111   3.871  1.00 20.00     0.059 A 
HETATM    4  C2  UNL     1     -35.607   5.934   4.065  1.00 20.00     0.017 A 
HETATM    5  C4  UNL     1     -34.642   5.735   5.199  1.00 20.00    -0.007 A 
HETATM    6  C5  UNL     1     -33.866   6.893   5.728  1.00 20.00     0.011 C 
ENDBRANCH   1   3
BRANCH   1   7
HETATM    7  C8  UNL     1     -33.448   7.111   2.557  1.00 20.00     0.082 C 
BRANCH   7   8
HETATM    8  C9  UNL     1     -32.116   7.816   2.261  1.00 20.00    -0.016 C 
HETATM    9  C6  UNL     1     -31.440   8.298   3.547  1.00 20.00     0.010 C 
HETATM   10  C7  UNL     1     -32.347   9.003   1.324  1.00 20.00     0.010 C 
ENDBRANCH   7   8
ENDBRANCH   1   7
TORSDOF 3
ENDMDL
MODEL 6
REMARK VINA RESULT:      -5.0      1.632      4.438
REMARK  3 active torsions:
REMARK  status: ('A' for Active; 'I' for Inactive)
REMARK    1  A    between atoms: C1_1  and  C3_3 
REMARK    2  A    between atoms: C1_1  and  C8_8 
REMARK    3  A    between atoms: C8_8  and  C9_9 
ROOT
HETATM    1  C1  UNL     1     -33.388   6.645   2.735  1.00 20.00     0.131 C 
HETATM    2  O10 UNL     1     -33.844   5.843   1.922  1.00 20.00    -0.298 OA
ENDROOT
BRANCH   1   3
HETATM    3  C3  UNL     1     -31.975   7.152   2.615  1.00 20.00     0.059 A 
HETATM    4  C2  UNL     1     -31.612   8.393   3.353  1.00 20.00     0.017 A 
HETATM    5  C4  UNL     1     -31.703   8.403   1.853  1.00 20.00    -0.007 A 
HETATM    6  C5  UNL     1     -32.765   9.201   1.176  1.00 20.00     0.011 C 
ENDBRANCH   1   3
BRANCH   1   7
HETATM    7  C8  UNL     1     -34.180   7.147   3.933  1.00 20.00     0.082 C 
BRANCH   7   8
HETATM    8  C9  UNL     1     -33.798   6.469   5.257  1.00 20.00    -0.016 C 
HETATM    9  C6  UNL     1     -34.707   5.274   5.557  1.00 20.00     0.010 C 
HETATM   10  C7  UNL     1     -33.878   7.478   6.405  1.00 20.00     0.010 C 
ENDBRANCH   7   8
ENDBRANCH   1   7
TORSDOF 3
ENDMDL
MODEL 7
REMARK VINA RESULT:      -5.0      1.568      2.318
REMARK  3 active torsions:
REMARK  status: ('A' for Active; 'I' for Inactive)
REMARK    1  A    between atoms: C1_1  and  C3_3 
REMARK    2  A    between atoms: C1_1  and  C8_8 
REMARK    3  A    between atoms: C8_8  and  C9_9 
ROOT
HETATM    1  C1  UNL     1     -33.462   6.466   3.003  1.00 20.00     0.131 C 
HETATM    2  O10 UNL     1     -32.828   5.416   2.921  1.00 20.00    -0.298 OA
ENDROOT
BRANCH   1   3
HETATM    3  C3  UNL     1     -34.416   6.708   4.144  1.00 20.00     0.059 A 
HETATM    4  C2  UNL     1     -33.883   6.623   5.531  1.00 20.00     0.017 A 
HETATM    5  C4  UNL     1     -34.826   5.572   5.017  1.00 20.00    -0.007 A 
HETATM    6  C5  UNL     1     -34.348   4.173   4.823  1.00 20.00     0.011 C 
ENDBRANCH   1   3
BRANCH   1   7
HETATM    7  C8  UNL     1     -33.374   7.569   1.960  1.00 20.00     0.082 C 
BRANCH   7   8
HETATM    8  C9  UNL     1     -32.012   8.278   1.920  1.00 20.00    -0.016 C 
HETATM    9  C6  UNL     1     -31.436   8.463   3.326  1.00 20.00     0.010 C 
HETATM   10  C7  UNL     1     -32.148   9.639   1.235  1.00 20.00     0.010 C 
ENDBRANCH   7   8
ENDBRANCH   1   7
TORSDOF 3
ENDMDL
MODEL 8
REMARK VINA RESULT:      -4.8      1.469      4.642
REMARK  3 active torsions:
REMARK  status: ('A' for Active; 'I' for Inactive)
REMARK    1  A    between atoms: C1_1  and  C3_3 
REMARK    2  A    between atoms: C1_1  and  C8_8 
REMARK    3  A    between atoms: C8_8  and  C9_9 
ROOT
HETATM    1  C1  UNL     1     -33.702   7.227   3.575  1.00 20.00     0.131 C 
HETATM    2  O10 UNL     1     -34.117   8.196   4.209  1.00 20.00    -0.298 OA
ENDROOT
BRANCH   1   3
HETATM    3  C3  UNL     1     -32.292   7.194   3.045  1.00 20.00     0.059 A 
HETATM    4  C2  UNL     1     -31.375   8.303   3.427  1.00 20.00     0.017 A 
HETATM    5  C4  UNL     1     -31.869   8.183   2.013  1.00 20.00    -0.007 A 
HETATM    6  C5  UNL     1     -32.777   9.222   1.449  1.00 20.00     0.011 C 
ENDBRANCH   1   3
BRANCH   1   7
HETATM    7  C8  UNL     1     -34.571   6.024   3.241  1.00 20.00     0.082 C 
BRANCH   7   8
HETATM    8  C9  UNL     1     -34.829   5.094   4.436  1.00 20.00    -0.016 C 
HETATM    9  C6  UNL     1     -34.494   5.781   5.762  1.00 20.00     0.010 C 
HETATM   10  C7  UNL     1     -34.001   3.815   4.294  1.00 20.00     0.010 C 
ENDBRANCH   7   8
ENDBRANCH   1   7
TORSDOF 3
ENDMDL
MODEL 9
REMARK VINA RESULT:      -4.7      1.722      4.550
REMARK  3 active torsions:
REMARK  status: ('A' for Active; 'I' for Inactive)
REMARK    1  A    between atoms: C1_1  and  C3_3 
REMARK    2  A    between atoms: C1_1  and  C8_8 
REMARK    3  A    between atoms: C8_8  and  C9_9 
ROOT
HETATM    1  C1  UNL     1     -33.144   6.100   2.851  1.00 20.00     0.131 C 
HETATM    2  O10 UNL     1     -32.983   5.081   2.181  1.00 20.00    -0.298 OA
ENDROOT
BRANCH   1   3
HETATM    3  C3  UNL     1     -31.985   7.007   3.172  1.00 20.00     0.059 A 
HETATM    4  C2  UNL     1     -32.279   8.317   3.814  1.00 20.00     0.017 A 
HETATM    5  C4  UNL     1     -31.793   8.263   2.393  1.00 20.00    -0.007 A 
HETATM    6  C5  UNL     1     -32.692   8.685   1.281  1.00 20.00     0.011 C 
ENDBRANCH   1   3
BRANCH   1   7
HETATM    7  C8  UNL     1     -34.489   6.500   3.438  1.00 20.00     0.082 C 
BRANCH   7   8
HETATM    8  C9  UNL     1     -34.877   5.707   4.695  1.00 20.00    -0.016 C 
HETATM    9  C6  UNL     1     -34.274   6.328   5.957  1.00 20.00     0.010 C 
HETATM   10  C7  UNL     1     -34.413   4.255   4.564  1.00 20.00     0.010 C 
ENDBRANCH   7   8
ENDBRANCH   1   7
TORSDOF 3
ENDMDL
