MODEL 1
REMARK VINA RESULT:      -6.4      0.000      0.000
REMARK  3 active torsions:
REMARK  status: ('A' for Active; 'I' for Inactive)
REMARK    1  A    between atoms: C1_1  and  C9_9 
REMARK    2  A    between atoms: C10_10  and  C11_11 
REMARK    3  A    between atoms: C11_11  and  N12_12 
ROOT
HETATM    1  C5  UNL     1     -34.197   6.788   5.810  1.00 20.00     0.039 C 
HETATM    2  C6  UNL     1     -35.166   5.975   3.618  1.00 20.00     0.039 C 
HETATM    3  C7  UNL     1     -32.945   7.246   5.071  1.00 20.00     0.235 C 
HETATM    4  C8  UNL     1     -33.904   6.442   2.903  1.00 20.00     0.235 C 
HETATM    5  C9  UNL     1     -34.926   5.650   5.094  1.00 20.00     0.050 C 
HETATM    6  N12 UNL     1     -33.303   7.606   3.650  1.00 20.00    -0.071 N 
HETATM    7  H33 UNL     1     -34.016   8.346   3.692  1.00 20.00     0.279 HD
ENDROOT
BRANCH   6   8
HETATM    8  C11 UNL     1     -32.129   8.191   2.915  1.00 20.00     0.239 C 
BRANCH   8   9
HETATM    9  C10 UNL     1     -32.583   8.674   1.553  1.00 20.00     0.011 C 
HETATM   10  C3  UNL     1     -31.477   8.905   0.492  1.00 20.00     0.006 C 
HETATM   11  C2  UNL     1     -32.297  10.119   0.007  1.00 20.00     0.001 C 
HETATM   12  C4  UNL     1     -32.901  10.188   1.425  1.00 20.00     0.006 C 
ENDBRANCH   8   9
ENDBRANCH   6   8
BRANCH   5  13
HETATM   13  C1  UNL     1     -34.174   4.358   5.241  1.00 20.00     0.235 C 
HETATM   14  O13 UNL     1     -34.136   3.495   4.370  1.00 20.00    -0.306 OA
ENDBRANCH   5  13
TORSDOF 3
ENDMDL
MODEL 2
REMARK VINA RESULT:      -5.0      1.235      1.918
REMARK  3 active torsions:
REMARK  status: ('A' for Active; 'I' for Inactive)
REMARK    1  A    between atoms: C1_1  and  C9_9 
REMARK    2  A    between atoms: C10_10  and  C11_11 
REMARK    3  A    between atoms: C11_11  and  N12_12 
ROOT
HETATM    1  C5  UNL     1     -33.331   5.084   3.368  1.00 20.00     0.039 C 
HETATM    2  C6  UNL     1     -33.715   6.399   5.496  1.00 20.00     0.039 C 
HETATM    3  C7  UNL     1     -32.893   6.366   2.671  1.00 20.00     0.235 C 
HETATM    4  C8  UNL     1     -33.274   7.667   4.775  1.00 20.00     0.235 C 
HETATM    5  C9  UNL     1     -34.275   5.341   4.544  1.00 20.00     0.050 C 
HETATM    6  N12 UNL     1     -32.295   7.312   3.683  1.00 20.00    -0.071 N 
HETATM    7  H33 UNL     1     -31.504   6.826   4.126  1.00 20.00     0.279 HD
ENDROOT
BRANCH   6   8
HETATM    8  C11 UNL     1     -31.727   8.539   3.027  1.00 20.00     0.239 C 
BRANCH   8   9
HETATM    9  C10 UNL     1     -32.479   8.810   1.740  1.00 20.00     0.011 C 
HETATM   10  C3  UNL     1     -31.632   8.890   0.443  1.00 20.00     0.006 C 
HETATM   11  C2  UNL     1     -32.584  10.010  -0.023  1.00 20.00     0.001 C 
HETATM   12  C4  UNL     1     -32.877  10.285   1.467  1.00 20.00     0.006 C 
ENDBRANCH   8   9
ENDBRANCH   6   8
BRANCH   5  13
HETATM   13  C1  UNL     1     -35.642   5.729   4.057  1.00 20.00     0.235 C 
HETATM   14  O13 UNL     1     -35.845   6.277   2.979  1.00 20.00    -0.306 OA
ENDBRANCH   5  13
TORSDOF 3
ENDMDL
MODEL 3
REMARK VINA RESULT:      -4.9     10.944     12.092
REMARK  3 active torsions:
REMARK  status: ('A' for Active; 'I' for Inactive)
REMARK    1  A    between atoms: C1_1  and  C9_9 
REMARK    2  A    between atoms: C10_10  and  C11_11 
REMARK    3  A    between atoms: C11_11  and  N12_12 
ROOT
HETATM    1  C5  UNL     1     -33.987  15.650  -6.510  1.00 20.00     0.039 C 
HETATM    2  C6  UNL     1     -33.375  14.277  -4.475  1.00 20.00     0.039 C 
HETATM    3  C7  UNL     1     -34.350  16.815  -5.598  1.00 20.00     0.235 C 
HETATM    4  C8  UNL     1     -33.745  15.457  -3.584  1.00 20.00     0.235 C 
HETATM    5  C9  UNL     1     -34.111  14.292  -5.816  1.00 20.00     0.050 C 
HETATM    6  N12 UNL     1     -33.523  16.745  -4.338  1.00 20.00    -0.071 N 
HETATM    7  H33 UNL     1     -32.533  16.770  -4.619  1.00 20.00     0.279 HD
ENDROOT
BRANCH   6   8
HETATM    8  C11 UNL     1     -33.746  17.946  -3.461  1.00 20.00     0.239 C 
BRANCH   8   9
HETATM    9  C10 UNL     1     -33.655  17.527  -2.008  1.00 20.00     0.011 C 
HETATM   10  C3  UNL     1     -34.827  17.951  -1.087  1.00 20.00     0.006 C 
HETATM   11  C2  UNL     1     -33.780  18.167   0.024  1.00 20.00     0.001 C 
HETATM   12  C4  UNL     1     -32.741  18.385  -1.095  1.00 20.00     0.006 C 
ENDBRANCH   8   9
ENDBRANCH   6   8
BRANCH   5  13
HETATM   13  C1  UNL     1     -35.553  13.911  -5.639  1.00 20.00     0.235 C 
HETATM   14  O13 UNL     1     -35.917  12.823  -5.209  1.00 20.00    -0.306 OA
ENDBRANCH   5  13
TORSDOF 3
ENDMDL
MODEL 4
REMARK VINA RESULT:      -4.9     11.163     12.127
REMARK  3 active torsions:
REMARK  status: ('A' for Active; 'I' for Inactive)
REMARK    1  A    between atoms: C1_1  and  C9_9 
REMARK    2  A    between atoms: C10_10  and  C11_11 
REMARK    3  A    between atoms: C11_11  and  N12_12 
ROOT
HETATM    1  C5  UNL     1     -36.173  13.962  -4.957  1.00 20.00     0.039 C 
HETATM    2  C6  UNL     1     -36.090  15.642  -6.848  1.00 20.00     0.039 C 
HETATM    3  C7  UNL     1     -34.932  14.606  -4.350  1.00 20.00     0.235 C 
HETATM    4  C8  UNL     1     -34.850  16.267  -6.221  1.00 20.00     0.235 C 
HETATM    5  C9  UNL     1     -36.270  14.171  -6.469  1.00 20.00     0.050 C 
HETATM    6  N12 UNL     1     -34.886  16.066  -4.726  1.00 20.00    -0.071 N 
HETATM    7  H33 UNL     1     -35.752  16.500  -4.378  1.00 20.00     0.279 HD
ENDROOT
BRANCH   6   8
HETATM    8  C11 UNL     1     -33.751  16.778  -4.043  1.00 20.00     0.239 C 
BRANCH   8   9
HETATM    9  C10 UNL     1     -33.885  16.607  -2.544  1.00 20.00     0.011 C 
HETATM   10  C3  UNL     1     -35.226  17.059  -1.909  1.00 20.00     0.006 C 
HETATM   11  C2  UNL     1     -34.404  17.549  -0.700  1.00 20.00     0.001 C 
HETATM   12  C4  UNL     1     -33.204  17.685  -1.659  1.00 20.00     0.006 C 
ENDBRANCH   8   9
ENDBRANCH   6   8
BRANCH   5  13
HETATM   13  C1  UNL     1     -35.275  13.308  -7.193  1.00 20.00     0.235 C 
HETATM   14  O13 UNL     1     -35.046  12.142  -6.890  1.00 20.00    -0.306 OA
ENDBRANCH   5  13
TORSDOF 3
ENDMDL
MODEL 5
REMARK VINA RESULT:      -4.6     10.987     12.084
REMARK  3 active torsions:
REMARK  status: ('A' for Active; 'I' for Inactive)
REMARK    1  A    between atoms: C1_1  and  C9_9 
REMARK    2  A    between atoms: C10_10  and  C11_11 
REMARK    3  A    between atoms: C11_11  and  N12_12 
ROOT
HETATM    1  C5  UNL     1     -35.920  15.922  -6.606  1.00 20.00     0.039 C 
HETATM    2  C6  UNL     1     -35.822  13.523  -5.805  1.00 20.00     0.039 C 
HETATM    3  C7  UNL     1     -35.185  16.358  -5.344  1.00 20.00     0.235 C 
HETATM    4  C8  UNL     1     -35.088  13.985  -4.552  1.00 20.00     0.235 C 
HETATM    5  C9  UNL     1     -36.697  14.617  -6.418  1.00 20.00     0.050 C 
HETATM    6  N12 UNL     1     -34.301  15.235  -4.862  1.00 20.00    -0.071 N 
HETATM    7  H33 UNL     1     -33.650  15.007  -5.626  1.00 20.00     0.279 HD
ENDROOT
BRANCH   6   8
HETATM    8  C11 UNL     1     -33.453  15.659  -3.695  1.00 20.00     0.239 C 
BRANCH   8   9
HETATM    9  C10 UNL     1     -34.104  16.843  -3.009  1.00 20.00     0.011 C 
HETATM   10  C3  UNL     1     -33.245  17.600  -1.964  1.00 20.00     0.006 C 
HETATM   11  C2  UNL     1     -34.537  17.781  -1.141  1.00 20.00     0.001 C 
HETATM   12  C4  UNL     1     -35.079  16.520  -1.846  1.00 20.00     0.006 C 
ENDBRANCH   8   9
ENDBRANCH   6   8
BRANCH   5  13
HETATM   13  C1  UNL     1     -37.929  14.844  -5.588  1.00 20.00     0.235 C 
HETATM   14  O13 UNL     1     -38.506  13.951  -4.978  1.00 20.00    -0.306 OA
ENDBRANCH   5  13
TORSDOF 3
ENDMDL
MODEL 6
REMARK VINA RESULT:      -4.2     11.302     12.317
REMARK  3 active torsions:
REMARK  status: ('A' for Active; 'I' for Inactive)
REMARK    1  A    between atoms: C1_1  and  C9_9 
REMARK    2  A    between atoms: C10_10  and  C11_11 
REMARK    3  A    between atoms: C11_11  and  N12_12 
ROOT
HETATM    1  C5  UNL     1     -37.502  15.254  -4.579  1.00 20.00     0.039 C 
HETATM    2  C6  UNL     1     -35.820  15.987  -6.321  1.00 20.00     0.039 C 
HETATM    3  C7  UNL     1     -36.808  16.144  -3.554  1.00 20.00     0.235 C 
HETATM    4  C8  UNL     1     -35.143  16.868  -5.278  1.00 20.00     0.235 C 
HETATM    5  C9  UNL     1     -36.569  14.805  -5.704  1.00 20.00     0.050 C 
HETATM    6  N12 UNL     1     -36.161  17.312  -4.257  1.00 20.00    -0.071 N 
HETATM    7  H33 UNL     1     -36.904  17.815  -4.762  1.00 20.00     0.279 HD
ENDROOT
BRANCH   6   8
HETATM    8  C11 UNL     1     -35.575  18.291  -3.279  1.00 20.00     0.239 C 
BRANCH   8   9
HETATM    9  C10 UNL     1     -34.291  17.721  -2.711  1.00 20.00     0.011 C 
HETATM   10  C3  UNL     1     -34.252  17.487  -1.179  1.00 20.00     0.006 C 
HETATM   11  C2  UNL     1     -32.774  17.929  -1.223  1.00 20.00     0.001 C 
HETATM   12  C4  UNL     1     -33.122  18.719  -2.501  1.00 20.00     0.006 C 
ENDBRANCH   8   9
ENDBRANCH   6   8
BRANCH   5  13
HETATM   13  C1  UNL     1     -35.606  13.759  -5.215  1.00 20.00     0.235 C 
HETATM   14  O13 UNL     1     -35.816  12.555  -5.302  1.00 20.00    -0.306 OA
ENDBRANCH   5  13
TORSDOF 3
ENDMDL
MODEL 7
REMARK VINA RESULT:      -4.2      2.349      5.368
REMARK  3 active torsions:
REMARK  status: ('A' for Active; 'I' for Inactive)
REMARK    1  A    between atoms: C1_1  and  C9_9 
REMARK    2  A    between atoms: C10_10  and  C11_11 
REMARK    3  A    between atoms: C11_11  and  N12_12 
ROOT
HETATM    1  C5  UNL     1     -32.841  10.648   1.659  1.00 20.00     0.039 C 
HETATM    2  C6  UNL     1     -31.191   9.104   0.520  1.00 20.00     0.039 C 
HETATM    3  C7  UNL     1     -33.182   9.535   2.644  1.00 20.00     0.235 C 
HETATM    4  C8  UNL     1     -31.550   8.008   1.516  1.00 20.00     0.235 C 
HETATM    5  C9  UNL     1     -32.319  10.118   0.323  1.00 20.00     0.050 C 
HETATM    6  N12 UNL     1     -31.985   8.634   2.818  1.00 20.00    -0.071 N 
HETATM    7  H33 UNL     1     -31.207   9.218   3.154  1.00 20.00     0.279 HD
ENDROOT
BRANCH   6   8
HETATM    8  C11 UNL     1     -32.223   7.596   3.880  1.00 20.00     0.239 C 
BRANCH   8   9
HETATM    9  C10 UNL     1     -33.681   7.183   3.856  1.00 20.00     0.011 C 
HETATM   10  C3  UNL     1     -34.243   6.538   5.149  1.00 20.00     0.006 C 
HETATM   11  C2  UNL     1     -35.078   5.615   4.238  1.00 20.00     0.001 C 
HETATM   12  C4  UNL     1     -34.011   5.843   3.148  1.00 20.00     0.006 C 
ENDBRANCH   8   9
ENDBRANCH   6   8
BRANCH   5  13
HETATM   13  C1  UNL     1     -33.435   9.525  -0.490  1.00 20.00     0.235 C 
HETATM   14  O13 UNL     1     -33.299   8.542  -1.209  1.00 20.00    -0.306 OA
ENDBRANCH   5  13
TORSDOF 3
ENDMDL
MODEL 8
REMARK VINA RESULT:      -4.1     11.659     12.584
REMARK  3 active torsions:
REMARK  status: ('A' for Active; 'I' for Inactive)
REMARK    1  A    between atoms: C1_1  and  C9_9 
REMARK    2  A    between atoms: C10_10  and  C11_11 
REMARK    3  A    between atoms: C11_11  and  N12_12 
ROOT
HETATM    1  C5  UNL     1     -35.628  16.583  -2.444  1.00 20.00     0.039 C 
HETATM    2  C6  UNL     1     -33.350  16.070  -3.421  1.00 20.00     0.039 C 
HETATM    3  C7  UNL     1     -36.141  16.901  -3.843  1.00 20.00     0.235 C 
HETATM    4  C8  UNL     1     -33.888  16.394  -4.809  1.00 20.00     0.235 C 
HETATM    5  C9  UNL     1     -34.118  16.783  -2.306  1.00 20.00     0.050 C 
HETATM    6  N12 UNL     1     -35.367  16.098  -4.858  1.00 20.00    -0.071 N 
HETATM    7  H33 UNL     1     -35.489  15.104  -4.622  1.00 20.00     0.279 HD
ENDROOT
BRANCH   6   8
HETATM    8  C11 UNL     1     -35.922  16.275  -6.245  1.00 20.00     0.239 C 
BRANCH   8   9
HETATM    9  C10 UNL     1     -36.053  14.919  -6.907  1.00 20.00     0.011 C 
HETATM   10  C3  UNL     1     -35.858  13.679  -5.996  1.00 20.00     0.006 C 
HETATM   11  C2  UNL     1     -35.159  13.001  -7.193  1.00 20.00     0.001 C 
HETATM   12  C4  UNL     1     -34.822  14.416  -7.707  1.00 20.00     0.006 C 
ENDBRANCH   8   9
ENDBRANCH   6   8
BRANCH   5  13
HETATM   13  C1  UNL     1     -33.773  18.246  -2.271  1.00 20.00     0.235 C 
HETATM   14  O13 UNL     1     -32.627  18.668  -2.169  1.00 20.00    -0.306 OA
ENDBRANCH   5  13
TORSDOF 3
ENDMDL
MODEL 9
REMARK VINA RESULT:      -4.0      9.695     11.339
REMARK  3 active torsions:
REMARK  status: ('A' for Active; 'I' for Inactive)
REMARK    1  A    between atoms: C1_1  and  C9_9 
REMARK    2  A    between atoms: C10_10  and  C11_11 
REMARK    3  A    between atoms: C11_11  and  N12_12 
ROOT
HETATM    1  C5  UNL     1     -42.559   6.342   0.774  1.00 20.00     0.039 C 
HETATM    2  C6  UNL     1     -40.504   5.735  -0.572  1.00 20.00     0.039 C 
HETATM    3  C7  UNL     1     -43.414   5.528  -0.190  1.00 20.00     0.235 C 
HETATM    4  C8  UNL     1     -41.380   4.928  -1.521  1.00 20.00     0.235 C 
HETATM    5  C9  UNL     1     -41.269   6.857   0.133  1.00 20.00     0.050 C 
HETATM    6  N12 UNL     1     -42.586   4.411  -0.776  1.00 20.00    -0.071 N 
HETATM    7  H33 UNL     1     -42.242   3.840   0.008  1.00 20.00     0.279 HD
ENDROOT
BRANCH   6   8
HETATM    8  C11 UNL     1     -43.417   3.497  -1.633  1.00 20.00     0.239 C 
BRANCH   8   9
HETATM    9  C10 UNL     1     -42.624   3.109  -2.864  1.00 20.00     0.011 C 
HETATM   10  C3  UNL     1     -43.245   3.480  -4.237  1.00 20.00     0.006 C 
HETATM   11  C2  UNL     1     -42.681   2.146  -4.769  1.00 20.00     0.001 C 
HETATM   12  C4  UNL     1     -42.725   1.628  -3.316  1.00 20.00     0.006 C 
ENDBRANCH   8   9
ENDBRANCH   6   8
BRANCH   5  13
HETATM   13  C1  UNL     1     -41.557   7.986  -0.815  1.00 20.00     0.235 C 
HETATM   14  O13 UNL     1     -42.677   8.239  -1.244  1.00 20.00    -0.306 OA
ENDBRANCH   5  13
TORSDOF 3
ENDMDL
