MODEL 1
REMARK VINA RESULT:      -5.9      0.000      0.000
REMARK  2 active torsions:
REMARK  status: ('A' for Active; 'I' for Inactive)
REMARK    1  A    between atoms: C3_3  and  C5_5 
REMARK    2  A    between atoms: C3_3  and  C8_8 
ROOT
HETATM    1  C1  UNL     1     -31.425   8.374   3.013  1.00 20.00     0.012 C 
HETATM    2  C2  UNL     1     -32.434   7.768   2.779  1.00 20.00    -0.110 C 
HETATM    3  C8  UNL     1     -33.671   7.033   2.491  1.00 20.00     0.171 C 
ENDROOT
BRANCH   3   4
HETATM    4  C3  UNL     1     -33.690   5.656   3.124  1.00 20.00     0.142 C 
HETATM    5  O9  UNL     1     -32.858   4.786   2.868  1.00 20.00    -0.297 OA
BRANCH   4   6
HETATM    6  C5  UNL     1     -34.774   5.402   4.080  1.00 20.00     0.060 A 
HETATM    7  C4  UNL     1     -34.499   4.572   5.309  1.00 20.00     0.017 A 
HETATM    8  C6  UNL     1     -34.769   6.043   5.447  1.00 20.00    -0.007 A 
HETATM    9  C7  UNL     1     -33.682   6.963   5.888  1.00 20.00     0.011 C 
ENDBRANCH   4   6
ENDBRANCH   3   4
TORSDOF 2
ENDMDL
MODEL 2
REMARK VINA RESULT:      -5.7      1.682      2.241
REMARK  2 active torsions:
REMARK  status: ('A' for Active; 'I' for Inactive)
REMARK    1  A    between atoms: C3_3  and  C5_5 
REMARK    2  A    between atoms: C3_3  and  C8_8 
ROOT
HETATM    1  C1  UNL     1     -32.310   8.953   1.313  1.00 20.00     0.012 C 
HETATM    2  C2  UNL     1     -32.162   8.392   2.363  1.00 20.00    -0.110 C 
HETATM    3  C8  UNL     1     -31.973   7.705   3.646  1.00 20.00     0.171 C 
ENDROOT
BRANCH   3   4
HETATM    4  C3  UNL     1     -33.287   7.355   4.317  1.00 20.00     0.142 C 
HETATM    5  O9  UNL     1     -33.596   7.751   5.440  1.00 20.00    -0.297 OA
BRANCH   4   6
HETATM    6  C5  UNL     1     -34.196   6.500   3.544  1.00 20.00     0.060 A 
HETATM    7  C4  UNL     1     -33.721   5.149   3.074  1.00 20.00     0.017 A 
HETATM    8  C6  UNL     1     -34.771   5.239   4.144  1.00 20.00    -0.007 A 
HETATM    9  C7  UNL     1     -34.459   4.808   5.535  1.00 20.00     0.011 C 
ENDBRANCH   4   6
ENDBRANCH   3   4
TORSDOF 2
ENDMDL
MODEL 3
REMARK VINA RESULT:      -5.5      2.349      4.655
REMARK  2 active torsions:
REMARK  status: ('A' for Active; 'I' for Inactive)
REMARK    1  A    between atoms: C3_3  and  C5_5 
REMARK    2  A    between atoms: C3_3  and  C8_8 
ROOT
HETATM    1  C1  UNL     1     -34.001   6.877   5.148  1.00 20.00     0.012 C 
HETATM    2  C2  UNL     1     -33.623   7.017   4.017  1.00 20.00    -0.110 C 
HETATM    3  C8  UNL     1     -33.165   7.183   2.633  1.00 20.00     0.171 C 
ENDROOT
BRANCH   3   4
HETATM    4  C3  UNL     1     -31.973   8.113   2.522  1.00 20.00     0.142 C 
HETATM    5  O9  UNL     1     -31.256   8.404   3.478  1.00 20.00    -0.297 OA
BRANCH   4   6
HETATM    6  C5  UNL     1     -31.709   8.664   1.188  1.00 20.00     0.060 A 
HETATM    7  C4  UNL     1     -32.847   8.818   0.211  1.00 20.00     0.017 A 
HETATM    8  C6  UNL     1     -32.203  10.039   0.805  1.00 20.00    -0.007 A 
HETATM    9  C7  UNL     1     -32.966  10.900   1.751  1.00 20.00     0.011 C 
ENDBRANCH   4   6
ENDBRANCH   3   4
TORSDOF 2
ENDMDL
MODEL 4
REMARK VINA RESULT:      -5.5      2.173      2.970
REMARK  2 active torsions:
REMARK  status: ('A' for Active; 'I' for Inactive)
REMARK    1  A    between atoms: C3_3  and  C5_5 
REMARK    2  A    between atoms: C3_3  and  C8_8 
ROOT
HETATM    1  C1  UNL     1     -33.101   9.366  -0.554  1.00 20.00     0.012 C 
HETATM    2  C2  UNL     1     -32.744   9.472   0.586  1.00 20.00    -0.110 C 
HETATM    3  C8  UNL     1     -32.305   9.610   1.980  1.00 20.00     0.171 C 
ENDROOT
BRANCH   3   4
HETATM    4  C3  UNL     1     -32.097   8.271   2.659  1.00 20.00     0.142 C 
HETATM    5  O9  UNL     1     -31.091   7.997   3.312  1.00 20.00    -0.297 OA
BRANCH   4   6
HETATM    6  C5  UNL     1     -33.178   7.292   2.496  1.00 20.00     0.060 A 
HETATM    7  C4  UNL     1     -32.983   5.883   2.996  1.00 20.00     0.017 A 
HETATM    8  C6  UNL     1     -33.958   6.793   3.689  1.00 20.00    -0.007 A 
HETATM    9  C7  UNL     1     -33.682   7.268   5.074  1.00 20.00     0.011 C 
ENDBRANCH   4   6
ENDBRANCH   3   4
TORSDOF 2
ENDMDL
MODEL 5
REMARK VINA RESULT:      -5.0      1.662      4.362
REMARK  2 active torsions:
REMARK  status: ('A' for Active; 'I' for Inactive)
REMARK    1  A    between atoms: C3_3  and  C5_5 
REMARK    2  A    between atoms: C3_3  and  C8_8 
ROOT
HETATM    1  C1  UNL     1     -34.670   5.605   5.396  1.00 20.00     0.012 C 
HETATM    2  C2  UNL     1     -34.025   6.525   4.976  1.00 20.00    -0.110 C 
HETATM    3  C8  UNL     1     -33.238   7.655   4.469  1.00 20.00     0.171 C 
ENDROOT
BRANCH   3   4
HETATM    4  C3  UNL     1     -32.877   7.501   3.004  1.00 20.00     0.142 C 
HETATM    5  O9  UNL     1     -33.430   6.695   2.257  1.00 20.00    -0.297 OA
BRANCH   4   6
HETATM    6  C5  UNL     1     -31.812   8.379   2.508  1.00 20.00     0.060 A 
HETATM    7  C4  UNL     1     -31.507   8.414   1.032  1.00 20.00     0.017 A 
HETATM    8  C6  UNL     1     -32.136   9.608   1.693  1.00 20.00    -0.007 A 
HETATM    9  C7  UNL     1     -33.537   9.993   1.361  1.00 20.00     0.011 C 
ENDBRANCH   4   6
ENDBRANCH   3   4
TORSDOF 2
ENDMDL
MODEL 6
REMARK VINA RESULT:      -4.9      1.043      3.900
REMARK  2 active torsions:
REMARK  status: ('A' for Active; 'I' for Inactive)
REMARK    1  A    between atoms: C3_3  and  C5_5 
REMARK    2  A    between atoms: C3_3  and  C8_8 
ROOT
HETATM    1  C1  UNL     1     -34.761   5.018   5.949  1.00 20.00     0.012 C 
HETATM    2  C2  UNL     1     -34.711   5.516   4.858  1.00 20.00    -0.110 C 
HETATM    3  C8  UNL     1     -34.658   6.123   3.523  1.00 20.00     0.171 C 
ENDROOT
BRANCH   3   4
HETATM    4  C3  UNL     1     -33.243   6.451   3.090  1.00 20.00     0.142 C 
HETATM    5  O9  UNL     1     -32.552   5.690   2.414  1.00 20.00    -0.297 OA
BRANCH   4   6
HETATM    6  C5  UNL     1     -32.721   7.751   3.527  1.00 20.00     0.060 A 
HETATM    7  C4  UNL     1     -31.275   8.093   3.273  1.00 20.00     0.017 A 
HETATM    8  C6  UNL     1     -32.356   8.818   2.522  1.00 20.00    -0.007 A 
HETATM    9  C7  UNL     1     -32.512   8.613   1.055  1.00 20.00     0.011 C 
ENDBRANCH   4   6
ENDBRANCH   3   4
TORSDOF 2
ENDMDL
MODEL 7
REMARK VINA RESULT:      -4.9      1.703      3.789
REMARK  2 active torsions:
REMARK  status: ('A' for Active; 'I' for Inactive)
REMARK    1  A    between atoms: C3_3  and  C5_5 
REMARK    2  A    between atoms: C3_3  and  C8_8 
ROOT
HETATM    1  C1  UNL     1     -34.758   4.916   5.875  1.00 20.00     0.012 C 
HETATM    2  C2  UNL     1     -34.253   6.004   5.835  1.00 20.00    -0.110 C 
HETATM    3  C8  UNL     1     -33.639   7.336   5.794  1.00 20.00     0.171 C 
ENDROOT
BRANCH   3   4
HETATM    4  C3  UNL     1     -32.976   7.629   4.463  1.00 20.00     0.142 C 
HETATM    5  O9  UNL     1     -31.807   7.996   4.360  1.00 20.00    -0.297 OA
BRANCH   4   6
HETATM    6  C5  UNL     1     -33.816   7.452   3.273  1.00 20.00     0.060 A 
HETATM    7  C4  UNL     1     -33.179   7.467   1.907  1.00 20.00     0.017 A 
HETATM    8  C6  UNL     1     -33.743   6.186   2.453  1.00 20.00    -0.007 A 
HETATM    9  C7  UNL     1     -32.833   5.062   2.809  1.00 20.00     0.011 C 
ENDBRANCH   4   6
ENDBRANCH   3   4
TORSDOF 2
ENDMDL
MODEL 8
REMARK VINA RESULT:      -4.8      2.239      4.745
REMARK  2 active torsions:
REMARK  status: ('A' for Active; 'I' for Inactive)
REMARK    1  A    between atoms: C3_3  and  C5_5 
REMARK    2  A    between atoms: C3_3  and  C8_8 
ROOT
HETATM    1  C1  UNL     1     -34.012   6.954   5.768  1.00 20.00     0.012 C 
HETATM    2  C2  UNL     1     -33.656   6.935   4.622  1.00 20.00    -0.110 C 
HETATM    3  C8  UNL     1     -33.223   6.903   3.220  1.00 20.00     0.171 C 
ENDROOT
BRANCH   3   4
HETATM    4  C3  UNL     1     -32.473   8.157   2.815  1.00 20.00     0.142 C 
HETATM    5  O9  UNL     1     -31.410   8.501   3.330  1.00 20.00    -0.297 OA
BRANCH   4   6
HETATM    6  C5  UNL     1     -33.091   8.962   1.755  1.00 20.00     0.060 A 
HETATM    7  C4  UNL     1     -32.484  10.292   1.386  1.00 20.00     0.017 A 
HETATM    8  C6  UNL     1     -32.407   9.143   0.421  1.00 20.00    -0.007 A 
HETATM    9  C7  UNL     1     -31.092   8.515   0.111  1.00 20.00     0.011 C 
ENDBRANCH   4   6
ENDBRANCH   3   4
TORSDOF 2
ENDMDL
MODEL 9
REMARK VINA RESULT:      -4.2      1.782      4.037
REMARK  2 active torsions:
REMARK  status: ('A' for Active; 'I' for Inactive)
REMARK    1  A    between atoms: C3_3  and  C5_5 
REMARK    2  A    between atoms: C3_3  and  C8_8 
ROOT
HETATM    1  C1  UNL     1     -34.488   4.242   4.554  1.00 20.00     0.012 C 
HETATM    2  C2  UNL     1     -34.455   5.422   4.336  1.00 20.00    -0.110 C 
HETATM    3  C8  UNL     1     -34.423   6.864   4.066  1.00 20.00     0.171 C 
ENDROOT
BRANCH   3   4
HETATM    4  C3  UNL     1     -33.026   7.443   4.170  1.00 20.00     0.142 C 
HETATM    5  O9  UNL     1     -32.622   8.052   5.160  1.00 20.00    -0.297 OA
BRANCH   4   6
HETATM    6  C5  UNL     1     -32.156   7.240   3.005  1.00 20.00     0.060 A 
HETATM    7  C4  UNL     1     -32.772   7.097   1.637  1.00 20.00     0.017 A 
HETATM    8  C6  UNL     1     -31.977   8.326   1.972  1.00 20.00    -0.007 A 
HETATM    9  C7  UNL     1     -32.656   9.648   2.084  1.00 20.00     0.011 C 
ENDBRANCH   4   6
ENDBRANCH   3   4
TORSDOF 2
ENDMDL
