MODEL 1
REMARK VINA RESULT:      -5.5      0.000      0.000
REMARK  2 active torsions:
REMARK  status: ('A' for Active; 'I' for Inactive)
REMARK    1  A    between atoms: C2_2  and  C9_9 
REMARK    2  A    between atoms: C9_9  and  N11_11 
ROOT
HETATM    1  C1  UNL     1     -32.496   9.084   0.935  1.00 20.00    -0.109 C 
HETATM    2  C2  UNL     1     -32.118   8.719   2.015  1.00 20.00    -0.077 C 
HETATM    3  C7  UNL     1     -32.956   9.527  -0.380  1.00 20.00     0.112 C 
ENDROOT
BRANCH   2   4
HETATM    4  C9  UNL     1     -31.651   8.280   3.334  1.00 20.00     0.365 C 
BRANCH   4   5
HETATM    5  N11 UNL     1     -32.500   7.213   3.858  1.00 20.00     0.103 N 
HETATM    6  C4  UNL     1     -33.159   7.636   5.101  1.00 20.00     0.303 C 
HETATM    7  C3  UNL     1     -34.047   6.519   5.654  1.00 20.00     0.300 C 
HETATM    8  N10 UNL     1     -35.035   6.061   4.672  1.00 20.00     0.091 N 
HETATM    9  C6  UNL     1     -34.409   5.681   3.396  1.00 20.00     0.244 C 
HETATM   10  H27 UNL     1     -35.527   5.246   5.056  1.00 20.00     0.316 HD
HETATM   11  C5  UNL     1     -33.504   6.807   2.865  1.00 20.00     0.308 C 
HETATM   12  C8  UNL     1     -33.669   4.345   3.514  1.00 20.00     0.044 C 
ENDBRANCH   4   5
ENDBRANCH   2   4
TORSDOF 2
ENDMDL
MODEL 2
REMARK VINA RESULT:      -4.8     10.846     11.733
REMARK  2 active torsions:
REMARK  status: ('A' for Active; 'I' for Inactive)
REMARK    1  A    between atoms: C2_2  and  C9_9 
REMARK    2  A    between atoms: C9_9  and  N11_11 
ROOT
HETATM    1  C1  UNL     1     -34.584  16.824  -1.933  1.00 20.00    -0.109 C 
HETATM    2  C2  UNL     1     -34.064  16.506  -2.968  1.00 20.00    -0.077 C 
HETATM    3  C7  UNL     1     -35.216  17.211  -0.672  1.00 20.00     0.112 C 
ENDROOT
BRANCH   2   4
HETATM    4  C9  UNL     1     -33.436  16.121  -4.235  1.00 20.00     0.365 C 
BRANCH   4   5
HETATM    5  N11 UNL     1     -34.370  15.373  -5.073  1.00 20.00     0.103 N 
HETATM    6  C4  UNL     1     -33.736  14.985  -6.340  1.00 20.00     0.303 C 
HETATM    7  C3  UNL     1     -34.713  14.203  -7.221  1.00 20.00     0.300 C 
HETATM    8  N10 UNL     1     -35.260  13.030  -6.534  1.00 20.00     0.091 N 
HETATM    9  C6  UNL     1     -35.855  13.380  -5.234  1.00 20.00     0.244 C 
HETATM   10  H27 UNL     1     -35.984  12.609  -7.128  1.00 20.00     0.316 HD
HETATM   11  C5  UNL     1     -34.866  14.182  -4.369  1.00 20.00     0.308 C 
HETATM   12  C8  UNL     1     -37.195  14.101  -5.411  1.00 20.00     0.044 C 
ENDBRANCH   4   5
ENDBRANCH   2   4
TORSDOF 2
ENDMDL
MODEL 3
REMARK VINA RESULT:      -4.4     11.131     11.815
REMARK  2 active torsions:
REMARK  status: ('A' for Active; 'I' for Inactive)
REMARK    1  A    between atoms: C2_2  and  C9_9 
REMARK    2  A    between atoms: C9_9  and  N11_11 
ROOT
HETATM    1  C1  UNL     1     -33.536  17.708  -1.316  1.00 20.00    -0.109 C 
HETATM    2  C2  UNL     1     -34.367  17.053  -1.885  1.00 20.00    -0.077 C 
HETATM    3  C7  UNL     1     -32.523  18.504  -0.623  1.00 20.00     0.112 C 
ENDROOT
BRANCH   2   4
HETATM    4  C9  UNL     1     -35.386  16.256  -2.573  1.00 20.00     0.365 C 
BRANCH   4   5
HETATM    5  N11 UNL     1     -34.937  15.879  -3.911  1.00 20.00     0.103 N 
HETATM    6  C4  UNL     1     -33.498  15.587  -3.914  1.00 20.00     0.303 C 
HETATM    7  C3  UNL     1     -33.025  15.194  -5.315  1.00 20.00     0.300 C 
HETATM    8  N10 UNL     1     -33.785  14.065  -5.859  1.00 20.00     0.091 N 
HETATM    9  C6  UNL     1     -35.236  14.306  -5.819  1.00 20.00     0.244 C 
HETATM   10  H27 UNL     1     -33.500  13.915  -6.834  1.00 20.00     0.316 HD
HETATM   11  C5  UNL     1     -35.691  14.720  -4.408  1.00 20.00     0.308 C 
HETATM   12  C8  UNL     1     -35.663  15.316  -6.889  1.00 20.00     0.044 C 
ENDBRANCH   4   5
ENDBRANCH   2   4
TORSDOF 2
ENDMDL
MODEL 4
REMARK VINA RESULT:      -4.2     10.509     11.534
REMARK  2 active torsions:
REMARK  status: ('A' for Active; 'I' for Inactive)
REMARK    1  A    between atoms: C2_2  and  C9_9 
REMARK    2  A    between atoms: C9_9  and  N11_11 
ROOT
HETATM    1  C1  UNL     1     -33.273  17.935  -0.967  1.00 20.00    -0.109 C 
HETATM    2  C2  UNL     1     -34.181  17.397  -1.540  1.00 20.00    -0.077 C 
HETATM    3  C7  UNL     1     -32.166  18.590  -0.270  1.00 20.00     0.112 C 
ENDROOT
BRANCH   2   4
HETATM    4  C9  UNL     1     -35.292  16.738  -2.232  1.00 20.00     0.365 C 
BRANCH   4   5
HETATM    5  N11 UNL     1     -34.799  15.727  -3.164  1.00 20.00     0.103 N 
HETATM    6  C4  UNL     1     -35.883  15.243  -4.028  1.00 20.00     0.303 C 
HETATM    7  C3  UNL     1     -35.370  14.182  -5.004  1.00 20.00     0.300 C 
HETATM    8  N10 UNL     1     -34.243  14.667  -5.806  1.00 20.00     0.091 N 
HETATM    9  C6  UNL     1     -33.162  15.209  -4.968  1.00 20.00     0.244 C 
HETATM   10  H27 UNL     1     -33.874  13.887  -6.361  1.00 20.00     0.316 HD
HETATM   11  C5  UNL     1     -33.699  16.260  -3.979  1.00 20.00     0.308 C 
HETATM   12  C8  UNL     1     -32.387  14.089  -4.266  1.00 20.00     0.044 C 
ENDBRANCH   4   5
ENDBRANCH   2   4
TORSDOF 2
ENDMDL
MODEL 5
REMARK VINA RESULT:      -4.2     11.038     12.060
REMARK  2 active torsions:
REMARK  status: ('A' for Active; 'I' for Inactive)
REMARK    1  A    between atoms: C2_2  and  C9_9 
REMARK    2  A    between atoms: C9_9  and  N11_11 
ROOT
HETATM    1  C1  UNL     1     -34.903  17.173  -1.058  1.00 20.00    -0.109 C 
HETATM    2  C2  UNL     1     -34.305  16.866  -2.054  1.00 20.00    -0.077 C 
HETATM    3  C7  UNL     1     -35.630  17.546   0.155  1.00 20.00     0.112 C 
ENDROOT
BRANCH   2   4
HETATM    4  C9  UNL     1     -33.578  16.499  -3.272  1.00 20.00     0.365 C 
BRANCH   4   5
HETATM    5  N11 UNL     1     -34.480  15.918  -4.263  1.00 20.00     0.103 N 
HETATM    6  C4  UNL     1     -34.871  16.921  -5.262  1.00 20.00     0.303 C 
HETATM    7  C3  UNL     1     -35.818  16.315  -6.301  1.00 20.00     0.300 C 
HETATM    8  N10 UNL     1     -35.245  15.131  -6.948  1.00 20.00     0.091 N 
HETATM    9  C6  UNL     1     -34.793  14.130  -5.969  1.00 20.00     0.244 C 
HETATM   10  H27 UNL     1     -35.959  14.707  -7.551  1.00 20.00     0.316 HD
HETATM   11  C5  UNL     1     -33.858  14.761  -4.921  1.00 20.00     0.308 C 
HETATM   12  C8  UNL     1     -35.980  13.403  -5.329  1.00 20.00     0.044 C 
ENDBRANCH   4   5
ENDBRANCH   2   4
TORSDOF 2
ENDMDL
MODEL 6
REMARK VINA RESULT:      -4.2     11.254     12.352
REMARK  2 active torsions:
REMARK  status: ('A' for Active; 'I' for Inactive)
REMARK    1  A    between atoms: C2_2  and  C9_9 
REMARK    2  A    between atoms: C9_9  and  N11_11 
ROOT
HETATM    1  C1  UNL     1     -35.220  16.894  -1.937  1.00 20.00    -0.109 C 
HETATM    2  C2  UNL     1     -35.860  16.466  -2.859  1.00 20.00    -0.077 C 
HETATM    3  C7  UNL     1     -34.440  17.414  -0.815  1.00 20.00     0.112 C 
ENDROOT
BRANCH   2   4
HETATM    4  C9  UNL     1     -36.638  15.948  -3.988  1.00 20.00     0.365 C 
BRANCH   4   5
HETATM    5  N11 UNL     1     -35.768  15.631  -5.118  1.00 20.00     0.103 N 
HETATM    6  C4  UNL     1     -34.945  16.791  -5.483  1.00 20.00     0.303 C 
HETATM    7  C3  UNL     1     -34.034  16.462  -6.668  1.00 20.00     0.300 C 
HETATM    8  N10 UNL     1     -33.193  15.290  -6.410  1.00 20.00     0.091 N 
HETATM    9  C6  UNL     1     -33.986  14.124  -5.989  1.00 20.00     0.244 C 
HETATM   10  H27 UNL     1     -32.685  15.053  -7.270  1.00 20.00     0.316 HD
HETATM   11  C5  UNL     1     -34.910  14.478  -4.810  1.00 20.00     0.308 C 
HETATM   12  C8  UNL     1     -34.751  13.515  -7.168  1.00 20.00     0.044 C 
ENDBRANCH   4   5
ENDBRANCH   2   4
TORSDOF 2
ENDMDL
MODEL 7
REMARK VINA RESULT:      -4.0     10.773     12.530
REMARK  2 active torsions:
REMARK  status: ('A' for Active; 'I' for Inactive)
REMARK    1  A    between atoms: C2_2  and  C9_9 
REMARK    2  A    between atoms: C9_9  and  N11_11 
ROOT
HETATM    1  C1  UNL     1     -38.848  14.911  -5.250  1.00 20.00    -0.109 C 
HETATM    2  C2  UNL     1     -37.797  14.329  -5.279  1.00 20.00    -0.077 C 
HETATM    3  C7  UNL     1     -40.128  15.618  -5.214  1.00 20.00     0.112 C 
ENDROOT
BRANCH   2   4
HETATM    4  C9  UNL     1     -36.513  13.625  -5.321  1.00 20.00     0.365 C 
BRANCH   4   5
HETATM    5  N11 UNL     1     -35.399  14.570  -5.303  1.00 20.00     0.103 N 
HETATM    6  C4  UNL     1     -34.472  14.261  -4.207  1.00 20.00     0.303 C 
HETATM    7  C3  UNL     1     -33.304  15.251  -4.186  1.00 20.00     0.300 C 
HETATM    8  N10 UNL     1     -32.596  15.298  -5.468  1.00 20.00     0.091 N 
HETATM    9  C6  UNL     1     -33.509  15.553  -6.594  1.00 20.00     0.244 C 
HETATM   10  H27 UNL     1     -31.898  16.050  -5.431  1.00 20.00     0.316 HD
HETATM   11  C5  UNL     1     -34.687  14.562  -6.589  1.00 20.00     0.308 C 
HETATM   12  C8  UNL     1     -33.975  17.012  -6.614  1.00 20.00     0.044 C 
ENDBRANCH   4   5
ENDBRANCH   2   4
TORSDOF 2
ENDMDL
MODEL 8
REMARK VINA RESULT:      -4.0      1.147      1.904
REMARK  2 active torsions:
REMARK  status: ('A' for Active; 'I' for Inactive)
REMARK    1  A    between atoms: C2_2  and  C9_9 
REMARK    2  A    between atoms: C9_9  and  N11_11 
ROOT
HETATM    1  C1  UNL     1     -32.364   9.370   0.977  1.00 20.00    -0.109 C 
HETATM    2  C2  UNL     1     -32.215   8.686   1.953  1.00 20.00    -0.077 C 
HETATM    3  C7  UNL     1     -32.545  10.203  -0.211  1.00 20.00     0.112 C 
ENDROOT
BRANCH   2   4
HETATM    4  C9  UNL     1     -32.042   7.850   3.145  1.00 20.00     0.365 C 
BRANCH   4   5
HETATM    5  N11 UNL     1     -33.064   6.808   3.204  1.00 20.00     0.103 N 
HETATM    6  C4  UNL     1     -32.475   5.487   2.955  1.00 20.00     0.303 C 
HETATM    7  C3  UNL     1     -33.544   4.393   3.014  1.00 20.00     0.300 C 
HETATM    8  N10 UNL     1     -34.276   4.404   4.284  1.00 20.00     0.091 N 
HETATM    9  C6  UNL     1     -34.834   5.732   4.588  1.00 20.00     0.244 C 
HETATM   10  H27 UNL     1     -35.045   3.727   4.227  1.00 20.00     0.316 HD
HETATM   11  C5  UNL     1     -33.749   6.822   4.504  1.00 20.00     0.308 C 
HETATM   12  C8  UNL     1     -36.044   6.044   3.703  1.00 20.00     0.044 C 
ENDBRANCH   4   5
ENDBRANCH   2   4
TORSDOF 2
ENDMDL
MODEL 9
REMARK VINA RESULT:      -3.9     11.188     12.172
REMARK  2 active torsions:
REMARK  status: ('A' for Active; 'I' for Inactive)
REMARK    1  A    between atoms: C2_2  and  C9_9 
REMARK    2  A    between atoms: C9_9  and  N11_11 
ROOT
HETATM    1  C1  UNL     1     -34.491  14.222  -6.613  1.00 20.00    -0.109 C 
HETATM    2  C2  UNL     1     -33.974  15.178  -6.101  1.00 20.00    -0.077 C 
HETATM    3  C7  UNL     1     -35.120  13.058  -7.236  1.00 20.00     0.112 C 
ENDROOT
BRANCH   2   4
HETATM    4  C9  UNL     1     -33.348  16.349  -5.481  1.00 20.00     0.365 C 
BRANCH   4   5
HETATM    5  N11 UNL     1     -34.175  16.867  -4.394  1.00 20.00     0.103 N 
HETATM    6  C4  UNL     1     -35.486  17.297  -4.898  1.00 20.00     0.303 C 
HETATM    7  C3  UNL     1     -36.354  17.842  -3.761  1.00 20.00     0.300 C 
HETATM    8  N10 UNL     1     -36.508  16.876  -2.670  1.00 20.00     0.091 N 
HETATM    9  C6  UNL     1     -35.209  16.386  -2.180  1.00 20.00     0.244 C 
HETATM   10  H27 UNL     1     -37.005  17.330  -1.895  1.00 20.00     0.316 HD
HETATM   11  C5  UNL     1     -34.342  15.859  -3.338  1.00 20.00     0.308 C 
HETATM   12  C8  UNL     1     -34.489  17.452  -1.349  1.00 20.00     0.044 C 
ENDBRANCH   4   5
ENDBRANCH   2   4
TORSDOF 2
ENDMDL
