MODEL 1
REMARK VINA RESULT:      -6.2      0.000      0.000
REMARK  3 active torsions:
REMARK  status: ('A' for Active; 'I' for Inactive)
REMARK    1  A    between atoms: C1_1  and  C3_3 
REMARK    2  A    between atoms: C1_1  and  C8_8 
REMARK    3  A    between atoms: C8_8  and  C9_9 
ROOT
HETATM    1  C1  UNL     1     -33.625   5.867   3.077  1.00 20.00     0.131 C 
HETATM    2  O10 UNL     1     -32.806   5.029   2.704  1.00 20.00    -0.298 OA
ENDROOT
BRANCH   1   3
HETATM    3  C3  UNL     1     -34.755   5.489   3.999  1.00 20.00     0.059 A 
HETATM    4  C2  UNL     1     -34.450   4.597   5.151  1.00 20.00     0.017 A 
HETATM    5  C4  UNL     1     -34.792   6.042   5.382  1.00 20.00    -0.007 A 
HETATM    6  C5  UNL     1     -33.763   6.975   5.923  1.00 20.00     0.011 C 
ENDBRANCH   1   3
BRANCH   1   7
HETATM    7  C8  UNL     1     -33.595   7.316   2.613  1.00 20.00     0.082 C 
BRANCH   7   8
HETATM    8  C9  UNL     1     -32.188   7.829   2.273  1.00 20.00    -0.016 C 
HETATM    9  C6  UNL     1     -31.442   8.294   3.526  1.00 20.00     0.010 C 
HETATM   10  C7  UNL     1     -32.279   8.981   1.269  1.00 20.00     0.010 C 
ENDBRANCH   7   8
ENDBRANCH   1   7
TORSDOF 3
ENDMDL
MODEL 2
REMARK VINA RESULT:      -5.6      1.444      2.482
REMARK  3 active torsions:
REMARK  status: ('A' for Active; 'I' for Inactive)
REMARK    1  A    between atoms: C1_1  and  C3_3 
REMARK    2  A    between atoms: C1_1  and  C8_8 
REMARK    3  A    between atoms: C8_8  and  C9_9 
ROOT
HETATM    1  C1  UNL     1     -32.514   7.640   2.918  1.00 20.00     0.131 C 
HETATM    2  O10 UNL     1     -32.154   7.797   4.083  1.00 20.00    -0.298 OA
ENDROOT
BRANCH   1   3
HETATM    3  C3  UNL     1     -33.548   6.603   2.559  1.00 20.00     0.059 A 
HETATM    4  C2  UNL     1     -33.299   5.195   2.971  1.00 20.00     0.017 A 
HETATM    5  C4  UNL     1     -34.384   5.996   3.632  1.00 20.00    -0.007 A 
HETATM    6  C5  UNL     1     -34.268   6.364   5.072  1.00 20.00     0.011 C 
ENDBRANCH   1   3
BRANCH   1   7
HETATM    7  C8  UNL     1     -31.928   8.429   1.757  1.00 20.00     0.082 C 
BRANCH   7   8
HETATM    8  C9  UNL     1     -32.921   9.402   1.104  1.00 20.00    -0.016 C 
HETATM    9  C6  UNL     1     -32.942   9.244  -0.418  1.00 20.00     0.010 C 
HETATM   10  C7  UNL     1     -32.557  10.844   1.469  1.00 20.00     0.010 C 
ENDBRANCH   7   8
ENDBRANCH   1   7
TORSDOF 3
ENDMDL
MODEL 3
REMARK VINA RESULT:      -5.6      1.637      4.673
REMARK  3 active torsions:
REMARK  status: ('A' for Active; 'I' for Inactive)
REMARK    1  A    between atoms: C1_1  and  C3_3 
REMARK    2  A    between atoms: C1_1  and  C8_8 
REMARK    3  A    between atoms: C8_8  and  C9_9 
ROOT
HETATM    1  C1  UNL     1     -32.130   8.093   2.401  1.00 20.00     0.131 C 
HETATM    2  O10 UNL     1     -31.404   8.222   3.385  1.00 20.00    -0.298 OA
ENDROOT
BRANCH   1   3
HETATM    3  C3  UNL     1     -31.756   8.706   1.076  1.00 20.00     0.059 A 
HETATM    4  C2  UNL     1     -32.841   8.954   0.088  1.00 20.00     0.017 A 
HETATM    5  C4  UNL     1     -32.162  10.107   0.773  1.00 20.00    -0.007 A 
HETATM    6  C5  UNL     1     -32.925  10.965   1.723  1.00 20.00     0.011 C 
ENDBRANCH   1   3
BRANCH   1   7
HETATM    7  C8  UNL     1     -33.461   7.356   2.445  1.00 20.00     0.082 C 
BRANCH   7   8
HETATM    8  C9  UNL     1     -33.459   6.129   3.368  1.00 20.00    -0.016 C 
HETATM    9  C6  UNL     1     -33.024   4.866   2.620  1.00 20.00     0.010 C 
HETATM   10  C7  UNL     1     -34.854   5.921   3.964  1.00 20.00     0.010 C 
ENDBRANCH   7   8
ENDBRANCH   1   7
TORSDOF 3
ENDMDL
MODEL 4
REMARK VINA RESULT:      -5.4      1.535      4.658
REMARK  3 active torsions:
REMARK  status: ('A' for Active; 'I' for Inactive)
REMARK    1  A    between atoms: C1_1  and  C3_3 
REMARK    2  A    between atoms: C1_1  and  C8_8 
REMARK    3  A    between atoms: C8_8  and  C9_9 
ROOT
HETATM    1  C1  UNL     1     -32.347   7.981   2.882  1.00 20.00     0.131 C 
HETATM    2  O10 UNL     1     -31.330   8.380   3.446  1.00 20.00    -0.298 OA
ENDROOT
BRANCH   1   3
HETATM    3  C3  UNL     1     -33.061   8.843   1.873  1.00 20.00     0.059 A 
HETATM    4  C2  UNL     1     -32.497  10.188   1.577  1.00 20.00     0.017 A 
HETATM    5  C4  UNL     1     -32.434   9.097   0.546  1.00 20.00    -0.007 A 
HETATM    6  C5  UNL     1     -31.116   8.531   0.137  1.00 20.00     0.011 C 
ENDBRANCH   1   3
BRANCH   1   7
HETATM    7  C8  UNL     1     -32.983   6.632   3.178  1.00 20.00     0.082 C 
BRANCH   7   8
HETATM    8  C9  UNL     1     -34.166   6.705   4.155  1.00 20.00    -0.016 C 
HETATM    9  C6  UNL     1     -33.725   7.209   5.532  1.00 20.00     0.010 C 
HETATM   10  C7  UNL     1     -34.817   5.327   4.293  1.00 20.00     0.010 C 
ENDBRANCH   7   8
ENDBRANCH   1   7
TORSDOF 3
ENDMDL
MODEL 5
REMARK VINA RESULT:      -5.3      0.945      1.522
REMARK  3 active torsions:
REMARK  status: ('A' for Active; 'I' for Inactive)
REMARK    1  A    between atoms: C1_1  and  C3_3 
REMARK    2  A    between atoms: C1_1  and  C8_8 
REMARK    3  A    between atoms: C8_8  and  C9_9 
ROOT
HETATM    1  C1  UNL     1     -32.929   6.811   2.934  1.00 20.00     0.131 C 
HETATM    2  O10 UNL     1     -32.358   5.771   2.610  1.00 20.00    -0.298 OA
ENDROOT
BRANCH   1   3
HETATM    3  C3  UNL     1     -34.320   6.783   3.513  1.00 20.00     0.059 A 
HETATM    4  C2  UNL     1     -34.693   5.634   4.383  1.00 20.00     0.017 A 
HETATM    5  C4  UNL     1     -34.514   7.004   4.973  1.00 20.00    -0.007 A 
HETATM    6  C5  UNL     1     -33.394   7.268   5.921  1.00 20.00     0.011 C 
ENDBRANCH   1   3
BRANCH   1   7
HETATM    7  C8  UNL     1     -32.313   8.188   2.741  1.00 20.00     0.082 C 
BRANCH   7   8
HETATM    8  C9  UNL     1     -32.521   8.769   1.335  1.00 20.00    -0.016 C 
HETATM    9  C6  UNL     1     -31.279   8.579   0.460  1.00 20.00     0.010 C 
HETATM   10  C7  UNL     1     -32.863  10.258   1.429  1.00 20.00     0.010 C 
ENDBRANCH   7   8
ENDBRANCH   1   7
TORSDOF 3
ENDMDL
MODEL 6
REMARK VINA RESULT:      -5.3      0.828      4.105
REMARK  3 active torsions:
REMARK  status: ('A' for Active; 'I' for Inactive)
REMARK    1  A    between atoms: C1_1  and  C3_3 
REMARK    2  A    between atoms: C1_1  and  C8_8 
REMARK    3  A    between atoms: C8_8  and  C9_9 
ROOT
HETATM    1  C1  UNL     1     -33.283   6.527   3.032  1.00 20.00     0.131 C 
HETATM    2  O10 UNL     1     -32.533   5.707   2.507  1.00 20.00    -0.298 OA
ENDROOT
BRANCH   1   3
HETATM    3  C3  UNL     1     -32.778   7.886   3.443  1.00 20.00     0.059 A 
HETATM    4  C2  UNL     1     -31.328   8.176   3.271  1.00 20.00     0.017 A 
HETATM    5  C4  UNL     1     -32.345   8.857   2.399  1.00 20.00    -0.007 A 
HETATM    6  C5  UNL     1     -32.389   8.567   0.938  1.00 20.00     0.011 C 
ENDBRANCH   1   3
BRANCH   1   7
HETATM    7  C8  UNL     1     -34.742   6.232   3.347  1.00 20.00     0.082 C 
BRANCH   7   8
HETATM    8  C9  UNL     1     -34.948   5.445   4.649  1.00 20.00    -0.016 C 
HETATM    9  C6  UNL     1     -34.361   6.188   5.852  1.00 20.00     0.010 C 
HETATM   10  C7  UNL     1     -34.304   4.061   4.532  1.00 20.00     0.010 C 
ENDBRANCH   7   8
ENDBRANCH   1   7
TORSDOF 3
ENDMDL
MODEL 7
REMARK VINA RESULT:      -5.2      0.522      1.200
REMARK  3 active torsions:
REMARK  status: ('A' for Active; 'I' for Inactive)
REMARK    1  A    between atoms: C1_1  and  C3_3 
REMARK    2  A    between atoms: C1_1  and  C8_8 
REMARK    3  A    between atoms: C8_8  and  C9_9 
ROOT
HETATM    1  C1  UNL     1     -33.434   5.888   2.936  1.00 20.00     0.131 C 
HETATM    2  O10 UNL     1     -32.575   5.016   3.055  1.00 20.00    -0.298 OA
ENDROOT
BRANCH   1   3
HETATM    3  C3  UNL     1     -34.691   5.855   3.766  1.00 20.00     0.059 A 
HETATM    4  C2  UNL     1     -34.727   4.950   4.947  1.00 20.00     0.017 A 
HETATM    5  C4  UNL     1     -34.685   6.440   5.136  1.00 20.00    -0.007 A 
HETATM    6  C5  UNL     1     -33.487   7.081   5.751  1.00 20.00     0.011 C 
ENDBRANCH   1   3
BRANCH   1   7
HETATM    7  C8  UNL     1     -33.325   7.025   1.932  1.00 20.00     0.082 C 
BRANCH   7   8
HETATM    8  C9  UNL     1     -32.743   8.319   2.521  1.00 20.00    -0.016 C 
HETATM    9  C6  UNL     1     -32.573   9.396   1.448  1.00 20.00     0.010 C 
HETATM   10  C7  UNL     1     -31.393   8.031   3.183  1.00 20.00     0.010 C 
ENDBRANCH   7   8
ENDBRANCH   1   7
TORSDOF 3
ENDMDL
MODEL 8
REMARK VINA RESULT:      -5.1      1.682      2.600
REMARK  3 active torsions:
REMARK  status: ('A' for Active; 'I' for Inactive)
REMARK    1  A    between atoms: C1_1  and  C3_3 
REMARK    2  A    between atoms: C1_1  and  C8_8 
REMARK    3  A    between atoms: C8_8  and  C9_9 
ROOT
HETATM    1  C1  UNL     1     -32.622   7.782   3.058  1.00 20.00     0.131 C 
HETATM    2  O10 UNL     1     -31.441   8.014   3.311  1.00 20.00    -0.298 OA
ENDROOT
BRANCH   1   3
HETATM    3  C3  UNL     1     -33.460   6.937   3.982  1.00 20.00     0.059 A 
HETATM    4  C2  UNL     1     -34.768   6.435   3.478  1.00 20.00     0.017 A 
HETATM    5  C4  UNL     1     -33.627   5.483   3.701  1.00 20.00    -0.007 A 
HETATM    6  C5  UNL     1     -32.994   4.792   2.542  1.00 20.00     0.011 C 
ENDBRANCH   1   3
BRANCH   1   7
HETATM    7  C8  UNL     1     -33.312   8.279   1.797  1.00 20.00     0.082 C 
BRANCH   7   8
HETATM    8  C9  UNL     1     -32.469   9.270   0.980  1.00 20.00    -0.016 C 
HETATM    9  C6  UNL     1     -32.652  10.705   1.479  1.00 20.00     0.010 C 
HETATM   10  C7  UNL     1     -32.851   9.185  -0.501  1.00 20.00     0.010 C 
ENDBRANCH   7   8
ENDBRANCH   1   7
TORSDOF 3
ENDMDL
MODEL 9
REMARK VINA RESULT:      -4.7      1.417      1.868
REMARK  3 active torsions:
REMARK  status: ('A' for Active; 'I' for Inactive)
REMARK    1  A    between atoms: C1_1  and  C3_3 
REMARK    2  A    between atoms: C1_1  and  C8_8 
REMARK    3  A    between atoms: C8_8  and  C9_9 
ROOT
HETATM    1  C1  UNL     1     -33.895   6.770   3.609  1.00 20.00     0.131 C 
HETATM    2  O10 UNL     1     -34.083   7.583   4.512  1.00 20.00    -0.298 OA
ENDROOT
BRANCH   1   3
HETATM    3  C3  UNL     1     -34.683   5.488   3.544  1.00 20.00     0.059 A 
HETATM    4  C2  UNL     1     -33.961   4.209   3.786  1.00 20.00     0.017 A 
HETATM    5  C4  UNL     1     -34.949   4.723   4.794  1.00 20.00    -0.007 A 
HETATM    6  C5  UNL     1     -34.483   5.161   6.141  1.00 20.00     0.011 C 
ENDBRANCH   1   3
BRANCH   1   7
HETATM    7  C8  UNL     1     -32.841   6.964   2.528  1.00 20.00     0.082 C 
BRANCH   7   8
HETATM    8  C9  UNL     1     -32.257   8.384   2.480  1.00 20.00    -0.016 C 
HETATM    9  C6  UNL     1     -31.780   8.745   1.071  1.00 20.00     0.010 C 
HETATM   10  C7  UNL     1     -31.093   8.505   3.467  1.00 20.00     0.010 C 
ENDBRANCH   7   8
ENDBRANCH   1   7
TORSDOF 3
ENDMDL
