MODEL 1
REMARK VINA RESULT:      -5.7      0.000      0.000
REMARK  2 active torsions:
REMARK  status: ('A' for Active; 'I' for Inactive)
REMARK    1  A    between atoms: C3_3  and  C7_7 
REMARK    2  A    between atoms: C8_8  and  C10_10 
ROOT
HETATM    1  C1  UNL     1     -32.552   9.123   0.876  1.00 20.00     0.021 C 
HETATM    2  C2  UNL     1     -32.503   8.586   1.949  1.00 20.00    -0.039 C 
HETATM    3  C3  UNL     1     -32.444   7.941   3.239  1.00 20.00     0.205 C 
HETATM    4  O11 UNL     1     -31.361   7.620   3.710  1.00 20.00    -0.283 OA
ENDROOT
BRANCH   3   5
HETATM    5  C7  UNL     1     -33.755   7.706   3.925  1.00 20.00     0.069 C 
HETATM    6  C4  UNL     1     -33.556   7.174   5.345  1.00 20.00     0.013 C 
HETATM    7  C5  UNL     1     -34.537   6.018   5.482  1.00 20.00     0.005 C 
HETATM    8  C8  UNL     1     -34.617   5.418   4.082  1.00 20.00    -0.014 C 
HETATM    9  C6  UNL     1     -34.577   6.651   3.175  1.00 20.00     0.017 C 
BRANCH   8  10
HETATM   10  C10 UNL     1     -33.471   4.449   3.796  1.00 20.00     0.000 C 
HETATM   11  C9  UNL     1     -32.976   4.568   2.388  1.00 20.00     0.005 C 
ENDBRANCH   8  10
ENDBRANCH   3   5
TORSDOF 2
ENDMDL
MODEL 2
REMARK VINA RESULT:      -5.2      1.847      3.788
REMARK  2 active torsions:
REMARK  status: ('A' for Active; 'I' for Inactive)
REMARK    1  A    between atoms: C3_3  and  C7_7 
REMARK    2  A    between atoms: C8_8  and  C10_10 
ROOT
HETATM    1  C1  UNL     1     -33.616   7.834   6.060  1.00 20.00     0.021 C 
HETATM    2  C2  UNL     1     -34.057   6.740   5.837  1.00 20.00    -0.039 C 
HETATM    3  C3  UNL     1     -34.586   5.424   5.568  1.00 20.00     0.205 C 
HETATM    4  O11 UNL     1     -34.905   4.694   6.498  1.00 20.00    -0.283 OA
ENDROOT
BRANCH   3   5
HETATM    5  C7  UNL     1     -34.711   5.039   4.126  1.00 20.00     0.069 C 
HETATM    6  C4  UNL     1     -33.495   4.240   3.653  1.00 20.00     0.013 C 
HETATM    7  C5  UNL     1     -33.110   4.851   2.312  1.00 20.00     0.005 C 
HETATM    8  C8  UNL     1     -33.476   6.326   2.446  1.00 20.00    -0.014 C 
HETATM    9  C6  UNL     1     -34.786   6.287   3.237  1.00 20.00     0.017 C 
BRANCH   8  10
HETATM   10  C10 UNL     1     -32.391   7.133   3.157  1.00 20.00     0.000 C 
HETATM   11  C9  UNL     1     -31.994   8.347   2.377  1.00 20.00     0.005 C 
ENDBRANCH   8  10
ENDBRANCH   3   5
TORSDOF 2
ENDMDL
MODEL 3
REMARK VINA RESULT:      -4.7     10.921     12.370
REMARK  2 active torsions:
REMARK  status: ('A' for Active; 'I' for Inactive)
REMARK    1  A    between atoms: C3_3  and  C7_7 
REMARK    2  A    between atoms: C8_8  and  C10_10 
ROOT
HETATM    1  C1  UNL     1     -37.983  15.023  -4.884  1.00 20.00     0.021 C 
HETATM    2  C2  UNL     1     -36.947  14.416  -4.903  1.00 20.00    -0.039 C 
HETATM    3  C3  UNL     1     -35.702  13.686  -4.925  1.00 20.00     0.205 C 
HETATM    4  O11 UNL     1     -35.598  12.680  -5.616  1.00 20.00    -0.283 OA
ENDROOT
BRANCH   3   5
HETATM    5  C7  UNL     1     -34.597  14.231  -4.074  1.00 20.00     0.069 C 
HETATM    6  C4  UNL     1     -34.987  15.568  -3.440  1.00 20.00     0.013 C 
HETATM    7  C5  UNL     1     -33.783  16.477  -3.647  1.00 20.00     0.005 C 
HETATM    8  C8  UNL     1     -33.182  16.019  -4.973  1.00 20.00    -0.014 C 
HETATM    9  C6  UNL     1     -33.345  14.498  -4.918  1.00 20.00     0.017 C 
BRANCH   8  10
HETATM   10  C10 UNL     1     -33.891  16.636  -6.177  1.00 20.00     0.000 C 
HETATM   11  C9  UNL     1     -33.848  15.736  -7.372  1.00 20.00     0.005 C 
ENDBRANCH   8  10
ENDBRANCH   3   5
TORSDOF 2
ENDMDL
MODEL 4
REMARK VINA RESULT:      -4.6     11.170     12.185
REMARK  2 active torsions:
REMARK  status: ('A' for Active; 'I' for Inactive)
REMARK    1  A    between atoms: C3_3  and  C7_7 
REMARK    2  A    between atoms: C8_8  and  C10_10 
ROOT
HETATM    1  C1  UNL     1     -38.487  14.818  -5.116  1.00 20.00     0.021 C 
HETATM    2  C2  UNL     1     -37.379  14.359  -5.171  1.00 20.00    -0.039 C 
HETATM    3  C3  UNL     1     -36.047  13.807  -5.235  1.00 20.00     0.205 C 
HETATM    4  O11 UNL     1     -35.887  12.595  -5.182  1.00 20.00    -0.283 OA
ENDROOT
BRANCH   3   5
HETATM    5  C7  UNL     1     -34.926  14.792  -5.366  1.00 20.00     0.069 C 
HETATM    6  C4  UNL     1     -33.824  14.526  -4.339  1.00 20.00     0.013 C 
HETATM    7  C5  UNL     1     -33.481  15.890  -3.756  1.00 20.00     0.005 C 
HETATM    8  C8  UNL     1     -34.798  16.660  -3.786  1.00 20.00    -0.014 C 
HETATM    9  C6  UNL     1     -35.425  16.219  -5.111  1.00 20.00     0.017 C 
BRANCH   8  10
HETATM   10  C10 UNL     1     -35.688  16.340  -2.587  1.00 20.00     0.000 C 
HETATM   11  C9  UNL     1     -35.176  16.965  -1.327  1.00 20.00     0.005 C 
ENDBRANCH   8  10
ENDBRANCH   3   5
TORSDOF 2
ENDMDL
MODEL 5
REMARK VINA RESULT:      -4.5     11.977     13.138
REMARK  2 active torsions:
REMARK  status: ('A' for Active; 'I' for Inactive)
REMARK    1  A    between atoms: C3_3  and  C7_7 
REMARK    2  A    between atoms: C8_8  and  C10_10 
ROOT
HETATM    1  C1  UNL     1     -38.421  14.982  -4.550  1.00 20.00     0.021 C 
HETATM    2  C2  UNL     1     -37.495  14.422  -5.070  1.00 20.00    -0.039 C 
HETATM    3  C3  UNL     1     -36.381  13.749  -5.694  1.00 20.00     0.205 C 
HETATM    4  O11 UNL     1     -35.901  12.751  -5.171  1.00 20.00    -0.283 OA
ENDROOT
BRANCH   3   5
HETATM    5  C7  UNL     1     -35.882  14.340  -6.977  1.00 20.00     0.069 C 
HETATM    6  C4  UNL     1     -34.674  13.571  -7.514  1.00 20.00     0.013 C 
HETATM    7  C5  UNL     1     -33.665  14.639  -7.917  1.00 20.00     0.005 C 
HETATM    8  C8  UNL     1     -33.897  15.776  -6.926  1.00 20.00    -0.014 C 
HETATM    9  C6  UNL     1     -35.420  15.786  -6.762  1.00 20.00     0.017 C 
BRANCH   8  10
HETATM   10  C10 UNL     1     -33.172  15.550  -5.601  1.00 20.00     0.000 C 
HETATM   11  C9  UNL     1     -33.850  16.253  -4.466  1.00 20.00     0.005 C 
ENDBRANCH   8  10
ENDBRANCH   3   5
TORSDOF 2
ENDMDL
MODEL 6
REMARK VINA RESULT:      -4.4      0.906      2.001
REMARK  2 active torsions:
REMARK  status: ('A' for Active; 'I' for Inactive)
REMARK    1  A    between atoms: C3_3  and  C7_7 
REMARK    2  A    between atoms: C8_8  and  C10_10 
ROOT
HETATM    1  C1  UNL     1     -31.795   9.096   0.768  1.00 20.00     0.021 C 
HETATM    2  C2  UNL     1     -32.123   8.385   1.678  1.00 20.00    -0.039 C 
HETATM    3  C3  UNL     1     -32.515   7.529   2.772  1.00 20.00     0.205 C 
HETATM    4  O11 UNL     1     -31.971   7.646   3.863  1.00 20.00    -0.283 OA
ENDROOT
BRANCH   3   5
HETATM    5  C7  UNL     1     -33.594   6.531   2.481  1.00 20.00     0.069 C 
HETATM    6  C4  UNL     1     -34.919   6.934   3.131  1.00 20.00     0.013 C 
HETATM    7  C5  UNL     1     -35.450   5.664   3.781  1.00 20.00     0.005 C 
HETATM    8  C8  UNL     1     -34.199   4.902   4.208  1.00 20.00    -0.014 C 
HETATM    9  C6  UNL     1     -33.228   5.156   3.052  1.00 20.00     0.017 C 
BRANCH   8  10
HETATM   10  C10 UNL     1     -33.648   5.390   5.546  1.00 20.00     0.000 C 
HETATM   11  C9  UNL     1     -34.443   6.534   6.095  1.00 20.00     0.005 C 
ENDBRANCH   8  10
ENDBRANCH   3   5
TORSDOF 2
ENDMDL
MODEL 7
REMARK VINA RESULT:      -4.3      1.706      4.307
REMARK  2 active torsions:
REMARK  status: ('A' for Active; 'I' for Inactive)
REMARK    1  A    between atoms: C3_3  and  C7_7 
REMARK    2  A    between atoms: C8_8  and  C10_10 
ROOT
HETATM    1  C1  UNL     1     -34.835   5.002   5.599  1.00 20.00     0.021 C 
HETATM    2  C2  UNL     1     -34.472   5.533   4.585  1.00 20.00    -0.039 C 
HETATM    3  C3  UNL     1     -34.036   6.170   3.365  1.00 20.00     0.205 C 
HETATM    4  O11 UNL     1     -34.835   6.360   2.457  1.00 20.00    -0.283 OA
ENDROOT
BRANCH   3   5
HETATM    5  C7  UNL     1     -32.592   6.564   3.302  1.00 20.00     0.069 C 
HETATM    6  C4  UNL     1     -32.319   7.823   4.128  1.00 20.00     0.013 C 
HETATM    7  C5  UNL     1     -31.457   8.708   3.239  1.00 20.00     0.005 C 
HETATM    8  C8  UNL     1     -31.930   8.401   1.821  1.00 20.00    -0.014 C 
HETATM    9  C6  UNL     1     -32.183   6.892   1.860  1.00 20.00     0.017 C 
BRANCH   8  10
HETATM   10  C10 UNL     1     -33.182   9.190   1.442  1.00 20.00     0.000 C 
HETATM   11  C9  UNL     1     -33.028   9.883   0.124  1.00 20.00     0.005 C 
ENDBRANCH   8  10
ENDBRANCH   3   5
TORSDOF 2
ENDMDL
MODEL 8
REMARK VINA RESULT:      -4.3     11.035     12.190
REMARK  2 active torsions:
REMARK  status: ('A' for Active; 'I' for Inactive)
REMARK    1  A    between atoms: C3_3  and  C7_7 
REMARK    2  A    between atoms: C8_8  and  C10_10 
ROOT
HETATM    1  C1  UNL     1     -32.876  18.038  -1.463  1.00 20.00     0.021 C 
HETATM    2  C2  UNL     1     -33.521  17.243  -2.090  1.00 20.00    -0.039 C 
HETATM    3  C3  UNL     1     -34.295  16.286  -2.845  1.00 20.00     0.205 C 
HETATM    4  O11 UNL     1     -35.494  16.167  -2.628  1.00 20.00    -0.283 OA
ENDROOT
BRANCH   3   5
HETATM    5  C7  UNL     1     -33.549  15.487  -3.869  1.00 20.00     0.069 C 
HETATM    6  C4  UNL     1     -33.319  16.294  -5.148  1.00 20.00     0.013 C 
HETATM    7  C5  UNL     1     -33.680  15.351  -6.288  1.00 20.00     0.005 C 
HETATM    8  C8  UNL     1     -34.795  14.477  -5.722  1.00 20.00    -0.014 C 
HETATM    9  C6  UNL     1     -34.351  14.244  -4.275  1.00 20.00     0.017 C 
BRANCH   8  10
HETATM   10  C10 UNL     1     -36.163  15.151  -5.807  1.00 20.00     0.000 C 
HETATM   11  C9  UNL     1     -37.231  14.337  -5.145  1.00 20.00     0.005 C 
ENDBRANCH   8  10
ENDBRANCH   3   5
TORSDOF 2
ENDMDL
MODEL 9
REMARK VINA RESULT:      -4.1     11.021     12.278
REMARK  2 active torsions:
REMARK  status: ('A' for Active; 'I' for Inactive)
REMARK    1  A    between atoms: C3_3  and  C7_7 
REMARK    2  A    between atoms: C8_8  and  C10_10 
ROOT
HETATM    1  C1  UNL     1     -32.933  14.287  -4.259  1.00 20.00     0.021 C 
HETATM    2  C2  UNL     1     -34.076  14.147  -4.598  1.00 20.00    -0.039 C 
HETATM    3  C3  UNL     1     -35.450  13.978  -5.007  1.00 20.00     0.205 C 
HETATM    4  O11 UNL     1     -35.901  12.853  -5.179  1.00 20.00    -0.283 OA
ENDROOT
BRANCH   3   5
HETATM    5  C7  UNL     1     -36.246  15.233  -5.195  1.00 20.00     0.069 C 
HETATM    6  C4  UNL     1     -35.338  16.440  -5.440  1.00 20.00     0.013 C 
HETATM    7  C5  UNL     1     -35.885  17.543  -4.544  1.00 20.00     0.005 C 
HETATM    8  C8  UNL     1     -36.436  16.807  -3.326  1.00 20.00    -0.014 C 
HETATM    9  C6  UNL     1     -37.063  15.550  -3.936  1.00 20.00     0.017 C 
BRANCH   8  10
HETATM   10  C10 UNL     1     -35.349  16.476  -2.305  1.00 20.00     0.000 C 
HETATM   11  C9  UNL     1     -34.410  17.623  -2.095  1.00 20.00     0.005 C 
ENDBRANCH   8  10
ENDBRANCH   3   5
TORSDOF 2
ENDMDL
