MODEL 1
REMARK VINA RESULT:      -4.9      0.000      0.000
REMARK  2 active torsions:
REMARK  status: ('A' for Active; 'I' for Inactive)
REMARK    1  A    between atoms: C5_5  and  C8_8 
REMARK    2  A    between atoms: C8_8  and  N9_9 
ROOT
HETATM    1  C1  UNL     1     -34.467   4.532   4.132  1.00 20.00     0.014 C 
HETATM    2  C2  UNL     1     -34.139   5.654   3.858  1.00 20.00    -0.081 C 
HETATM    3  C8  UNL     1     -33.743   7.047   3.545  1.00 20.00     0.301 C 
ENDROOT
BRANCH   3   4
HETATM    4  C5  UNL     1     -32.347   7.135   3.032  1.00 20.00     0.035 A 
HETATM    5  C3  UNL     1     -31.456   8.278   3.446  1.00 20.00     0.012 A 
HETATM    6  C4  UNL     1     -31.920   8.169   2.016  1.00 20.00    -0.011 A 
HETATM    7  C6  UNL     1     -32.865   9.175   1.454  1.00 20.00     0.010 C 
ENDBRANCH   3   4
BRANCH   3   8
HETATM    8  N9  UNL     1     -33.933   7.861   4.734  1.00 20.00     0.095 N 
HETATM    9  C7  UNL     1     -33.829   7.054   5.944  1.00 20.00     0.308 C 
HETATM   10  H22 UNL     1     -33.224   8.594   4.759  1.00 20.00     0.317 HD
ENDBRANCH   3   8
TORSDOF 2
ENDMDL
MODEL 2
REMARK VINA RESULT:      -4.7      0.793      3.730
REMARK  2 active torsions:
REMARK  status: ('A' for Active; 'I' for Inactive)
REMARK    1  A    between atoms: C5_5  and  C8_8 
REMARK    2  A    between atoms: C8_8  and  N9_9 
ROOT
HETATM    1  C1  UNL     1     -31.880   8.346   1.960  1.00 20.00     0.014 C 
HETATM    2  C2  UNL     1     -32.444   7.686   2.789  1.00 20.00    -0.081 C 
HETATM    3  C8  UNL     1     -33.148   6.895   3.826  1.00 20.00     0.301 C 
ENDROOT
BRANCH   3   4
HETATM    4  C5  UNL     1     -34.097   5.908   3.237  1.00 20.00     0.035 A 
HETATM    5  C3  UNL     1     -35.534   5.873   3.688  1.00 20.00     0.012 A 
HETATM    6  C4  UNL     1     -34.618   4.722   4.013  1.00 20.00    -0.011 A 
HETATM    7  C6  UNL     1     -34.222   4.452   5.424  1.00 20.00     0.010 C 
ENDBRANCH   3   4
BRANCH   3   8
HETATM    8  N9  UNL     1     -33.819   7.812   4.733  1.00 20.00     0.095 N 
HETATM    9  C7  UNL     1     -33.397   7.589   6.111  1.00 20.00     0.308 C 
HETATM   10  H22 UNL     1     -33.599   8.772   4.468  1.00 20.00     0.317 HD
ENDBRANCH   3   8
TORSDOF 2
ENDMDL
MODEL 3
REMARK VINA RESULT:      -4.6      1.524      3.523
REMARK  2 active torsions:
REMARK  status: ('A' for Active; 'I' for Inactive)
REMARK    1  A    between atoms: C5_5  and  C8_8 
REMARK    2  A    between atoms: C8_8  and  N9_9 
ROOT
HETATM    1  C1  UNL     1     -33.286   4.323   2.097  1.00 20.00     0.014 C 
HETATM    2  C2  UNL     1     -33.109   5.314   2.751  1.00 20.00    -0.081 C 
HETATM    3  C8  UNL     1     -32.881   6.551   3.536  1.00 20.00     0.301 C 
ENDROOT
BRANCH   3   4
HETATM    4  C5  UNL     1     -34.074   6.936   4.342  1.00 20.00     0.035 A 
HETATM    5  C3  UNL     1     -33.935   7.224   5.814  1.00 20.00     0.012 A 
HETATM    6  C4  UNL     1     -34.699   6.009   5.357  1.00 20.00    -0.011 A 
HETATM    7  C6  UNL     1     -34.170   4.642   5.627  1.00 20.00     0.010 C 
ENDBRANCH   3   4
BRANCH   3   8
HETATM    8  N9  UNL     1     -32.481   7.610   2.625  1.00 20.00     0.095 N 
HETATM    9  C7  UNL     1     -31.405   8.412   3.194  1.00 20.00     0.308 C 
HETATM   10  H22 UNL     1     -32.164   7.200   1.747  1.00 20.00     0.317 HD
ENDBRANCH   3   8
TORSDOF 2
ENDMDL
MODEL 4
REMARK VINA RESULT:      -4.4      1.611      2.105
REMARK  2 active torsions:
REMARK  status: ('A' for Active; 'I' for Inactive)
REMARK    1  A    between atoms: C5_5  and  C8_8 
REMARK    2  A    between atoms: C8_8  and  N9_9 
ROOT
HETATM    1  C1  UNL     1     -33.648   5.350   2.997  1.00 20.00     0.014 C 
HETATM    2  C2  UNL     1     -33.281   6.477   2.802  1.00 20.00    -0.081 C 
HETATM    3  C8  UNL     1     -32.809   7.864   2.581  1.00 20.00     0.301 C 
ENDROOT
BRANCH   3   4
HETATM    4  C5  UNL     1     -32.510   8.137   1.147  1.00 20.00     0.035 A 
HETATM    5  C3  UNL     1     -31.223   8.818   0.756  1.00 20.00     0.012 A 
HETATM    6  C4  UNL     1     -32.537   9.531   0.564  1.00 20.00    -0.011 A 
HETATM    7  C6  UNL     1     -32.866  10.733   1.380  1.00 20.00     0.010 C 
ENDBRANCH   3   4
BRANCH   3   8
HETATM    8  N9  UNL     1     -31.652   8.101   3.428  1.00 20.00     0.095 N 
HETATM    9  C7  UNL     1     -32.058   8.420   4.791  1.00 20.00     0.308 C 
HETATM   10  H22 UNL     1     -31.065   7.267   3.440  1.00 20.00     0.317 HD
ENDBRANCH   3   8
TORSDOF 2
ENDMDL
MODEL 5
REMARK VINA RESULT:      -4.3      1.347      3.547
REMARK  2 active torsions:
REMARK  status: ('A' for Active; 'I' for Inactive)
REMARK    1  A    between atoms: C5_5  and  C8_8 
REMARK    2  A    between atoms: C8_8  and  N9_9 
ROOT
HETATM    1  C1  UNL     1     -33.600   7.555   6.021  1.00 20.00     0.014 C 
HETATM    2  C2  UNL     1     -33.585   7.299   4.848  1.00 20.00    -0.081 C 
HETATM    3  C8  UNL     1     -33.555   7.008   3.395  1.00 20.00     0.301 C 
ENDROOT
BRANCH   3   4
HETATM    4  C5  UNL     1     -32.869   5.721   3.090  1.00 20.00     0.035 A 
HETATM    5  C3  UNL     1     -33.502   4.728   2.150  1.00 20.00     0.012 A 
HETATM    6  C4  UNL     1     -33.367   4.394   3.613  1.00 20.00    -0.011 A 
HETATM    7  C6  UNL     1     -34.580   4.276   4.471  1.00 20.00     0.010 C 
ENDBRANCH   3   4
BRANCH   3   8
HETATM    8  N9  UNL     1     -32.928   8.128   2.711  1.00 20.00     0.095 N 
HETATM    9  C7  UNL     1     -31.529   8.262   3.099  1.00 20.00     0.308 C 
HETATM   10  H22 UNL     1     -32.983   7.983   1.703  1.00 20.00     0.317 HD
ENDBRANCH   3   8
TORSDOF 2
ENDMDL
MODEL 6
REMARK VINA RESULT:      -4.2      0.986      3.796
REMARK  2 active torsions:
REMARK  status: ('A' for Active; 'I' for Inactive)
REMARK    1  A    between atoms: C5_5  and  C8_8 
REMARK    2  A    between atoms: C8_8  and  N9_9 
ROOT
HETATM    1  C1  UNL     1     -32.982   8.560   1.218  1.00 20.00     0.014 C 
HETATM    2  C2  UNL     1     -32.972   7.904   2.223  1.00 20.00    -0.081 C 
HETATM    3  C8  UNL     1     -32.940   7.113   3.476  1.00 20.00     0.301 C 
ENDROOT
BRANCH   3   4
HETATM    4  C5  UNL     1     -34.304   6.862   4.020  1.00 20.00     0.035 A 
HETATM    5  C3  UNL     1     -34.481   6.379   5.437  1.00 20.00     0.012 A 
HETATM    6  C4  UNL     1     -34.828   5.470   4.286  1.00 20.00    -0.011 A 
HETATM    7  C6  UNL     1     -34.017   4.247   4.024  1.00 20.00     0.010 C 
ENDBRANCH   3   4
BRANCH   3   8
HETATM    8  N9  UNL     1     -32.095   7.801   4.438  1.00 20.00     0.095 N 
HETATM    9  C7  UNL     1     -30.992   8.484   3.772  1.00 20.00     0.308 C 
HETATM   10  H22 UNL     1     -32.651   8.485   4.950  1.00 20.00     0.317 HD
ENDBRANCH   3   8
TORSDOF 2
ENDMDL
MODEL 7
REMARK VINA RESULT:      -4.1      1.451      3.911
REMARK  2 active torsions:
REMARK  status: ('A' for Active; 'I' for Inactive)
REMARK    1  A    between atoms: C5_5  and  C8_8 
REMARK    2  A    between atoms: C8_8  and  N9_9 
ROOT
HETATM    1  C1  UNL     1     -32.220   8.754   1.692  1.00 20.00     0.014 C 
HETATM    2  C2  UNL     1     -32.813   7.916   2.314  1.00 20.00    -0.081 C 
HETATM    3  C8  UNL     1     -33.522   6.863   3.080  1.00 20.00     0.301 C 
ENDROOT
BRANCH   3   4
HETATM    4  C5  UNL     1     -34.037   7.365   4.385  1.00 20.00     0.035 A 
HETATM    5  C3  UNL     1     -33.244   7.150   5.648  1.00 20.00     0.012 A 
HETATM    6  C4  UNL     1     -34.560   6.440   5.459  1.00 20.00    -0.011 A 
HETATM    7  C6  UNL     1     -34.599   4.960   5.291  1.00 20.00     0.010 C 
ENDBRANCH   3   4
BRANCH   3   8
HETATM    8  N9  UNL     1     -32.626   5.732   3.253  1.00 20.00     0.095 N 
HETATM    9  C7  UNL     1     -32.973   4.646   2.344  1.00 20.00     0.308 C 
HETATM   10  H22 UNL     1     -31.667   6.028   3.069  1.00 20.00     0.317 HD
ENDBRANCH   3   8
TORSDOF 2
ENDMDL
MODEL 8
REMARK VINA RESULT:      -4.1      1.254      2.358
REMARK  2 active torsions:
REMARK  status: ('A' for Active; 'I' for Inactive)
REMARK    1  A    between atoms: C5_5  and  C8_8 
REMARK    2  A    between atoms: C8_8  and  N9_9 
ROOT
HETATM    1  C1  UNL     1     -34.006   7.309   6.291  1.00 20.00     0.014 C 
HETATM    2  C2  UNL     1     -33.754   6.949   5.173  1.00 20.00    -0.081 C 
HETATM    3  C8  UNL     1     -33.466   6.486   3.795  1.00 20.00     0.301 C 
ENDROOT
BRANCH   3   4
HETATM    4  C5  UNL     1     -33.444   7.608   2.815  1.00 20.00     0.035 A 
HETATM    5  C3  UNL     1     -32.585   7.521   1.579  1.00 20.00     0.012 A 
HETATM    6  C4  UNL     1     -32.252   8.522   2.655  1.00 20.00    -0.011 A 
HETATM    7  C6  UNL     1     -31.012   8.368   3.467  1.00 20.00     0.010 C 
ENDBRANCH   3   4
BRANCH   3   8
HETATM    8  N9  UNL     1     -34.442   5.472   3.432  1.00 20.00     0.095 N 
HETATM    9  C7  UNL     1     -34.392   4.344   4.354  1.00 20.00     0.308 C 
HETATM   10  H22 UNL     1     -35.377   5.879   3.453  1.00 20.00     0.317 HD
ENDBRANCH   3   8
TORSDOF 2
ENDMDL
MODEL 9
REMARK VINA RESULT:      -4.0     11.120     13.045
REMARK  2 active torsions:
REMARK  status: ('A' for Active; 'I' for Inactive)
REMARK    1  A    between atoms: C5_5  and  C8_8 
REMARK    2  A    between atoms: C8_8  and  N9_9 
ROOT
HETATM    1  C1  UNL     1     -33.995  17.611  -7.918  1.00 20.00     0.014 C 
HETATM    2  C2  UNL     1     -34.002  16.632  -7.223  1.00 20.00    -0.081 C 
HETATM    3  C8  UNL     1     -34.005  15.407  -6.389  1.00 20.00     0.301 C 
ENDROOT
BRANCH   3   4
HETATM    4  C5  UNL     1     -33.062  15.504  -5.239  1.00 20.00     0.035 A 
HETATM    5  C3  UNL     1     -32.953  14.374  -4.248  1.00 20.00     0.012 A 
HETATM    6  C4  UNL     1     -33.535  15.696  -3.817  1.00 20.00    -0.011 A 
HETATM    7  C6  UNL     1     -34.978  15.802  -3.461  1.00 20.00     0.010 C 
ENDBRANCH   3   4
BRANCH   3   8
HETATM    8  N9  UNL     1     -33.704  14.267  -7.238  1.00 20.00     0.095 N 
HETATM    9  C7  UNL     1     -34.824  13.335  -7.281  1.00 20.00     0.308 C 
HETATM   10  H22 UNL     1     -33.504  14.592  -8.184  1.00 20.00     0.317 HD
ENDBRANCH   3   8
TORSDOF 2
ENDMDL
