MODEL 1
REMARK VINA RESULT:      -5.1      0.000      0.000
REMARK  5 active torsions:
REMARK  status: ('A' for Active; 'I' for Inactive)
REMARK    1  A    between atoms: C3_3  and  C5_5 
REMARK    2  A    between atoms: C5_5  and  C6_6 
REMARK    3  A    between atoms: C6_6  and  N9_9 
REMARK    4  A    between atoms: C7_7  and  C8_8 
REMARK    5  A    between atoms: C7_7  and  N9_9 
ROOT
HETATM    1  C6  UNL     1     -32.198   8.015   3.357  1.00 20.00     0.272 C 
ENDROOT
BRANCH   1   2
HETATM    2  C5  UNL     1     -32.388   7.865   1.853  1.00 20.00     0.034 C 
BRANCH   2   3
HETATM    3  C3  UNL     1     -31.991   9.116   1.083  1.00 20.00    -0.013 A 
HETATM    4  C1  UNL     1     -32.843   9.608  -0.056  1.00 20.00     0.005 A 
HETATM    5  C2  UNL     1     -32.788  10.382   1.232  1.00 20.00     0.005 A 
ENDBRANCH   2   3
ENDBRANCH   1   2
BRANCH   1   6
HETATM    6  N9  UNL     1     -32.917   7.016   4.101  1.00 20.00     0.085 N 
HETATM    7  C4  UNL     1     -33.396   7.548   5.387  1.00 20.00     0.309 C 
BRANCH   6   8
HETATM    8  C7  UNL     1     -34.057   6.491   3.333  1.00 20.00     0.286 C 
BRANCH   8   9
HETATM    9  C8  UNL     1     -34.992   5.646   4.181  1.00 20.00     0.144 C 
HETATM   10 CL10 UNL     1     -34.307   4.031   4.488  1.00 20.00    -0.129 Cl
ENDBRANCH   8   9
ENDBRANCH   6   8
ENDBRANCH   1   6
TORSDOF 5
ENDMDL
MODEL 2
REMARK VINA RESULT:      -5.1      0.957      1.504
REMARK  5 active torsions:
REMARK  status: ('A' for Active; 'I' for Inactive)
REMARK    1  A    between atoms: C3_3  and  C5_5 
REMARK    2  A    between atoms: C5_5  and  C6_6 
REMARK    3  A    between atoms: C6_6  and  N9_9 
REMARK    4  A    between atoms: C7_7  and  C8_8 
REMARK    5  A    between atoms: C7_7  and  N9_9 
ROOT
HETATM    1  C6  UNL     1     -32.054   7.626   3.246  1.00 20.00     0.272 C 
ENDROOT
BRANCH   1   2
HETATM    2  C5  UNL     1     -31.634   8.410   2.009  1.00 20.00     0.034 C 
BRANCH   2   3
HETATM    3  C3  UNL     1     -32.786   9.184   1.384  1.00 20.00    -0.013 A 
HETATM    4  C1  UNL     1     -32.559  10.564   0.831  1.00 20.00     0.005 A 
HETATM    5  C2  UNL     1     -32.826   9.415  -0.101  1.00 20.00     0.005 A 
ENDBRANCH   2   3
ENDBRANCH   1   2
BRANCH   1   6
HETATM    6  N9  UNL     1     -33.275   6.894   3.043  1.00 20.00     0.085 N 
HETATM    7  C4  UNL     1     -33.006   5.501   2.653  1.00 20.00     0.309 C 
BRANCH   6   8
HETATM    8  C7  UNL     1     -34.118   6.911   4.249  1.00 20.00     0.286 C 
BRANCH   8   9
HETATM    9  C8  UNL     1     -35.007   5.684   4.357  1.00 20.00     0.144 C 
HETATM   10 CL10 UNL     1     -34.586   4.703   5.782  1.00 20.00    -0.129 Cl
ENDBRANCH   8   9
ENDBRANCH   6   8
ENDBRANCH   1   6
TORSDOF 5
ENDMDL
MODEL 3
REMARK VINA RESULT:      -4.9      2.654      4.989
REMARK  5 active torsions:
REMARK  status: ('A' for Active; 'I' for Inactive)
REMARK    1  A    between atoms: C3_3  and  C5_5 
REMARK    2  A    between atoms: C5_5  and  C6_6 
REMARK    3  A    between atoms: C6_6  and  N9_9 
REMARK    4  A    between atoms: C7_7  and  C8_8 
REMARK    5  A    between atoms: C7_7  and  N9_9 
ROOT
HETATM    1  C6  UNL     1     -33.265   7.151   2.294  1.00 20.00     0.272 C 
ENDROOT
BRANCH   1   2
HETATM    2  C5  UNL     1     -33.155   6.081   3.373  1.00 20.00     0.034 C 
BRANCH   2   3
HETATM    3  C3  UNL     1     -34.445   5.906   4.161  1.00 20.00    -0.013 A 
HETATM    4  C1  UNL     1     -34.646   4.693   5.028  1.00 20.00     0.005 A 
HETATM    5  C2  UNL     1     -34.443   6.042   5.658  1.00 20.00     0.005 A 
ENDBRANCH   2   3
ENDBRANCH   1   2
BRANCH   1   6
HETATM    6  N9  UNL     1     -32.516   8.334   2.618  1.00 20.00     0.085 N 
HETATM    7  C4  UNL     1     -31.561   8.082   3.709  1.00 20.00     0.309 C 
BRANCH   6   8
HETATM    8  C7  UNL     1     -31.793   8.849   1.444  1.00 20.00     0.286 C 
BRANCH   8   9
HETATM    9  C8  UNL     1     -32.509  10.017   0.785  1.00 20.00     0.144 C 
HETATM   10 CL10 UNL     1     -33.339   9.510  -0.706  1.00 20.00    -0.129 Cl
ENDBRANCH   8   9
ENDBRANCH   6   8
ENDBRANCH   1   6
TORSDOF 5
ENDMDL
MODEL 4
REMARK VINA RESULT:      -4.7      1.093      1.262
REMARK  5 active torsions:
REMARK  status: ('A' for Active; 'I' for Inactive)
REMARK    1  A    between atoms: C3_3  and  C5_5 
REMARK    2  A    between atoms: C5_5  and  C6_6 
REMARK    3  A    between atoms: C6_6  and  N9_9 
REMARK    4  A    between atoms: C7_7  and  C8_8 
REMARK    5  A    between atoms: C7_7  and  N9_9 
ROOT
HETATM    1  C6  UNL     1     -33.650   7.719   3.504  1.00 20.00     0.272 C 
ENDROOT
BRANCH   1   2
HETATM    2  C5  UNL     1     -32.503   7.551   2.517  1.00 20.00     0.034 C 
BRANCH   2   3
HETATM    3  C3  UNL     1     -31.957   8.881   2.017  1.00 20.00    -0.013 A 
HETATM    4  C1  UNL     1     -31.722   9.100   0.547  1.00 20.00     0.005 A 
HETATM    5  C2  UNL     1     -32.841   9.820   1.246  1.00 20.00     0.005 A 
ENDBRANCH   2   3
ENDBRANCH   1   2
BRANCH   1   6
HETATM    6  N9  UNL     1     -33.636   6.718   4.537  1.00 20.00     0.085 N 
HETATM    7  C4  UNL     1     -33.722   7.326   5.874  1.00 20.00     0.309 C 
BRANCH   6   8
HETATM    8  C7  UNL     1     -34.734   5.755   4.365  1.00 20.00     0.286 C 
BRANCH   8   9
HETATM    9  C8  UNL     1     -34.236   4.338   4.132  1.00 20.00     0.144 C 
HETATM   10 CL10 UNL     1     -33.113   4.265   2.752  1.00 20.00    -0.129 Cl
ENDBRANCH   8   9
ENDBRANCH   6   8
ENDBRANCH   1   6
TORSDOF 5
ENDMDL
MODEL 5
REMARK VINA RESULT:      -3.7     10.645     11.387
REMARK  5 active torsions:
REMARK  status: ('A' for Active; 'I' for Inactive)
REMARK    1  A    between atoms: C3_3  and  C5_5 
REMARK    2  A    between atoms: C5_5  and  C6_6 
REMARK    3  A    between atoms: C6_6  and  N9_9 
REMARK    4  A    between atoms: C7_7  and  C8_8 
REMARK    5  A    between atoms: C7_7  and  N9_9 
ROOT
HETATM    1  C6  UNL     1     -36.538  15.609  -4.244  1.00 20.00     0.272 C 
ENDROOT
BRANCH   1   2
HETATM    2  C5  UNL     1     -36.016  16.778  -3.419  1.00 20.00     0.034 C 
BRANCH   2   3
HETATM    3  C3  UNL     1     -35.119  16.335  -2.272  1.00 20.00    -0.013 A 
HETATM    4  C1  UNL     1     -33.829  17.058  -1.995  1.00 20.00     0.005 A 
HETATM    5  C2  UNL     1     -34.985  17.188  -1.042  1.00 20.00     0.005 A 
ENDBRANCH   2   3
ENDBRANCH   1   2
BRANCH   1   6
HETATM    6  N9  UNL     1     -35.478  14.791  -4.768  1.00 20.00     0.085 N 
HETATM    7  C4  UNL     1     -35.989  13.506  -5.269  1.00 20.00     0.309 C 
BRANCH   6   8
HETATM    8  C7  UNL     1     -34.750  15.482  -5.844  1.00 20.00     0.286 C 
BRANCH   8   9
HETATM    9  C8  UNL     1     -33.263  15.604  -5.557  1.00 20.00     0.144 C 
HETATM   10 CL10 UNL     1     -32.744  14.433  -4.320  1.00 20.00    -0.129 Cl
ENDBRANCH   8   9
ENDBRANCH   6   8
ENDBRANCH   1   6
TORSDOF 5
ENDMDL
MODEL 6
REMARK VINA RESULT:      -3.7      1.663      2.610
REMARK  5 active torsions:
REMARK  status: ('A' for Active; 'I' for Inactive)
REMARK    1  A    between atoms: C3_3  and  C5_5 
REMARK    2  A    between atoms: C5_5  and  C6_6 
REMARK    3  A    between atoms: C6_6  and  N9_9 
REMARK    4  A    between atoms: C7_7  and  C8_8 
REMARK    5  A    between atoms: C7_7  and  N9_9 
ROOT
HETATM    1  C6  UNL     1     -33.812   7.012   5.236  1.00 20.00     0.272 C 
ENDROOT
BRANCH   1   2
HETATM    2  C5  UNL     1     -33.704   7.764   3.916  1.00 20.00     0.034 C 
BRANCH   2   3
HETATM    3  C3  UNL     1     -32.392   7.499   3.193  1.00 20.00    -0.013 A 
HETATM    4  C1  UNL     1     -32.017   8.305   1.979  1.00 20.00     0.005 A 
HETATM    5  C2  UNL     1     -31.270   8.497   3.269  1.00 20.00     0.005 A 
ENDBRANCH   2   3
ENDBRANCH   1   2
BRANCH   1   6
HETATM    6  N9  UNL     1     -34.736   5.913   5.166  1.00 20.00     0.085 N 
HETATM    7  C4  UNL     1     -35.513   5.943   3.917  1.00 20.00     0.309 C 
BRANCH   6   8
HETATM    8  C7  UNL     1     -34.042   4.621   5.280  1.00 20.00     0.286 C 
BRANCH   8   9
HETATM    9  C8  UNL     1     -34.116   3.804   4.001  1.00 20.00     0.144 C 
HETATM   10 CL10 UNL     1     -32.921   4.365   2.805  1.00 20.00    -0.129 Cl
ENDBRANCH   8   9
ENDBRANCH   6   8
ENDBRANCH   1   6
TORSDOF 5
ENDMDL
MODEL 7
REMARK VINA RESULT:      -3.6     10.649     11.323
REMARK  5 active torsions:
REMARK  status: ('A' for Active; 'I' for Inactive)
REMARK    1  A    between atoms: C3_3  and  C5_5 
REMARK    2  A    between atoms: C5_5  and  C6_6 
REMARK    3  A    between atoms: C6_6  and  N9_9 
REMARK    4  A    between atoms: C7_7  and  C8_8 
REMARK    5  A    between atoms: C7_7  and  N9_9 
ROOT
HETATM    1  C6  UNL     1     -33.901  14.791  -5.272  1.00 20.00     0.272 C 
ENDROOT
BRANCH   1   2
HETATM    2  C5  UNL     1     -34.320  14.892  -3.811  1.00 20.00     0.034 C 
BRANCH   2   3
HETATM    3  C3  UNL     1     -34.516  16.330  -3.353  1.00 20.00    -0.013 A 
HETATM    4  C1  UNL     1     -35.086  16.622  -1.991  1.00 20.00     0.005 A 
HETATM    5  C2  UNL     1     -33.638  16.909  -2.278  1.00 20.00     0.005 A 
ENDBRANCH   2   3
ENDBRANCH   1   2
BRANCH   1   6
HETATM    6  N9  UNL     1     -34.982  14.380  -6.125  1.00 20.00     0.085 N 
HETATM    7  C4  UNL     1     -34.502  13.538  -7.232  1.00 20.00     0.309 C 
BRANCH   6   8
HETATM    8  C7  UNL     1     -36.015  13.654  -5.369  1.00 20.00     0.286 C 
BRANCH   8   9
HETATM    9  C8  UNL     1     -37.411  14.205  -5.612  1.00 20.00     0.144 C 
HETATM   10 CL10 UNL     1     -37.922  15.280  -4.287  1.00 20.00    -0.129 Cl
ENDBRANCH   8   9
ENDBRANCH   6   8
ENDBRANCH   1   6
TORSDOF 5
ENDMDL
MODEL 8
REMARK VINA RESULT:      -3.6     10.762     11.700
REMARK  5 active torsions:
REMARK  status: ('A' for Active; 'I' for Inactive)
REMARK    1  A    between atoms: C3_3  and  C5_5 
REMARK    2  A    between atoms: C5_5  and  C6_6 
REMARK    3  A    between atoms: C6_6  and  N9_9 
REMARK    4  A    between atoms: C7_7  and  C8_8 
REMARK    5  A    between atoms: C7_7  and  N9_9 
ROOT
HETATM    1  C6  UNL     1     -33.207  15.565  -5.317  1.00 20.00     0.272 C 
ENDROOT
BRANCH   1   2
HETATM    2  C5  UNL     1     -33.518  15.415  -3.834  1.00 20.00     0.034 C 
BRANCH   2   3
HETATM    3  C3  UNL     1     -34.068  16.693  -3.216  1.00 20.00    -0.013 A 
HETATM    4  C1  UNL     1     -34.894  16.634  -1.961  1.00 20.00     0.005 A 
HETATM    5  C2  UNL     1     -33.506  17.212  -1.922  1.00 20.00     0.005 A 
ENDBRANCH   2   3
ENDBRANCH   1   2
BRANCH   1   6
HETATM    6  N9  UNL     1     -34.375  15.407  -6.140  1.00 20.00     0.085 N 
HETATM    7  C4  UNL     1     -34.693  16.648  -6.864  1.00 20.00     0.309 C 
BRANCH   6   8
HETATM    8  C7  UNL     1     -34.207  14.307  -7.104  1.00 20.00     0.286 C 
BRANCH   8   9
HETATM    9  C8  UNL     1     -35.262  13.225  -6.943  1.00 20.00     0.144 C 
HETATM   10 CL10 UNL     1     -36.088  13.355  -5.370  1.00 20.00    -0.129 Cl
ENDBRANCH   8   9
ENDBRANCH   6   8
ENDBRANCH   1   6
TORSDOF 5
ENDMDL
MODEL 9
REMARK VINA RESULT:      -3.5     10.319     11.104
REMARK  5 active torsions:
REMARK  status: ('A' for Active; 'I' for Inactive)
REMARK    1  A    between atoms: C3_3  and  C5_5 
REMARK    2  A    between atoms: C5_5  and  C6_6 
REMARK    3  A    between atoms: C6_6  and  N9_9 
REMARK    4  A    between atoms: C7_7  and  C8_8 
REMARK    5  A    between atoms: C7_7  and  N9_9 
ROOT
HETATM    1  C6  UNL     1     -33.873  16.212  -4.247  1.00 20.00     0.272 C 
ENDROOT
BRANCH   1   2
HETATM    2  C5  UNL     1     -33.728  17.458  -3.381  1.00 20.00     0.034 C 
BRANCH   2   3
HETATM    3  C3  UNL     1     -33.477  17.130  -1.917  1.00 20.00    -0.013 A 
HETATM    4  C1  UNL     1     -33.119  18.221  -0.945  1.00 20.00     0.005 A 
HETATM    5  C2  UNL     1     -34.464  17.554  -0.865  1.00 20.00     0.005 A 
ENDBRANCH   2   3
ENDBRANCH   1   2
BRANCH   1   6
HETATM    6  N9  UNL     1     -34.866  15.305  -3.739  1.00 20.00     0.085 N 
HETATM    7  C4  UNL     1     -36.227  15.780  -4.033  1.00 20.00     0.309 C 
BRANCH   6   8
HETATM    8  C7  UNL     1     -34.689  13.953  -4.292  1.00 20.00     0.286 C 
BRANCH   8   9
HETATM    9  C8  UNL     1     -35.871  13.509  -5.138  1.00 20.00     0.144 C 
HETATM   10 CL10 UNL     1     -35.377  13.184  -6.818  1.00 20.00    -0.129 Cl
ENDBRANCH   8   9
ENDBRANCH   6   8
ENDBRANCH   1   6
TORSDOF 5
ENDMDL
