MODEL 1
REMARK VINA RESULT:      -5.9      0.000      0.000
REMARK  3 active torsions:
REMARK  status: ('A' for Active; 'I' for Inactive)
REMARK    1  A    between atoms: C7_7  and  C9_9 
REMARK    2  A    between atoms: C9_9  and  C10_10 
REMARK    3  A    between atoms: C10_10  and  N11_11 
ROOT
HETATM    1  C1  UNL     1     -33.602   6.633   5.958  1.00 20.00     0.029 C 
HETATM    2  C4  UNL     1     -34.746   5.631   5.852  1.00 20.00     0.023 C 
HETATM    3  C5  UNL     1     -33.771   7.770   4.961  1.00 20.00     0.235 C 
HETATM    4  C6  UNL     1     -34.988   6.213   3.389  1.00 20.00     0.254 C 
HETATM    5  C8  UNL     1     -34.940   5.099   4.434  1.00 20.00     0.108 C 
HETATM    6  N11 UNL     1     -33.891   7.241   3.555  1.00 20.00    -0.070 N 
HETATM    7 CL12 UNL     1     -33.695   3.878   4.036  1.00 20.00    -0.123 Cl
HETATM    8  H31 UNL     1     -34.222   8.090   2.978  1.00 20.00     0.279 HD
ENDROOT
BRANCH   6   9
HETATM    9  C10 UNL     1     -32.570   6.871   2.938  1.00 20.00     0.235 C 
BRANCH   9  10
HETATM   10  C9  UNL     1     -31.894   8.130   2.419  1.00 20.00     0.032 C 
BRANCH  10  11
HETATM   11  C7  UNL     1     -32.796   8.878   1.451  1.00 20.00    -0.013 A 
HETATM   12  C2  UNL     1     -32.619  10.356   1.239  1.00 20.00     0.005 A 
HETATM   13  C3  UNL     1     -32.248   9.391   0.148  1.00 20.00     0.005 A 
ENDBRANCH  10  11
ENDBRANCH   9  10
ENDBRANCH   6   9
TORSDOF 3
ENDMDL
MODEL 2
REMARK VINA RESULT:      -4.3     11.312     12.263
REMARK  3 active torsions:
REMARK  status: ('A' for Active; 'I' for Inactive)
REMARK    1  A    between atoms: C7_7  and  C9_9 
REMARK    2  A    between atoms: C9_9  and  C10_10 
REMARK    3  A    between atoms: C10_10  and  N11_11 
ROOT
HETATM    1  C1  UNL     1     -35.750  13.429  -6.124  1.00 20.00     0.029 C 
HETATM    2  C4  UNL     1     -34.408  13.866  -6.700  1.00 20.00     0.023 C 
HETATM    3  C5  UNL     1     -36.745  14.579  -6.107  1.00 20.00     0.235 C 
HETATM    4  C6  UNL     1     -34.844  16.221  -5.845  1.00 20.00     0.254 C 
HETATM    5  C8  UNL     1     -33.828  15.089  -5.991  1.00 20.00     0.108 C 
HETATM    6  N11 UNL     1     -36.194  15.757  -5.345  1.00 20.00    -0.070 N 
HETATM    7 CL12 UNL     1     -33.120  14.634  -4.413  1.00 20.00    -0.123 Cl
HETATM    8  H31 UNL     1     -36.866  16.566  -5.583  1.00 20.00     0.279 HD
ENDROOT
BRANCH   6   9
HETATM    9  C10 UNL     1     -36.307  15.613  -3.852  1.00 20.00     0.235 C 
BRANCH   9  10
HETATM   10  C9  UNL     1     -35.771  16.871  -3.189  1.00 20.00     0.032 C 
BRANCH  10  11
HETATM   11  C7  UNL     1     -34.881  16.530  -2.004  1.00 20.00    -0.013 A 
HETATM   12  C2  UNL     1     -33.597  17.279  -1.780  1.00 20.00     0.005 A 
HETATM   13  C3  UNL     1     -34.760  17.486  -0.850  1.00 20.00     0.005 A 
ENDBRANCH  10  11
ENDBRANCH   9  10
ENDBRANCH   6   9
TORSDOF 3
ENDMDL
MODEL 3
REMARK VINA RESULT:      -4.3     11.003     12.173
REMARK  3 active torsions:
REMARK  status: ('A' for Active; 'I' for Inactive)
REMARK    1  A    between atoms: C7_7  and  C9_9 
REMARK    2  A    between atoms: C9_9  and  C10_10 
REMARK    3  A    between atoms: C10_10  and  N11_11 
ROOT
HETATM    1  C1  UNL     1     -34.728  15.596  -6.872  1.00 20.00     0.029 C 
HETATM    2  C4  UNL     1     -35.429  14.325  -6.405  1.00 20.00     0.023 C 
HETATM    3  C5  UNL     1     -33.305  15.668  -6.340  1.00 20.00     0.235 C 
HETATM    4  C6  UNL     1     -33.997  14.344  -4.304  1.00 20.00     0.254 C 
HETATM    5  C8  UNL     1     -35.396  14.153  -4.888  1.00 20.00     0.108 C 
HETATM    6  N11 UNL     1     -33.285  15.568  -4.836  1.00 20.00    -0.070 N 
HETATM    7 CL12 UNL     1     -36.589  15.227  -4.099  1.00 20.00    -0.123 Cl
HETATM    8  H31 UNL     1     -32.247  15.408  -4.594  1.00 20.00     0.279 HD
ENDROOT
BRANCH   6   9
HETATM    9  C10 UNL     1     -33.629  16.859  -4.145  1.00 20.00     0.235 C 
BRANCH   9  10
HETATM   10  C9  UNL     1     -33.547  16.654  -2.640  1.00 20.00     0.032 C 
BRANCH  10  11
HETATM   11  C7  UNL     1     -34.476  17.606  -1.906  1.00 20.00    -0.013 A 
HETATM   12  C2  UNL     1     -35.477  17.076  -0.918  1.00 20.00     0.005 A 
HETATM   13  C3  UNL     1     -34.290  17.861  -0.435  1.00 20.00     0.005 A 
ENDBRANCH  10  11
ENDBRANCH   9  10
ENDBRANCH   6   9
TORSDOF 3
ENDMDL
MODEL 4
REMARK VINA RESULT:      -4.3     11.135     12.206
REMARK  3 active torsions:
REMARK  status: ('A' for Active; 'I' for Inactive)
REMARK    1  A    between atoms: C7_7  and  C9_9 
REMARK    2  A    between atoms: C9_9  and  C10_10 
REMARK    3  A    between atoms: C10_10  and  N11_11 
ROOT
HETATM    1  C1  UNL     1     -33.798  15.263  -6.869  1.00 20.00     0.029 C 
HETATM    2  C4  UNL     1     -34.448  13.889  -7.001  1.00 20.00     0.023 C 
HETATM    3  C5  UNL     1     -33.264  15.488  -5.463  1.00 20.00     0.235 C 
HETATM    4  C6  UNL     1     -35.065  13.981  -4.535  1.00 20.00     0.254 C 
HETATM    5  C8  UNL     1     -35.530  13.643  -5.952  1.00 20.00     0.108 C 
HETATM    6  N11 UNL     1     -34.354  15.312  -4.437  1.00 20.00    -0.070 N 
HETATM    7 CL12 UNL     1     -37.036  14.512  -6.374  1.00 20.00    -0.123 Cl
HETATM    8  H31 UNL     1     -33.831  15.273  -3.496  1.00 20.00     0.279 HD
ENDROOT
BRANCH   6   9
HETATM    9  C10 UNL     1     -35.255  16.509  -4.307  1.00 20.00     0.235 C 
BRANCH   9  10
HETATM   10  C9  UNL     1     -35.651  16.678  -2.849  1.00 20.00     0.032 C 
BRANCH  10  11
HETATM   11  C7  UNL     1     -34.432  16.645  -1.942  1.00 20.00    -0.013 A 
HETATM   12  C2  UNL     1     -33.412  17.747  -2.003  1.00 20.00     0.005 A 
HETATM   13  C3  UNL     1     -34.309  17.620  -0.804  1.00 20.00     0.005 A 
ENDBRANCH  10  11
ENDBRANCH   9  10
ENDBRANCH   6   9
TORSDOF 3
ENDMDL
MODEL 5
REMARK VINA RESULT:      -4.1     11.539     12.473
REMARK  3 active torsions:
REMARK  status: ('A' for Active; 'I' for Inactive)
REMARK    1  A    between atoms: C7_7  and  C9_9 
REMARK    2  A    between atoms: C9_9  and  C10_10 
REMARK    3  A    between atoms: C10_10  and  N11_11 
ROOT
HETATM    1  C1  UNL     1     -35.850  13.821  -5.080  1.00 20.00     0.029 C 
HETATM    2  C4  UNL     1     -36.264  13.888  -6.546  1.00 20.00     0.023 C 
HETATM    3  C5  UNL     1     -36.026  15.167  -4.395  1.00 20.00     0.235 C 
HETATM    4  C6  UNL     1     -35.598  16.343  -6.589  1.00 20.00     0.254 C 
HETATM    5  C8  UNL     1     -35.548  14.998  -7.314  1.00 20.00     0.108 C 
HETATM    6  N11 UNL     1     -35.260  16.245  -5.118  1.00 20.00    -0.070 N 
HETATM    7 CL12 UNL     1     -33.868  14.523  -7.702  1.00 20.00    -0.123 Cl
HETATM    8  H31 UNL     1     -35.627  17.165  -4.692  1.00 20.00     0.279 HD
ENDROOT
BRANCH   6   9
HETATM    9  C10 UNL     1     -33.790  16.254  -4.799  1.00 20.00     0.235 C 
BRANCH   9  10
HETATM   10  C9  UNL     1     -33.605  16.075  -3.301  1.00 20.00     0.032 C 
BRANCH  10  11
HETATM   11  C7  UNL     1     -33.897  17.366  -2.554  1.00 20.00    -0.013 A 
HETATM   12  C2  UNL     1     -34.450  17.325  -1.156  1.00 20.00     0.005 A 
HETATM   13  C3  UNL     1     -33.037  17.779  -1.391  1.00 20.00     0.005 A 
ENDBRANCH  10  11
ENDBRANCH   9  10
ENDBRANCH   6   9
TORSDOF 3
ENDMDL
MODEL 6
REMARK VINA RESULT:      -3.9      2.369      5.225
REMARK  3 active torsions:
REMARK  status: ('A' for Active; 'I' for Inactive)
REMARK    1  A    between atoms: C7_7  and  C9_9 
REMARK    2  A    between atoms: C9_9  and  C10_10 
REMARK    3  A    between atoms: C10_10  and  N11_11 
ROOT
HETATM    1  C1  UNL     1     -32.794  10.478   2.288  1.00 20.00     0.029 C 
HETATM    2  C4  UNL     1     -32.177  10.788   0.928  1.00 20.00     0.023 C 
HETATM    3  C5  UNL     1     -32.011   9.396   3.015  1.00 20.00     0.235 C 
HETATM    4  C6  UNL     1     -31.336   8.392   0.799  1.00 20.00     0.254 C 
HETATM    5  C8  UNL     1     -32.009   9.546   0.056  1.00 20.00     0.108 C 
HETATM    6  N11 UNL     1     -31.910   8.147   2.177  1.00 20.00    -0.070 N 
HETATM    7 CL12 UNL     1     -33.575   9.047  -0.651  1.00 20.00    -0.123 Cl
HETATM    8  H31 UNL     1     -31.168   7.548   2.679  1.00 20.00     0.279 HD
ENDROOT
BRANCH   6   9
HETATM    9  C10 UNL     1     -33.151   7.299   2.211  1.00 20.00     0.235 C 
BRANCH   9  10
HETATM   10  C9  UNL     1     -33.094   6.383   3.424  1.00 20.00     0.032 C 
BRANCH  10  11
HETATM   11  C7  UNL     1     -34.169   6.746   4.436  1.00 20.00    -0.013 A 
HETATM   12  C2  UNL     1     -34.437   5.847   5.610  1.00 20.00     0.005 A 
HETATM   13  C3  UNL     1     -33.786   7.185   5.822  1.00 20.00     0.005 A 
ENDBRANCH  10  11
ENDBRANCH   9  10
ENDBRANCH   6   9
TORSDOF 3
ENDMDL
MODEL 7
REMARK VINA RESULT:      -3.8     11.351     12.327
REMARK  3 active torsions:
REMARK  status: ('A' for Active; 'I' for Inactive)
REMARK    1  A    between atoms: C7_7  and  C9_9 
REMARK    2  A    between atoms: C9_9  and  C10_10 
REMARK    3  A    between atoms: C10_10  and  N11_11 
ROOT
HETATM    1  C1  UNL     1     -34.892  16.745  -1.570  1.00 20.00     0.029 C 
HETATM    2  C4  UNL     1     -36.150  17.411  -2.117  1.00 20.00     0.023 C 
HETATM    3  C5  UNL     1     -33.646  17.254  -2.277  1.00 20.00     0.235 C 
HETATM    4  C6  UNL     1     -34.999  17.663  -4.370  1.00 20.00     0.254 C 
HETATM    5  C8  UNL     1     -36.281  17.278  -3.633  1.00 20.00     0.108 C 
HETATM    6  N11 UNL     1     -33.752  17.055  -3.768  1.00 20.00    -0.070 N 
HETATM    7 CL12 UNL     1     -36.829  15.636  -4.082  1.00 20.00    -0.123 Cl
HETATM    8  H31 UNL     1     -32.940  17.637  -4.173  1.00 20.00     0.279 HD
ENDROOT
BRANCH   6   9
HETATM    9  C10 UNL     1     -33.450  15.649  -4.208  1.00 20.00     0.235 C 
BRANCH   9  10
HETATM   10  C9  UNL     1     -33.164  15.646  -5.701  1.00 20.00     0.032 C 
BRANCH  10  11
HETATM   11  C7  UNL     1     -34.042  14.639  -6.426  1.00 20.00    -0.013 A 
HETATM   12  C2  UNL     1     -35.160  15.109  -7.313  1.00 20.00     0.005 A 
HETATM   13  C3  UNL     1     -33.936  14.479  -7.918  1.00 20.00     0.005 A 
ENDBRANCH  10  11
ENDBRANCH   9  10
ENDBRANCH   6   9
TORSDOF 3
ENDMDL
MODEL 8
REMARK VINA RESULT:      -3.8     11.725     12.673
REMARK  3 active torsions:
REMARK  status: ('A' for Active; 'I' for Inactive)
REMARK    1  A    between atoms: C7_7  and  C9_9 
REMARK    2  A    between atoms: C9_9  and  C10_10 
REMARK    3  A    between atoms: C10_10  and  N11_11 
ROOT
HETATM    1  C1  UNL     1     -35.859  17.003  -5.562  1.00 20.00     0.029 C 
HETATM    2  C4  UNL     1     -35.624  15.778  -6.438  1.00 20.00     0.023 C 
HETATM    3  C5  UNL     1     -34.571  17.784  -5.348  1.00 20.00     0.235 C 
HETATM    4  C6  UNL     1     -33.240  15.649  -5.564  1.00 20.00     0.254 C 
HETATM    5  C8  UNL     1     -34.512  14.875  -5.909  1.00 20.00     0.108 C 
HETATM    6  N11 UNL     1     -33.498  16.903  -4.760  1.00 20.00    -0.070 N 
HETATM    7 CL12 UNL     1     -35.086  13.903  -4.522  1.00 20.00    -0.123 Cl
HETATM    8  H31 UNL     1     -32.594  17.483  -4.858  1.00 20.00     0.279 HD
ENDROOT
BRANCH   6   9
HETATM    9  C10 UNL     1     -33.640  16.694  -3.277  1.00 20.00     0.235 C 
BRANCH   9  10
HETATM   10  C9  UNL     1     -33.324  17.996  -2.559  1.00 20.00     0.032 C 
BRANCH  10  11
HETATM   11  C7  UNL     1     -33.108  17.764  -1.072  1.00 20.00    -0.013 A 
HETATM   12  C2  UNL     1     -32.207  18.676  -0.286  1.00 20.00     0.005 A 
HETATM   13  C3  UNL     1     -33.693  18.715  -0.065  1.00 20.00     0.005 A 
ENDBRANCH  10  11
ENDBRANCH   9  10
ENDBRANCH   6   9
TORSDOF 3
ENDMDL
MODEL 9
REMARK VINA RESULT:      -3.8      1.511      2.055
REMARK  3 active torsions:
REMARK  status: ('A' for Active; 'I' for Inactive)
REMARK    1  A    between atoms: C7_7  and  C9_9 
REMARK    2  A    between atoms: C9_9  and  C10_10 
REMARK    3  A    between atoms: C10_10  and  N11_11 
ROOT
HETATM    1  C1  UNL     1     -35.365   6.479   2.945  1.00 20.00     0.029 C 
HETATM    2  C4  UNL     1     -35.493   5.523   4.126  1.00 20.00     0.023 C 
HETATM    3  C5  UNL     1     -34.149   6.146   2.095  1.00 20.00     0.235 C 
HETATM    4  C6  UNL     1     -32.965   5.248   4.137  1.00 20.00     0.254 C 
HETATM    5  C8  UNL     1     -34.225   5.457   4.976  1.00 20.00     0.108 C 
HETATM    6  N11 UNL     1     -32.891   6.152   2.926  1.00 20.00    -0.070 N 
HETATM    7 CL12 UNL     1     -34.085   6.900   6.024  1.00 20.00    -0.123 Cl
HETATM    8  H31 UNL     1     -32.149   5.697   2.290  1.00 20.00     0.279 HD
ENDROOT
BRANCH   6   9
HETATM    9  C10 UNL     1     -32.352   7.531   3.190  1.00 20.00     0.235 C 
BRANCH   9  10
HETATM   10  C9  UNL     1     -31.890   8.144   1.878  1.00 20.00     0.032 C 
BRANCH  10  11
HETATM   11  C7  UNL     1     -32.885   9.175   1.372  1.00 20.00    -0.013 A 
HETATM   12  C2  UNL     1     -32.417  10.545   0.968  1.00 20.00     0.005 A 
HETATM   13  C3  UNL     1     -32.890   9.574  -0.078  1.00 20.00     0.005 A 
ENDBRANCH  10  11
ENDBRANCH   9  10
ENDBRANCH   6   9
TORSDOF 3
ENDMDL
