MODEL 1
REMARK VINA RESULT:      -6.4      0.000      0.000
REMARK  2 active torsions:
REMARK  status: ('A' for Active; 'I' for Inactive)
REMARK    1  A    between atoms: C3_3  and  C7_7 
REMARK    2  A    between atoms: C8_8  and  C10_10 
ROOT
HETATM    1  C1  UNL     1     -32.463   9.366   0.801  1.00 20.00     0.021 C 
HETATM    2  C2  UNL     1     -32.185   8.784   1.814  1.00 20.00    -0.039 C 
HETATM    3  C3  UNL     1     -31.850   8.085   3.032  1.00 20.00     0.205 C 
HETATM    4  O11 UNL     1     -30.849   8.402   3.660  1.00 20.00    -0.283 OA
ENDROOT
BRANCH   3   5
HETATM    5  C7  UNL     1     -32.798   6.975   3.453  1.00 20.00     0.069 C 
HETATM    6  C4  UNL     1     -33.943   6.758   2.471  1.00 20.00     0.013 C 
HETATM    7  C5  UNL     1     -34.968   5.959   3.272  1.00 20.00     0.005 C 
HETATM    8  C8  UNL     1     -34.749   6.351   4.734  1.00 20.00    -0.014 C 
HETATM    9  C6  UNL     1     -33.533   7.275   4.760  1.00 20.00     0.017 C 
BRANCH   8  10
HETATM   10  C10 UNL     1     -34.431   5.107   5.543  1.00 20.00     0.000 C 
HETATM   11  C9  UNL     1     -34.223   3.909   4.671  1.00 20.00     0.005 C 
ENDBRANCH   8  10
ENDBRANCH   3   5
TORSDOF 2
ENDMDL
MODEL 2
REMARK VINA RESULT:      -6.2      1.469      4.532
REMARK  2 active torsions:
REMARK  status: ('A' for Active; 'I' for Inactive)
REMARK    1  A    between atoms: C3_3  and  C7_7 
REMARK    2  A    between atoms: C8_8  and  C10_10 
ROOT
HETATM    1  C1  UNL     1     -34.792   4.548   5.383  1.00 20.00     0.021 C 
HETATM    2  C2  UNL     1     -34.342   5.659   5.320  1.00 20.00    -0.039 C 
HETATM    3  C3  UNL     1     -33.802   6.996   5.246  1.00 20.00     0.205 C 
HETATM    4  O11 UNL     1     -33.589   7.625   6.274  1.00 20.00    -0.283 OA
ENDROOT
BRANCH   3   5
HETATM    5  C7  UNL     1     -33.529   7.534   3.852  1.00 20.00     0.069 C 
HETATM    6  C4  UNL     1     -33.450   6.442   2.791  1.00 20.00     0.013 C 
HETATM    7  C5  UNL     1     -32.754   7.123   1.615  1.00 20.00     0.005 C 
HETATM    8  C8  UNL     1     -31.875   8.215   2.227  1.00 20.00    -0.014 C 
HETATM    9  C6  UNL     1     -32.167   8.219   3.726  1.00 20.00     0.017 C 
BRANCH   8  10
HETATM   10  C10 UNL     1     -32.274   9.561   1.651  1.00 20.00     0.000 C 
HETATM   11  C9  UNL     1     -32.705   9.452   0.222  1.00 20.00     0.005 C 
ENDBRANCH   8  10
ENDBRANCH   3   5
TORSDOF 2
ENDMDL
MODEL 3
REMARK VINA RESULT:      -5.6      1.910      4.813
REMARK  2 active torsions:
REMARK  status: ('A' for Active; 'I' for Inactive)
REMARK    1  A    between atoms: C3_3  and  C7_7 
REMARK    2  A    between atoms: C8_8  and  C10_10 
ROOT
HETATM    1  C1  UNL     1     -33.967   7.186   6.187  1.00 20.00     0.021 C 
HETATM    2  C2  UNL     1     -33.951   6.872   5.029  1.00 20.00    -0.039 C 
HETATM    3  C3  UNL     1     -33.933   6.493   3.636  1.00 20.00     0.205 C 
HETATM    4  O11 UNL     1     -34.689   5.620   3.232  1.00 20.00    -0.283 OA
ENDROOT
BRANCH   3   5
HETATM    5  C7  UNL     1     -32.945   7.233   2.750  1.00 20.00     0.069 C 
HETATM    6  C4  UNL     1     -31.747   7.784   3.516  1.00 20.00     0.013 C 
HETATM    7  C5  UNL     1     -31.152   8.823   2.569  1.00 20.00     0.005 C 
HETATM    8  C8  UNL     1     -32.319   9.326   1.717  1.00 20.00    -0.014 C 
HETATM    9  C6  UNL     1     -33.535   8.490   2.108  1.00 20.00     0.017 C 
BRANCH   8  10
HETATM   10  C10 UNL     1     -32.012   9.081   0.252  1.00 20.00     0.000 C 
HETATM   11  C9  UNL     1     -33.189   9.377  -0.624  1.00 20.00     0.005 C 
ENDBRANCH   8  10
ENDBRANCH   3   5
TORSDOF 2
ENDMDL
MODEL 4
REMARK VINA RESULT:      -5.0      1.292      2.285
REMARK  2 active torsions:
REMARK  status: ('A' for Active; 'I' for Inactive)
REMARK    1  A    between atoms: C3_3  and  C7_7 
REMARK    2  A    between atoms: C8_8  and  C10_10 
ROOT
HETATM    1  C1  UNL     1     -33.559   9.950  -0.775  1.00 20.00     0.021 C 
HETATM    2  C2  UNL     1     -32.872   9.406   0.045  1.00 20.00    -0.039 C 
HETATM    3  C3  UNL     1     -32.044   8.751   1.030  1.00 20.00     0.205 C 
HETATM    4  O11 UNL     1     -30.836   8.665   0.851  1.00 20.00    -0.283 OA
ENDROOT
BRANCH   3   5
HETATM    5  C7  UNL     1     -32.760   8.203   2.253  1.00 20.00     0.069 C 
HETATM    6  C4  UNL     1     -31.982   8.413   3.548  1.00 20.00     0.013 C 
HETATM    7  C5  UNL     1     -32.630   7.437   4.527  1.00 20.00     0.005 C 
HETATM    8  C8  UNL     1     -33.179   6.293   3.673  1.00 20.00    -0.014 C 
HETATM    9  C6  UNL     1     -32.940   6.685   2.216  1.00 20.00     0.017 C 
BRANCH   8  10
HETATM   10  C10 UNL     1     -34.673   6.168   3.903  1.00 20.00     0.000 C 
HETATM   11  C9  UNL     1     -34.991   5.213   5.011  1.00 20.00     0.005 C 
ENDBRANCH   8  10
ENDBRANCH   3   5
TORSDOF 2
ENDMDL
MODEL 5
REMARK VINA RESULT:      -5.0      1.459      4.722
REMARK  2 active torsions:
REMARK  status: ('A' for Active; 'I' for Inactive)
REMARK    1  A    between atoms: C3_3  and  C7_7 
REMARK    2  A    between atoms: C8_8  and  C10_10 
ROOT
HETATM    1  C1  UNL     1     -34.777   4.511   4.488  1.00 20.00     0.021 C 
HETATM    2  C2  UNL     1     -34.281   5.602   4.555  1.00 20.00    -0.039 C 
HETATM    3  C3  UNL     1     -33.686   6.915   4.637  1.00 20.00     0.205 C 
HETATM    4  O11 UNL     1     -33.832   7.588   5.649  1.00 20.00    -0.283 OA
ENDROOT
BRANCH   3   5
HETATM    5  C7  UNL     1     -32.897   7.373   3.422  1.00 20.00     0.069 C 
HETATM    6  C4  UNL     1     -31.561   8.015   3.781  1.00 20.00     0.013 C 
HETATM    7  C5  UNL     1     -31.166   8.771   2.515  1.00 20.00     0.005 C 
HETATM    8  C8  UNL     1     -32.479   9.132   1.819  1.00 20.00    -0.014 C 
HETATM    9  C6  UNL     1     -33.596   8.480   2.632  1.00 20.00     0.017 C 
BRANCH   8  10
HETATM   10  C10 UNL     1     -32.486   8.539   0.423  1.00 20.00     0.000 C 
HETATM   11  C9  UNL     1     -33.204   9.416  -0.555  1.00 20.00     0.005 C 
ENDBRANCH   8  10
ENDBRANCH   3   5
TORSDOF 2
ENDMDL
MODEL 6
REMARK VINA RESULT:      -4.9     11.247     12.208
REMARK  2 active torsions:
REMARK  status: ('A' for Active; 'I' for Inactive)
REMARK    1  A    between atoms: C3_3  and  C7_7 
REMARK    2  A    between atoms: C8_8  and  C10_10 
ROOT
HETATM    1  C1  UNL     1     -34.103  14.081  -7.811  1.00 20.00     0.021 C 
HETATM    2  C2  UNL     1     -34.692  13.933  -6.776  1.00 20.00    -0.039 C 
HETATM    3  C3  UNL     1     -35.403  13.754  -5.532  1.00 20.00     0.205 C 
HETATM    4  O11 UNL     1     -35.953  12.687  -5.293  1.00 20.00    -0.283 OA
ENDROOT
BRANCH   3   5
HETATM    5  C7  UNL     1     -35.411  14.942  -4.585  1.00 20.00     0.069 C 
HETATM    6  C4  UNL     1     -35.550  16.281  -5.302  1.00 20.00     0.013 C 
HETATM    7  C5  UNL     1     -35.099  17.302  -4.261  1.00 20.00     0.005 C 
HETATM    8  C8  UNL     1     -34.111  16.566  -3.356  1.00 20.00    -0.014 C 
HETATM    9  C6  UNL     1     -34.098  15.111  -3.818  1.00 20.00     0.017 C 
BRANCH   8  10
HETATM   10  C10 UNL     1     -34.610  16.616  -1.924  1.00 20.00     0.000 C 
HETATM   11  C9  UNL     1     -33.922  17.681  -1.128  1.00 20.00     0.005 C 
ENDBRANCH   8  10
ENDBRANCH   3   5
TORSDOF 2
ENDMDL
MODEL 7
REMARK VINA RESULT:      -4.8      1.825      4.869
REMARK  2 active torsions:
REMARK  status: ('A' for Active; 'I' for Inactive)
REMARK    1  A    between atoms: C3_3  and  C7_7 
REMARK    2  A    between atoms: C8_8  and  C10_10 
ROOT
HETATM    1  C1  UNL     1     -34.411   4.664   5.725  1.00 20.00     0.021 C 
HETATM    2  C2  UNL     1     -34.526   5.337   4.738  1.00 20.00    -0.039 C 
HETATM    3  C3  UNL     1     -34.665   6.144   3.549  1.00 20.00     0.205 C 
HETATM    4  O11 UNL     1     -35.758   6.252   3.010  1.00 20.00    -0.283 OA
ENDROOT
BRANCH   3   5
HETATM    5  C7  UNL     1     -33.402   6.822   3.045  1.00 20.00     0.069 C 
HETATM    6  C4  UNL     1     -32.491   7.307   4.168  1.00 20.00     0.013 C 
HETATM    7  C5  UNL     1     -31.562   8.305   3.482  1.00 20.00     0.005 C 
HETATM    8  C8  UNL     1     -32.357   8.871   2.304  1.00 20.00    -0.014 C 
HETATM    9  C6  UNL     1     -33.679   8.108   2.265  1.00 20.00     0.017 C 
BRANCH   8  10
HETATM   10  C10 UNL     1     -31.603   8.602   1.016  1.00 20.00     0.000 C 
HETATM   11  C9  UNL     1     -32.302   9.183  -0.174  1.00 20.00     0.005 C 
ENDBRANCH   8  10
ENDBRANCH   3   5
TORSDOF 2
ENDMDL
MODEL 8
REMARK VINA RESULT:      -4.7     11.094     12.307
REMARK  2 active torsions:
REMARK  status: ('A' for Active; 'I' for Inactive)
REMARK    1  A    between atoms: C3_3  and  C7_7 
REMARK    2  A    between atoms: C8_8  and  C10_10 
ROOT
HETATM    1  C1  UNL     1     -38.919  14.669  -5.317  1.00 20.00     0.021 C 
HETATM    2  C2  UNL     1     -37.763  14.349  -5.258  1.00 20.00    -0.039 C 
HETATM    3  C3  UNL     1     -36.374  13.963  -5.186  1.00 20.00     0.205 C 
HETATM    4  O11 UNL     1     -36.062  12.786  -5.305  1.00 20.00    -0.283 OA
ENDROOT
BRANCH   3   5
HETATM    5  C7  UNL     1     -35.375  15.086  -4.963  1.00 20.00     0.069 C 
HETATM    6  C4  UNL     1     -34.275  15.130  -6.018  1.00 20.00     0.013 C 
HETATM    7  C5  UNL     1     -33.189  15.992  -5.381  1.00 20.00     0.005 C 
HETATM    8  C8  UNL     1     -33.344  15.807  -3.870  1.00 20.00    -0.014 C 
HETATM    9  C6  UNL     1     -34.582  14.938  -3.663  1.00 20.00     0.017 C 
BRANCH   8  10
HETATM   10  C10 UNL     1     -33.585  17.158  -3.222  1.00 20.00     0.000 C 
HETATM   11  C9  UNL     1     -34.102  17.023  -1.824  1.00 20.00     0.005 C 
ENDBRANCH   8  10
ENDBRANCH   3   5
TORSDOF 2
ENDMDL
MODEL 9
REMARK VINA RESULT:      -4.6     11.412     12.254
REMARK  2 active torsions:
REMARK  status: ('A' for Active; 'I' for Inactive)
REMARK    1  A    between atoms: C3_3  and  C7_7 
REMARK    2  A    between atoms: C8_8  and  C10_10 
ROOT
HETATM    1  C1  UNL     1     -36.563  14.881  -7.712  1.00 20.00     0.021 C 
HETATM    2  C2  UNL     1     -36.271  14.393  -6.655  1.00 20.00    -0.039 C 
HETATM    3  C3  UNL     1     -35.920  13.804  -5.384  1.00 20.00     0.205 C 
HETATM    4  O11 UNL     1     -35.859  12.587  -5.273  1.00 20.00    -0.283 OA
ENDROOT
BRANCH   3   5
HETATM    5  C7  UNL     1     -35.644  14.774  -4.247  1.00 20.00     0.069 C 
HETATM    6  C4  UNL     1     -36.826  15.685  -3.934  1.00 20.00     0.013 C 
HETATM    7  C5  UNL     1     -36.209  16.819  -3.120  1.00 20.00     0.005 C 
HETATM    8  C8  UNL     1     -34.754  16.920  -3.582  1.00 20.00    -0.014 C 
HETATM    9  C6  UNL     1     -34.530  15.772  -4.564  1.00 20.00     0.017 C 
BRANCH   8  10
HETATM   10  C10 UNL     1     -33.836  16.725  -2.390  1.00 20.00     0.000 C 
HETATM   11  C9  UNL     1     -34.419  17.293  -1.134  1.00 20.00     0.005 C 
ENDBRANCH   8  10
ENDBRANCH   3   5
TORSDOF 2
ENDMDL
