MODEL 1
REMARK VINA RESULT:      -4.9      0.000      0.000
REMARK  2 active torsions:
REMARK  status: ('A' for Active; 'I' for Inactive)
REMARK    1  A    between atoms: C3_3  and  C8_8 
REMARK    2  A    between atoms: C9_9  and  C12_12 
ROOT
HETATM    1  C1  UNL     1     -37.132  14.898  -7.776  1.00 20.00     0.021 C 
HETATM    2  C2  UNL     1     -36.296  14.397  -7.077  1.00 20.00    -0.039 C 
HETATM    3  C3  UNL     1     -35.289  13.793  -6.236  1.00 20.00     0.205 C 
HETATM    4  O13 UNL     1     -34.328  13.231  -6.745  1.00 20.00    -0.283 OA
ENDROOT
BRANCH   3   5
HETATM    5  C8  UNL     1     -35.508  13.906  -4.736  1.00 20.00     0.069 C 
HETATM    6  C4  UNL     1     -34.160  14.034  -4.033  1.00 20.00     0.013 C 
HETATM    7  C6  UNL     1     -33.524  15.417  -4.168  1.00 20.00     0.006 C 
HETATM    8  C9  UNL     1     -34.479  16.561  -3.805  1.00 20.00    -0.011 C 
HETATM    9  C7  UNL     1     -35.786  16.443  -4.597  1.00 20.00     0.006 C 
HETATM   10  C5  UNL     1     -36.453  15.073  -4.463  1.00 20.00     0.013 C 
BRANCH   8  11
HETATM   11  C12 UNL     1     -34.734  16.631  -2.297  1.00 20.00    -0.019 C 
HETATM   12  C10 UNL     1     -33.556  17.292  -1.584  1.00 20.00     0.010 C 
HETATM   13  C11 UNL     1     -36.029  17.386  -2.006  1.00 20.00     0.010 C 
ENDBRANCH   8  11
ENDBRANCH   3   5
TORSDOF 2
ENDMDL
MODEL 2
REMARK VINA RESULT:      -4.9     10.193     11.661
REMARK  2 active torsions:
REMARK  status: ('A' for Active; 'I' for Inactive)
REMARK    1  A    between atoms: C3_3  and  C8_8 
REMARK    2  A    between atoms: C9_9  and  C12_12 
ROOT
HETATM    1  C1  UNL     1     -32.944   9.052  -0.587  1.00 20.00     0.021 C 
HETATM    2  C2  UNL     1     -32.637   9.095   0.572  1.00 20.00    -0.039 C 
HETATM    3  C3  UNL     1     -32.266   9.147   1.967  1.00 20.00     0.205 C 
HETATM    4  O13 UNL     1     -32.267  10.220   2.557  1.00 20.00    -0.283 OA
ENDROOT
BRANCH   3   5
HETATM    5  C8  UNL     1     -31.894   7.824   2.616  1.00 20.00     0.069 C 
HETATM    6  C4  UNL     1     -32.034   7.942   4.130  1.00 20.00     0.013 C 
HETATM    7  C6  UNL     1     -33.482   7.913   4.618  1.00 20.00     0.006 C 
HETATM    8  C9  UNL     1     -34.290   6.740   4.050  1.00 20.00    -0.011 C 
HETATM    9  C7  UNL     1     -34.192   6.710   2.520  1.00 20.00     0.006 C 
HETATM   10  C5  UNL     1     -32.751   6.719   2.006  1.00 20.00     0.013 C 
BRANCH   8  11
HETATM   11  C12 UNL     1     -33.869   5.406   4.672  1.00 20.00    -0.019 C 
HETATM   12  C10 UNL     1     -34.581   5.188   6.005  1.00 20.00     0.010 C 
HETATM   13  C11 UNL     1     -34.157   4.253   3.714  1.00 20.00     0.010 C 
ENDBRANCH   8  11
ENDBRANCH   3   5
TORSDOF 2
ENDMDL
MODEL 3
REMARK VINA RESULT:      -4.9      2.018      5.048
REMARK  2 active torsions:
REMARK  status: ('A' for Active; 'I' for Inactive)
REMARK    1  A    between atoms: C3_3  and  C8_8 
REMARK    2  A    between atoms: C9_9  and  C12_12 
ROOT
HETATM    1  C1  UNL     1     -35.156  17.406  -0.492  1.00 20.00     0.021 C 
HETATM    2  C2  UNL     1     -34.643  17.158  -1.548  1.00 20.00    -0.039 C 
HETATM    3  C3  UNL     1     -34.026  16.860  -2.819  1.00 20.00     0.205 C 
HETATM    4  O13 UNL     1     -33.292  17.685  -3.347  1.00 20.00    -0.283 OA
ENDROOT
BRANCH   3   5
HETATM    5  C8  UNL     1     -34.346  15.501  -3.422  1.00 20.00     0.069 C 
HETATM    6  C4  UNL     1     -35.757  15.522  -4.002  1.00 20.00     0.013 C 
HETATM    7  C6  UNL     1     -35.865  16.273  -5.330  1.00 20.00     0.006 C 
HETATM    8  C9  UNL     1     -34.819  15.834  -6.362  1.00 20.00    -0.011 C 
HETATM    9  C7  UNL     1     -33.409  15.911  -5.764  1.00 20.00     0.006 C 
HETATM   10  C5  UNL     1     -33.269  15.151  -4.444  1.00 20.00     0.013 C 
BRANCH   8  11
HETATM   11  C12 UNL     1     -35.123  14.442  -6.922  1.00 20.00    -0.019 C 
HETATM   12  C10 UNL     1     -36.502  14.417  -7.578  1.00 20.00     0.010 C 
HETATM   13  C11 UNL     1     -34.046  14.018  -7.918  1.00 20.00     0.010 C 
ENDBRANCH   8  11
ENDBRANCH   3   5
TORSDOF 2
ENDMDL
MODEL 4
REMARK VINA RESULT:      -4.9      3.630      6.622
REMARK  2 active torsions:
REMARK  status: ('A' for Active; 'I' for Inactive)
REMARK    1  A    between atoms: C3_3  and  C8_8 
REMARK    2  A    between atoms: C9_9  and  C12_12 
ROOT
HETATM    1  C1  UNL     1     -32.522  19.002   2.619  1.00 20.00     0.021 C 
HETATM    2  C2  UNL     1     -32.287  18.868   1.450  1.00 20.00    -0.039 C 
HETATM    3  C3  UNL     1     -32.003  18.707   0.043  1.00 20.00     0.205 C 
HETATM    4  O13 UNL     1     -30.953  18.185  -0.310  1.00 20.00    -0.283 OA
ENDROOT
BRANCH   3   5
HETATM    5  C8  UNL     1     -33.064  19.214  -0.921  1.00 20.00     0.069 C 
HETATM    6  C4  UNL     1     -32.997  18.413  -2.217  1.00 20.00     0.013 C 
HETATM    7  C6  UNL     1     -33.595  17.010  -2.105  1.00 20.00     0.006 C 
HETATM    8  C9  UNL     1     -34.998  16.996  -1.484  1.00 20.00    -0.011 C 
HETATM    9  C7  UNL     1     -34.999  17.737  -0.142  1.00 20.00     0.006 C 
HETATM   10  C5  UNL     1     -34.423  19.152  -0.232  1.00 20.00     0.013 C 
BRANCH   8  11
HETATM   11  C12 UNL     1     -36.049  17.559  -2.445  1.00 20.00    -0.019 C 
HETATM   12  C10 UNL     1     -36.490  16.490  -3.443  1.00 20.00     0.010 C 
HETATM   13  C11 UNL     1     -37.249  18.098  -1.670  1.00 20.00     0.010 C 
ENDBRANCH   8  11
ENDBRANCH   3   5
TORSDOF 2
ENDMDL
MODEL 5
REMARK VINA RESULT:      -4.9      2.039      4.901
REMARK  2 active torsions:
REMARK  status: ('A' for Active; 'I' for Inactive)
REMARK    1  A    between atoms: C3_3  and  C8_8 
REMARK    2  A    between atoms: C9_9  and  C12_12 
ROOT
HETATM    1  C1  UNL     1     -35.748  17.327  -0.264  1.00 20.00     0.021 C 
HETATM    2  C2  UNL     1     -35.096  17.140  -1.254  1.00 20.00    -0.039 C 
HETATM    3  C3  UNL     1     -34.311  16.915  -2.445  1.00 20.00     0.205 C 
HETATM    4  O13 UNL     1     -33.094  16.817  -2.361  1.00 20.00    -0.283 OA
ENDROOT
BRANCH   3   5
HETATM    5  C8  UNL     1     -35.082  16.814  -3.751  1.00 20.00     0.069 C 
HETATM    6  C4  UNL     1     -34.150  17.125  -4.918  1.00 20.00     0.013 C 
HETATM    7  C6  UNL     1     -33.186  15.988  -5.256  1.00 20.00     0.006 C 
HETATM    8  C9  UNL     1     -33.882  14.630  -5.416  1.00 20.00    -0.011 C 
HETATM    9  C7  UNL     1     -34.740  14.318  -4.184  1.00 20.00     0.006 C 
HETATM   10  C5  UNL     1     -35.727  15.434  -3.836  1.00 20.00     0.013 C 
BRANCH   8  11
HETATM   11  C12 UNL     1     -34.699  14.560  -6.709  1.00 20.00    -0.019 C 
HETATM   12  C10 UNL     1     -33.817  14.868  -7.918  1.00 20.00     0.010 C 
HETATM   13  C11 UNL     1     -35.352  13.188  -6.857  1.00 20.00     0.010 C 
ENDBRANCH   8  11
ENDBRANCH   3   5
TORSDOF 2
ENDMDL
MODEL 6
REMARK VINA RESULT:      -4.8      1.928      4.988
REMARK  2 active torsions:
REMARK  status: ('A' for Active; 'I' for Inactive)
REMARK    1  A    between atoms: C3_3  and  C8_8 
REMARK    2  A    between atoms: C9_9  and  C12_12 
ROOT
HETATM    1  C1  UNL     1     -32.431  18.171  -0.933  1.00 20.00     0.021 C 
HETATM    2  C2  UNL     1     -33.385  17.677  -1.469  1.00 20.00    -0.039 C 
HETATM    3  C3  UNL     1     -34.532  17.082  -2.112  1.00 20.00     0.205 C 
HETATM    4  O13 UNL     1     -35.410  16.564  -1.434  1.00 20.00    -0.283 OA
ENDROOT
BRANCH   3   5
HETATM    5  C8  UNL     1     -34.562  17.148  -3.631  1.00 20.00     0.069 C 
HETATM    6  C4  UNL     1     -33.556  16.155  -4.203  1.00 20.00     0.013 C 
HETATM    7  C6  UNL     1     -34.020  14.700  -4.136  1.00 20.00     0.006 C 
HETATM    8  C9  UNL     1     -35.431  14.487  -4.699  1.00 20.00    -0.011 C 
HETATM    9  C7  UNL     1     -36.426  15.446  -4.034  1.00 20.00     0.006 C 
HETATM   10  C5  UNL     1     -35.993  16.911  -4.105  1.00 20.00     0.013 C 
BRANCH   8  11
HETATM   11  C12 UNL     1     -35.458  14.609  -6.225  1.00 20.00    -0.019 C 
HETATM   12  C10 UNL     1     -34.509  13.595  -6.861  1.00 20.00     0.010 C 
HETATM   13  C11 UNL     1     -36.878  14.421  -6.753  1.00 20.00     0.010 C 
ENDBRANCH   8  11
ENDBRANCH   3   5
TORSDOF 2
ENDMDL
MODEL 7
REMARK VINA RESULT:      -4.7      3.881      6.786
REMARK  2 active torsions:
REMARK  status: ('A' for Active; 'I' for Inactive)
REMARK    1  A    between atoms: C3_3  and  C8_8 
REMARK    2  A    between atoms: C9_9  and  C12_12 
ROOT
HETATM    1  C1  UNL     1     -30.972  18.974   1.633  1.00 20.00     0.021 C 
HETATM    2  C2  UNL     1     -32.154  18.844   1.469  1.00 20.00    -0.039 C 
HETATM    3  C3  UNL     1     -33.576  18.687   1.273  1.00 20.00     0.205 C 
HETATM    4  O13 UNL     1     -34.255  18.155   2.142  1.00 20.00    -0.283 OA
ENDROOT
BRANCH   3   5
HETATM    5  C8  UNL     1     -34.137  19.212  -0.039  1.00 20.00     0.069 C 
HETATM    6  C4  UNL     1     -33.122  18.984  -1.154  1.00 20.00     0.013 C 
HETATM    7  C6  UNL     1     -33.045  17.532  -1.628  1.00 20.00     0.006 C 
HETATM    8  C9  UNL     1     -34.416  16.928  -1.956  1.00 20.00    -0.011 C 
HETATM    9  C7  UNL     1     -35.378  17.103  -0.776  1.00 20.00     0.006 C 
HETATM   10  C5  UNL     1     -35.488  18.551  -0.295  1.00 20.00     0.013 C 
BRANCH   8  11
HETATM   11  C12 UNL     1     -34.994  17.504  -3.251  1.00 20.00    -0.019 C 
HETATM   12  C10 UNL     1     -34.012  17.321  -4.406  1.00 20.00     0.010 C 
HETATM   13  C11 UNL     1     -36.335  16.850  -3.578  1.00 20.00     0.010 C 
ENDBRANCH   8  11
ENDBRANCH   3   5
TORSDOF 2
ENDMDL
MODEL 8
REMARK VINA RESULT:      -4.6      1.609      2.589
REMARK  2 active torsions:
REMARK  status: ('A' for Active; 'I' for Inactive)
REMARK    1  A    between atoms: C3_3  and  C8_8 
REMARK    2  A    between atoms: C9_9  and  C12_12 
ROOT
HETATM    1  C1  UNL     1     -33.781  14.459  -7.917  1.00 20.00     0.021 C 
HETATM    2  C2  UNL     1     -34.603  14.876  -7.149  1.00 20.00    -0.039 C 
HETATM    3  C3  UNL     1     -35.593  15.378  -6.226  1.00 20.00     0.205 C 
HETATM    4  O13 UNL     1     -36.616  14.736  -6.022  1.00 20.00    -0.283 OA
ENDROOT
BRANCH   3   5
HETATM    5  C8  UNL     1     -35.278  16.705  -5.555  1.00 20.00     0.069 C 
HETATM    6  C4  UNL     1     -36.331  17.001  -4.493  1.00 20.00     0.013 C 
HETATM    7  C6  UNL     1     -36.166  16.178  -3.215  1.00 20.00     0.006 C 
HETATM    8  C9  UNL     1     -34.741  16.218  -2.649  1.00 20.00    -0.011 C 
HETATM    9  C7  UNL     1     -33.722  15.831  -3.726  1.00 20.00     0.006 C 
HETATM   10  C5  UNL     1     -33.855  16.654  -5.008  1.00 20.00     0.013 C 
BRANCH   8  11
HETATM   11  C12 UNL     1     -34.417  17.578  -2.024  1.00 20.00    -0.019 C 
HETATM   12  C10 UNL     1     -35.282  17.821  -0.789  1.00 20.00     0.010 C 
HETATM   13  C11 UNL     1     -32.935  17.665  -1.667  1.00 20.00     0.010 C 
ENDBRANCH   8  11
ENDBRANCH   3   5
TORSDOF 2
ENDMDL
MODEL 9
REMARK VINA RESULT:      -4.5      2.943      5.806
REMARK  2 active torsions:
REMARK  status: ('A' for Active; 'I' for Inactive)
REMARK    1  A    between atoms: C3_3  and  C8_8 
REMARK    2  A    between atoms: C9_9  and  C12_12 
ROOT
HETATM    1  C1  UNL     1     -34.159  18.535   1.682  1.00 20.00     0.021 C 
HETATM    2  C2  UNL     1     -33.625  18.536   0.607  1.00 20.00    -0.039 C 
HETATM    3  C3  UNL     1     -32.981  18.539  -0.685  1.00 20.00     0.205 C 
HETATM    4  O13 UNL     1     -31.773  18.355  -0.763  1.00 20.00    -0.283 OA
ENDROOT
BRANCH   3   5
HETATM    5  C8  UNL     1     -33.882  18.776  -1.886  1.00 20.00     0.069 C 
HETATM    6  C4  UNL     1     -33.266  18.125  -3.120  1.00 20.00     0.013 C 
HETATM    7  C6  UNL     1     -33.416  16.603  -3.154  1.00 20.00     0.006 C 
HETATM    8  C9  UNL     1     -34.854  16.131  -2.904  1.00 20.00    -0.011 C 
HETATM    9  C7  UNL     1     -35.403  16.741  -1.609  1.00 20.00     0.006 C 
HETATM   10  C5  UNL     1     -35.282  18.265  -1.560  1.00 20.00     0.013 C 
BRANCH   8  11
HETATM   11  C12 UNL     1     -35.764  16.423  -4.100  1.00 20.00    -0.019 C 
HETATM   12  C10 UNL     1     -35.074  16.034  -5.406  1.00 20.00     0.010 C 
HETATM   13  C11 UNL     1     -37.093  15.687  -3.955  1.00 20.00     0.010 C 
ENDBRANCH   8  11
ENDBRANCH   3   5
TORSDOF 2
ENDMDL
