MODEL 1
REMARK VINA RESULT:      -5.4      0.000      0.000
REMARK  3 active torsions:
REMARK  status: ('A' for Active; 'I' for Inactive)
REMARK    1  A    between atoms: C6_6  and  C10_10 
REMARK    2  A    between atoms: C7_7  and  C11_11 
REMARK    3  A    between atoms: C11_11  and  N12_12 
ROOT
HETATM    1  C1  UNL     1     -32.933   4.312   2.556  1.00 20.00     0.014 C 
HETATM    2  C2  UNL     1     -33.457   5.241   3.108  1.00 20.00    -0.081 C 
HETATM    3  C11 UNL     1     -34.104   6.374   3.785  1.00 20.00     0.301 C 
ENDROOT
BRANCH   3   4
HETATM    4  C7  UNL     1     -33.463   7.692   3.384  1.00 20.00     0.031 C 
HETATM    5  C4  UNL     1     -32.024   7.831   3.875  1.00 20.00     0.008 C 
HETATM    6  C3  UNL     1     -31.447   8.883   2.943  1.00 20.00     0.005 C 
HETATM    7  C6  UNL     1     -31.988   8.463   1.577  1.00 20.00    -0.014 C 
HETATM    8  C5  UNL     1     -33.387   7.892   1.862  1.00 20.00     0.012 C 
BRANCH   7   9
HETATM    9  C10 UNL     1     -31.997   9.599   0.567  1.00 20.00     0.000 C 
HETATM   10  C8  UNL     1     -33.115   9.462  -0.418  1.00 20.00     0.005 C 
ENDBRANCH   7   9
ENDBRANCH   3   4
BRANCH   3  11
HETATM   11  N12 UNL     1     -34.039   6.192   5.215  1.00 20.00     0.095 N 
HETATM   12  C9  UNL     1     -34.676   4.941   5.623  1.00 20.00     0.308 C 
HETATM   13  H31 UNL     1     -34.512   6.968   5.688  1.00 20.00     0.317 HD
ENDBRANCH   3  11
TORSDOF 3
ENDMDL
MODEL 2
REMARK VINA RESULT:      -4.7     10.731     11.524
REMARK  3 active torsions:
REMARK  status: ('A' for Active; 'I' for Inactive)
REMARK    1  A    between atoms: C6_6  and  C10_10 
REMARK    2  A    between atoms: C7_7  and  C11_11 
REMARK    3  A    between atoms: C11_11  and  N12_12 
ROOT
HETATM    1  C1  UNL     1     -35.932  13.404  -5.283  1.00 20.00     0.014 C 
HETATM    2  C2  UNL     1     -35.026  14.024  -4.798  1.00 20.00    -0.081 C 
HETATM    3  C11 UNL     1     -33.913  14.779  -4.205  1.00 20.00     0.301 C 
ENDROOT
BRANCH   3   4
HETATM    4  C7  UNL     1     -34.394  16.094  -3.614  1.00 20.00     0.031 C 
HETATM    5  C4  UNL     1     -35.772  15.988  -2.964  1.00 20.00     0.008 C 
HETATM    6  C3  UNL     1     -35.792  17.175  -2.016  1.00 20.00     0.005 C 
HETATM    7  C6  UNL     1     -34.400  17.136  -1.390  1.00 20.00    -0.014 C 
HETATM    8  C5  UNL     1     -33.473  16.638  -2.511  1.00 20.00     0.012 C 
BRANCH   7   9
HETATM    9  C10 UNL     1     -33.972  18.473  -0.807  1.00 20.00     0.000 C 
HETATM   10  C8  UNL     1     -32.488  18.559  -0.635  1.00 20.00     0.005 C 
ENDBRANCH   7   9
ENDBRANCH   3   4
BRANCH   3  11
HETATM   11  N12 UNL     1     -32.894  15.011  -5.199  1.00 20.00     0.095 N 
HETATM   12  C9  UNL     1     -33.352  15.942  -6.228  1.00 20.00     0.308 C 
HETATM   13  H31 UNL     1     -32.637  14.127  -5.650  1.00 20.00     0.317 HD
ENDBRANCH   3  11
TORSDOF 3
ENDMDL
MODEL 3
REMARK VINA RESULT:      -4.6     10.421     11.559
REMARK  3 active torsions:
REMARK  status: ('A' for Active; 'I' for Inactive)
REMARK    1  A    between atoms: C6_6  and  C10_10 
REMARK    2  A    between atoms: C7_7  and  C11_11 
REMARK    3  A    between atoms: C11_11  and  N12_12 
ROOT
HETATM    1  C1  UNL     1     -34.466  14.162  -4.232  1.00 20.00     0.014 C 
HETATM    2  C2  UNL     1     -34.748  15.217  -3.733  1.00 20.00    -0.081 C 
HETATM    3  C11 UNL     1     -35.096  16.510  -3.128  1.00 20.00     0.301 C 
ENDROOT
BRANCH   3   4
HETATM    4  C7  UNL     1     -34.235  16.797  -1.909  1.00 20.00     0.031 C 
HETATM    5  C4  UNL     1     -33.181  17.874  -2.161  1.00 20.00     0.008 C 
HETATM    6  C3  UNL     1     -32.853  18.361  -0.760  1.00 20.00     0.005 C 
HETATM    7  C6  UNL     1     -34.228  18.460  -0.102  1.00 20.00    -0.014 C 
HETATM    8  C5  UNL     1     -35.040  17.301  -0.702  1.00 20.00     0.012 C 
BRANCH   7   9
HETATM    9  C10 UNL     1     -34.163  18.425   1.417  1.00 20.00     0.000 C 
HETATM   10  C8  UNL     1     -32.782  18.700   1.924  1.00 20.00     0.005 C 
ENDBRANCH   7   9
ENDBRANCH   3   4
BRANCH   3  11
HETATM   11  N12 UNL     1     -36.495  16.526  -2.778  1.00 20.00     0.095 N 
HETATM   12  C9  UNL     1     -37.293  17.213  -3.791  1.00 20.00     0.308 C 
HETATM   13  H31 UNL     1     -36.626  17.004  -1.881  1.00 20.00     0.317 HD
ENDBRANCH   3  11
TORSDOF 3
ENDMDL
MODEL 4
REMARK VINA RESULT:      -4.6      0.985      1.937
REMARK  3 active torsions:
REMARK  status: ('A' for Active; 'I' for Inactive)
REMARK    1  A    between atoms: C6_6  and  C10_10 
REMARK    2  A    between atoms: C7_7  and  C11_11 
REMARK    3  A    between atoms: C11_11  and  N12_12 
ROOT
HETATM    1  C1  UNL     1     -34.839   5.842   5.939  1.00 20.00     0.014 C 
HETATM    2  C2  UNL     1     -34.126   5.960   4.980  1.00 20.00    -0.081 C 
HETATM    3  C11 UNL     1     -33.251   6.098   3.807  1.00 20.00     0.301 C 
ENDROOT
BRANCH   3   4
HETATM    4  C7  UNL     1     -33.043   7.559   3.445  1.00 20.00     0.031 C 
HETATM    5  C4  UNL     1     -31.640   8.062   3.777  1.00 20.00     0.008 C 
HETATM    6  C3  UNL     1     -31.493   9.276   2.875  1.00 20.00     0.005 C 
HETATM    7  C6  UNL     1     -32.081   8.791   1.551  1.00 20.00    -0.014 C 
HETATM    8  C5  UNL     1     -33.227   7.846   1.947  1.00 20.00     0.012 C 
BRANCH   7   9
HETATM    9  C10 UNL     1     -32.526   9.929   0.647  1.00 20.00     0.000 C 
HETATM   10  C8  UNL     1     -33.202   9.428  -0.591  1.00 20.00     0.005 C 
ENDBRANCH   7   9
ENDBRANCH   3   4
BRANCH   3  11
HETATM   11  N12 UNL     1     -33.810   5.372   2.692  1.00 20.00     0.095 N 
HETATM   12  C9  UNL     1     -32.993   4.211   2.347  1.00 20.00     0.308 C 
HETATM   13  H31 UNL     1     -33.870   5.983   1.871  1.00 20.00     0.317 HD
ENDBRANCH   3  11
TORSDOF 3
ENDMDL
MODEL 5
REMARK VINA RESULT:      -4.4      1.232      1.902
REMARK  3 active torsions:
REMARK  status: ('A' for Active; 'I' for Inactive)
REMARK    1  A    between atoms: C6_6  and  C10_10 
REMARK    2  A    between atoms: C7_7  and  C11_11 
REMARK    3  A    between atoms: C11_11  and  N12_12 
ROOT
HETATM    1  C1  UNL     1     -34.381   6.895   6.605  1.00 20.00     0.014 C 
HETATM    2  C2  UNL     1     -33.901   6.655   5.531  1.00 20.00    -0.081 C 
HETATM    3  C11 UNL     1     -33.313   6.356   4.218  1.00 20.00     0.301 C 
ENDROOT
BRANCH   3   4
HETATM    4  C7  UNL     1     -33.056   7.629   3.428  1.00 20.00     0.031 C 
HETATM    5  C4  UNL     1     -31.723   8.288   3.773  1.00 20.00     0.008 C 
HETATM    6  C3  UNL     1     -31.442   9.148   2.552  1.00 20.00     0.005 C 
HETATM    7  C6  UNL     1     -31.817   8.226   1.393  1.00 20.00    -0.014 C 
HETATM    8  C5  UNL     1     -33.007   7.401   1.909  1.00 20.00     0.012 C 
BRANCH   7   9
HETATM    9  C10 UNL     1     -32.121   8.981   0.109  1.00 20.00     0.000 C 
HETATM   10  C8  UNL     1     -32.945  10.205   0.361  1.00 20.00     0.005 C 
ENDBRANCH   7   9
ENDBRANCH   3   4
BRANCH   3  11
HETATM   11  N12 UNL     1     -34.180   5.468   3.484  1.00 20.00     0.095 N 
HETATM   12  C9  UNL     1     -34.330   4.183   4.165  1.00 20.00     0.308 C 
HETATM   13  H31 UNL     1     -33.797   5.297   2.548  1.00 20.00     0.317 HD
ENDBRANCH   3  11
TORSDOF 3
ENDMDL
MODEL 6
REMARK VINA RESULT:      -4.3     10.771     11.568
REMARK  3 active torsions:
REMARK  status: ('A' for Active; 'I' for Inactive)
REMARK    1  A    between atoms: C6_6  and  C10_10 
REMARK    2  A    between atoms: C7_7  and  C11_11 
REMARK    3  A    between atoms: C11_11  and  N12_12 
ROOT
HETATM    1  C1  UNL     1     -33.070  18.016  -1.241  1.00 20.00     0.014 C 
HETATM    2  C2  UNL     1     -33.979  17.342  -1.644  1.00 20.00    -0.081 C 
HETATM    3  C11 UNL     1     -35.093  16.517  -2.132  1.00 20.00     0.301 C 
ENDROOT
BRANCH   3   4
HETATM    4  C7  UNL     1     -34.875  16.097  -3.576  1.00 20.00     0.031 C 
HETATM    5  C4  UNL     1     -33.505  15.465  -3.815  1.00 20.00     0.008 C 
HETATM    6  C3  UNL     1     -33.717  14.667  -5.090  1.00 20.00     0.005 C 
HETATM    7  C6  UNL     1     -35.079  14.014  -4.862  1.00 20.00    -0.014 C 
HETATM    8  C5  UNL     1     -35.888  15.050  -4.064  1.00 20.00     0.012 C 
BRANCH   7   9
HETATM    9  C10 UNL     1     -35.757  13.589  -6.154  1.00 20.00     0.000 C 
HETATM   10  C8  UNL     1     -34.789  13.506  -7.292  1.00 20.00     0.005 C 
ENDBRANCH   7   9
ENDBRANCH   3   4
BRANCH   3  11
HETATM   11  N12 UNL     1     -36.334  17.238  -1.994  1.00 20.00     0.095 N 
HETATM   12  C9  UNL     1     -36.340  18.453  -2.807  1.00 20.00     0.308 C 
HETATM   13  H31 UNL     1     -36.479  17.502  -1.014  1.00 20.00     0.317 HD
ENDBRANCH   3  11
TORSDOF 3
ENDMDL
MODEL 7
REMARK VINA RESULT:      -4.3     10.737     11.978
REMARK  3 active torsions:
REMARK  status: ('A' for Active; 'I' for Inactive)
REMARK    1  A    between atoms: C6_6  and  C10_10 
REMARK    2  A    between atoms: C7_7  and  C11_11 
REMARK    3  A    between atoms: C11_11  and  N12_12 
ROOT
HETATM    1  C1  UNL     1     -32.987  14.502  -4.350  1.00 20.00     0.014 C 
HETATM    2  C2  UNL     1     -33.693  15.465  -4.477  1.00 20.00    -0.081 C 
HETATM    3  C11 UNL     1     -34.556  16.644  -4.639  1.00 20.00     0.301 C 
ENDROOT
BRANCH   3   4
HETATM    4  C7  UNL     1     -34.696  17.406  -3.331  1.00 20.00     0.031 C 
HETATM    5  C4  UNL     1     -35.234  16.542  -2.192  1.00 20.00     0.008 C 
HETATM    6  C3  UNL     1     -34.781  17.296  -0.953  1.00 20.00     0.005 C 
HETATM    7  C6  UNL     1     -33.347  17.692  -1.299  1.00 20.00    -0.014 C 
HETATM    8  C5  UNL     1     -33.365  17.970  -2.811  1.00 20.00     0.012 C 
BRANCH   7   9
HETATM    9  C10 UNL     1     -32.841  18.868  -0.479  1.00 20.00     0.000 C 
HETATM   10  C8  UNL     1     -31.575  18.539   0.248  1.00 20.00     0.005 C 
ENDBRANCH   7   9
ENDBRANCH   3   4
BRANCH   3  11
HETATM   11  N12 UNL     1     -35.849  16.239  -5.133  1.00 20.00     0.095 N 
HETATM   12  C9  UNL     1     -35.782  15.829  -6.534  1.00 20.00     0.308 C 
HETATM   13  H31 UNL     1     -36.513  17.015  -5.053  1.00 20.00     0.317 HD
ENDBRANCH   3  11
TORSDOF 3
ENDMDL
MODEL 8
REMARK VINA RESULT:      -4.3     10.910     11.961
REMARK  3 active torsions:
REMARK  status: ('A' for Active; 'I' for Inactive)
REMARK    1  A    between atoms: C6_6  and  C10_10 
REMARK    2  A    between atoms: C7_7  and  C11_11 
REMARK    3  A    between atoms: C11_11  and  N12_12 
ROOT
HETATM    1  C1  UNL     1     -36.695  14.400  -5.291  1.00 20.00     0.014 C 
HETATM    2  C2  UNL     1     -35.498  14.454  -5.364  1.00 20.00    -0.081 C 
HETATM    3  C11 UNL     1     -34.032  14.514  -5.457  1.00 20.00     0.301 C 
ENDROOT
BRANCH   3   4
HETATM    4  C7  UNL     1     -33.465  15.560  -4.511  1.00 20.00     0.031 C 
HETATM    5  C4  UNL     1     -33.559  16.980  -5.065  1.00 20.00     0.008 C 
HETATM    6  C3  UNL     1     -33.470  17.839  -3.815  1.00 20.00     0.005 C 
HETATM    7  C6  UNL     1     -34.374  17.101  -2.829  1.00 20.00    -0.014 C 
HETATM    8  C5  UNL     1     -34.188  15.611  -3.157  1.00 20.00     0.012 C 
BRANCH   7   9
HETATM    9  C10 UNL     1     -34.071  17.439  -1.378  1.00 20.00     0.000 C 
HETATM   10  C8  UNL     1     -32.723  18.070  -1.220  1.00 20.00     0.005 C 
ENDBRANCH   7   9
ENDBRANCH   3   4
BRANCH   3  11
HETATM   11  N12 UNL     1     -33.639  14.791  -6.816  1.00 20.00     0.095 N 
HETATM   12  C9  UNL     1     -34.245  13.845  -7.751  1.00 20.00     0.308 C 
HETATM   13  H31 UNL     1     -32.620  14.729  -6.906  1.00 20.00     0.317 HD
ENDBRANCH   3  11
TORSDOF 3
ENDMDL
MODEL 9
REMARK VINA RESULT:      -4.2     10.753     11.568
REMARK  3 active torsions:
REMARK  status: ('A' for Active; 'I' for Inactive)
REMARK    1  A    between atoms: C6_6  and  C10_10 
REMARK    2  A    between atoms: C7_7  and  C11_11 
REMARK    3  A    between atoms: C11_11  and  N12_12 
ROOT
HETATM    1  C1  UNL     1     -38.036  14.440  -5.255  1.00 20.00     0.014 C 
HETATM    2  C2  UNL     1     -36.846  14.282  -5.250  1.00 20.00    -0.081 C 
HETATM    3  C11 UNL     1     -35.389  14.084  -5.247  1.00 20.00     0.301 C 
ENDROOT
BRANCH   3   4
HETATM    4  C7  UNL     1     -34.758  14.662  -3.991  1.00 20.00     0.031 C 
HETATM    5  C4  UNL     1     -33.594  15.606  -4.287  1.00 20.00     0.008 C 
HETATM    6  C3  UNL     1     -33.503  16.440  -3.021  1.00 20.00     0.005 C 
HETATM    7  C6  UNL     1     -34.966  16.745  -2.707  1.00 20.00    -0.014 C 
HETATM    8  C5  UNL     1     -35.738  15.490  -3.145  1.00 20.00     0.012 C 
BRANCH   7   9
HETATM    9  C10 UNL     1     -35.197  17.114  -1.250  1.00 20.00     0.000 C 
HETATM   10  C8  UNL     1     -34.022  17.831  -0.662  1.00 20.00     0.005 C 
ENDBRANCH   7   9
ENDBRANCH   3   4
BRANCH   3  11
HETATM   11  N12 UNL     1     -34.813  14.681  -6.427  1.00 20.00     0.095 N 
HETATM   12  C9  UNL     1     -34.446  13.668  -7.414  1.00 20.00     0.308 C 
HETATM   13  H31 UNL     1     -33.971  15.211  -6.176  1.00 20.00     0.317 HD
ENDBRANCH   3  11
TORSDOF 3
ENDMDL
