MODEL 1
REMARK VINA RESULT:      -5.7      0.000      0.000
REMARK  1 active torsions:
REMARK  status: ('A' for Active; 'I' for Inactive)
REMARK    1  A    between atoms: C3_3  and  C5_5 
ROOT
HETATM    1  C1  UNL     1     -32.548   8.235   2.245  1.00 20.00     0.021 C 
HETATM    2  C2  UNL     1     -32.929   7.150   2.589  1.00 20.00    -0.039 C 
HETATM    3  C3  UNL     1     -33.387   5.845   3.002  1.00 20.00     0.206 C 
HETATM    4  O8  UNL     1     -32.753   4.848   2.681  1.00 20.00    -0.283 OA
ENDROOT
BRANCH   3   5
HETATM    5  C5  UNL     1     -34.618   5.809   3.801  1.00 20.00     0.073 A 
HETATM    6  C4  UNL     1     -34.685   4.920   5.017  1.00 20.00     0.018 A 
HETATM    7  C6  UNL     1     -34.664   6.413   5.184  1.00 20.00    -0.006 A 
HETATM    8  C7  UNL     1     -33.479   7.077   5.799  1.00 20.00     0.011 C 
ENDBRANCH   3   5
TORSDOF 1
ENDMDL
MODEL 2
REMARK VINA RESULT:      -5.5      1.664      2.411
REMARK  1 active torsions:
REMARK  status: ('A' for Active; 'I' for Inactive)
REMARK    1  A    between atoms: C3_3  and  C5_5 
ROOT
HETATM    1  C1  UNL     1     -32.562  10.148   0.851  1.00 20.00     0.021 C 
HETATM    2  C2  UNL     1     -32.435   9.230   1.616  1.00 20.00    -0.039 C 
HETATM    3  C3  UNL     1     -32.282   8.128   2.535  1.00 20.00     0.206 C 
HETATM    4  O8  UNL     1     -31.336   8.110   3.311  1.00 20.00    -0.283 OA
ENDROOT
BRANCH   3   5
HETATM    5  C5  UNL     1     -33.306   7.079   2.469  1.00 20.00     0.073 A 
HETATM    6  C4  UNL     1     -33.009   5.717   3.045  1.00 20.00     0.018 A 
HETATM    7  C6  UNL     1     -34.017   6.607   3.714  1.00 20.00    -0.006 A 
HETATM    8  C7  UNL     1     -33.728   7.182   5.058  1.00 20.00     0.011 C 
ENDBRANCH   3   5
TORSDOF 1
ENDMDL
MODEL 3
REMARK VINA RESULT:      -5.4      1.834      2.213
REMARK  1 active torsions:
REMARK  status: ('A' for Active; 'I' for Inactive)
REMARK    1  A    between atoms: C3_3  and  C5_5 
ROOT
HETATM    1  C1  UNL     1     -31.460   8.283   3.124  1.00 20.00     0.021 C 
HETATM    2  C2  UNL     1     -32.392   7.829   3.729  1.00 20.00    -0.039 C 
HETATM    3  C3  UNL     1     -33.512   7.284   4.458  1.00 20.00     0.206 C 
HETATM    4  O8  UNL     1     -33.673   7.578   5.635  1.00 20.00    -0.283 OA
ENDROOT
BRANCH   3   5
HETATM    5  C5  UNL     1     -34.402   6.389   3.710  1.00 20.00     0.073 A 
HETATM    6  C4  UNL     1     -33.866   5.080   3.185  1.00 20.00     0.018 A 
HETATM    7  C6  UNL     1     -34.869   5.082   4.304  1.00 20.00    -0.006 A 
HETATM    8  C7  UNL     1     -34.463   4.642   5.669  1.00 20.00     0.011 C 
ENDBRANCH   3   5
TORSDOF 1
ENDMDL
MODEL 4
REMARK VINA RESULT:      -5.1      2.338      4.518
REMARK  1 active torsions:
REMARK  status: ('A' for Active; 'I' for Inactive)
REMARK    1  A    between atoms: C3_3  and  C5_5 
ROOT
HETATM    1  C1  UNL     1     -33.731   6.154   2.729  1.00 20.00     0.021 C 
HETATM    2  C2  UNL     1     -32.920   7.035   2.646  1.00 20.00    -0.039 C 
HETATM    3  C3  UNL     1     -31.945   8.095   2.548  1.00 20.00     0.206 C 
HETATM    4  O8  UNL     1     -31.393   8.509   3.558  1.00 20.00    -0.283 OA
ENDROOT
BRANCH   3   5
HETATM    5  C5  UNL     1     -31.680   8.612   1.200  1.00 20.00     0.073 A 
HETATM    6  C4  UNL     1     -32.818   8.737   0.218  1.00 20.00     0.018 A 
HETATM    7  C6  UNL     1     -32.177   9.974   0.779  1.00 20.00    -0.006 A 
HETATM    8  C7  UNL     1     -32.945  10.858   1.702  1.00 20.00     0.011 C 
ENDBRANCH   3   5
TORSDOF 1
ENDMDL
MODEL 5
REMARK VINA RESULT:      -5.0      1.492      1.958
REMARK  1 active torsions:
REMARK  status: ('A' for Active; 'I' for Inactive)
REMARK    1  A    between atoms: C3_3  and  C5_5 
ROOT
HETATM    1  C1  UNL     1     -32.630   3.998   2.233  1.00 20.00     0.021 C 
HETATM    2  C2  UNL     1     -33.218   4.943   2.686  1.00 20.00    -0.039 C 
HETATM    3  C3  UNL     1     -33.923   6.078   3.231  1.00 20.00     0.206 C 
HETATM    4  O8  UNL     1     -33.705   7.198   2.790  1.00 20.00    -0.283 OA
ENDROOT
BRANCH   3   5
HETATM    5  C5  UNL     1     -34.880   5.794   4.307  1.00 20.00     0.073 A 
HETATM    6  C4  UNL     1     -34.471   4.887   5.441  1.00 20.00     0.018 A 
HETATM    7  C6  UNL     1     -34.677   6.354   5.695  1.00 20.00    -0.006 A 
HETATM    8  C7  UNL     1     -33.515   7.221   6.038  1.00 20.00     0.011 C 
ENDBRANCH   3   5
TORSDOF 1
ENDMDL
MODEL 6
REMARK VINA RESULT:      -4.9      1.724      3.655
REMARK  1 active torsions:
REMARK  status: ('A' for Active; 'I' for Inactive)
REMARK    1  A    between atoms: C3_3  and  C5_5 
ROOT
HETATM    1  C1  UNL     1     -34.880   4.775   5.858  1.00 20.00     0.021 C 
HETATM    2  C2  UNL     1     -34.346   5.776   5.463  1.00 20.00    -0.039 C 
HETATM    3  C3  UNL     1     -33.705   6.979   4.989  1.00 20.00     0.206 C 
HETATM    4  O8  UNL     1     -33.040   7.658   5.760  1.00 20.00    -0.283 OA
ENDROOT
BRANCH   3   5
HETATM    5  C5  UNL     1     -33.904   7.308   3.573  1.00 20.00     0.073 A 
HETATM    6  C4  UNL     1     -32.704   7.582   2.701  1.00 20.00     0.018 A 
HETATM    7  C6  UNL     1     -33.514   6.335   2.487  1.00 20.00    -0.006 A 
HETATM    8  C7  UNL     1     -32.922   5.002   2.792  1.00 20.00     0.011 C 
ENDBRANCH   3   5
TORSDOF 1
ENDMDL
MODEL 7
REMARK VINA RESULT:      -4.8      1.515      3.212
REMARK  1 active torsions:
REMARK  status: ('A' for Active; 'I' for Inactive)
REMARK    1  A    between atoms: C3_3  and  C5_5 
ROOT
HETATM    1  C1  UNL     1     -33.567   7.643   6.410  1.00 20.00     0.021 C 
HETATM    2  C2  UNL     1     -34.035   6.789   5.707  1.00 20.00    -0.039 C 
HETATM    3  C3  UNL     1     -34.595   5.761   4.863  1.00 20.00     0.206 C 
HETATM    4  O8  UNL     1     -34.899   4.677   5.343  1.00 20.00    -0.283 OA
ENDROOT
BRANCH   3   5
HETATM    5  C5  UNL     1     -34.766   6.104   3.446  1.00 20.00     0.073 A 
HETATM    6  C4  UNL     1     -33.724   6.951   2.759  1.00 20.00     0.018 A 
HETATM    7  C6  UNL     1     -33.873   5.503   2.387  1.00 20.00    -0.006 A 
HETATM    8  C7  UNL     1     -32.791   4.534   2.721  1.00 20.00     0.011 C 
ENDBRANCH   3   5
TORSDOF 1
ENDMDL
MODEL 8
REMARK VINA RESULT:      -4.6      1.652      4.037
REMARK  1 active torsions:
REMARK  status: ('A' for Active; 'I' for Inactive)
REMARK    1  A    between atoms: C3_3  and  C5_5 
ROOT
HETATM    1  C1  UNL     1     -33.632   7.404   5.545  1.00 20.00     0.021 C 
HETATM    2  C2  UNL     1     -33.317   7.394   4.386  1.00 20.00    -0.039 C 
HETATM    3  C3  UNL     1     -32.939   7.381   2.993  1.00 20.00     0.206 C 
HETATM    4  O8  UNL     1     -33.513   6.632   2.214  1.00 20.00    -0.283 OA
ENDROOT
BRANCH   3   5
HETATM    5  C5  UNL     1     -31.860   8.297   2.603  1.00 20.00     0.073 A 
HETATM    6  C4  UNL     1     -31.453   8.385   1.154  1.00 20.00     0.018 A 
HETATM    7  C6  UNL     1     -32.151   9.545   1.805  1.00 20.00    -0.006 A 
HETATM    8  C7  UNL     1     -33.533   9.913   1.386  1.00 20.00     0.011 C 
ENDBRANCH   3   5
TORSDOF 1
ENDMDL
MODEL 9
REMARK VINA RESULT:      -4.3      2.810      4.047
REMARK  1 active torsions:
REMARK  status: ('A' for Active; 'I' for Inactive)
REMARK    1  A    between atoms: C3_3  and  C5_5 
ROOT
HETATM    1  C1  UNL     1     -33.241   9.299  -0.890  1.00 20.00     0.021 C 
HETATM    2  C2  UNL     1     -32.816   9.392   0.229  1.00 20.00    -0.039 C 
HETATM    3  C3  UNL     1     -32.306   9.505   1.575  1.00 20.00     0.206 C 
HETATM    4  O8  UNL     1     -32.448  10.552   2.193  1.00 20.00    -0.283 OA
ENDROOT
BRANCH   3   5
HETATM    5  C5  UNL     1     -31.635   8.319   2.118  1.00 20.00     0.073 A 
HETATM    6  C4  UNL     1     -31.376   8.229   3.601  1.00 20.00     0.018 A 
HETATM    7  C6  UNL     1     -32.388   7.319   2.964  1.00 20.00    -0.006 A 
HETATM    8  C7  UNL     1     -33.836   7.479   3.279  1.00 20.00     0.011 C 
ENDBRANCH   3   5
TORSDOF 1
ENDMDL
