MODEL 1
REMARK VINA RESULT:      -5.5      0.000      0.000
REMARK  2 active torsions:
REMARK  status: ('A' for Active; 'I' for Inactive)
REMARK    1  A    between atoms: C2_2  and  C3_3 
REMARK    2  A    between atoms: C3_3  and  C7_7 
ROOT
HETATM    1  C4  UNL     1     -34.830   5.334   6.016  1.00 20.00     0.002 C 
HETATM    2  C5  UNL     1     -34.522   4.621   4.682  1.00 20.00     0.012 C 
HETATM    3  C6  UNL     1     -34.035   6.538   5.468  1.00 20.00     0.012 C 
HETATM    4  C7  UNL     1     -34.388   6.029   4.047  1.00 20.00     0.059 C 
ENDROOT
BRANCH   4   5
HETATM    5  C3  UNL     1     -33.328   6.175   3.035  1.00 20.00     0.152 C 
HETATM    6  O8  UNL     1     -32.806   5.192   2.514  1.00 20.00    -0.293 OA
BRANCH   5   7
HETATM    7  C2  UNL     1     -32.949   7.564   2.660  1.00 20.00     0.040 C 
HETATM    8  C1  UNL     1     -31.774   8.077   3.037  1.00 20.00     0.015 C 
ENDBRANCH   5   7
ENDBRANCH   4   5
TORSDOF 2
ENDMDL
MODEL 2
REMARK VINA RESULT:      -5.4      1.800      2.399
REMARK  2 active torsions:
REMARK  status: ('A' for Active; 'I' for Inactive)
REMARK    1  A    between atoms: C2_2  and  C3_3 
REMARK    2  A    between atoms: C3_3  and  C7_7 
ROOT
HETATM    1  C4  UNL     1     -34.254   5.727   4.002  1.00 20.00     0.002 C 
HETATM    2  C5  UNL     1     -33.268   5.818   2.817  1.00 20.00     0.012 C 
HETATM    3  C6  UNL     1     -33.767   7.131   4.416  1.00 20.00     0.012 C 
HETATM    4  C7  UNL     1     -33.394   7.359   2.929  1.00 20.00     0.059 C 
ENDROOT
BRANCH   4   5
HETATM    5  C3  UNL     1     -32.156   8.120   2.691  1.00 20.00     0.152 C 
HETATM    6  O8  UNL     1     -31.269   8.174   3.540  1.00 20.00    -0.293 OA
BRANCH   5   7
HETATM    7  C2  UNL     1     -32.026   8.788   1.368  1.00 20.00     0.040 C 
HETATM    8  C1  UNL     1     -32.585   9.981   1.147  1.00 20.00     0.015 C 
ENDBRANCH   5   7
ENDBRANCH   4   5
TORSDOF 2
ENDMDL
MODEL 3
REMARK VINA RESULT:      -5.2      1.452      1.520
REMARK  2 active torsions:
REMARK  status: ('A' for Active; 'I' for Inactive)
REMARK    1  A    between atoms: C2_2  and  C3_3 
REMARK    2  A    between atoms: C3_3  and  C7_7 
ROOT
HETATM    1  C4  UNL     1     -34.769   4.626   5.050  1.00 20.00     0.002 C 
HETATM    2  C5  UNL     1     -33.977   4.957   3.766  1.00 20.00     0.012 C 
HETATM    3  C6  UNL     1     -34.379   6.029   5.560  1.00 20.00     0.012 C 
HETATM    4  C7  UNL     1     -34.249   6.452   4.075  1.00 20.00     0.059 C 
ENDROOT
BRANCH   4   5
HETATM    5  C3  UNL     1     -33.145   7.378   3.770  1.00 20.00     0.152 C 
HETATM    6  O8  UNL     1     -32.435   7.838   4.662  1.00 20.00    -0.293 OA
BRANCH   5   7
HETATM    7  C2  UNL     1     -32.919   7.700   2.335  1.00 20.00     0.040 C 
HETATM    8  C1  UNL     1     -31.858   8.416   1.954  1.00 20.00     0.015 C 
ENDBRANCH   5   7
ENDBRANCH   4   5
TORSDOF 2
ENDMDL
MODEL 4
REMARK VINA RESULT:      -5.0      1.639      3.821
REMARK  2 active torsions:
REMARK  status: ('A' for Active; 'I' for Inactive)
REMARK    1  A    between atoms: C2_2  and  C3_3 
REMARK    2  A    between atoms: C3_3  and  C7_7 
ROOT
HETATM    1  C4  UNL     1     -31.842   8.427   2.151  1.00 20.00     0.002 C 
HETATM    2  C5  UNL     1     -33.295   7.912   2.222  1.00 20.00     0.012 C 
HETATM    3  C6  UNL     1     -31.708   8.025   3.635  1.00 20.00     0.012 C 
HETATM    4  C7  UNL     1     -32.832   6.990   3.379  1.00 20.00     0.059 C 
ENDROOT
BRANCH   4   5
HETATM    5  C3  UNL     1     -33.796   6.810   4.478  1.00 20.00     0.152 C 
HETATM    6  O8  UNL     1     -33.767   7.529   5.474  1.00 20.00    -0.293 OA
BRANCH   5   7
HETATM    7  C2  UNL     1     -34.816   5.741   4.304  1.00 20.00     0.040 C 
HETATM    8  C1  UNL     1     -34.513   4.462   4.546  1.00 20.00     0.015 C 
ENDBRANCH   5   7
ENDBRANCH   4   5
TORSDOF 2
ENDMDL
MODEL 5
REMARK VINA RESULT:      -5.0      0.775      3.577
REMARK  2 active torsions:
REMARK  status: ('A' for Active; 'I' for Inactive)
REMARK    1  A    between atoms: C2_2  and  C3_3 
REMARK    2  A    between atoms: C3_3  and  C7_7 
ROOT
HETATM    1  C4  UNL     1     -31.828   8.766   2.505  1.00 20.00     0.002 C 
HETATM    2  C5  UNL     1     -31.943   7.808   3.710  1.00 20.00     0.012 C 
HETATM    3  C6  UNL     1     -32.801   7.827   1.762  1.00 20.00     0.012 C 
HETATM    4  C7  UNL     1     -33.331   7.397   3.154  1.00 20.00     0.059 C 
ENDROOT
BRANCH   4   5
HETATM    5  C3  UNL     1     -33.678   5.972   3.292  1.00 20.00     0.152 C 
HETATM    6  O8  UNL     1     -33.043   5.102   2.700  1.00 20.00    -0.293 OA
BRANCH   5   7
HETATM    7  C2  UNL     1     -34.810   5.645   4.201  1.00 20.00     0.040 C 
HETATM    8  C1  UNL     1     -34.606   5.470   5.510  1.00 20.00     0.015 C 
ENDBRANCH   5   7
ENDBRANCH   4   5
TORSDOF 2
ENDMDL
MODEL 6
REMARK VINA RESULT:      -4.8      2.302      4.770
REMARK  2 active torsions:
REMARK  status: ('A' for Active; 'I' for Inactive)
REMARK    1  A    between atoms: C2_2  and  C3_3 
REMARK    2  A    between atoms: C3_3  and  C7_7 
ROOT
HETATM    1  C4  UNL     1     -32.225  10.106   0.203  1.00 20.00     0.002 C 
HETATM    2  C5  UNL     1     -32.866  10.099   1.607  1.00 20.00     0.012 C 
HETATM    3  C6  UNL     1     -31.530   8.786   0.597  1.00 20.00     0.012 C 
HETATM    4  C7  UNL     1     -32.693   8.558   1.595  1.00 20.00     0.059 C 
ENDROOT
BRANCH   4   5
HETATM    5  C3  UNL     1     -32.319   7.947   2.883  1.00 20.00     0.152 C 
HETATM    6  O8  UNL     1     -31.279   8.262   3.458  1.00 20.00    -0.293 OA
BRANCH   5   7
HETATM    7  C2  UNL     1     -33.274   6.961   3.458  1.00 20.00     0.040 C 
HETATM    8  C1  UNL     1     -33.506   5.798   2.844  1.00 20.00     0.015 C 
ENDBRANCH   5   7
ENDBRANCH   4   5
TORSDOF 2
ENDMDL
MODEL 7
REMARK VINA RESULT:      -4.4      1.674      2.444
REMARK  2 active torsions:
REMARK  status: ('A' for Active; 'I' for Inactive)
REMARK    1  A    between atoms: C2_2  and  C3_3 
REMARK    2  A    between atoms: C3_3  and  C7_7 
ROOT
HETATM    1  C4  UNL     1     -33.644   7.663   6.052  1.00 20.00     0.002 C 
HETATM    2  C5  UNL     1     -34.326   6.282   6.158  1.00 20.00     0.012 C 
HETATM    3  C6  UNL     1     -33.275   7.285   4.603  1.00 20.00     0.012 C 
HETATM    4  C7  UNL     1     -34.498   6.333   4.618  1.00 20.00     0.059 C 
ENDROOT
BRANCH   4   5
HETATM    5  C3  UNL     1     -34.320   5.053   3.912  1.00 20.00     0.152 C 
HETATM    6  O8  UNL     1     -34.686   3.992   4.416  1.00 20.00    -0.293 OA
BRANCH   5   7
HETATM    7  C2  UNL     1     -33.707   5.115   2.558  1.00 20.00     0.040 C 
HETATM    8  C1  UNL     1     -32.675   4.330   2.239  1.00 20.00     0.015 C 
ENDBRANCH   5   7
ENDBRANCH   4   5
TORSDOF 2
ENDMDL
MODEL 8
REMARK VINA RESULT:      -4.3      1.407      1.942
REMARK  2 active torsions:
REMARK  status: ('A' for Active; 'I' for Inactive)
REMARK    1  A    between atoms: C2_2  and  C3_3 
REMARK    2  A    between atoms: C3_3  and  C7_7 
ROOT
HETATM    1  C4  UNL     1     -34.504   6.492   6.282  1.00 20.00     0.002 C 
HETATM    2  C5  UNL     1     -34.643   5.809   4.904  1.00 20.00     0.012 C 
HETATM    3  C6  UNL     1     -33.369   7.335   5.665  1.00 20.00     0.012 C 
HETATM    4  C7  UNL     1     -34.042   7.099   4.289  1.00 20.00     0.059 C 
ENDROOT
BRANCH   4   5
HETATM    5  C3  UNL     1     -33.124   6.899   3.155  1.00 20.00     0.152 C 
HETATM    6  O8  UNL     1     -32.154   7.634   2.984  1.00 20.00    -0.293 OA
BRANCH   5   7
HETATM    7  C2  UNL     1     -33.415   5.751   2.254  1.00 20.00     0.040 C 
HETATM    8  C1  UNL     1     -32.849   4.559   2.462  1.00 20.00     0.015 C 
ENDBRANCH   5   7
ENDBRANCH   4   5
TORSDOF 2
ENDMDL
MODEL 9
REMARK VINA RESULT:      -4.2      1.333      3.304
REMARK  2 active torsions:
REMARK  status: ('A' for Active; 'I' for Inactive)
REMARK    1  A    between atoms: C2_2  and  C3_3 
REMARK    2  A    between atoms: C3_3  and  C7_7 
ROOT
HETATM    1  C4  UNL     1     -32.787   7.034   2.197  1.00 20.00     0.002 C 
HETATM    2  C5  UNL     1     -33.495   7.299   3.543  1.00 20.00     0.012 C 
HETATM    3  C6  UNL     1     -33.061   5.534   2.435  1.00 20.00     0.012 C 
HETATM    4  C7  UNL     1     -34.259   5.969   3.317  1.00 20.00     0.059 C 
ENDROOT
BRANCH   4   5
HETATM    5  C3  UNL     1     -34.494   5.154   4.522  1.00 20.00     0.152 C 
HETATM    6  O8  UNL     1     -34.460   3.926   4.476  1.00 20.00    -0.293 OA
BRANCH   5   7
HETATM    7  C2  UNL     1     -34.743   5.892   5.790  1.00 20.00     0.040 C 
HETATM    8  C1  UNL     1     -33.955   6.907   6.155  1.00 20.00     0.015 C 
ENDBRANCH   5   7
ENDBRANCH   4   5
TORSDOF 2
ENDMDL
