MODEL 1
REMARK VINA RESULT:      -4.1      0.000      0.000
REMARK  3 active torsions:
REMARK  status: ('A' for Active; 'I' for Inactive)
REMARK    1  A    between atoms: C2_2  and  C8_8 
REMARK    2  A    between atoms: C6_6  and  C8_8 
REMARK    3  A    between atoms: C8_8  and  N9_9 
ROOT
HETATM    1  C8  UNL     1     -33.152   6.288   3.922  1.00 20.00     0.248 C 
ENDROOT
BRANCH   1   2
HETATM    2  C2  UNL     1     -34.030   7.142   4.795  1.00 20.00    -0.002 C 
HETATM    3  C1  UNL     1     -33.848   7.299   6.111  1.00 20.00     0.009 C 
ENDBRANCH   1   2
BRANCH   1   4
HETATM    4  C6  UNL     1     -32.448   7.111   2.860  1.00 20.00     0.048 C 
HETATM    5  C3  UNL     1     -33.381   7.890   1.958  1.00 20.00     0.035 C 
HETATM    6  C4  UNL     1     -32.448   8.935   1.383  1.00 20.00     0.168 C 
HETATM    7  O10 UNL     1     -31.461   9.210   2.386  1.00 20.00    -0.391 OA
HETATM    8  C5  UNL     1     -31.578   8.223   3.422  1.00 20.00     0.174 C 
ENDBRANCH   1   4
BRANCH   1   9
HETATM    9  N9  UNL     1     -33.983   5.270   3.322  1.00 20.00     0.087 N 
HETATM   10  C7  UNL     1     -34.299   4.210   4.278  1.00 20.00     0.307 C 
HETATM   11  H25 UNL     1     -33.501   4.855   2.520  1.00 20.00     0.316 HD
ENDBRANCH   1   9
TORSDOF 3
ENDMDL
MODEL 2
REMARK VINA RESULT:      -4.1      1.237      1.981
REMARK  3 active torsions:
REMARK  status: ('A' for Active; 'I' for Inactive)
REMARK    1  A    between atoms: C2_2  and  C8_8 
REMARK    2  A    between atoms: C6_6  and  C8_8 
REMARK    3  A    between atoms: C8_8  and  N9_9 
ROOT
HETATM    1  C8  UNL     1     -33.929   6.742   3.603  1.00 20.00     0.248 C 
ENDROOT
BRANCH   1   2
HETATM    2  C2  UNL     1     -34.000   5.242   3.524  1.00 20.00    -0.002 C 
HETATM    3  C1  UNL     1     -33.215   4.496   2.737  1.00 20.00     0.009 C 
ENDBRANCH   1   2
BRANCH   1   4
HETATM    4  C6  UNL     1     -32.788   7.293   2.770  1.00 20.00     0.048 C 
HETATM    5  C3  UNL     1     -33.209   8.326   1.748  1.00 20.00     0.035 C 
HETATM    6  C4  UNL     1     -31.894   9.017   1.451  1.00 20.00     0.168 C 
HETATM    7  O10 UNL     1     -31.116   8.965   2.656  1.00 20.00    -0.391 OA
HETATM    8  C5  UNL     1     -31.761   8.070   3.576  1.00 20.00     0.174 C 
ENDBRANCH   1   4
BRANCH   1   9
HETATM    9  N9  UNL     1     -33.777   7.103   4.994  1.00 20.00     0.087 N 
HETATM   10  C7  UNL     1     -34.407   6.119   5.872  1.00 20.00     0.307 C 
HETATM   11  H25 UNL     1     -34.207   8.016   5.165  1.00 20.00     0.316 HD
ENDBRANCH   1   9
TORSDOF 3
ENDMDL
MODEL 3
REMARK VINA RESULT:      -4.0      2.536      3.857
REMARK  3 active torsions:
REMARK  status: ('A' for Active; 'I' for Inactive)
REMARK    1  A    between atoms: C2_2  and  C8_8 
REMARK    2  A    between atoms: C6_6  and  C8_8 
REMARK    3  A    between atoms: C8_8  and  N9_9 
ROOT
HETATM    1  C8  UNL     1     -33.741   7.370   3.528  1.00 20.00     0.248 C 
ENDROOT
BRANCH   1   2
HETATM    2  C2  UNL     1     -33.000   7.547   4.825  1.00 20.00    -0.002 C 
HETATM    3  C1  UNL     1     -33.591   7.579   6.025  1.00 20.00     0.009 C 
ENDBRANCH   1   2
BRANCH   1   4
HETATM    4  C6  UNL     1     -34.209   5.940   3.341  1.00 20.00     0.048 C 
HETATM    5  C3  UNL     1     -33.097   4.956   3.046  1.00 20.00     0.035 C 
HETATM    6  C4  UNL     1     -33.754   3.638   3.398  1.00 20.00     0.168 C 
HETATM    7  O10 UNL     1     -34.687   3.906   4.454  1.00 20.00    -0.391 OA
HETATM    8  C5  UNL     1     -34.826   5.329   4.588  1.00 20.00     0.174 C 
ENDBRANCH   1   4
BRANCH   1   9
HETATM    9  N9  UNL     1     -32.857   7.771   2.458  1.00 20.00     0.087 N 
HETATM   10  C7  UNL     1     -31.613   8.335   2.977  1.00 20.00     0.307 C 
HETATM   11  H25 UNL     1     -33.316   8.473   1.872  1.00 20.00     0.316 HD
ENDBRANCH   1   9
TORSDOF 3
ENDMDL
MODEL 4
REMARK VINA RESULT:      -3.9     11.358     12.007
REMARK  3 active torsions:
REMARK  status: ('A' for Active; 'I' for Inactive)
REMARK    1  A    between atoms: C2_2  and  C8_8 
REMARK    2  A    between atoms: C6_6  and  C8_8 
REMARK    3  A    between atoms: C8_8  and  N9_9 
ROOT
HETATM    1  C8  UNL     1     -34.554  16.474  -3.764  1.00 20.00     0.248 C 
ENDROOT
BRANCH   1   2
HETATM    2  C2  UNL     1     -34.231  16.667  -2.308  1.00 20.00    -0.002 C 
HETATM    3  C1  UNL     1     -35.148  16.923  -1.366  1.00 20.00     0.009 C 
ENDBRANCH   1   2
BRANCH   1   4
HETATM    4  C6  UNL     1     -34.795  15.014  -4.096  1.00 20.00     0.048 C 
HETATM    5  C3  UNL     1     -36.183  14.717  -4.619  1.00 20.00     0.035 C 
HETATM    6  C4  UNL     1     -35.974  13.380  -5.298  1.00 20.00     0.168 C 
HETATM    7  O10 UNL     1     -34.626  13.368  -5.788  1.00 20.00    -0.391 OA
HETATM    8  C5  UNL     1     -33.929  14.493  -5.231  1.00 20.00     0.174 C 
ENDBRANCH   1   4
BRANCH   1   9
HETATM    9  N9  UNL     1     -33.454  17.007  -4.534  1.00 20.00     0.087 N 
HETATM   10  C7  UNL     1     -33.429  18.467  -4.489  1.00 20.00     0.307 C 
HETATM   11  H25 UNL     1     -33.537  16.710  -5.510  1.00 20.00     0.316 HD
ENDBRANCH   1   9
TORSDOF 3
ENDMDL
MODEL 5
REMARK VINA RESULT:      -3.7     11.267     11.888
REMARK  3 active torsions:
REMARK  status: ('A' for Active; 'I' for Inactive)
REMARK    1  A    between atoms: C2_2  and  C8_8 
REMARK    2  A    between atoms: C6_6  and  C8_8 
REMARK    3  A    between atoms: C8_8  and  N9_9 
ROOT
HETATM    1  C8  UNL     1     -35.374  15.326  -3.563  1.00 20.00     0.248 C 
ENDROOT
BRANCH   1   2
HETATM    2  C2  UNL     1     -34.115  16.112  -3.321  1.00 20.00    -0.002 C 
HETATM    3  C1  UNL     1     -33.897  16.858  -2.231  1.00 20.00     0.009 C 
ENDBRANCH   1   2
BRANCH   1   4
HETATM    4  C6  UNL     1     -35.436  14.791  -4.981  1.00 20.00     0.048 C 
HETATM    5  C3  UNL     1     -34.092  14.698  -5.669  1.00 20.00     0.035 C 
HETATM    6  C4  UNL     1     -34.388  13.722  -6.789  1.00 20.00     0.168 C 
HETATM    7  O10 UNL     1     -35.401  12.829  -6.305  1.00 20.00    -0.391 OA
HETATM    8  C5  UNL     1     -35.920  13.354  -5.073  1.00 20.00     0.174 C 
ENDBRANCH   1   4
BRANCH   1   9
HETATM    9  N9  UNL     1     -36.496  16.193  -3.286  1.00 20.00     0.087 N 
HETATM   10  C7  UNL     1     -36.938  16.893  -4.490  1.00 20.00     0.307 C 
HETATM   11  H25 UNL     1     -36.233  16.886  -2.581  1.00 20.00     0.316 HD
ENDBRANCH   1   9
TORSDOF 3
ENDMDL
MODEL 6
REMARK VINA RESULT:      -3.7     11.489     12.302
REMARK  3 active torsions:
REMARK  status: ('A' for Active; 'I' for Inactive)
REMARK    1  A    between atoms: C2_2  and  C8_8 
REMARK    2  A    between atoms: C6_6  and  C8_8 
REMARK    3  A    between atoms: C8_8  and  N9_9 
ROOT
HETATM    1  C8  UNL     1     -34.383  15.028  -5.617  1.00 20.00     0.248 C 
ENDROOT
BRANCH   1   2
HETATM    2  C2  UNL     1     -33.301  15.316  -4.613  1.00 20.00    -0.002 C 
HETATM    3  C1  UNL     1     -33.495  16.008  -3.484  1.00 20.00     0.009 C 
ENDBRANCH   1   2
BRANCH   1   4
HETATM    4  C6  UNL     1     -35.735  14.862  -4.952  1.00 20.00     0.048 C 
HETATM    5  C3  UNL     1     -36.805  15.793  -5.481  1.00 20.00     0.035 C 
HETATM    6  C4  UNL     1     -38.070  15.093  -5.028  1.00 20.00     0.168 C 
HETATM    7  O10 UNL     1     -37.789  13.687  -5.024  1.00 20.00    -0.391 OA
HETATM    8  C5  UNL     1     -36.374  13.505  -5.192  1.00 20.00     0.174 C 
ENDBRANCH   1   4
BRANCH   1   9
HETATM    9  N9  UNL     1     -34.009  13.832  -6.337  1.00 20.00     0.087 N 
HETATM   10  C7  UNL     1     -34.092  14.032  -7.782  1.00 20.00     0.307 C 
HETATM   11  H25 UNL     1     -34.629  13.061  -6.076  1.00 20.00     0.316 HD
ENDBRANCH   1   9
TORSDOF 3
ENDMDL
MODEL 7
REMARK VINA RESULT:      -3.7     11.103     11.808
REMARK  3 active torsions:
REMARK  status: ('A' for Active; 'I' for Inactive)
REMARK    1  A    between atoms: C2_2  and  C8_8 
REMARK    2  A    between atoms: C6_6  and  C8_8 
REMARK    3  A    between atoms: C8_8  and  N9_9 
ROOT
HETATM    1  C8  UNL     1     -34.708  15.258  -4.433  1.00 20.00     0.248 C 
ENDROOT
BRANCH   1   2
HETATM    2  C2  UNL     1     -33.410  15.617  -5.103  1.00 20.00    -0.002 C 
HETATM    3  C1  UNL     1     -33.285  15.845  -6.416  1.00 20.00     0.009 C 
ENDBRANCH   1   2
BRANCH   1   4
HETATM    4  C6  UNL     1     -34.770  15.785  -3.012  1.00 20.00     0.048 C 
HETATM    5  C3  UNL     1     -33.638  16.721  -2.648  1.00 20.00     0.035 C 
HETATM    6  C4  UNL     1     -34.207  17.435  -1.440  1.00 20.00     0.168 C 
HETATM    7  O10 UNL     1     -35.628  17.504  -1.629  1.00 20.00    -0.391 OA
HETATM    8  C5  UNL     1     -35.981  16.659  -2.735  1.00 20.00     0.174 C 
ENDBRANCH   1   4
BRANCH   1   9
HETATM    9  N9  UNL     1     -34.834  13.819  -4.457  1.00 20.00     0.087 N 
HETATM   10  C7  UNL     1     -35.969  13.397  -5.275  1.00 20.00     0.307 C 
HETATM   11  H25 UNL     1     -34.965  13.464  -3.506  1.00 20.00     0.316 HD
ENDBRANCH   1   9
TORSDOF 3
ENDMDL
MODEL 8
REMARK VINA RESULT:      -3.7     11.391     12.008
REMARK  3 active torsions:
REMARK  status: ('A' for Active; 'I' for Inactive)
REMARK    1  A    between atoms: C2_2  and  C8_8 
REMARK    2  A    between atoms: C6_6  and  C8_8 
REMARK    3  A    between atoms: C8_8  and  N9_9 
ROOT
HETATM    1  C8  UNL     1     -34.814  14.111  -4.953  1.00 20.00     0.248 C 
ENDROOT
BRANCH   1   2
HETATM    2  C2  UNL     1     -36.216  13.708  -5.319  1.00 20.00    -0.002 C 
HETATM    3  C1  UNL     1     -37.308  14.401  -4.975  1.00 20.00     0.009 C 
ENDBRANCH   1   2
BRANCH   1   4
HETATM    4  C6  UNL     1     -34.718  15.595  -4.656  1.00 20.00     0.048 C 
HETATM    5  C3  UNL     1     -34.368  15.920  -3.220  1.00 20.00     0.035 C 
HETATM    6  C4  UNL     1     -33.871  17.345  -3.341  1.00 20.00     0.168 C 
HETATM    7  O10 UNL     1     -33.269  17.467  -4.638  1.00 20.00    -0.391 OA
HETATM    8  C5  UNL     1     -33.596  16.297  -5.403  1.00 20.00     0.174 C 
ENDBRANCH   1   4
BRANCH   1   9
HETATM    9  N9  UNL     1     -33.949  13.744  -6.050  1.00 20.00     0.087 N 
HETATM   10  C7  UNL     1     -34.720  13.316  -7.216  1.00 20.00     0.307 C 
HETATM   11  H25 UNL     1     -33.333  12.978  -5.765  1.00 20.00     0.316 HD
ENDBRANCH   1   9
TORSDOF 3
ENDMDL
MODEL 9
REMARK VINA RESULT:      -3.7     11.075     11.652
REMARK  3 active torsions:
REMARK  status: ('A' for Active; 'I' for Inactive)
REMARK    1  A    between atoms: C2_2  and  C8_8 
REMARK    2  A    between atoms: C6_6  and  C8_8 
REMARK    3  A    between atoms: C8_8  and  N9_9 
ROOT
HETATM    1  C8  UNL     1     -35.050  16.238  -3.458  1.00 20.00     0.248 C 
ENDROOT
BRANCH   1   2
HETATM    2  C2  UNL     1     -34.623  14.902  -3.999  1.00 20.00    -0.002 C 
HETATM    3  C1  UNL     1     -33.363  14.600  -4.338  1.00 20.00     0.009 C 
ENDBRANCH   1   2
BRANCH   1   4
HETATM    4  C6  UNL     1     -34.312  16.587  -2.179  1.00 20.00     0.048 C 
HETATM    5  C3  UNL     1     -33.340  17.738  -2.318  1.00 20.00     0.035 C 
HETATM    6  C4  UNL     1     -33.155  18.158  -0.875  1.00 20.00     0.168 C 
HETATM    7  O10 UNL     1     -34.390  17.883  -0.200  1.00 20.00    -0.391 OA
HETATM    8  C5  UNL     1     -35.217  17.092  -1.068  1.00 20.00     0.174 C 
ENDBRANCH   1   4
BRANCH   1   9
HETATM    9  N9  UNL     1     -36.477  16.188  -3.236  1.00 20.00     0.087 N 
HETATM   10  C7  UNL     1     -37.141  15.346  -4.229  1.00 20.00     0.307 C 
HETATM   11  H25 UNL     1     -36.871  17.131  -3.289  1.00 20.00     0.316 HD
ENDBRANCH   1   9
TORSDOF 3
ENDMDL
