MODEL 1
REMARK VINA RESULT:      -5.9      0.000      0.000
REMARK  2 active torsions:
REMARK  status: ('A' for Active; 'I' for Inactive)
REMARK    1  A    between atoms: C2_2  and  C3_3 
REMARK    2  A    between atoms: C3_3  and  C8_8 
ROOT
HETATM    1  C4  UNL     1     -34.427   6.354   5.816  1.00 20.00     0.027 C 
HETATM    2  C5  UNL     1     -33.347   7.238   5.203  1.00 20.00     0.017 C 
HETATM    3  C6  UNL     1     -34.481   5.003   5.116  1.00 20.00     0.167 C 
HETATM    4  C7  UNL     1     -33.606   5.889   3.100  1.00 20.00     0.180 C 
HETATM    5  C8  UNL     1     -33.498   7.294   3.684  1.00 20.00     0.083 C 
HETATM    6  O10 UNL     1     -34.676   5.169   3.711  1.00 20.00    -0.390 OA
ENDROOT
BRANCH   5   7
HETATM    7  C3  UNL     1     -32.332   8.018   3.085  1.00 20.00     0.154 C 
HETATM    8  O9  UNL     1     -31.328   8.263   3.749  1.00 20.00    -0.293 OA
BRANCH   7   9
HETATM    9  C2  UNL     1     -32.445   8.392   1.651  1.00 20.00     0.040 C 
HETATM   10  C1  UNL     1     -32.420   9.674   1.276  1.00 20.00     0.015 C 
ENDBRANCH   7   9
ENDBRANCH   5   7
TORSDOF 2
ENDMDL
MODEL 2
REMARK VINA RESULT:      -5.1      0.982      1.643
REMARK  2 active torsions:
REMARK  status: ('A' for Active; 'I' for Inactive)
REMARK    1  A    between atoms: C2_2  and  C3_3 
REMARK    2  A    between atoms: C3_3  and  C8_8 
ROOT
HETATM    1  C4  UNL     1     -34.097   4.861   3.496  1.00 20.00     0.027 C 
HETATM    2  C5  UNL     1     -33.321   5.957   2.772  1.00 20.00     0.017 C 
HETATM    3  C6  UNL     1     -35.019   5.460   4.550  1.00 20.00     0.167 C 
HETATM    4  C7  UNL     1     -33.650   7.375   4.820  1.00 20.00     0.180 C 
HETATM    5  C8  UNL     1     -32.648   6.890   3.777  1.00 20.00     0.083 C 
HETATM    6  O10 UNL     1     -34.282   6.270   5.466  1.00 20.00    -0.390 OA
ENDROOT
BRANCH   5   7
HETATM    7  C3  UNL     1     -32.040   8.055   3.059  1.00 20.00     0.154 C 
HETATM    8  O9  UNL     1     -31.119   8.698   3.555  1.00 20.00    -0.293 OA
BRANCH   7   9
HETATM    9  C2  UNL     1     -32.589   8.367   1.712  1.00 20.00     0.040 C 
HETATM   10  C1  UNL     1     -32.466   9.591   1.192  1.00 20.00     0.015 C 
ENDBRANCH   7   9
ENDBRANCH   5   7
TORSDOF 2
ENDMDL
MODEL 3
REMARK VINA RESULT:      -4.6      1.210      4.325
REMARK  2 active torsions:
REMARK  status: ('A' for Active; 'I' for Inactive)
REMARK    1  A    between atoms: C2_2  and  C3_3 
REMARK    2  A    between atoms: C3_3  and  C8_8 
ROOT
HETATM    1  C4  UNL     1     -32.152   7.987   2.427  1.00 20.00     0.027 C 
HETATM    2  C5  UNL     1     -33.231   6.922   2.590  1.00 20.00     0.017 C 
HETATM    3  C6  UNL     1     -31.344   8.136   3.709  1.00 20.00     0.167 C 
HETATM    4  C7  UNL     1     -33.136   7.374   5.059  1.00 20.00     0.180 C 
HETATM    5  C8  UNL     1     -34.051   7.177   3.854  1.00 20.00     0.083 C 
HETATM    6  O10 UNL     1     -32.199   8.423   4.816  1.00 20.00    -0.390 OA
ENDROOT
BRANCH   5   7
HETATM    7  C3  UNL     1     -34.985   6.031   4.092  1.00 20.00     0.154 C 
HETATM    8  O9  UNL     1     -36.078   5.977   3.535  1.00 20.00    -0.293 OA
BRANCH   7   9
HETATM    9  C2  UNL     1     -34.508   4.961   5.007  1.00 20.00     0.040 C 
HETATM   10  C1  UNL     1     -34.020   3.815   4.522  1.00 20.00     0.015 C 
ENDBRANCH   7   9
ENDBRANCH   5   7
TORSDOF 2
ENDMDL
MODEL 4
REMARK VINA RESULT:      -4.5      1.596      4.003
REMARK  2 active torsions:
REMARK  status: ('A' for Active; 'I' for Inactive)
REMARK    1  A    between atoms: C2_2  and  C3_3 
REMARK    2  A    between atoms: C3_3  and  C8_8 
ROOT
HETATM    1  C4  UNL     1     -31.431   8.416   3.182  1.00 20.00     0.027 C 
HETATM    2  C5  UNL     1     -32.229   8.028   4.423  1.00 20.00     0.017 C 
HETATM    3  C6  UNL     1     -32.346   8.548   1.972  1.00 20.00     0.167 C 
HETATM    4  C7  UNL     1     -33.934   7.034   2.868  1.00 20.00     0.180 C 
HETATM    5  C8  UNL     1     -33.112   6.815   4.135  1.00 20.00     0.083 C 
HETATM    6  O10 UNL     1     -33.085   7.344   1.763  1.00 20.00    -0.390 OA
ENDROOT
BRANCH   5   7
HETATM    7  C3  UNL     1     -34.014   6.556   5.301  1.00 20.00     0.154 C 
HETATM    8  O9  UNL     1     -34.120   7.371   6.215  1.00 20.00    -0.293 OA
BRANCH   7   9
HETATM    9  C2  UNL     1     -34.787   5.287   5.278  1.00 20.00     0.040 C 
HETATM   10  C1  UNL     1     -34.323   4.216   4.627  1.00 20.00     0.015 C 
ENDBRANCH   7   9
ENDBRANCH   5   7
TORSDOF 2
ENDMDL
MODEL 5
REMARK VINA RESULT:      -4.3     11.169     12.088
REMARK  2 active torsions:
REMARK  status: ('A' for Active; 'I' for Inactive)
REMARK    1  A    between atoms: C2_2  and  C3_3 
REMARK    2  A    between atoms: C3_3  and  C8_8 
ROOT
HETATM    1  C4  UNL     1     -34.368  13.678  -7.290  1.00 20.00     0.027 C 
HETATM    2  C5  UNL     1     -34.008  14.968  -6.561  1.00 20.00     0.017 C 
HETATM    3  C6  UNL     1     -35.640  13.071  -6.715  1.00 20.00     0.167 C 
HETATM    4  C7  UNL     1     -35.295  14.075  -4.597  1.00 20.00     0.180 C 
HETATM    5  C8  UNL     1     -34.002  14.746  -5.049  1.00 20.00     0.083 C 
HETATM    6  O10 UNL     1     -35.509  12.857  -5.310  1.00 20.00    -0.390 OA
ENDROOT
BRANCH   5   7
HETATM    7  C3  UNL     1     -33.821  16.055  -4.345  1.00 20.00     0.154 C 
HETATM    8  O9  UNL     1     -33.250  16.996  -4.891  1.00 20.00    -0.293 OA
BRANCH   7   9
HETATM    9  C2  UNL     1     -34.391  16.160  -2.976  1.00 20.00     0.040 C 
HETATM   10  C1  UNL     1     -33.837  16.966  -2.066  1.00 20.00     0.015 C 
ENDBRANCH   7   9
ENDBRANCH   5   7
TORSDOF 2
ENDMDL
MODEL 6
REMARK VINA RESULT:      -4.2     11.244     12.253
REMARK  2 active torsions:
REMARK  status: ('A' for Active; 'I' for Inactive)
REMARK    1  A    between atoms: C2_2  and  C3_3 
REMARK    2  A    between atoms: C3_3  and  C8_8 
ROOT
HETATM    1  C4  UNL     1     -34.068  16.531  -3.093  1.00 20.00     0.027 C 
HETATM    2  C5  UNL     1     -35.225  15.606  -3.455  1.00 20.00     0.017 C 
HETATM    3  C6  UNL     1     -33.413  17.091  -4.349  1.00 20.00     0.167 C 
HETATM    4  C7  UNL     1     -34.080  15.233  -5.660  1.00 20.00     0.180 C 
HETATM    5  C8  UNL     1     -34.779  14.564  -4.480  1.00 20.00     0.083 C 
HETATM    6  O10 UNL     1     -32.988  16.036  -5.211  1.00 20.00    -0.390 OA
ENDROOT
BRANCH   5   7
HETATM    7  C3  UNL     1     -35.963  13.780  -4.953  1.00 20.00     0.154 C 
HETATM    8  O9  UNL     1     -35.849  12.609  -5.306  1.00 20.00    -0.293 OA
BRANCH   7   9
HETATM    9  C2  UNL     1     -37.274  14.480  -4.943  1.00 20.00     0.040 C 
HETATM   10  C1  UNL     1     -37.834  14.898  -6.081  1.00 20.00     0.015 C 
ENDBRANCH   7   9
ENDBRANCH   5   7
TORSDOF 2
ENDMDL
MODEL 7
REMARK VINA RESULT:      -4.2     11.093     12.009
REMARK  2 active torsions:
REMARK  status: ('A' for Active; 'I' for Inactive)
REMARK    1  A    between atoms: C2_2  and  C3_3 
REMARK    2  A    between atoms: C3_3  and  C8_8 
ROOT
HETATM    1  C4  UNL     1     -34.140  16.135  -3.098  1.00 20.00     0.027 C 
HETATM    2  C5  UNL     1     -34.131  14.870  -3.949  1.00 20.00     0.017 C 
HETATM    3  C6  UNL     1     -35.546  16.438  -2.597  1.00 20.00     0.167 C 
HETATM    4  C7  UNL     1     -36.558  15.316  -4.422  1.00 20.00     0.180 C 
HETATM    5  C8  UNL     1     -35.209  14.943  -5.030  1.00 20.00     0.083 C 
HETATM    6  O10 UNL     1     -36.462  16.537  -3.688  1.00 20.00    -0.390 OA
ENDROOT
BRANCH   5   7
HETATM    7  C3  UNL     1     -35.304  13.629  -5.740  1.00 20.00     0.154 C 
HETATM    8  O9  UNL     1     -35.930  12.689  -5.257  1.00 20.00    -0.293 OA
BRANCH   7   9
HETATM    9  C2  UNL     1     -34.630  13.536  -7.062  1.00 20.00     0.040 C 
HETATM   10  C1  UNL     1     -34.125  14.624  -7.650  1.00 20.00     0.015 C 
ENDBRANCH   7   9
ENDBRANCH   5   7
TORSDOF 2
ENDMDL
MODEL 8
REMARK VINA RESULT:      -4.1     11.037     12.058
REMARK  2 active torsions:
REMARK  status: ('A' for Active; 'I' for Inactive)
REMARK    1  A    between atoms: C2_2  and  C3_3 
REMARK    2  A    between atoms: C3_3  and  C8_8 
ROOT
HETATM    1  C4  UNL     1     -33.246  15.809  -6.231  1.00 20.00     0.027 C 
HETATM    2  C5  UNL     1     -33.638  16.613  -4.996  1.00 20.00     0.017 C 
HETATM    3  C6  UNL     1     -34.144  14.589  -6.387  1.00 20.00     0.167 C 
HETATM    4  C7  UNL     1     -34.597  14.486  -4.064  1.00 20.00     0.180 C 
HETATM    5  C8  UNL     1     -33.726  15.704  -3.770  1.00 20.00     0.083 C 
HETATM    6  O10 UNL     1     -34.113  13.784  -5.209  1.00 20.00    -0.390 OA
ENDROOT
BRANCH   5   7
HETATM    7  C3  UNL     1     -34.279  16.472  -2.610  1.00 20.00     0.154 C 
HETATM    8  O9  UNL     1     -35.447  16.332  -2.254  1.00 20.00    -0.293 OA
BRANCH   7   9
HETATM    9  C2  UNL     1     -33.339  17.380  -1.902  1.00 20.00     0.040 C 
HETATM   10  C1  UNL     1     -33.699  17.988  -0.768  1.00 20.00     0.015 C 
ENDBRANCH   7   9
ENDBRANCH   5   7
TORSDOF 2
ENDMDL
MODEL 9
REMARK VINA RESULT:      -4.1     11.056     11.905
REMARK  2 active torsions:
REMARK  status: ('A' for Active; 'I' for Inactive)
REMARK    1  A    between atoms: C2_2  and  C3_3 
REMARK    2  A    between atoms: C3_3  and  C8_8 
ROOT
HETATM    1  C4  UNL     1     -35.750  16.586  -2.599  1.00 20.00     0.027 C 
HETATM    2  C5  UNL     1     -36.111  15.645  -3.743  1.00 20.00     0.017 C 
HETATM    3  C6  UNL     1     -34.387  17.223  -2.834  1.00 20.00     0.167 C 
HETATM    4  C7  UNL     1     -33.646  15.410  -4.167  1.00 20.00     0.180 C 
HETATM    5  C8  UNL     1     -34.969  14.667  -4.014  1.00 20.00     0.083 C 
HETATM    6  O10 UNL     1     -33.387  16.222  -3.022  1.00 20.00    -0.390 OA
ENDROOT
BRANCH   5   7
HETATM    7  C3  UNL     1     -35.265  13.871  -5.247  1.00 20.00     0.154 C 
HETATM    8  O9  UNL     1     -35.881  12.810  -5.186  1.00 20.00    -0.293 OA
BRANCH   7   9
HETATM    9  C2  UNL     1     -34.801  14.445  -6.538  1.00 20.00     0.040 C 
HETATM   10  C1  UNL     1     -34.457  13.650  -7.554  1.00 20.00     0.015 C 
ENDBRANCH   7   9
ENDBRANCH   5   7
TORSDOF 2
ENDMDL
