MODEL 1
REMARK VINA RESULT:      -5.4      0.000      0.000
REMARK  1 active torsions:
REMARK  status: ('A' for Active; 'I' for Inactive)
REMARK    1  A    between atoms: C3_3  and  C5_5 
ROOT
HETATM    1  C1  UNL     1     -32.518   9.833   0.719  1.00 20.00     0.021 C 
HETATM    2  C2  UNL     1     -32.448   8.991   1.573  1.00 20.00    -0.039 C 
HETATM    3  C3  UNL     1     -32.364   7.980   2.600  1.00 20.00     0.206 C 
HETATM    4  O8  UNL     1     -31.490   8.051   3.454  1.00 20.00    -0.283 OA
ENDROOT
BRANCH   3   5
HETATM    5  C5  UNL     1     -33.364   6.907   2.540  1.00 20.00     0.073 A 
HETATM    6  C4  UNL     1     -32.934   5.484   2.785  1.00 20.00     0.018 A 
HETATM    7  C6  UNL     1     -33.763   6.202   3.812  1.00 20.00    -0.006 A 
HETATM    8  C7  UNL     1     -35.182   5.810   4.038  1.00 20.00     0.011 C 
ENDBRANCH   3   5
TORSDOF 1
ENDMDL
MODEL 2
REMARK VINA RESULT:      -5.3      1.490      4.044
REMARK  1 active torsions:
REMARK  status: ('A' for Active; 'I' for Inactive)
REMARK    1  A    between atoms: C3_3  and  C5_5 
ROOT
HETATM    1  C1  UNL     1     -34.699   5.448   5.523  1.00 20.00     0.021 C 
HETATM    2  C2  UNL     1     -34.140   5.769   4.511  1.00 20.00    -0.039 C 
HETATM    3  C3  UNL     1     -33.466   6.154   3.293  1.00 20.00     0.206 C 
HETATM    4  O8  UNL     1     -33.198   5.306   2.451  1.00 20.00    -0.283 OA
ENDROOT
BRANCH   3   5
HETATM    5  C5  UNL     1     -33.142   7.578   3.151  1.00 20.00     0.073 A 
HETATM    6  C4  UNL     1     -31.772   8.066   3.547  1.00 20.00     0.018 A 
HETATM    7  C6  UNL     1     -32.154   8.006   2.095  1.00 20.00    -0.006 A 
HETATM    8  C7  UNL     1     -32.377   9.263   1.326  1.00 20.00     0.011 C 
ENDBRANCH   3   5
TORSDOF 1
ENDMDL
MODEL 3
REMARK VINA RESULT:      -5.3      0.985      3.907
REMARK  1 active torsions:
REMARK  status: ('A' for Active; 'I' for Inactive)
REMARK    1  A    between atoms: C3_3  and  C5_5 
ROOT
HETATM    1  C1  UNL     1     -33.312   5.546   2.923  1.00 20.00     0.021 C 
HETATM    2  C2  UNL     1     -32.842   6.648   2.843  1.00 20.00    -0.039 C 
HETATM    3  C3  UNL     1     -32.277   7.974   2.748  1.00 20.00     0.206 C 
HETATM    4  O8  UNL     1     -31.298   8.268   3.420  1.00 20.00    -0.283 OA
ENDROOT
BRANCH   3   5
HETATM    5  C5  UNL     1     -32.941   8.899   1.821  1.00 20.00     0.073 A 
HETATM    6  C4  UNL     1     -32.329  10.251   1.565  1.00 20.00     0.018 A 
HETATM    7  C6  UNL     1     -32.293   9.199   0.493  1.00 20.00    -0.006 A 
HETATM    8  C7  UNL     1     -33.129   9.348  -0.732  1.00 20.00     0.011 C 
ENDBRANCH   3   5
TORSDOF 1
ENDMDL
MODEL 4
REMARK VINA RESULT:      -5.1      1.651      3.997
REMARK  1 active torsions:
REMARK  status: ('A' for Active; 'I' for Inactive)
REMARK    1  A    between atoms: C3_3  and  C5_5 
ROOT
HETATM    1  C1  UNL     1     -34.884   4.748   5.236  1.00 20.00     0.021 C 
HETATM    2  C2  UNL     1     -34.304   5.797   5.152  1.00 20.00    -0.039 C 
HETATM    3  C3  UNL     1     -33.609   7.058   5.052  1.00 20.00     0.206 C 
HETATM    4  O8  UNL     1     -33.820   7.938   5.876  1.00 20.00    -0.283 OA
ENDROOT
BRANCH   3   5
HETATM    5  C5  UNL     1     -32.669   7.194   3.932  1.00 20.00     0.073 A 
HETATM    6  C4  UNL     1     -32.885   6.376   2.685  1.00 20.00     0.018 A 
HETATM    7  C6  UNL     1     -33.133   7.858   2.660  1.00 20.00    -0.006 A 
HETATM    8  C7  UNL     1     -32.216   8.759   1.907  1.00 20.00     0.011 C 
ENDBRANCH   3   5
TORSDOF 1
ENDMDL
MODEL 5
REMARK VINA RESULT:      -5.0      1.766      2.314
REMARK  1 active torsions:
REMARK  status: ('A' for Active; 'I' for Inactive)
REMARK    1  A    between atoms: C3_3  and  C5_5 
ROOT
HETATM    1  C1  UNL     1     -31.897   8.437   1.812  1.00 20.00     0.021 C 
HETATM    2  C2  UNL     1     -32.486   7.511   2.300  1.00 20.00    -0.039 C 
HETATM    3  C3  UNL     1     -33.194   6.397   2.885  1.00 20.00     0.206 C 
HETATM    4  O8  UNL     1     -32.999   5.264   2.466  1.00 20.00    -0.283 OA
ENDROOT
BRANCH   3   5
HETATM    5  C5  UNL     1     -34.125   6.718   3.974  1.00 20.00     0.073 A 
HETATM    6  C4  UNL     1     -34.737   5.598   4.775  1.00 20.00     0.018 A 
HETATM    7  C6  UNL     1     -33.696   6.482   5.400  1.00 20.00    -0.006 A 
HETATM    8  C7  UNL     1     -34.078   7.450   6.467  1.00 20.00     0.011 C 
ENDBRANCH   3   5
TORSDOF 1
ENDMDL
MODEL 6
REMARK VINA RESULT:      -4.8      1.310      3.661
REMARK  1 active torsions:
REMARK  status: ('A' for Active; 'I' for Inactive)
REMARK    1  A    between atoms: C3_3  and  C5_5 
ROOT
HETATM    1  C1  UNL     1     -33.191   5.230   2.481  1.00 20.00     0.021 C 
HETATM    2  C2  UNL     1     -32.875   6.288   2.955  1.00 20.00    -0.039 C 
HETATM    3  C3  UNL     1     -32.497   7.560   3.524  1.00 20.00     0.206 C 
HETATM    4  O8  UNL     1     -32.693   7.777   4.713  1.00 20.00    -0.283 OA
ENDROOT
BRANCH   3   5
HETATM    5  C5  UNL     1     -31.887   8.528   2.605  1.00 20.00     0.073 A 
HETATM    6  C4  UNL     1     -31.658   8.137   1.168  1.00 20.00     0.018 A 
HETATM    7  C6  UNL     1     -32.729   9.133   1.510  1.00 20.00    -0.006 A 
HETATM    8  C7  UNL     1     -32.562  10.568   1.144  1.00 20.00     0.011 C 
ENDBRANCH   3   5
TORSDOF 1
ENDMDL
MODEL 7
REMARK VINA RESULT:      -4.7      1.451      2.161
REMARK  1 active torsions:
REMARK  status: ('A' for Active; 'I' for Inactive)
REMARK    1  A    between atoms: C3_3  and  C5_5 
ROOT
HETATM    1  C1  UNL     1     -33.236   9.430  -0.928  1.00 20.00     0.021 C 
HETATM    2  C2  UNL     1     -32.817   9.437   0.198  1.00 20.00    -0.039 C 
HETATM    3  C3  UNL     1     -32.312   9.448   1.550  1.00 20.00     0.206 C 
HETATM    4  O8  UNL     1     -32.180  10.510   2.143  1.00 20.00    -0.283 OA
ENDROOT
BRANCH   3   5
HETATM    5  C5  UNL     1     -31.984   8.140   2.132  1.00 20.00     0.073 A 
HETATM    6  C4  UNL     1     -31.768   8.029   3.619  1.00 20.00     0.018 A 
HETATM    7  C6  UNL     1     -33.005   7.445   2.997  1.00 20.00    -0.006 A 
HETATM    8  C7  UNL     1     -33.175   5.967   2.913  1.00 20.00     0.011 C 
ENDBRANCH   3   5
TORSDOF 1
ENDMDL
MODEL 8
REMARK VINA RESULT:      -4.4      1.414      2.012
REMARK  1 active torsions:
REMARK  status: ('A' for Active; 'I' for Inactive)
REMARK    1  A    between atoms: C3_3  and  C5_5 
ROOT
HETATM    1  C1  UNL     1     -32.306   8.210   2.022  1.00 20.00     0.021 C 
HETATM    2  C2  UNL     1     -32.665   7.891   3.123  1.00 20.00    -0.039 C 
HETATM    3  C3  UNL     1     -33.096   7.508   4.447  1.00 20.00     0.206 C 
HETATM    4  O8  UNL     1     -32.608   8.053   5.428  1.00 20.00    -0.283 OA
ENDROOT
BRANCH   3   5
HETATM    5  C5  UNL     1     -34.120   6.458   4.519  1.00 20.00     0.073 A 
HETATM    6  C4  UNL     1     -34.911   6.115   3.283  1.00 20.00     0.018 A 
HETATM    7  C6  UNL     1     -33.884   5.151   3.804  1.00 20.00    -0.006 A 
HETATM    8  C7  UNL     1     -34.309   3.868   4.430  1.00 20.00     0.011 C 
ENDBRANCH   3   5
TORSDOF 1
ENDMDL
MODEL 9
REMARK VINA RESULT:      -4.4      2.760      3.943
REMARK  1 active torsions:
REMARK  status: ('A' for Active; 'I' for Inactive)
REMARK    1  A    between atoms: C3_3  and  C5_5 
ROOT
HETATM    1  C1  UNL     1     -33.613   7.794   6.139  1.00 20.00     0.021 C 
HETATM    2  C2  UNL     1     -33.997   6.771   5.641  1.00 20.00    -0.039 C 
HETATM    3  C3  UNL     1     -34.458   5.541   5.043  1.00 20.00     0.206 C 
HETATM    4  O8  UNL     1     -34.934   4.662   5.749  1.00 20.00    -0.283 OA
ENDROOT
BRANCH   3   5
HETATM    5  C5  UNL     1     -34.318   5.433   3.586  1.00 20.00     0.073 A 
HETATM    6  C4  UNL     1     -33.487   6.451   2.849  1.00 20.00     0.018 A 
HETATM    7  C6  UNL     1     -32.982   5.045   3.003  1.00 20.00    -0.006 A 
HETATM    8  C7  UNL     1     -32.915   4.138   1.823  1.00 20.00     0.011 C 
ENDBRANCH   3   5
TORSDOF 1
ENDMDL
