MODEL 1
REMARK VINA RESULT:      -5.1      0.000      0.000
REMARK  3 active torsions:
REMARK  status: ('A' for Active; 'I' for Inactive)
REMARK    1  A    between atoms: C3_3  and  C7_7 
REMARK    2  A    between atoms: C6_6  and  O9_9 
REMARK    3  A    between atoms: C7_7  and  O9_9 
ROOT
HETATM    1  C1  UNL     1     -33.851   7.248   5.887  1.00 20.00     0.021 C 
HETATM    2  C2  UNL     1     -33.657   7.053   4.719  1.00 20.00    -0.037 C 
HETATM    3  C3  UNL     1     -33.422   6.817   3.311  1.00 20.00     0.230 C 
HETATM    4  O8  UNL     1     -34.072   5.953   2.736  1.00 20.00    -0.281 OA
ENDROOT
BRANCH   3   5
HETATM    5  C7  UNL     1     -32.341   7.653   2.654  1.00 20.00     0.200 C 
HETATM    6  C5  UNL     1     -31.384   8.249   3.675  1.00 20.00     0.049 C 
BRANCH   5   7
HETATM    7  O9  UNL     1     -32.960   8.701   1.925  1.00 20.00    -0.378 OA
BRANCH   7   8
HETATM    8  C6  UNL     1     -32.139   9.152   0.856  1.00 20.00     0.164 C 
HETATM    9  C4  UNL     1     -33.013   9.485  -0.333  1.00 20.00     0.033 C 
ENDBRANCH   7   8
ENDBRANCH   5   7
ENDBRANCH   3   5
TORSDOF 3
ENDMDL
MODEL 2
REMARK VINA RESULT:      -5.1      1.787      2.637
REMARK  3 active torsions:
REMARK  status: ('A' for Active; 'I' for Inactive)
REMARK    1  A    between atoms: C3_3  and  C7_7 
REMARK    2  A    between atoms: C6_6  and  O9_9 
REMARK    3  A    between atoms: C7_7  and  O9_9 
ROOT
HETATM    1  C1  UNL     1     -33.959   7.219   6.266  1.00 20.00     0.021 C 
HETATM    2  C2  UNL     1     -34.180   6.392   5.425  1.00 20.00    -0.037 C 
HETATM    3  C3  UNL     1     -34.446   5.394   4.411  1.00 20.00     0.230 C 
HETATM    4  O8  UNL     1     -34.908   4.312   4.748  1.00 20.00    -0.281 OA
ENDROOT
BRANCH   3   5
HETATM    5  C7  UNL     1     -34.089   5.764   2.985  1.00 20.00     0.200 C 
HETATM    6  C5  UNL     1     -32.976   4.888   2.432  1.00 20.00     0.049 C 
BRANCH   5   7
HETATM    7  O9  UNL     1     -33.673   7.121   2.961  1.00 20.00    -0.378 OA
BRANCH   7   8
HETATM    8  C6  UNL     1     -32.339   7.251   2.489  1.00 20.00     0.164 C 
HETATM    9  C4  UNL     1     -31.609   8.264   3.344  1.00 20.00     0.033 C 
ENDBRANCH   7   8
ENDBRANCH   5   7
ENDBRANCH   3   5
TORSDOF 3
ENDMDL
MODEL 3
REMARK VINA RESULT:      -5.0      1.809      2.270
REMARK  3 active torsions:
REMARK  status: ('A' for Active; 'I' for Inactive)
REMARK    1  A    between atoms: C3_3  and  C7_7 
REMARK    2  A    between atoms: C6_6  and  O9_9 
REMARK    3  A    between atoms: C7_7  and  O9_9 
ROOT
HETATM    1  C1  UNL     1     -34.849   4.686   5.465  1.00 20.00     0.021 C 
HETATM    2  C2  UNL     1     -34.308   5.728   5.217  1.00 20.00    -0.037 C 
HETATM    3  C3  UNL     1     -33.656   6.985   4.918  1.00 20.00     0.230 C 
HETATM    4  O8  UNL     1     -33.376   7.744   5.837  1.00 20.00    -0.281 OA
ENDROOT
BRANCH   3   5
HETATM    5  C7  UNL     1     -33.400   7.285   3.454  1.00 20.00     0.200 C 
HETATM    6  C5  UNL     1     -33.237   6.015   2.633  1.00 20.00     0.049 C 
BRANCH   5   7
HETATM    7  O9  UNL     1     -32.217   8.063   3.353  1.00 20.00    -0.378 OA
BRANCH   7   8
HETATM    8  C6  UNL     1     -31.835   8.262   1.998  1.00 20.00     0.164 C 
HETATM    9  C4  UNL     1     -32.455   9.547   1.494  1.00 20.00     0.033 C 
ENDBRANCH   7   8
ENDBRANCH   5   7
ENDBRANCH   3   5
TORSDOF 3
ENDMDL
MODEL 4
REMARK VINA RESULT:      -4.9      1.612      4.253
REMARK  3 active torsions:
REMARK  status: ('A' for Active; 'I' for Inactive)
REMARK    1  A    between atoms: C3_3  and  C7_7 
REMARK    2  A    between atoms: C6_6  and  O9_9 
REMARK    3  A    between atoms: C7_7  and  O9_9 
ROOT
HETATM    1  C1  UNL     1     -32.354   9.136   0.732  1.00 20.00     0.021 C 
HETATM    2  C2  UNL     1     -32.272   8.651   1.827  1.00 20.00    -0.037 C 
HETATM    3  C3  UNL     1     -32.171   8.067   3.146  1.00 20.00     0.230 C 
HETATM    4  O8  UNL     1     -31.081   8.038   3.703  1.00 20.00    -0.281 OA
ENDROOT
BRANCH   3   5
HETATM    5  C7  UNL     1     -33.445   7.489   3.731  1.00 20.00     0.200 C 
HETATM    6  C5  UNL     1     -33.446   7.539   5.251  1.00 20.00     0.049 C 
BRANCH   5   7
HETATM    7  O9  UNL     1     -33.567   6.140   3.306  1.00 20.00    -0.378 OA
BRANCH   7   8
HETATM    8  C6  UNL     1     -34.683   5.500   3.910  1.00 20.00     0.164 C 
HETATM    9  C4  UNL     1     -34.265   4.126   4.388  1.00 20.00     0.033 C 
ENDBRANCH   7   8
ENDBRANCH   5   7
ENDBRANCH   3   5
TORSDOF 3
ENDMDL
MODEL 5
REMARK VINA RESULT:      -4.9      1.548      4.218
REMARK  3 active torsions:
REMARK  status: ('A' for Active; 'I' for Inactive)
REMARK    1  A    between atoms: C3_3  and  C7_7 
REMARK    2  A    between atoms: C6_6  and  O9_9 
REMARK    3  A    between atoms: C7_7  and  O9_9 
ROOT
HETATM    1  C1  UNL     1     -32.154   9.157   1.585  1.00 20.00     0.021 C 
HETATM    2  C2  UNL     1     -32.517   8.198   2.210  1.00 20.00    -0.037 C 
HETATM    3  C3  UNL     1     -32.954   7.042   2.961  1.00 20.00     0.230 C 
HETATM    4  O8  UNL     1     -32.488   5.943   2.687  1.00 20.00    -0.281 OA
ENDROOT
BRANCH   3   5
HETATM    5  C7  UNL     1     -34.004   7.283   4.028  1.00 20.00     0.200 C 
HETATM    6  C5  UNL     1     -33.388   7.418   5.412  1.00 20.00     0.049 C 
BRANCH   5   7
HETATM    7  O9  UNL     1     -34.911   6.192   4.024  1.00 20.00    -0.378 OA
BRANCH   7   8
HETATM    8  C6  UNL     1     -34.709   5.338   5.142  1.00 20.00     0.164 C 
HETATM    9  C4  UNL     1     -34.271   3.976   4.651  1.00 20.00     0.033 C 
ENDBRANCH   7   8
ENDBRANCH   5   7
ENDBRANCH   3   5
TORSDOF 3
ENDMDL
MODEL 6
REMARK VINA RESULT:      -4.7      1.251      1.454
REMARK  3 active torsions:
REMARK  status: ('A' for Active; 'I' for Inactive)
REMARK    1  A    between atoms: C3_3  and  C7_7 
REMARK    2  A    between atoms: C6_6  and  O9_9 
REMARK    3  A    between atoms: C7_7  and  O9_9 
ROOT
HETATM    1  C1  UNL     1     -34.719   4.944   5.564  1.00 20.00     0.021 C 
HETATM    2  C2  UNL     1     -34.330   5.470   4.558  1.00 20.00    -0.037 C 
HETATM    3  C3  UNL     1     -33.861   6.103   3.345  1.00 20.00     0.230 C 
HETATM    4  O8  UNL     1     -34.276   5.703   2.265  1.00 20.00    -0.281 OA
ENDROOT
BRANCH   3   5
HETATM    5  C7  UNL     1     -32.841   7.214   3.510  1.00 20.00     0.200 C 
HETATM    6  C5  UNL     1     -32.899   7.837   4.895  1.00 20.00     0.049 C 
BRANCH   5   7
HETATM    7  O9  UNL     1     -33.100   8.213   2.535  1.00 20.00    -0.378 OA
BRANCH   7   8
HETATM    8  C6  UNL     1     -31.939   8.514   1.773  1.00 20.00     0.164 C 
HETATM    9  C4  UNL     1     -32.269   9.609   0.782  1.00 20.00     0.033 C 
ENDBRANCH   7   8
ENDBRANCH   5   7
ENDBRANCH   3   5
TORSDOF 3
ENDMDL
MODEL 7
REMARK VINA RESULT:      -4.4      2.255      4.339
REMARK  3 active torsions:
REMARK  status: ('A' for Active; 'I' for Inactive)
REMARK    1  A    between atoms: C3_3  and  C7_7 
REMARK    2  A    between atoms: C6_6  and  O9_9 
REMARK    3  A    between atoms: C7_7  and  O9_9 
ROOT
HETATM    1  C1  UNL     1     -32.493   7.758   2.559  1.00 20.00     0.021 C 
HETATM    2  C2  UNL     1     -32.847   6.624   2.732  1.00 20.00    -0.037 C 
HETATM    3  C3  UNL     1     -33.272   5.257   2.941  1.00 20.00     0.230 C 
HETATM    4  O8  UNL     1     -32.739   4.363   2.296  1.00 20.00    -0.281 OA
ENDROOT
BRANCH   3   5
HETATM    5  C7  UNL     1     -34.395   5.040   3.937  1.00 20.00     0.200 C 
HETATM    6  C5  UNL     1     -35.550   6.003   3.710  1.00 20.00     0.049 C 
BRANCH   5   7
HETATM    7  O9  UNL     1     -33.879   5.227   5.246  1.00 20.00    -0.378 OA
BRANCH   7   8
HETATM    8  C6  UNL     1     -34.537   6.292   5.920  1.00 20.00     0.164 C 
HETATM    9  C4  UNL     1     -33.567   7.441   6.092  1.00 20.00     0.033 C 
ENDBRANCH   7   8
ENDBRANCH   5   7
ENDBRANCH   3   5
TORSDOF 3
ENDMDL
MODEL 8
REMARK VINA RESULT:      -4.4      2.046      4.064
REMARK  3 active torsions:
REMARK  status: ('A' for Active; 'I' for Inactive)
REMARK    1  A    between atoms: C3_3  and  C7_7 
REMARK    2  A    between atoms: C6_6  and  O9_9 
REMARK    3  A    between atoms: C7_7  and  O9_9 
ROOT
HETATM    1  C1  UNL     1     -32.121   7.986   2.860  1.00 20.00     0.021 C 
HETATM    2  C2  UNL     1     -32.758   7.634   3.814  1.00 20.00    -0.037 C 
HETATM    3  C3  UNL     1     -33.525   7.211   4.966  1.00 20.00     0.230 C 
HETATM    4  O8  UNL     1     -33.225   7.641   6.072  1.00 20.00    -0.281 OA
ENDROOT
BRANCH   3   5
HETATM    5  C7  UNL     1     -34.641   6.217   4.710  1.00 20.00     0.200 C 
HETATM    6  C5  UNL     1     -34.636   5.083   5.722  1.00 20.00     0.049 C 
BRANCH   5   7
HETATM    7  O9  UNL     1     -34.478   5.681   3.405  1.00 20.00    -0.378 OA
BRANCH   7   8
HETATM    8  C6  UNL     1     -33.878   4.393   3.440  1.00 20.00     0.164 C 
HETATM    9  C4  UNL     1     -32.820   4.313   2.361  1.00 20.00     0.033 C 
ENDBRANCH   7   8
ENDBRANCH   5   7
ENDBRANCH   3   5
TORSDOF 3
ENDMDL
MODEL 9
REMARK VINA RESULT:      -4.3      1.580      2.797
REMARK  3 active torsions:
REMARK  status: ('A' for Active; 'I' for Inactive)
REMARK    1  A    between atoms: C3_3  and  C7_7 
REMARK    2  A    between atoms: C6_6  and  O9_9 
REMARK    3  A    between atoms: C7_7  and  O9_9 
ROOT
HETATM    1  C1  UNL     1     -32.916   4.220   2.207  1.00 20.00     0.021 C 
HETATM    2  C2  UNL     1     -33.476   4.971   2.958  1.00 20.00    -0.037 C 
HETATM    3  C3  UNL     1     -34.152   5.874   3.863  1.00 20.00     0.230 C 
HETATM    4  O8  UNL     1     -35.367   5.789   3.994  1.00 20.00    -0.281 OA
ENDROOT
BRANCH   3   5
HETATM    5  C7  UNL     1     -33.288   6.904   4.565  1.00 20.00     0.200 C 
HETATM    6  C5  UNL     1     -33.886   7.336   5.895  1.00 20.00     0.049 C 
BRANCH   5   7
HETATM    7  O9  UNL     1     -33.157   8.036   3.720  1.00 20.00    -0.378 OA
BRANCH   7   8
HETATM    8  C6  UNL     1     -31.827   8.181   3.240  1.00 20.00     0.164 C 
HETATM    9  C4  UNL     1     -31.863   8.416   1.746  1.00 20.00     0.033 C 
ENDBRANCH   7   8
ENDBRANCH   5   7
ENDBRANCH   3   5
TORSDOF 3
ENDMDL
