MODEL 1
REMARK VINA RESULT:      -5.5      0.000      0.000
REMARK  2 active torsions:
REMARK  status: ('A' for Active; 'I' for Inactive)
REMARK    1  A    between atoms: C3_3  and  C7_7 
REMARK    2  A    between atoms: C7_7  and  C8_8 
ROOT
HETATM    1  C1  UNL     1     -32.560   9.066   1.025  1.00 20.00     0.021 C 
HETATM    2  C2  UNL     1     -32.505   8.374   2.005  1.00 20.00    -0.040 C 
HETATM    3  C3  UNL     1     -32.440   7.541   3.184  1.00 20.00     0.202 C 
HETATM    4  O9  UNL     1     -31.918   7.980   4.201  1.00 20.00    -0.283 OA
ENDROOT
BRANCH   3   5
HETATM    5  C7  UNL     1     -33.037   6.154   3.075  1.00 20.00     0.101 C 
BRANCH   5   6
HETATM    6  C8  UNL     1     -34.192   5.864   4.060  1.00 20.00    -0.044 C 
HETATM    7  C4  UNL     1     -34.276   4.367   4.398  1.00 20.00     0.015 C 
HETATM    8  C5  UNL     1     -35.512   6.284   3.384  1.00 20.00     0.015 C 
HETATM    9  C6  UNL     1     -34.032   6.670   5.359  1.00 20.00     0.015 C 
ENDBRANCH   5   6
ENDBRANCH   3   5
TORSDOF 2
ENDMDL
MODEL 2
REMARK VINA RESULT:      -5.5      0.040      1.441
REMARK  2 active torsions:
REMARK  status: ('A' for Active; 'I' for Inactive)
REMARK    1  A    between atoms: C3_3  and  C7_7 
REMARK    2  A    between atoms: C7_7  and  C8_8 
ROOT
HETATM    1  C1  UNL     1     -32.558   9.079   1.005  1.00 20.00     0.021 C 
HETATM    2  C2  UNL     1     -32.501   8.389   1.985  1.00 20.00    -0.040 C 
HETATM    3  C3  UNL     1     -32.433   7.559   3.166  1.00 20.00     0.202 C 
HETATM    4  O9  UNL     1     -31.906   7.999   4.180  1.00 20.00    -0.283 OA
ENDROOT
BRANCH   3   5
HETATM    5  C7  UNL     1     -33.032   6.172   3.062  1.00 20.00     0.101 C 
BRANCH   5   6
HETATM    6  C8  UNL     1     -34.203   5.896   4.033  1.00 20.00    -0.044 C 
HETATM    7  C4  UNL     1     -34.020   6.654   5.358  1.00 20.00     0.015 C 
HETATM    8  C5  UNL     1     -34.223   4.385   4.337  1.00 20.00     0.015 C 
HETATM    9  C6  UNL     1     -35.550   6.285   3.405  1.00 20.00     0.015 C 
ENDBRANCH   5   6
ENDBRANCH   3   5
TORSDOF 2
ENDMDL
MODEL 3
REMARK VINA RESULT:      -5.1      1.626      4.432
REMARK  2 active torsions:
REMARK  status: ('A' for Active; 'I' for Inactive)
REMARK    1  A    between atoms: C3_3  and  C7_7 
REMARK    2  A    between atoms: C7_7  and  C8_8 
ROOT
HETATM    1  C1  UNL     1     -33.199   5.094   2.826  1.00 20.00     0.021 C 
HETATM    2  C2  UNL     1     -32.923   6.263   2.822  1.00 20.00    -0.040 C 
HETATM    3  C3  UNL     1     -32.589   7.668   2.816  1.00 20.00     0.202 C 
HETATM    4  O9  UNL     1     -31.693   8.075   3.544  1.00 20.00    -0.283 OA
ENDROOT
BRANCH   3   5
HETATM    5  C7  UNL     1     -33.389   8.557   1.889  1.00 20.00     0.101 C 
BRANCH   5   6
HETATM    6  C8  UNL     1     -32.550   9.333   0.848  1.00 20.00    -0.044 C 
HETATM    7  C4  UNL     1     -31.152   8.715   0.684  1.00 20.00     0.015 C 
HETATM    8  C5  UNL     1     -32.386  10.781   1.351  1.00 20.00     0.015 C 
HETATM    9  C6  UNL     1     -33.253   9.369  -0.519  1.00 20.00     0.015 C 
ENDBRANCH   5   6
ENDBRANCH   3   5
TORSDOF 2
ENDMDL
MODEL 4
REMARK VINA RESULT:      -5.1      1.566      4.425
REMARK  2 active torsions:
REMARK  status: ('A' for Active; 'I' for Inactive)
REMARK    1  A    between atoms: C3_3  and  C7_7 
REMARK    2  A    between atoms: C7_7  and  C8_8 
ROOT
HETATM    1  C1  UNL     1     -33.282   5.112   2.913  1.00 20.00     0.021 C 
HETATM    2  C2  UNL     1     -32.987   6.275   2.878  1.00 20.00    -0.040 C 
HETATM    3  C3  UNL     1     -32.630   7.674   2.835  1.00 20.00     0.202 C 
HETATM    4  O9  UNL     1     -31.736   8.088   3.561  1.00 20.00    -0.283 OA
ENDROOT
BRANCH   3   5
HETATM    5  C7  UNL     1     -33.407   8.548   1.874  1.00 20.00     0.101 C 
BRANCH   5   6
HETATM    6  C8  UNL     1     -32.537   9.352   0.879  1.00 20.00    -0.044 C 
HETATM    7  C4  UNL     1     -32.341  10.801   1.354  1.00 20.00     0.015 C 
HETATM    8  C5  UNL     1     -33.268   9.380  -0.478  1.00 20.00     0.015 C 
HETATM    9  C6  UNL     1     -31.164   8.691   0.680  1.00 20.00     0.015 C 
ENDBRANCH   5   6
ENDBRANCH   3   5
TORSDOF 2
ENDMDL
MODEL 5
REMARK VINA RESULT:      -5.1      1.332      3.868
REMARK  2 active torsions:
REMARK  status: ('A' for Active; 'I' for Inactive)
REMARK    1  A    between atoms: C3_3  and  C7_7 
REMARK    2  A    between atoms: C7_7  and  C8_8 
ROOT
HETATM    1  C1  UNL     1     -34.767   4.579   5.205  1.00 20.00     0.021 C 
HETATM    2  C2  UNL     1     -34.376   5.714   5.200  1.00 20.00    -0.040 C 
HETATM    3  C3  UNL     1     -33.903   7.080   5.193  1.00 20.00     0.202 C 
HETATM    4  O9  UNL     1     -33.493   7.578   6.233  1.00 20.00    -0.283 OA
ENDROOT
BRANCH   3   5
HETATM    5  C7  UNL     1     -33.949   7.812   3.869  1.00 20.00     0.101 C 
BRANCH   5   6
HETATM    6  C8  UNL     1     -32.696   7.629   2.981  1.00 20.00    -0.044 C 
HETATM    7  C4  UNL     1     -31.422   8.080   3.713  1.00 20.00     0.015 C 
HETATM    8  C5  UNL     1     -32.871   8.504   1.724  1.00 20.00     0.015 C 
HETATM    9  C6  UNL     1     -32.537   6.165   2.538  1.00 20.00     0.015 C 
ENDBRANCH   5   6
ENDBRANCH   3   5
TORSDOF 2
ENDMDL
MODEL 6
REMARK VINA RESULT:      -4.7      1.652      4.128
REMARK  2 active torsions:
REMARK  status: ('A' for Active; 'I' for Inactive)
REMARK    1  A    between atoms: C3_3  and  C7_7 
REMARK    2  A    between atoms: C7_7  and  C8_8 
ROOT
HETATM    1  C1  UNL     1     -34.036   7.009   5.574  1.00 20.00     0.021 C 
HETATM    2  C2  UNL     1     -33.690   6.846   4.436  1.00 20.00    -0.040 C 
HETATM    3  C3  UNL     1     -33.274   6.650   3.066  1.00 20.00     0.202 C 
HETATM    4  O9  UNL     1     -32.798   5.573   2.733  1.00 20.00    -0.283 OA
ENDROOT
BRANCH   3   5
HETATM    5  C7  UNL     1     -33.462   7.817   2.121  1.00 20.00     0.101 C 
BRANCH   5   6
HETATM    6  C8  UNL     1     -32.207   8.698   1.919  1.00 20.00    -0.044 C 
HETATM    7  C4  UNL     1     -31.265   8.614   3.131  1.00 20.00     0.015 C 
HETATM    8  C5  UNL     1     -32.671  10.160   1.765  1.00 20.00     0.015 C 
HETATM    9  C6  UNL     1     -31.442   8.293   0.649  1.00 20.00     0.015 C 
ENDBRANCH   5   6
ENDBRANCH   3   5
TORSDOF 2
ENDMDL
MODEL 7
REMARK VINA RESULT:      -4.5      1.982      3.641
REMARK  2 active torsions:
REMARK  status: ('A' for Active; 'I' for Inactive)
REMARK    1  A    between atoms: C3_3  and  C7_7 
REMARK    2  A    between atoms: C7_7  and  C8_8 
ROOT
HETATM    1  C1  UNL     1     -33.511   7.768   6.413  1.00 20.00     0.021 C 
HETATM    2  C2  UNL     1     -33.976   6.827   5.829  1.00 20.00    -0.040 C 
HETATM    3  C3  UNL     1     -34.537   5.695   5.128  1.00 20.00     0.202 C 
HETATM    4  O9  UNL     1     -34.618   4.615   5.699  1.00 20.00    -0.283 OA
ENDROOT
BRANCH   3   5
HETATM    5  C7  UNL     1     -34.996   5.931   3.705  1.00 20.00     0.101 C 
BRANCH   5   6
HETATM    6  C8  UNL     1     -33.862   5.964   2.654  1.00 20.00    -0.044 C 
HETATM    7  C4  UNL     1     -32.968   7.201   2.836  1.00 20.00     0.015 C 
HETATM    8  C5  UNL     1     -34.509   6.034   1.257  1.00 20.00     0.015 C 
HETATM    9  C6  UNL     1     -32.997   4.696   2.729  1.00 20.00     0.015 C 
ENDBRANCH   5   6
ENDBRANCH   3   5
TORSDOF 2
ENDMDL
MODEL 8
REMARK VINA RESULT:      -4.5     10.934     12.053
REMARK  2 active torsions:
REMARK  status: ('A' for Active; 'I' for Inactive)
REMARK    1  A    between atoms: C3_3  and  C7_7 
REMARK    2  A    between atoms: C7_7  and  C8_8 
ROOT
HETATM    1  C1  UNL     1     -34.297  13.991  -7.918  1.00 20.00     0.021 C 
HETATM    2  C2  UNL     1     -34.804  13.906  -6.833  1.00 20.00    -0.040 C 
HETATM    3  C3  UNL     1     -35.412  13.804  -5.526  1.00 20.00     0.202 C 
HETATM    4  O9  UNL     1     -35.883  12.733  -5.165  1.00 20.00    -0.283 OA
ENDROOT
BRANCH   3   5
HETATM    5  C7  UNL     1     -35.422  15.057  -4.677  1.00 20.00     0.101 C 
BRANCH   5   6
HETATM    6  C8  UNL     1     -34.025  15.572  -4.261  1.00 20.00    -0.044 C 
HETATM    7  C4  UNL     1     -33.016  14.418  -4.145  1.00 20.00     0.015 C 
HETATM    8  C5  UNL     1     -34.156  16.244  -2.880  1.00 20.00     0.015 C 
HETATM    9  C6  UNL     1     -33.495  16.613  -5.261  1.00 20.00     0.015 C 
ENDBRANCH   5   6
ENDBRANCH   3   5
TORSDOF 2
ENDMDL
MODEL 9
REMARK VINA RESULT:      -4.4      1.487      2.119
REMARK  2 active torsions:
REMARK  status: ('A' for Active; 'I' for Inactive)
REMARK    1  A    between atoms: C3_3  and  C7_7 
REMARK    2  A    between atoms: C7_7  and  C8_8 
ROOT
HETATM    1  C1  UNL     1     -31.158   8.607   3.731  1.00 20.00     0.021 C 
HETATM    2  C2  UNL     1     -31.967   7.870   3.236  1.00 20.00    -0.040 C 
HETATM    3  C3  UNL     1     -32.939   6.983   2.640  1.00 20.00     0.202 C 
HETATM    4  O9  UNL     1     -33.509   7.322   1.611  1.00 20.00    -0.283 OA
ENDROOT
BRANCH   3   5
HETATM    5  C7  UNL     1     -33.188   5.668   3.346  1.00 20.00     0.101 C 
BRANCH   5   6
HETATM    6  C8  UNL     1     -34.348   5.688   4.368  1.00 20.00    -0.044 C 
HETATM    7  C4  UNL     1     -35.676   6.075   3.698  1.00 20.00     0.015 C 
HETATM    8  C5  UNL     1     -34.019   6.745   5.441  1.00 20.00     0.015 C 
HETATM    9  C6  UNL     1     -34.504   4.324   5.059  1.00 20.00     0.015 C 
ENDBRANCH   5   6
ENDBRANCH   3   5
TORSDOF 2
ENDMDL
