MODEL 1
REMARK VINA RESULT:      -5.2      0.000      0.000
REMARK  1 active torsions:
REMARK  status: ('A' for Active; 'I' for Inactive)
REMARK    1  A    between atoms: C3_3  and  C7_7 
ROOT
HETATM    1  C1  UNL     1     -32.496   8.758   0.869  1.00 20.00     0.021 C 
HETATM    2  C2  UNL     1     -32.255   8.416   1.994  1.00 20.00    -0.039 C 
HETATM    3  C3  UNL     1     -31.966   8.006   3.348  1.00 20.00     0.208 C 
HETATM    4  O10 UNL     1     -31.201   8.671   4.035  1.00 20.00    -0.283 OA
ENDROOT
BRANCH   3   5
HETATM    5  C7  UNL     1     -32.645   6.758   3.823  1.00 20.00     0.100 C 
HETATM    6  C6  UNL     1     -33.512   6.151   2.715  1.00 20.00     0.047 C 
HETATM    7  C8  UNL     1     -34.902   6.175   3.353  1.00 20.00     0.122 C 
HETATM    8  C4  UNL     1     -35.000   5.148   4.481  1.00 20.00     0.034 C 
HETATM    9  O11 UNL     1     -34.846   7.411   4.099  1.00 20.00    -0.380 OA
HETATM   10  C5  UNL     1     -34.158   5.799   5.582  1.00 20.00     0.035 C 
HETATM   11  C9  UNL     1     -33.684   7.082   4.902  1.00 20.00     0.134 C 
ENDBRANCH   3   5
TORSDOF 1
ENDMDL
MODEL 2
REMARK VINA RESULT:      -5.1      1.037      1.737
REMARK  1 active torsions:
REMARK  status: ('A' for Active; 'I' for Inactive)
REMARK    1  A    between atoms: C3_3  and  C7_7 
ROOT
HETATM    1  C1  UNL     1     -32.217   9.339   0.578  1.00 20.00     0.021 C 
HETATM    2  C2  UNL     1     -32.183   8.838   1.669  1.00 20.00    -0.039 C 
HETATM    3  C3  UNL     1     -32.141   8.237   2.981  1.00 20.00     0.208 C 
HETATM    4  O10 UNL     1     -31.085   8.193   3.597  1.00 20.00    -0.283 OA
ENDROOT
BRANCH   3   5
HETATM    5  C7  UNL     1     -33.437   7.696   3.504  1.00 20.00     0.100 C 
HETATM    6  C6  UNL     1     -33.310   7.304   4.980  1.00 20.00     0.047 C 
HETATM    7  C8  UNL     1     -33.643   5.813   4.940  1.00 20.00     0.122 C 
HETATM    8  C4  UNL     1     -35.126   5.593   4.641  1.00 20.00     0.034 C 
HETATM    9  O11 UNL     1     -33.042   5.425   3.685  1.00 20.00    -0.380 OA
HETATM   10  C5  UNL     1     -35.212   5.955   3.157  1.00 20.00     0.035 C 
HETATM   11  C9  UNL     1     -33.771   6.354   2.844  1.00 20.00     0.134 C 
ENDBRANCH   3   5
TORSDOF 1
ENDMDL
MODEL 3
REMARK VINA RESULT:      -4.7     11.149     12.123
REMARK  1 active torsions:
REMARK  status: ('A' for Active; 'I' for Inactive)
REMARK    1  A    between atoms: C3_3  and  C7_7 
ROOT
HETATM    1  C1  UNL     1     -33.740  16.686  -2.659  1.00 20.00     0.021 C 
HETATM    2  C2  UNL     1     -33.673  15.809  -3.476  1.00 20.00    -0.039 C 
HETATM    3  C3  UNL     1     -33.591  14.754  -4.459  1.00 20.00     0.208 C 
HETATM    4  O10 UNL     1     -32.876  13.783  -4.252  1.00 20.00    -0.283 OA
ENDROOT
BRANCH   3   5
HETATM    5  C7  UNL     1     -34.416  14.935  -5.697  1.00 20.00     0.100 C 
HETATM    6  C6  UNL     1     -35.897  15.115  -5.346  1.00 20.00     0.047 C 
HETATM    7  C8  UNL     1     -36.539  13.934  -6.075  1.00 20.00     0.122 C 
HETATM    8  C4  UNL     1     -36.505  14.145  -7.589  1.00 20.00     0.034 C 
HETATM    9  O11 UNL     1     -35.525  12.918  -5.909  1.00 20.00    -0.380 OA
HETATM   10  C5  UNL     1     -35.026  13.922  -7.912  1.00 20.00     0.035 C 
HETATM   11  C9  UNL     1     -34.437  13.648  -6.529  1.00 20.00     0.134 C 
ENDBRANCH   3   5
TORSDOF 1
ENDMDL
MODEL 4
REMARK VINA RESULT:      -4.5      1.233      1.637
REMARK  1 active torsions:
REMARK  status: ('A' for Active; 'I' for Inactive)
REMARK    1  A    between atoms: C3_3  and  C7_7 
ROOT
HETATM    1  C1  UNL     1     -32.545  10.215   0.684  1.00 20.00     0.021 C 
HETATM    2  C2  UNL     1     -32.373   9.346   1.494  1.00 20.00    -0.039 C 
HETATM    3  C3  UNL     1     -32.165   8.302   2.470  1.00 20.00     0.208 C 
HETATM    4  O10 UNL     1     -31.135   8.281   3.130  1.00 20.00    -0.283 OA
ENDROOT
BRANCH   3   5
HETATM    5  C7  UNL     1     -33.263   7.291   2.603  1.00 20.00     0.100 C 
HETATM    6  C6  UNL     1     -34.374   7.807   3.525  1.00 20.00     0.047 C 
HETATM    7  C8  UNL     1     -34.378   6.754   4.633  1.00 20.00     0.122 C 
HETATM    8  C4  UNL     1     -34.933   5.425   4.119  1.00 20.00     0.034 C 
HETATM    9  O11 UNL     1     -32.969   6.450   4.737  1.00 20.00    -0.380 OA
HETATM   10  C5  UNL     1     -33.790   4.919   3.236  1.00 20.00     0.035 C 
HETATM   11  C9  UNL     1     -32.771   6.051   3.357  1.00 20.00     0.134 C 
ENDBRANCH   3   5
TORSDOF 1
ENDMDL
MODEL 5
REMARK VINA RESULT:      -4.5     11.271     11.823
REMARK  1 active torsions:
REMARK  status: ('A' for Active; 'I' for Inactive)
REMARK    1  A    between atoms: C3_3  and  C7_7 
ROOT
HETATM    1  C1  UNL     1     -35.433  17.022  -0.935  1.00 20.00     0.021 C 
HETATM    2  C2  UNL     1     -34.893  16.683  -1.951  1.00 20.00    -0.039 C 
HETATM    3  C3  UNL     1     -34.241  16.275  -3.174  1.00 20.00     0.208 C 
HETATM    4  O10 UNL     1     -33.329  16.949  -3.632  1.00 20.00    -0.283 OA
ENDROOT
BRANCH   3   5
HETATM    5  C7  UNL     1     -34.751  15.018  -3.809  1.00 20.00     0.100 C 
HETATM    6  C6  UNL     1     -33.717  14.436  -4.780  1.00 20.00     0.047 C 
HETATM    7  C8  UNL     1     -34.483  14.447  -6.102  1.00 20.00     0.122 C 
HETATM    8  C4  UNL     1     -35.594  13.396  -6.096  1.00 20.00     0.034 C 
HETATM    9  O11 UNL     1     -35.248  15.666  -5.973  1.00 20.00    -0.380 OA
HETATM   10  C5  UNL     1     -36.624  14.021  -5.153  1.00 20.00     0.035 C 
HETATM   11  C9  UNL     1     -35.930  15.319  -4.741  1.00 20.00     0.134 C 
ENDBRANCH   3   5
TORSDOF 1
ENDMDL
MODEL 6
REMARK VINA RESULT:      -4.5     11.556     12.588
REMARK  1 active torsions:
REMARK  status: ('A' for Active; 'I' for Inactive)
REMARK    1  A    between atoms: C3_3  and  C7_7 
ROOT
HETATM    1  C1  UNL     1     -35.206  16.484  -2.486  1.00 20.00     0.021 C 
HETATM    2  C2  UNL     1     -35.804  15.938  -3.373  1.00 20.00    -0.039 C 
HETATM    3  C3  UNL     1     -36.525  15.282  -4.439  1.00 20.00     0.208 C 
HETATM    4  O10 UNL     1     -37.602  14.751  -4.208  1.00 20.00    -0.283 OA
ENDROOT
BRANCH   3   5
HETATM    5  C7  UNL     1     -35.875  15.303  -5.788  1.00 20.00     0.100 C 
HETATM    6  C6  UNL     1     -36.416  14.175  -6.674  1.00 20.00     0.047 C 
HETATM    7  C8  UNL     1     -35.148  13.376  -6.977  1.00 20.00     0.122 C 
HETATM    8  C4  UNL     1     -34.227  14.154  -7.918  1.00 20.00     0.034 C 
HETATM    9  O11 UNL     1     -34.436  13.494  -5.725  1.00 20.00    -0.380 OA
HETATM   10  C5  UNL     1     -33.675  15.246  -6.998  1.00 20.00     0.035 C 
HETATM   11  C9  UNL     1     -34.389  14.942  -5.682  1.00 20.00     0.134 C 
ENDBRANCH   3   5
TORSDOF 1
ENDMDL
MODEL 7
REMARK VINA RESULT:      -4.5     11.129     11.759
REMARK  1 active torsions:
REMARK  status: ('A' for Active; 'I' for Inactive)
REMARK    1  A    between atoms: C3_3  and  C7_7 
ROOT
HETATM    1  C1  UNL     1     -32.616  18.077  -1.255  1.00 20.00     0.021 C 
HETATM    2  C2  UNL     1     -33.558  17.477  -1.695  1.00 20.00    -0.039 C 
HETATM    3  C3  UNL     1     -34.692  16.755  -2.223  1.00 20.00     0.208 C 
HETATM    4  O10 UNL     1     -35.604  16.425  -1.478  1.00 20.00    -0.283 OA
ENDROOT
BRANCH   3   5
HETATM    5  C7  UNL     1     -34.662  16.457  -3.691  1.00 20.00     0.100 C 
HETATM    6  C6  UNL     1     -35.845  15.570  -4.094  1.00 20.00     0.047 C 
HETATM    7  C8  UNL     1     -35.138  14.338  -4.658  1.00 20.00     0.122 C 
HETATM    8  C4  UNL     1     -34.466  14.660  -5.993  1.00 20.00     0.034 C 
HETATM    9  O11 UNL     1     -33.993  14.246  -3.781  1.00 20.00    -0.380 OA
HETATM   10  C5  UNL     1     -33.272  15.511  -5.556  1.00 20.00     0.035 C 
HETATM   11  C9  UNL     1     -33.462  15.570  -4.041  1.00 20.00     0.134 C 
ENDBRANCH   3   5
TORSDOF 1
ENDMDL
MODEL 8
REMARK VINA RESULT:      -4.5     11.030     12.245
REMARK  1 active torsions:
REMARK  status: ('A' for Active; 'I' for Inactive)
REMARK    1  A    between atoms: C3_3  and  C7_7 
ROOT
HETATM    1  C1  UNL     1     -34.064  14.009  -7.918  1.00 20.00     0.021 C 
HETATM    2  C2  UNL     1     -34.652  13.953  -6.873  1.00 20.00    -0.039 C 
HETATM    3  C3  UNL     1     -35.358  13.884  -5.615  1.00 20.00     0.208 C 
HETATM    4  O10 UNL     1     -35.884  12.835  -5.269  1.00 20.00    -0.283 OA
ENDROOT
BRANCH   3   5
HETATM    5  C7  UNL     1     -35.393  15.143  -4.804  1.00 20.00     0.100 C 
HETATM    6  C6  UNL     1     -34.861  16.331  -5.614  1.00 20.00     0.047 C 
HETATM    7  C8  UNL     1     -33.673  16.785  -4.766  1.00 20.00     0.122 C 
HETATM    8  C4  UNL     1     -34.149  17.429  -3.464  1.00 20.00     0.034 C 
HETATM    9  O11 UNL     1     -33.171  15.517  -4.287  1.00 20.00    -0.380 OA
HETATM   10  C5  UNL     1     -34.637  16.218  -2.665  1.00 20.00     0.035 C 
HETATM   11  C9  UNL     1     -34.393  15.072  -3.645  1.00 20.00     0.134 C 
ENDBRANCH   3   5
TORSDOF 1
ENDMDL
MODEL 9
REMARK VINA RESULT:      -4.4     11.331     12.096
REMARK  1 active torsions:
REMARK  status: ('A' for Active; 'I' for Inactive)
REMARK    1  A    between atoms: C3_3  and  C7_7 
ROOT
HETATM    1  C1  UNL     1     -35.048  14.064  -4.463  1.00 20.00     0.021 C 
HETATM    2  C2  UNL     1     -34.480  15.089  -4.207  1.00 20.00    -0.039 C 
HETATM    3  C3  UNL     1     -33.796  16.324  -3.901  1.00 20.00     0.208 C 
HETATM    4  O10 UNL     1     -33.365  17.022  -4.808  1.00 20.00    -0.283 OA
ENDROOT
BRANCH   3   5
HETATM    5  C7  UNL     1     -33.664  16.665  -2.448  1.00 20.00     0.100 C 
HETATM    6  C6  UNL     1     -35.037  16.723  -1.771  1.00 20.00     0.047 C 
HETATM    7  C8  UNL     1     -35.082  18.165  -1.268  1.00 20.00     0.122 C 
HETATM    8  C4  UNL     1     -34.106  18.368  -0.108  1.00 20.00     0.034 C 
HETATM    9  O11 UNL     1     -34.396  18.856  -2.337  1.00 20.00    -0.380 OA
HETATM   10  C5  UNL     1     -32.751  18.344  -0.820  1.00 20.00     0.035 C 
HETATM   11  C9  UNL     1     -33.159  18.102  -2.271  1.00 20.00     0.134 C 
ENDBRANCH   3   5
TORSDOF 1
ENDMDL
