MODEL 1
REMARK VINA RESULT:      -5.9      0.000      0.000
REMARK  2 active torsions:
REMARK  status: ('A' for Active; 'I' for Inactive)
REMARK    1  A    between atoms: C3_3  and  C7_7 
REMARK    2  A    between atoms: C8_8  and  C10_10 
ROOT
HETATM    1  C1  UNL     1     -34.791   5.381   5.589  1.00 20.00     0.021 C 
HETATM    2  C2  UNL     1     -34.237   5.561   4.540  1.00 20.00    -0.039 C 
HETATM    3  C3  UNL     1     -33.571   5.777   3.277  1.00 20.00     0.205 C 
HETATM    4  O11 UNL     1     -33.337   4.826   2.543  1.00 20.00    -0.283 OA
ENDROOT
BRANCH   3   5
HETATM    5  C7  UNL     1     -33.203   7.213   2.946  1.00 20.00     0.069 C 
HETATM    6  C4  UNL     1     -32.111   7.776   3.847  1.00 20.00     0.013 C 
HETATM    7  C5  UNL     1     -31.603   9.000   3.089  1.00 20.00     0.005 C 
HETATM    8  C8  UNL     1     -31.850   8.703   1.610  1.00 20.00    -0.014 C 
HETATM    9  C6  UNL     1     -32.598   7.374   1.551  1.00 20.00     0.017 C 
BRANCH   8  10
HETATM   10  C10 UNL     1     -32.735   9.786   1.022  1.00 20.00     0.000 C 
HETATM   11  C9  UNL     1     -33.127   9.486  -0.391  1.00 20.00     0.005 C 
ENDBRANCH   8  10
ENDBRANCH   3   5
TORSDOF 2
ENDMDL
MODEL 2
REMARK VINA RESULT:      -5.9      1.600      1.811
REMARK  2 active torsions:
REMARK  status: ('A' for Active; 'I' for Inactive)
REMARK    1  A    between atoms: C3_3  and  C7_7 
REMARK    2  A    between atoms: C8_8  and  C10_10 
ROOT
HETATM    1  C1  UNL     1     -34.669   4.505   4.414  1.00 20.00     0.021 C 
HETATM    2  C2  UNL     1     -34.316   5.610   4.721  1.00 20.00    -0.039 C 
HETATM    3  C3  UNL     1     -33.891   6.940   5.091  1.00 20.00     0.205 C 
HETATM    4  O11 UNL     1     -33.997   7.310   6.253  1.00 20.00    -0.283 OA
ENDROOT
BRANCH   3   5
HETATM    5  C7  UNL     1     -33.325   7.801   3.975  1.00 20.00     0.069 C 
HETATM    6  C4  UNL     1     -31.881   8.223   4.216  1.00 20.00     0.013 C 
HETATM    7  C5  UNL     1     -31.395   8.669   2.839  1.00 20.00     0.005 C 
HETATM    8  C8  UNL     1     -32.218   7.868   1.829  1.00 20.00    -0.014 C 
HETATM    9  C6  UNL     1     -33.239   7.069   2.635  1.00 20.00     0.017 C 
BRANCH   8  10
HETATM   10  C10 UNL     1     -32.960   8.827   0.917  1.00 20.00     0.000 C 
HETATM   11  C9  UNL     1     -32.516  10.243   1.110  1.00 20.00     0.005 C 
ENDBRANCH   8  10
ENDBRANCH   3   5
TORSDOF 2
ENDMDL
MODEL 3
REMARK VINA RESULT:      -5.9      1.645      4.776
REMARK  2 active torsions:
REMARK  status: ('A' for Active; 'I' for Inactive)
REMARK    1  A    between atoms: C3_3  and  C7_7 
REMARK    2  A    between atoms: C8_8  and  C10_10 
ROOT
HETATM    1  C1  UNL     1     -32.498   9.153   0.721  1.00 20.00     0.021 C 
HETATM    2  C2  UNL     1     -32.210   8.651   1.772  1.00 20.00    -0.039 C 
HETATM    3  C3  UNL     1     -31.863   8.047   3.037  1.00 20.00     0.205 C 
HETATM    4  O11 UNL     1     -30.809   8.344   3.584  1.00 20.00    -0.283 OA
ENDROOT
BRANCH   3   5
HETATM    5  C7  UNL     1     -32.866   7.060   3.611  1.00 20.00     0.069 C 
HETATM    6  C4  UNL     1     -34.309   7.534   3.493  1.00 20.00     0.013 C 
HETATM    7  C5  UNL     1     -35.130   6.264   3.699  1.00 20.00     0.005 C 
HETATM    8  C8  UNL     1     -34.244   5.114   3.222  1.00 20.00    -0.014 C 
HETATM    9  C6  UNL     1     -32.892   5.726   2.863  1.00 20.00     0.017 C 
BRANCH   8  10
HETATM   10  C10 UNL     1     -34.046   4.129   4.360  1.00 20.00     0.000 C 
HETATM   11  C9  UNL     1     -34.564   4.662   5.659  1.00 20.00     0.005 C 
ENDBRANCH   8  10
ENDBRANCH   3   5
TORSDOF 2
ENDMDL
MODEL 4
REMARK VINA RESULT:      -5.7      1.676      4.573
REMARK  2 active torsions:
REMARK  status: ('A' for Active; 'I' for Inactive)
REMARK    1  A    between atoms: C3_3  and  C7_7 
REMARK    2  A    between atoms: C8_8  and  C10_10 
ROOT
HETATM    1  C1  UNL     1     -33.023  10.807   1.427  1.00 20.00     0.021 C 
HETATM    2  C2  UNL     1     -32.493   9.732   1.488  1.00 20.00    -0.039 C 
HETATM    3  C3  UNL     1     -31.856   8.438   1.561  1.00 20.00     0.205 C 
HETATM    4  O11 UNL     1     -30.967   8.152   0.769  1.00 20.00    -0.283 OA
ENDROOT
BRANCH   3   5
HETATM    5  C7  UNL     1     -32.352   7.503   2.651  1.00 20.00     0.069 C 
HETATM    6  C4  UNL     1     -32.297   8.121   4.043  1.00 20.00     0.013 C 
HETATM    7  C5  UNL     1     -33.217   7.232   4.876  1.00 20.00     0.005 C 
HETATM    8  C8  UNL     1     -34.245   6.665   3.896  1.00 20.00    -0.014 C 
HETATM    9  C6  UNL     1     -33.831   7.141   2.506  1.00 20.00     0.017 C 
BRANCH   8  10
HETATM   10  C10 UNL     1     -34.187   5.150   3.930  1.00 20.00     0.000 C 
HETATM   11  C9  UNL     1     -34.539   4.605   5.279  1.00 20.00     0.005 C 
ENDBRANCH   8  10
ENDBRANCH   3   5
TORSDOF 2
ENDMDL
MODEL 5
REMARK VINA RESULT:      -5.1     10.377     11.234
REMARK  2 active torsions:
REMARK  status: ('A' for Active; 'I' for Inactive)
REMARK    1  A    between atoms: C3_3  and  C7_7 
REMARK    2  A    between atoms: C8_8  and  C10_10 
ROOT
HETATM    1  C1  UNL     1     -34.167  14.329  -7.641  1.00 20.00     0.021 C 
HETATM    2  C2  UNL     1     -34.644  14.041  -6.578  1.00 20.00    -0.039 C 
HETATM    3  C3  UNL     1     -35.218  13.693  -5.300  1.00 20.00     0.205 C 
HETATM    4  O11 UNL     1     -35.940  12.709  -5.205  1.00 20.00    -0.283 OA
ENDROOT
BRANCH   3   5
HETATM    5  C7  UNL     1     -34.869  14.603  -4.135  1.00 20.00     0.069 C 
HETATM    6  C4  UNL     1     -33.476  15.211  -4.244  1.00 20.00     0.013 C 
HETATM    7  C5  UNL     1     -33.508  16.381  -3.265  1.00 20.00     0.005 C 
HETATM    8  C8  UNL     1     -34.968  16.829  -3.200  1.00 20.00    -0.014 C 
HETATM    9  C6  UNL     1     -35.765  15.839  -4.047  1.00 20.00     0.017 C 
BRANCH   8  10
HETATM   10  C10 UNL     1     -35.455  16.745  -1.766  1.00 20.00     0.000 C 
HETATM   11  C9  UNL     1     -34.520  17.424  -0.815  1.00 20.00     0.005 C 
ENDBRANCH   8  10
ENDBRANCH   3   5
TORSDOF 2
ENDMDL
MODEL 6
REMARK VINA RESULT:      -4.9      1.661      4.954
REMARK  2 active torsions:
REMARK  status: ('A' for Active; 'I' for Inactive)
REMARK    1  A    between atoms: C3_3  and  C7_7 
REMARK    2  A    between atoms: C8_8  and  C10_10 
ROOT
HETATM    1  C1  UNL     1     -32.989   9.567  -0.411  1.00 20.00     0.021 C 
HETATM    2  C2  UNL     1     -32.730   9.202   0.702  1.00 20.00    -0.039 C 
HETATM    3  C3  UNL     1     -32.417   8.764   2.042  1.00 20.00     0.205 C 
HETATM    4  O11 UNL     1     -31.547   9.341   2.683  1.00 20.00    -0.283 OA
ENDROOT
BRANCH   3   5
HETATM    5  C7  UNL     1     -33.218   7.587   2.570  1.00 20.00     0.069 C 
HETATM    6  C4  UNL     1     -32.906   6.279   1.854  1.00 20.00     0.013 C 
HETATM    7  C5  UNL     1     -33.449   5.206   2.794  1.00 20.00     0.005 C 
HETATM    8  C8  UNL     1     -33.373   5.807   4.198  1.00 20.00    -0.014 C 
HETATM    9  C6  UNL     1     -32.902   7.250   4.029  1.00 20.00     0.017 C 
BRANCH   8  10
HETATM   10  C10 UNL     1     -34.760   5.817   4.814  1.00 20.00     0.000 C 
HETATM   11  C9  UNL     1     -34.821   5.005   6.070  1.00 20.00     0.005 C 
ENDBRANCH   8  10
ENDBRANCH   3   5
TORSDOF 2
ENDMDL
MODEL 7
REMARK VINA RESULT:      -4.9     10.473     11.131
REMARK  2 active torsions:
REMARK  status: ('A' for Active; 'I' for Inactive)
REMARK    1  A    between atoms: C3_3  and  C7_7 
REMARK    2  A    between atoms: C8_8  and  C10_10 
ROOT
HETATM    1  C1  UNL     1     -38.484  14.736  -5.240  1.00 20.00     0.021 C 
HETATM    2  C2  UNL     1     -37.381  14.284  -5.108  1.00 20.00    -0.039 C 
HETATM    3  C3  UNL     1     -36.053  13.739  -4.949  1.00 20.00     0.205 C 
HETATM    4  O11 UNL     1     -35.809  12.607  -5.346  1.00 20.00    -0.283 OA
ENDROOT
BRANCH   3   5
HETATM    5  C7  UNL     1     -35.030  14.642  -4.281  1.00 20.00     0.069 C 
HETATM    6  C4  UNL     1     -33.973  15.167  -5.245  1.00 20.00     0.013 C 
HETATM    7  C5  UNL     1     -33.355  16.349  -4.503  1.00 20.00     0.005 C 
HETATM    8  C8  UNL     1     -34.452  16.881  -3.581  1.00 20.00    -0.014 C 
HETATM    9  C6  UNL     1     -35.637  15.929  -3.720  1.00 20.00     0.017 C 
BRANCH   8  10
HETATM   10  C10 UNL     1     -33.963  16.843  -2.146  1.00 20.00     0.000 C 
HETATM   11  C9  UNL     1     -35.083  17.006  -1.166  1.00 20.00     0.005 C 
ENDBRANCH   8  10
ENDBRANCH   3   5
TORSDOF 2
ENDMDL
MODEL 8
REMARK VINA RESULT:      -4.6     10.531     11.297
REMARK  2 active torsions:
REMARK  status: ('A' for Active; 'I' for Inactive)
REMARK    1  A    between atoms: C3_3  and  C7_7 
REMARK    2  A    between atoms: C8_8  and  C10_10 
ROOT
HETATM    1  C1  UNL     1     -34.465  18.567   1.142  1.00 20.00     0.021 C 
HETATM    2  C2  UNL     1     -33.985  18.250   0.089  1.00 20.00    -0.039 C 
HETATM    3  C3  UNL     1     -33.406  17.869  -1.178  1.00 20.00     0.205 C 
HETATM    4  O11 UNL     1     -32.383  18.416  -1.568  1.00 20.00    -0.283 OA
ENDROOT
BRANCH   3   5
HETATM    5  C7  UNL     1     -34.134  16.783  -1.951  1.00 20.00     0.069 C 
HETATM    6  C4  UNL     1     -35.611  17.088  -2.168  1.00 20.00     0.013 C 
HETATM    7  C5  UNL     1     -36.019  16.143  -3.295  1.00 20.00     0.005 C 
HETATM    8  C8  UNL     1     -34.751  15.902  -4.115  1.00 20.00    -0.014 C 
HETATM    9  C6  UNL     1     -33.617  16.612  -3.380  1.00 20.00     0.017 C 
BRANCH   8  10
HETATM   10  C10 UNL     1     -34.453  14.415  -4.149  1.00 20.00     0.000 C 
HETATM   11  C9  UNL     1     -35.532  13.642  -4.841  1.00 20.00     0.005 C 
ENDBRANCH   8  10
ENDBRANCH   3   5
TORSDOF 2
ENDMDL
MODEL 9
REMARK VINA RESULT:      -4.6     10.267     11.162
REMARK  2 active torsions:
REMARK  status: ('A' for Active; 'I' for Inactive)
REMARK    1  A    between atoms: C3_3  and  C7_7 
REMARK    2  A    between atoms: C8_8  and  C10_10 
ROOT
HETATM    1  C1  UNL     1     -36.656  14.359  -5.071  1.00 20.00     0.021 C 
HETATM    2  C2  UNL     1     -35.525  14.435  -4.679  1.00 20.00    -0.039 C 
HETATM    3  C3  UNL     1     -34.163  14.525  -4.206  1.00 20.00     0.205 C 
HETATM    4  O11 UNL     1     -33.368  13.632  -4.467  1.00 20.00    -0.283 OA
ENDROOT
BRANCH   3   5
HETATM    5  C7  UNL     1     -33.811  15.763  -3.398  1.00 20.00     0.069 C 
HETATM    6  C4  UNL     1     -33.528  16.985  -4.264  1.00 20.00     0.013 C 
HETATM    7  C5  UNL     1     -33.642  18.157  -3.293  1.00 20.00     0.005 C 
HETATM    8  C8  UNL     1     -34.620  17.704  -2.208  1.00 20.00    -0.014 C 
HETATM    9  C6  UNL     1     -34.957  16.245  -2.507  1.00 20.00     0.017 C 
BRANCH   8  10
HETATM   10  C10 UNL     1     -33.936  17.778  -0.855  1.00 20.00     0.000 C 
HETATM   11  C9  UNL     1     -32.576  18.396  -0.947  1.00 20.00     0.005 C 
ENDBRANCH   8  10
ENDBRANCH   3   5
TORSDOF 2
ENDMDL
