MODEL 1
REMARK VINA RESULT:      -6.8      0.000      0.000
REMARK  4 active torsions:
REMARK  status: ('A' for Active; 'I' for Inactive)
REMARK    1  A    between atoms: C1_1  and  C5_5 
REMARK    2  A    between atoms: C1_1  and  C9_9 
REMARK    3  A    between atoms: C6_6  and  C10_10 
REMARK    4  A    between atoms: C9_9  and  C10_10 
ROOT
HETATM    1  C1  UNL     1     -33.331   6.656   3.198  1.00 20.00     0.131 C 
HETATM    2  O11 UNL     1     -33.417   5.803   2.315  1.00 20.00    -0.298 OA
ENDROOT
BRANCH   1   3
HETATM    3  C5  UNL     1     -34.416   6.813   4.233  1.00 20.00     0.059 A 
HETATM    4  C4  UNL     1     -34.035   6.703   5.668  1.00 20.00     0.017 A 
HETATM    5  C7  UNL     1     -34.861   5.628   5.019  1.00 20.00    -0.007 A 
HETATM    6  C8  UNL     1     -34.296   4.260   4.838  1.00 20.00     0.011 C 
ENDBRANCH   1   3
BRANCH   1   7
HETATM    7  C9  UNL     1     -32.152   7.603   3.317  1.00 20.00     0.079 C 
BRANCH   7   8
HETATM    8  C10 UNL     1     -31.752   8.212   1.976  1.00 20.00     0.012 C 
BRANCH   8   9
HETATM    9  C6  UNL     1     -32.845   9.115   1.427  1.00 20.00    -0.014 A 
HETATM   10  C2  UNL     1     -32.521  10.515   0.986  1.00 20.00     0.005 A 
HETATM   11  C3  UNL     1     -32.871   9.468  -0.034  1.00 20.00     0.005 A 
ENDBRANCH   8   9
ENDBRANCH   7   8
ENDBRANCH   1   7
TORSDOF 4
ENDMDL
MODEL 2
REMARK VINA RESULT:      -6.6      1.347      5.240
REMARK  4 active torsions:
REMARK  status: ('A' for Active; 'I' for Inactive)
REMARK    1  A    between atoms: C1_1  and  C5_5 
REMARK    2  A    between atoms: C1_1  and  C9_9 
REMARK    3  A    between atoms: C6_6  and  C10_10 
REMARK    4  A    between atoms: C9_9  and  C10_10 
ROOT
HETATM    1  C1  UNL     1     -32.234   8.021   2.944  1.00 20.00     0.131 C 
HETATM    2  O11 UNL     1     -31.183   8.340   3.501  1.00 20.00    -0.298 OA
ENDROOT
BRANCH   1   3
HETATM    3  C5  UNL     1     -32.370   8.092   1.445  1.00 20.00     0.059 A 
HETATM    4  C4  UNL     1     -31.283   8.755   0.674  1.00 20.00     0.017 A 
HETATM    5  C7  UNL     1     -32.634   9.403   0.790  1.00 20.00    -0.007 A 
HETATM    6  C8  UNL     1     -32.786  10.682   1.540  1.00 20.00     0.011 C 
ENDBRANCH   1   3
BRANCH   1   7
HETATM    7  C9  UNL     1     -33.456   7.541   3.705  1.00 20.00     0.079 C 
BRANCH   7   8
HETATM    8  C10 UNL     1     -34.024   6.242   3.139  1.00 20.00     0.012 C 
BRANCH   8   9
HETATM    9  C6  UNL     1     -34.924   5.543   4.145  1.00 20.00    -0.014 A 
HETATM   10  C2  UNL     1     -34.478   4.269   4.805  1.00 20.00     0.005 A 
HETATM   11  C3  UNL     1     -34.567   5.538   5.605  1.00 20.00     0.005 A 
ENDBRANCH   8   9
ENDBRANCH   7   8
ENDBRANCH   1   7
TORSDOF 4
ENDMDL
MODEL 3
REMARK VINA RESULT:      -6.5      1.380      1.636
REMARK  4 active torsions:
REMARK  status: ('A' for Active; 'I' for Inactive)
REMARK    1  A    between atoms: C1_1  and  C5_5 
REMARK    2  A    between atoms: C1_1  and  C9_9 
REMARK    3  A    between atoms: C6_6  and  C10_10 
REMARK    4  A    between atoms: C9_9  and  C10_10 
ROOT
HETATM    1  C1  UNL     1     -33.195   7.198   4.184  1.00 20.00     0.131 C 
HETATM    2  O11 UNL     1     -33.425   7.484   5.358  1.00 20.00    -0.298 OA
ENDROOT
BRANCH   1   3
HETATM    3  C5  UNL     1     -33.952   6.092   3.493  1.00 20.00     0.059 A 
HETATM    4  C4  UNL     1     -35.431   6.051   3.652  1.00 20.00     0.017 A 
HETATM    5  C7  UNL     1     -34.570   5.005   4.302  1.00 20.00    -0.007 A 
HETATM    6  C8  UNL     1     -34.479   4.931   5.788  1.00 20.00     0.011 C 
ENDBRANCH   1   3
BRANCH   1   7
HETATM    7  C9  UNL     1     -32.152   7.917   3.348  1.00 20.00     0.079 C 
BRANCH   7   8
HETATM    8  C10 UNL     1     -32.413   7.791   1.850  1.00 20.00     0.012 C 
BRANCH   8   9
HETATM    9  C6  UNL     1     -32.008   9.052   1.106  1.00 20.00    -0.014 A 
HETATM   10  C2  UNL     1     -32.835   9.551  -0.046  1.00 20.00     0.005 A 
HETATM   11  C3  UNL     1     -32.819  10.310   1.251  1.00 20.00     0.005 A 
ENDBRANCH   8   9
ENDBRANCH   7   8
ENDBRANCH   1   7
TORSDOF 4
ENDMDL
MODEL 4
REMARK VINA RESULT:      -5.8      1.282      1.452
REMARK  4 active torsions:
REMARK  status: ('A' for Active; 'I' for Inactive)
REMARK    1  A    between atoms: C1_1  and  C5_5 
REMARK    2  A    between atoms: C1_1  and  C9_9 
REMARK    3  A    between atoms: C6_6  and  C10_10 
REMARK    4  A    between atoms: C9_9  and  C10_10 
ROOT
HETATM    1  C1  UNL     1     -33.359   7.407   3.946  1.00 20.00     0.131 C 
HETATM    2  O11 UNL     1     -32.458   7.703   4.730  1.00 20.00    -0.298 OA
ENDROOT
BRANCH   1   3
HETATM    3  C5  UNL     1     -34.593   6.683   4.419  1.00 20.00     0.059 A 
HETATM    4  C4  UNL     1     -34.469   5.786   5.600  1.00 20.00     0.017 A 
HETATM    5  C7  UNL     1     -34.700   5.209   4.232  1.00 20.00    -0.007 A 
HETATM    6  C8  UNL     1     -33.643   4.383   3.582  1.00 20.00     0.011 C 
ENDBRANCH   1   3
BRANCH   1   7
HETATM    7  C9  UNL     1     -33.305   7.739   2.466  1.00 20.00     0.079 C 
BRANCH   7   8
HETATM    8  C10 UNL     1     -31.890   8.050   1.987  1.00 20.00     0.012 C 
BRANCH   8   9
HETATM    9  C6  UNL     1     -31.867   9.255   1.060  1.00 20.00    -0.014 A 
HETATM   10  C2  UNL     1     -32.846   9.354  -0.077  1.00 20.00     0.005 A 
HETATM   11  C3  UNL     1     -32.977  10.267   1.109  1.00 20.00     0.005 A 
ENDBRANCH   8   9
ENDBRANCH   7   8
ENDBRANCH   1   7
TORSDOF 4
ENDMDL
MODEL 5
REMARK VINA RESULT:      -5.7      0.924      1.595
REMARK  4 active torsions:
REMARK  status: ('A' for Active; 'I' for Inactive)
REMARK    1  A    between atoms: C1_1  and  C5_5 
REMARK    2  A    between atoms: C1_1  and  C9_9 
REMARK    3  A    between atoms: C6_6  and  C10_10 
REMARK    4  A    between atoms: C9_9  and  C10_10 
ROOT
HETATM    1  C1  UNL     1     -33.703   6.080   2.898  1.00 20.00     0.131 C 
HETATM    2  O11 UNL     1     -34.634   6.158   2.098  1.00 20.00    -0.298 OA
ENDROOT
BRANCH   1   3
HETATM    3  C5  UNL     1     -33.762   5.133   4.069  1.00 20.00     0.059 A 
HETATM    4  C4  UNL     1     -35.063   4.975   4.777  1.00 20.00     0.017 A 
HETATM    5  C7  UNL     1     -33.914   5.674   5.448  1.00 20.00    -0.007 A 
HETATM    6  C8  UNL     1     -34.004   7.130   5.756  1.00 20.00     0.011 C 
ENDBRANCH   1   3
BRANCH   1   7
HETATM    7  C9  UNL     1     -32.442   6.916   2.778  1.00 20.00     0.079 C 
BRANCH   7   8
HETATM    8  C10 UNL     1     -32.739   8.396   2.556  1.00 20.00     0.012 C 
BRANCH   8   9
HETATM    9  C6  UNL     1     -32.083   8.911   1.285  1.00 20.00    -0.014 A 
HETATM   10  C2  UNL     1     -32.913   9.181   0.060  1.00 20.00     0.005 A 
HETATM   11  C3  UNL     1     -32.316  10.325   0.832  1.00 20.00     0.005 A 
ENDBRANCH   8   9
ENDBRANCH   7   8
ENDBRANCH   1   7
TORSDOF 4
ENDMDL
MODEL 6
REMARK VINA RESULT:      -5.6      1.259      5.131
REMARK  4 active torsions:
REMARK  status: ('A' for Active; 'I' for Inactive)
REMARK    1  A    between atoms: C1_1  and  C5_5 
REMARK    2  A    between atoms: C1_1  and  C9_9 
REMARK    3  A    between atoms: C6_6  and  C10_10 
REMARK    4  A    between atoms: C9_9  and  C10_10 
ROOT
HETATM    1  C1  UNL     1     -32.159   8.440   2.472  1.00 20.00     0.131 C 
HETATM    2  O11 UNL     1     -31.125   7.908   2.873  1.00 20.00    -0.298 OA
ENDROOT
BRANCH   1   3
HETATM    3  C5  UNL     1     -32.136   9.814   1.853  1.00 20.00     0.059 A 
HETATM    4  C4  UNL     1     -33.436  10.437   1.482  1.00 20.00     0.017 A 
HETATM    5  C7  UNL     1     -32.482   9.980   0.414  1.00 20.00    -0.007 A 
HETATM    6  C8  UNL     1     -32.851   8.845  -0.480  1.00 20.00     0.011 C 
ENDBRANCH   1   3
BRANCH   1   7
HETATM    7  C9  UNL     1     -33.519   7.772   2.565  1.00 20.00     0.079 C 
BRANCH   7   8
HETATM    8  C10 UNL     1     -33.422   6.298   2.949  1.00 20.00     0.012 C 
BRANCH   8   9
HETATM    9  C6  UNL     1     -34.601   5.867   3.806  1.00 20.00    -0.014 A 
HETATM   10  C2  UNL     1     -34.563   4.559   4.545  1.00 20.00     0.005 A 
HETATM   11  C3  UNL     1     -34.484   5.853   5.304  1.00 20.00     0.005 A 
ENDBRANCH   8   9
ENDBRANCH   7   8
ENDBRANCH   1   7
TORSDOF 4
ENDMDL
MODEL 7
REMARK VINA RESULT:      -4.7     10.495     11.712
REMARK  4 active torsions:
REMARK  status: ('A' for Active; 'I' for Inactive)
REMARK    1  A    between atoms: C1_1  and  C5_5 
REMARK    2  A    between atoms: C1_1  and  C9_9 
REMARK    3  A    between atoms: C6_6  and  C10_10 
REMARK    4  A    between atoms: C9_9  and  C10_10 
ROOT
HETATM    1  C1  UNL     1     -35.631  13.700  -5.711  1.00 20.00     0.131 C 
HETATM    2  O11 UNL     1     -35.864  12.606  -5.199  1.00 20.00    -0.298 OA
ENDROOT
BRANCH   1   3
HETATM    3  C5  UNL     1     -36.642  14.369  -6.606  1.00 20.00     0.059 A 
HETATM    4  C4  UNL     1     -36.683  15.857  -6.627  1.00 20.00     0.017 A 
HETATM    5  C7  UNL     1     -37.806  15.077  -6.003  1.00 20.00    -0.007 A 
HETATM    6  C8  UNL     1     -38.047  15.161  -4.534  1.00 20.00     0.011 C 
ENDBRANCH   1   3
BRANCH   1   7
HETATM    7  C9  UNL     1     -34.332  14.453  -5.491  1.00 20.00     0.079 C 
BRANCH   7   8
HETATM    8  C10 UNL     1     -34.053  14.720  -4.014  1.00 20.00     0.012 C 
BRANCH   8   9
HETATM    9  C6  UNL     1     -34.397  16.150  -3.631  1.00 20.00    -0.014 A 
HETATM   10  C2  UNL     1     -35.190  16.430  -2.385  1.00 20.00     0.005 A 
HETATM   11  C3  UNL     1     -33.734  16.797  -2.448  1.00 20.00     0.005 A 
ENDBRANCH   8   9
ENDBRANCH   7   8
ENDBRANCH   1   7
TORSDOF 4
ENDMDL
MODEL 8
REMARK VINA RESULT:      -4.7     10.424     11.917
REMARK  4 active torsions:
REMARK  status: ('A' for Active; 'I' for Inactive)
REMARK    1  A    between atoms: C1_1  and  C5_5 
REMARK    2  A    between atoms: C1_1  and  C9_9 
REMARK    3  A    between atoms: C6_6  and  C10_10 
REMARK    4  A    between atoms: C9_9  and  C10_10 
ROOT
HETATM    1  C1  UNL     1     -35.497  13.848  -5.201  1.00 20.00     0.131 C 
HETATM    2  O11 UNL     1     -35.906  12.688  -5.210  1.00 20.00    -0.298 OA
ENDROOT
BRANCH   1   3
HETATM    3  C5  UNL     1     -35.980  14.849  -6.219  1.00 20.00     0.059 A 
HETATM    4  C4  UNL     1     -36.656  14.334  -7.441  1.00 20.00     0.017 A 
HETATM    5  C7  UNL     1     -35.289  14.952  -7.535  1.00 20.00    -0.007 A 
HETATM    6  C8  UNL     1     -34.116  14.116  -7.917  1.00 20.00     0.011 C 
ENDBRANCH   1   3
BRANCH   1   7
HETATM    7  C9  UNL     1     -34.493  14.360  -4.184  1.00 20.00     0.079 C 
BRANCH   7   8
HETATM    8  C10 UNL     1     -34.640  15.856  -3.918  1.00 20.00     0.012 C 
BRANCH   8   9
HETATM    9  C6  UNL     1     -33.769  16.303  -2.756  1.00 20.00    -0.014 A 
HETATM   10  C2  UNL     1     -33.458  17.760  -2.558  1.00 20.00     0.005 A 
HETATM   11  C3  UNL     1     -34.374  17.051  -1.601  1.00 20.00     0.005 A 
ENDBRANCH   8   9
ENDBRANCH   7   8
ENDBRANCH   1   7
TORSDOF 4
ENDMDL
MODEL 9
REMARK VINA RESULT:      -4.6     10.683     11.462
REMARK  4 active torsions:
REMARK  status: ('A' for Active; 'I' for Inactive)
REMARK    1  A    between atoms: C1_1  and  C5_5 
REMARK    2  A    between atoms: C1_1  and  C9_9 
REMARK    3  A    between atoms: C6_6  and  C10_10 
REMARK    4  A    between atoms: C9_9  and  C10_10 
ROOT
HETATM    1  C1  UNL     1     -33.873  14.690  -4.733  1.00 20.00     0.131 C 
HETATM    2  O11 UNL     1     -33.312  13.674  -4.324  1.00 20.00    -0.298 OA
ENDROOT
BRANCH   1   3
HETATM    3  C5  UNL     1     -35.314  14.657  -5.173  1.00 20.00     0.059 A 
HETATM    4  C4  UNL     1     -35.980  13.331  -5.289  1.00 20.00     0.017 A 
HETATM    5  C7  UNL     1     -35.661  14.129  -6.522  1.00 20.00    -0.007 A 
HETATM    6  C8  UNL     1     -34.649  13.626  -7.494  1.00 20.00     0.011 C 
ENDBRANCH   1   3
BRANCH   1   7
HETATM    7  C9  UNL     1     -33.176  16.035  -4.828  1.00 20.00     0.079 C 
BRANCH   7   8
HETATM    8  C10 UNL     1     -33.796  17.082  -3.908  1.00 20.00     0.012 C 
BRANCH   8   9
HETATM    9  C6  UNL     1     -33.838  16.603  -2.466  1.00 20.00    -0.014 A 
HETATM   10  C2  UNL     1     -33.832  17.596  -1.338  1.00 20.00     0.005 A 
HETATM   11  C3  UNL     1     -35.075  16.807  -1.637  1.00 20.00     0.005 A 
ENDBRANCH   8   9
ENDBRANCH   7   8
ENDBRANCH   1   7
TORSDOF 4
ENDMDL
