MODEL 1
REMARK VINA RESULT:      -4.4      0.000      0.000
REMARK  4 active torsions:
REMARK  status: ('A' for Active; 'I' for Inactive)
REMARK    1  A    between atoms: C1_1  and  C8_8 
REMARK    2  A    between atoms: C1_1  and  O11_11 
REMARK    3  A    between atoms: C4_4  and  C8_8 
REMARK    4  A    between atoms: C8_8  and  N9_9 
ROOT
HETATM    1  C8  UNL     1     -32.913   6.765   3.647  1.00 20.00     0.324 C 
ENDROOT
BRANCH   1   2
HETATM    2  C1  UNL     1     -32.185   7.969   3.069  1.00 20.00     0.292 C 
HETATM    3  O10 UNL     1     -31.163   8.428   3.570  1.00 20.00    -0.263 OA
BRANCH   2   4
HETATM    4  O11 UNL     1     -32.793   8.452   1.950  1.00 20.00    -0.325 OA
HETATM    5  C7  UNL     1     -31.927   9.043   0.975  1.00 20.00     0.213 C 
ENDBRANCH   2   4
ENDBRANCH   1   2
BRANCH   1   6
HETATM    6  C4  UNL     1     -33.923   7.209   4.695  1.00 20.00     0.029 A 
HETATM    7  C2  UNL     1     -34.254   6.314   5.856  1.00 20.00     0.008 A 
HETATM    8  C3  UNL     1     -33.464   7.573   6.079  1.00 20.00     0.008 A 
ENDBRANCH   1   6
BRANCH   1   9
HETATM    9  N9  UNL     1     -33.563   5.988   2.623  1.00 20.00     0.094 N 
HETATM   10  C5  UNL     1     -35.023   5.990   2.799  1.00 20.00     0.310 C 
HETATM   11  C6  UNL     1     -33.070   4.602   2.612  1.00 20.00     0.310 C 
ENDBRANCH   1   9
TORSDOF 4
ENDMDL
MODEL 2
REMARK VINA RESULT:      -4.2     11.369     12.616
REMARK  4 active torsions:
REMARK  status: ('A' for Active; 'I' for Inactive)
REMARK    1  A    between atoms: C1_1  and  C8_8 
REMARK    2  A    between atoms: C1_1  and  O11_11 
REMARK    3  A    between atoms: C4_4  and  C8_8 
REMARK    4  A    between atoms: C8_8  and  N9_9 
ROOT
HETATM    1  C8  UNL     1     -35.624  14.870  -5.893  1.00 20.00     0.324 C 
ENDROOT
BRANCH   1   2
HETATM    2  C1  UNL     1     -36.344  13.657  -5.323  1.00 20.00     0.292 C 
HETATM    3  O10 UNL     1     -35.807  12.559  -5.217  1.00 20.00    -0.263 OA
BRANCH   2   4
HETATM    4  O11 UNL     1     -37.623  13.943  -4.952  1.00 20.00    -0.325 OA
HETATM    5  C7  UNL     1     -37.845  15.265  -4.450  1.00 20.00     0.213 C 
ENDBRANCH   2   4
ENDBRANCH   1   2
BRANCH   1   6
HETATM    6  C4  UNL     1     -34.229  14.986  -5.298  1.00 20.00     0.029 A 
HETATM    7  C2  UNL     1     -33.721  16.314  -4.811  1.00 20.00     0.008 A 
HETATM    8  C3  UNL     1     -34.054  15.229  -3.825  1.00 20.00     0.008 A 
ENDBRANCH   1   6
BRANCH   1   9
HETATM    9  N9  UNL     1     -35.552  14.826  -7.331  1.00 20.00     0.094 N 
HETATM   10  C5  UNL     1     -34.247  14.324  -7.784  1.00 20.00     0.310 C 
HETATM   11  C6  UNL     1     -35.802  16.151  -7.918  1.00 20.00     0.310 C 
ENDBRANCH   1   9
TORSDOF 4
ENDMDL
MODEL 3
REMARK VINA RESULT:      -4.0     11.369     12.158
REMARK  4 active torsions:
REMARK  status: ('A' for Active; 'I' for Inactive)
REMARK    1  A    between atoms: C1_1  and  C8_8 
REMARK    2  A    between atoms: C1_1  and  O11_11 
REMARK    3  A    between atoms: C4_4  and  C8_8 
REMARK    4  A    between atoms: C8_8  and  N9_9 
ROOT
HETATM    1  C8  UNL     1     -36.322  14.932  -4.551  1.00 20.00     0.324 C 
ENDROOT
BRANCH   1   2
HETATM    2  C1  UNL     1     -35.903  13.816  -5.497  1.00 20.00     0.292 C 
HETATM    3  O10 UNL     1     -35.855  12.640  -5.152  1.00 20.00    -0.263 OA
BRANCH   2   4
HETATM    4  O11 UNL     1     -35.603  14.280  -6.742  1.00 20.00    -0.325 OA
HETATM    5  C7  UNL     1     -34.463  13.684  -7.371  1.00 20.00     0.213 C 
ENDBRANCH   2   4
ENDBRANCH   1   2
BRANCH   1   6
HETATM    6  C4  UNL     1     -35.163  15.888  -4.313  1.00 20.00     0.029 A 
HETATM    7  C2  UNL     1     -34.606  16.073  -2.930  1.00 20.00     0.008 A 
HETATM    8  C3  UNL     1     -33.800  15.354  -3.975  1.00 20.00     0.008 A 
ENDBRANCH   1   6
BRANCH   1   9
HETATM    9  N9  UNL     1     -37.470  15.649  -5.043  1.00 20.00     0.094 N 
HETATM   10  C5  UNL     1     -37.748  16.837  -4.224  1.00 20.00     0.310 C 
HETATM   11  C6  UNL     1     -38.661  14.787  -5.080  1.00 20.00     0.310 C 
ENDBRANCH   1   9
TORSDOF 4
ENDMDL
MODEL 4
REMARK VINA RESULT:      -4.0     11.092     12.825
REMARK  4 active torsions:
REMARK  status: ('A' for Active; 'I' for Inactive)
REMARK    1  A    between atoms: C1_1  and  C8_8 
REMARK    2  A    between atoms: C1_1  and  O11_11 
REMARK    3  A    between atoms: C4_4  and  C8_8 
REMARK    4  A    between atoms: C8_8  and  N9_9 
ROOT
HETATM    1  C8  UNL     1     -35.339  15.046  -5.712  1.00 20.00     0.324 C 
ENDROOT
BRANCH   1   2
HETATM    2  C1  UNL     1     -35.170  13.684  -5.054  1.00 20.00     0.292 C 
HETATM    3  O10 UNL     1     -35.912  12.737  -5.294  1.00 20.00    -0.263 OA
BRANCH   2   4
HETATM    4  O11 UNL     1     -34.113  13.654  -4.195  1.00 20.00    -0.325 OA
HETATM    5  C7  UNL     1     -33.302  14.833  -4.164  1.00 20.00     0.213 C 
ENDBRANCH   2   4
ENDBRANCH   1   2
BRANCH   1   6
HETATM    6  C4  UNL     1     -35.175  14.929  -7.220  1.00 20.00     0.029 A 
HETATM    7  C2  UNL     1     -34.055  15.647  -7.918  1.00 20.00     0.008 A 
HETATM    8  C3  UNL     1     -34.027  14.149  -7.797  1.00 20.00     0.008 A 
ENDBRANCH   1   6
BRANCH   1   9
HETATM    9  N9  UNL     1     -36.611  15.643  -5.392  1.00 20.00     0.094 N 
HETATM   10  C5  UNL     1     -37.510  15.639  -6.555  1.00 20.00     0.310 C 
HETATM   11  C6  UNL     1     -36.445  17.019  -4.902  1.00 20.00     0.310 C 
ENDBRANCH   1   9
TORSDOF 4
ENDMDL
MODEL 5
REMARK VINA RESULT:      -3.9     11.447     12.673
REMARK  4 active torsions:
REMARK  status: ('A' for Active; 'I' for Inactive)
REMARK    1  A    between atoms: C1_1  and  C8_8 
REMARK    2  A    between atoms: C1_1  and  O11_11 
REMARK    3  A    between atoms: C4_4  and  C8_8 
REMARK    4  A    between atoms: C8_8  and  N9_9 
ROOT
HETATM    1  C8  UNL     1     -35.529  15.076  -5.178  1.00 20.00     0.324 C 
ENDROOT
BRANCH   1   2
HETATM    2  C1  UNL     1     -36.327  13.784  -5.285  1.00 20.00     0.292 C 
HETATM    3  O10 UNL     1     -37.496  13.697  -4.923  1.00 20.00    -0.263 OA
BRANCH   2   4
HETATM    4  O11 UNL     1     -35.597  12.770  -5.827  1.00 20.00    -0.325 OA
HETATM    5  C7  UNL     1     -35.049  13.021  -7.126  1.00 20.00     0.213 C 
ENDBRANCH   2   4
ENDBRANCH   1   2
BRANCH   1   6
HETATM    6  C4  UNL     1     -36.357  16.252  -5.674  1.00 20.00     0.029 A 
HETATM    7  C2  UNL     1     -35.779  17.218  -6.670  1.00 20.00     0.008 A 
HETATM    8  C3  UNL     1     -36.871  16.272  -7.086  1.00 20.00     0.008 A 
ENDBRANCH   1   6
BRANCH   1   9
HETATM    9  N9  UNL     1     -35.074  15.316  -3.833  1.00 20.00     0.094 N 
HETATM   10  C5  UNL     1     -35.911  16.318  -3.158  1.00 20.00     0.310 C 
HETATM   11  C6  UNL     1     -33.670  15.753  -3.815  1.00 20.00     0.310 C 
ENDBRANCH   1   9
TORSDOF 4
ENDMDL
MODEL 6
REMARK VINA RESULT:      -3.9     11.149     11.813
REMARK  4 active torsions:
REMARK  status: ('A' for Active; 'I' for Inactive)
REMARK    1  A    between atoms: C1_1  and  C8_8 
REMARK    2  A    between atoms: C1_1  and  O11_11 
REMARK    3  A    between atoms: C4_4  and  C8_8 
REMARK    4  A    between atoms: C8_8  and  N9_9 
ROOT
HETATM    1  C8  UNL     1     -35.961  15.508  -3.696  1.00 20.00     0.324 C 
ENDROOT
BRANCH   1   2
HETATM    2  C1  UNL     1     -34.857  14.778  -4.447  1.00 20.00     0.292 C 
HETATM    3  O10 UNL     1     -34.370  13.725  -4.048  1.00 20.00    -0.263 OA
BRANCH   2   4
HETATM    4  O11 UNL     1     -34.498  15.423  -5.592  1.00 20.00    -0.325 OA
HETATM    5  C7  UNL     1     -33.099  15.685  -5.746  1.00 20.00     0.213 C 
ENDBRANCH   2   4
ENDBRANCH   1   2
BRANCH   1   6
HETATM    6  C4  UNL     1     -35.405  16.746  -3.009  1.00 20.00     0.029 A 
HETATM    7  C2  UNL     1     -35.312  16.803  -1.510  1.00 20.00     0.008 A 
HETATM    8  C3  UNL     1     -34.061  16.698  -2.337  1.00 20.00     0.008 A 
ENDBRANCH   1   6
BRANCH   1   9
HETATM    9  N9  UNL     1     -37.055  15.865  -4.563  1.00 20.00     0.094 N 
HETATM   10  C5  UNL     1     -37.830  16.984  -4.009  1.00 20.00     0.310 C 
HETATM   11  C6  UNL     1     -37.944  14.718  -4.798  1.00 20.00     0.310 C 
ENDBRANCH   1   9
TORSDOF 4
ENDMDL
MODEL 7
REMARK VINA RESULT:      -3.7      2.002      3.453
REMARK  4 active torsions:
REMARK  status: ('A' for Active; 'I' for Inactive)
REMARK    1  A    between atoms: C1_1  and  C8_8 
REMARK    2  A    between atoms: C1_1  and  O11_11 
REMARK    3  A    between atoms: C4_4  and  C8_8 
REMARK    4  A    between atoms: C8_8  and  N9_9 
ROOT
HETATM    1  C8  UNL     1     -33.617   7.299   3.731  1.00 20.00     0.324 C 
ENDROOT
BRANCH   1   2
HETATM    2  C1  UNL     1     -34.400   6.057   3.331  1.00 20.00     0.292 C 
HETATM    3  O10 UNL     1     -35.621   6.051   3.222  1.00 20.00    -0.263 OA
BRANCH   2   4
HETATM    4  O11 UNL     1     -33.588   4.985   3.109  1.00 20.00    -0.325 OA
HETATM    5  C7  UNL     1     -33.881   3.813   3.877  1.00 20.00     0.213 C 
ENDBRANCH   2   4
ENDBRANCH   1   2
BRANCH   1   6
HETATM    6  C4  UNL     1     -33.181   7.204   5.185  1.00 20.00     0.029 A 
HETATM    7  C2  UNL     1     -33.904   7.986   6.245  1.00 20.00     0.008 A 
HETATM    8  C3  UNL     1     -34.043   6.491   6.188  1.00 20.00     0.008 A 
ENDBRANCH   1   6
BRANCH   1   9
HETATM    9  N9  UNL     1     -32.475   7.512   2.879  1.00 20.00     0.094 N 
HETATM   10  C5  UNL     1     -31.363   8.122   3.621  1.00 20.00     0.310 C 
HETATM   11  C6  UNL     1     -32.822   8.357   1.726  1.00 20.00     0.310 C 
ENDBRANCH   1   9
TORSDOF 4
ENDMDL
MODEL 8
REMARK VINA RESULT:      -3.7     11.248     12.199
REMARK  4 active torsions:
REMARK  status: ('A' for Active; 'I' for Inactive)
REMARK    1  A    between atoms: C1_1  and  C8_8 
REMARK    2  A    between atoms: C1_1  and  O11_11 
REMARK    3  A    between atoms: C4_4  and  C8_8 
REMARK    4  A    between atoms: C8_8  and  N9_9 
ROOT
HETATM    1  C8  UNL     1     -35.073  16.453  -4.138  1.00 20.00     0.324 C 
ENDROOT
BRANCH   1   2
HETATM    2  C1  UNL     1     -36.592  16.437  -4.222  1.00 20.00     0.292 C 
HETATM    3  O10 UNL     1     -37.254  17.449  -4.433  1.00 20.00    -0.263 OA
BRANCH   2   4
HETATM    4  O11 UNL     1     -37.106  15.188  -4.044  1.00 20.00    -0.325 OA
HETATM    5  C7  UNL     1     -38.261  14.872  -4.829  1.00 20.00     0.213 C 
ENDBRANCH   2   4
ENDBRANCH   1   2
BRANCH   1   6
HETATM    6  C4  UNL     1     -34.618  16.137  -2.721  1.00 20.00     0.029 A 
HETATM    7  C2  UNL     1     -33.805  17.137  -1.947  1.00 20.00     0.008 A 
HETATM    8  C3  UNL     1     -35.228  16.859  -1.553  1.00 20.00     0.008 A 
ENDBRANCH   1   6
BRANCH   1   9
HETATM    9  N9  UNL     1     -34.474  15.535  -5.072  1.00 20.00     0.094 N 
HETATM   10  C5  UNL     1     -33.852  14.398  -4.378  1.00 20.00     0.310 C 
HETATM   11  C6  UNL     1     -33.473  16.208  -5.913  1.00 20.00     0.310 C 
ENDBRANCH   1   9
TORSDOF 4
ENDMDL
MODEL 9
REMARK VINA RESULT:      -3.7     11.265     12.597
REMARK  4 active torsions:
REMARK  status: ('A' for Active; 'I' for Inactive)
REMARK    1  A    between atoms: C1_1  and  C8_8 
REMARK    2  A    between atoms: C1_1  and  O11_11 
REMARK    3  A    between atoms: C4_4  and  C8_8 
REMARK    4  A    between atoms: C8_8  and  N9_9 
ROOT
HETATM    1  C8  UNL     1     -35.488  15.121  -5.705  1.00 20.00     0.324 C 
ENDROOT
BRANCH   1   2
HETATM    2  C1  UNL     1     -35.113  13.765  -5.125  1.00 20.00     0.292 C 
HETATM    3  O10 UNL     1     -34.627  13.635  -4.007  1.00 20.00    -0.263 OA
BRANCH   2   4
HETATM    4  O11 UNL     1     -35.389  12.743  -5.983  1.00 20.00    -0.325 OA
HETATM    5  C7  UNL     1     -35.192  13.026  -7.373  1.00 20.00     0.213 C 
ENDBRANCH   2   4
ENDBRANCH   1   2
BRANCH   1   6
HETATM    6  C4  UNL     1     -36.834  15.576  -5.161  1.00 20.00     0.029 A 
HETATM    7  C2  UNL     1     -38.039  15.612  -6.058  1.00 20.00     0.008 A 
HETATM    8  C3  UNL     1     -37.945  14.583  -4.967  1.00 20.00     0.008 A 
ENDBRANCH   1   6
BRANCH   1   9
HETATM    9  N9  UNL     1     -34.479  16.115  -5.439  1.00 20.00     0.094 N 
HETATM   10  C5  UNL     1     -35.016  17.217  -4.629  1.00 20.00     0.310 C 
HETATM   11  C6  UNL     1     -33.917  16.650  -6.689  1.00 20.00     0.310 C 
ENDBRANCH   1   9
TORSDOF 4
ENDMDL
