MODEL 1
REMARK VINA RESULT:      -5.6      0.000      0.000
REMARK  1 active torsions:
REMARK  status: ('A' for Active; 'I' for Inactive)
REMARK    1  A    between atoms: C3_3  and  C9_9 
ROOT
HETATM    1  C1  UNL     1     -33.236   6.354   2.349  1.00 20.00     0.016 A 
HETATM    2  C2  UNL     1     -34.013   5.632   3.301  1.00 20.00     0.015 A 
HETATM    3  C3  UNL     1     -32.643   7.467   2.901  1.00 20.00    -0.013 A 
HETATM    4  C4  UNL     1     -33.984   6.222   4.545  1.00 20.00    -0.021 A 
HETATM    5  C10 UNL     1     -34.654   5.783   5.788  1.00 20.00     0.056 C 
HETATM    6  S12 UNL     1     -33.022   7.640   4.563  1.00 20.00    -0.099 SA
ENDROOT
BRANCH   3   7
HETATM    7  C9  UNL     1     -31.743   8.492   2.229  1.00 20.00     0.033 C 
HETATM    8  C7  UNL     1     -31.571   8.364   0.708  1.00 20.00     0.088 C 
HETATM    9  C5  UNL     1     -32.640   9.287   0.174  1.00 20.00     0.127 C 
HETATM   10  C6  UNL     1     -33.240  10.151   1.252  1.00 20.00     0.079 C 
HETATM   11  O11 UNL     1     -32.982   9.327  -1.000  1.00 20.00    -0.298 OA
HETATM   12  C8  UNL     1     -32.277   9.921   2.413  1.00 20.00     0.018 C 
ENDBRANCH   3   7
TORSDOF 1
ENDMDL
MODEL 2
REMARK VINA RESULT:      -4.9      2.751      5.170
REMARK  1 active torsions:
REMARK  status: ('A' for Active; 'I' for Inactive)
REMARK    1  A    between atoms: C3_3  and  C9_9 
ROOT
HETATM    1  C1  UNL     1     -32.166   7.990   4.192  1.00 20.00     0.016 A 
HETATM    2  C2  UNL     1     -31.291   8.469   3.174  1.00 20.00     0.015 A 
HETATM    3  C3  UNL     1     -33.380   7.587   3.683  1.00 20.00    -0.013 A 
HETATM    4  C4  UNL     1     -31.870   8.414   1.926  1.00 20.00    -0.021 A 
HETATM    5  C10 UNL     1     -31.293   8.814   0.624  1.00 20.00     0.056 C 
HETATM    6  S12 UNL     1     -33.463   7.786   1.983  1.00 20.00    -0.099 SA
ENDROOT
BRANCH   3   7
HETATM    7  C9  UNL     1     -34.578   7.020   4.428  1.00 20.00     0.033 C 
HETATM    8  C7  UNL     1     -35.207   5.744   3.849  1.00 20.00     0.088 C 
HETATM    9  C5  UNL     1     -34.501   4.650   4.613  1.00 20.00     0.127 C 
HETATM   10  C6  UNL     1     -33.712   5.184   5.780  1.00 20.00     0.079 C 
HETATM   11  O11 UNL     1     -34.561   3.463   4.317  1.00 20.00    -0.298 OA
HETATM   12  C8  UNL     1     -34.213   6.622   5.867  1.00 20.00     0.018 C 
ENDBRANCH   3   7
TORSDOF 1
ENDMDL
MODEL 3
REMARK VINA RESULT:      -4.7      9.811     10.534
REMARK  1 active torsions:
REMARK  status: ('A' for Active; 'I' for Inactive)
REMARK    1  A    between atoms: C3_3  and  C9_9 
ROOT
HETATM    1  C1  UNL     1     -35.430  16.381  -2.263  1.00 20.00     0.016 A 
HETATM    2  C2  UNL     1     -35.500  17.074  -1.020  1.00 20.00     0.015 A 
HETATM    3  C3  UNL     1     -34.203  16.528  -2.869  1.00 20.00    -0.013 A 
HETATM    4  C4  UNL     1     -34.323  17.724  -0.724  1.00 20.00    -0.021 A 
HETATM    5  C10 UNL     1     -33.997  18.544   0.463  1.00 20.00     0.056 C 
HETATM    6  S12 UNL     1     -33.139  17.498  -1.942  1.00 20.00    -0.099 SA
ENDROOT
BRANCH   3   7
HETATM    7  C9  UNL     1     -33.727  15.953  -4.195  1.00 20.00     0.033 C 
HETATM    8  C7  UNL     1     -33.706  14.422  -4.312  1.00 20.00     0.088 C 
HETATM    9  C5  UNL     1     -35.053  14.117  -4.923  1.00 20.00     0.127 C 
HETATM   10  C6  UNL     1     -35.747  15.356  -5.424  1.00 20.00     0.079 C 
HETATM   11  O11 UNL     1     -35.527  12.991  -5.000  1.00 20.00    -0.298 OA
HETATM   12  C8  UNL     1     -34.629  16.392  -5.358  1.00 20.00     0.018 C 
ENDBRANCH   3   7
TORSDOF 1
ENDMDL
MODEL 4
REMARK VINA RESULT:      -4.6     10.323     11.008
REMARK  1 active torsions:
REMARK  status: ('A' for Active; 'I' for Inactive)
REMARK    1  A    between atoms: C3_3  and  C9_9 
ROOT
HETATM    1  C1  UNL     1     -33.754  16.256  -3.835  1.00 20.00     0.016 A 
HETATM    2  C2  UNL     1     -33.738  16.612  -2.456  1.00 20.00     0.015 A 
HETATM    3  C3  UNL     1     -35.027  16.266  -4.358  1.00 20.00    -0.013 A 
HETATM    4  C4  UNL     1     -35.002  16.879  -1.977  1.00 20.00    -0.021 A 
HETATM    5  C10 UNL     1     -35.403  17.281  -0.611  1.00 20.00     0.056 C 
HETATM    6  S12 UNL     1     -36.200  16.702  -3.189  1.00 20.00    -0.099 SA
ENDROOT
BRANCH   3   7
HETATM    7  C9  UNL     1     -35.470  15.948  -5.778  1.00 20.00     0.033 C 
HETATM    8  C7  UNL     1     -34.715  14.820  -6.497  1.00 20.00     0.088 C 
HETATM    9  C5  UNL     1     -35.568  13.609  -6.202  1.00 20.00     0.127 C 
HETATM   10  C6  UNL     1     -36.900  13.980  -5.604  1.00 20.00     0.079 C 
HETATM   11  O11 UNL     1     -35.217  12.457  -6.422  1.00 20.00    -0.298 OA
HETATM   12  C8  UNL     1     -36.935  15.489  -5.825  1.00 20.00     0.018 C 
ENDBRANCH   3   7
TORSDOF 1
ENDMDL
MODEL 5
REMARK VINA RESULT:      -4.5     10.096     10.951
REMARK  1 active torsions:
REMARK  status: ('A' for Active; 'I' for Inactive)
REMARK    1  A    between atoms: C3_3  and  C9_9 
ROOT
HETATM    1  C1  UNL     1     -33.720  15.475  -3.484  1.00 20.00     0.016 A 
HETATM    2  C2  UNL     1     -33.982  14.403  -4.385  1.00 20.00     0.015 A 
HETATM    3  C3  UNL     1     -34.856  16.193  -3.189  1.00 20.00    -0.013 A 
HETATM    4  C4  UNL     1     -35.309  14.344  -4.745  1.00 20.00    -0.021 A 
HETATM    5  C10 UNL     1     -35.975  13.384  -5.652  1.00 20.00     0.056 C 
HETATM    6  S12 UNL     1     -36.235  15.577  -3.998  1.00 20.00    -0.099 SA
ENDROOT
BRANCH   3   7
HETATM    7  C9  UNL     1     -35.003  17.402  -2.278  1.00 20.00     0.033 C 
HETATM    8  C7  UNL     1     -34.072  17.460  -1.058  1.00 20.00     0.088 C 
HETATM    9  C5  UNL     1     -32.905  18.271  -1.569  1.00 20.00     0.127 C 
HETATM   10  C6  UNL     1     -33.198  18.923  -2.894  1.00 20.00     0.079 C 
HETATM   11  O11 UNL     1     -31.841  18.385  -0.974  1.00 20.00    -0.298 OA
HETATM   12  C8  UNL     1     -34.704  18.712  -3.022  1.00 20.00     0.018 C 
ENDBRANCH   3   7
TORSDOF 1
ENDMDL
MODEL 6
REMARK VINA RESULT:      -4.5      9.819     10.687
REMARK  1 active torsions:
REMARK  status: ('A' for Active; 'I' for Inactive)
REMARK    1  A    between atoms: C3_3  and  C9_9 
ROOT
HETATM    1  C1  UNL     1     -34.145  16.959  -1.828  1.00 20.00     0.016 A 
HETATM    2  C2  UNL     1     -34.801  17.472  -0.671  1.00 20.00     0.015 A 
HETATM    3  C3  UNL     1     -34.967  16.959  -2.932  1.00 20.00    -0.013 A 
HETATM    4  C4  UNL     1     -36.101  17.843  -0.936  1.00 20.00    -0.021 A 
HETATM    5  C10 UNL     1     -37.102  18.415  -0.009  1.00 20.00     0.056 C 
HETATM    6  S12 UNL     1     -36.525  17.574  -2.574  1.00 20.00    -0.099 SA
ENDROOT
BRANCH   3   7
HETATM    7  C9  UNL     1     -34.653  16.497  -4.346  1.00 20.00     0.033 C 
HETATM    8  C7  UNL     1     -33.255  15.905  -4.581  1.00 20.00     0.088 C 
HETATM    9  C5  UNL     1     -33.485  14.425  -4.391  1.00 20.00     0.127 C 
HETATM   10  C6  UNL     1     -34.949  14.076  -4.335  1.00 20.00     0.079 C 
HETATM   11  O11 UNL     1     -32.583  13.602  -4.292  1.00 20.00    -0.298 OA
HETATM   12  C8  UNL     1     -35.600  15.375  -4.798  1.00 20.00     0.018 C 
ENDBRANCH   3   7
TORSDOF 1
ENDMDL
MODEL 7
REMARK VINA RESULT:      -4.3     10.373     11.569
REMARK  1 active torsions:
REMARK  status: ('A' for Active; 'I' for Inactive)
REMARK    1  A    between atoms: C3_3  and  C9_9 
ROOT
HETATM    1  C1  UNL     1     -33.787  16.893  -5.617  1.00 20.00     0.016 A 
HETATM    2  C2  UNL     1     -33.364  17.710  -4.529  1.00 20.00     0.015 A 
HETATM    3  C3  UNL     1     -34.349  15.711  -5.188  1.00 20.00    -0.013 A 
HETATM    4  C4  UNL     1     -33.618  17.121  -3.310  1.00 20.00    -0.021 A 
HETATM    5  C10 UNL     1     -33.332  17.644  -1.957  1.00 20.00     0.056 C 
HETATM    6  S12 UNL     1     -34.365  15.588  -3.480  1.00 20.00    -0.099 SA
ENDROOT
BRANCH   3   7
HETATM    7  C9  UNL     1     -34.919  14.576  -6.025  1.00 20.00     0.033 C 
HETATM    8  C7  UNL     1     -35.861  13.599  -5.306  1.00 20.00     0.088 C 
HETATM    9  C5  UNL     1     -37.224  14.186  -5.585  1.00 20.00     0.127 C 
HETATM   10  C6  UNL     1     -37.178  15.267  -6.632  1.00 20.00     0.079 C 
HETATM   11  O11 UNL     1     -38.250  13.826  -5.023  1.00 20.00    -0.298 OA
HETATM   12  C8  UNL     1     -35.768  15.104  -7.192  1.00 20.00     0.018 C 
ENDBRANCH   3   7
TORSDOF 1
ENDMDL
MODEL 8
REMARK VINA RESULT:      -4.3     10.319     11.080
REMARK  1 active torsions:
REMARK  status: ('A' for Active; 'I' for Inactive)
REMARK    1  A    between atoms: C3_3  and  C9_9 
ROOT
HETATM    1  C1  UNL     1     -31.650  18.638   0.118  1.00 20.00     0.016 A 
HETATM    2  C2  UNL     1     -31.241  18.639   1.483  1.00 20.00     0.015 A 
HETATM    3  C3  UNL     1     -32.997  18.892  -0.018  1.00 20.00    -0.013 A 
HETATM    4  C4  UNL     1     -32.291  18.892   2.338  1.00 20.00    -0.021 A 
HETATM    5  C10 UNL     1     -32.277  18.977   3.814  1.00 20.00     0.056 C 
HETATM    6  S12 UNL     1     -33.764  19.129   1.495  1.00 20.00    -0.099 SA
ENDROOT
BRANCH   3   7
HETATM    7  C9  UNL     1     -33.819  18.976  -1.295  1.00 20.00     0.033 C 
HETATM    8  C7  UNL     1     -33.225  18.303  -2.541  1.00 20.00     0.088 C 
HETATM    9  C5  UNL     1     -33.845  16.926  -2.502  1.00 20.00     0.127 C 
HETATM   10  C6  UNL     1     -34.960  16.830  -1.494  1.00 20.00     0.079 C 
HETATM   11  O11 UNL     1     -33.482  15.995  -3.208  1.00 20.00    -0.298 OA
HETATM   12  C8  UNL     1     -35.186  18.295  -1.134  1.00 20.00     0.018 C 
ENDBRANCH   3   7
TORSDOF 1
ENDMDL
MODEL 9
REMARK VINA RESULT:      -4.2      9.973     10.924
REMARK  1 active torsions:
REMARK  status: ('A' for Active; 'I' for Inactive)
REMARK    1  A    between atoms: C3_3  and  C9_9 
ROOT
HETATM    1  C1  UNL     1     -33.107  18.228  -1.818  1.00 20.00     0.016 A 
HETATM    2  C2  UNL     1     -32.969  18.489  -0.424  1.00 20.00     0.015 A 
HETATM    3  C3  UNL     1     -34.356  17.741  -2.132  1.00 20.00    -0.013 A 
HETATM    4  C4  UNL     1     -34.118  18.191   0.274  1.00 20.00    -0.021 A 
HETATM    5  C10 UNL     1     -34.375  18.324   1.725  1.00 20.00     0.056 C 
HETATM    6  S12 UNL     1     -35.358  17.600  -0.750  1.00 20.00    -0.099 SA
ENDROOT
BRANCH   3   7
HETATM    7  C9  UNL     1     -34.901  17.342  -3.494  1.00 20.00     0.033 C 
HETATM    8  C7  UNL     1     -33.898  17.326  -4.658  1.00 20.00     0.088 C 
HETATM    9  C5  UNL     1     -33.432  15.890  -4.675  1.00 20.00     0.127 C 
HETATM   10  C6  UNL     1     -34.278  15.003  -3.799  1.00 20.00     0.079 C 
HETATM   11  O11 UNL     1     -32.475  15.492  -5.326  1.00 20.00    -0.298 OA
HETATM   12  C8  UNL     1     -35.462  15.912  -3.482  1.00 20.00     0.018 C 
ENDBRANCH   3   7
TORSDOF 1
ENDMDL
