MODEL 1
REMARK VINA RESULT:      -3.7      0.000      0.000
REMARK  4 active torsions:
REMARK  status: ('A' for Active; 'I' for Inactive)
REMARK    1  A    between atoms: C1_1  and  C5_5 
REMARK       I    between atoms: C1_1  and  N8_8 
REMARK    2  A    between atoms: C5_5  and  S10_10 
REMARK    3  A    between atoms: C6_6  and  N8_8 
REMARK    4  A    between atoms: C7_7  and  N8_8 
ROOT
HETATM    1  C1  UNL     1     -36.034  13.905  -5.476  1.00 20.00     0.229 C 
HETATM    2  N8  UNL     1     -35.112  14.893  -5.099  1.00 20.00    -0.348 N 
HETATM    3  O9  UNL     1     -35.879  12.710  -5.212  1.00 20.00    -0.273 OA
ENDROOT
BRANCH   2   4
HETATM    4  C6  UNL     1     -34.906  16.111  -5.879  1.00 20.00     0.121 C 
HETATM    5  C2  UNL     1     -34.104  15.837  -7.105  1.00 20.00     0.026 C 
ENDBRANCH   2   4
BRANCH   2   6
HETATM    6  C7  UNL     1     -34.288  14.777  -3.902  1.00 20.00     0.079 C 
HETATM    7  C3  UNL     1     -34.294  16.107  -3.162  1.00 20.00     0.032 C 
HETATM    8  C4  UNL     1     -32.881  14.365  -4.309  1.00 20.00     0.032 C 
ENDBRANCH   2   6
BRANCH   1   9
HETATM    9  C5  UNL     1     -37.250  14.401  -6.239  1.00 20.00     0.173 C 
BRANCH   9  10
HETATM   10  S10 UNL     1     -38.618  14.831  -5.133  1.00 20.00    -0.173 SA
HETATM   11  H25 UNL     1     -37.859  15.107  -4.063  1.00 20.00     0.102 HD
ENDBRANCH   9  10
ENDBRANCH   1   9
TORSDOF 4
ENDMDL
MODEL 2
REMARK VINA RESULT:      -3.4      1.954      2.243
REMARK  4 active torsions:
REMARK  status: ('A' for Active; 'I' for Inactive)
REMARK    1  A    between atoms: C1_1  and  C5_5 
REMARK       I    between atoms: C1_1  and  N8_8 
REMARK    2  A    between atoms: C5_5  and  S10_10 
REMARK    3  A    between atoms: C6_6  and  N8_8 
REMARK    4  A    between atoms: C7_7  and  N8_8 
ROOT
HETATM    1  C1  UNL     1     -35.084  14.204  -4.510  1.00 20.00     0.229 C 
HETATM    2  N8  UNL     1     -35.351  15.537  -4.162  1.00 20.00    -0.348 N 
HETATM    3  O9  UNL     1     -34.155  13.558  -4.019  1.00 20.00    -0.273 OA
ENDROOT
BRANCH   2   4
HETATM    4  C6  UNL     1     -35.952  16.485  -5.096  1.00 20.00     0.121 C 
HETATM    5  C2  UNL     1     -34.949  16.980  -6.082  1.00 20.00     0.026 C 
ENDBRANCH   2   4
BRANCH   2   6
HETATM    6  C7  UNL     1     -35.048  16.075  -2.842  1.00 20.00     0.079 C 
HETATM    7  C3  UNL     1     -36.101  17.109  -2.470  1.00 20.00     0.032 C 
HETATM    8  C4  UNL     1     -33.651  16.677  -2.864  1.00 20.00     0.032 C 
ENDBRANCH   2   6
BRANCH   1   9
HETATM    9  C5  UNL     1     -36.020  13.596  -5.541  1.00 20.00     0.173 C 
BRANCH   9  10
HETATM   10  S10 UNL     1     -35.179  13.266  -7.110  1.00 20.00    -0.173 SA
HETATM   11  H25 UNL     1     -34.521  14.432  -7.172  1.00 20.00     0.102 HD
ENDBRANCH   9  10
ENDBRANCH   1   9
TORSDOF 4
ENDMDL
MODEL 3
REMARK VINA RESULT:      -3.2      2.453      3.065
REMARK  4 active torsions:
REMARK  status: ('A' for Active; 'I' for Inactive)
REMARK    1  A    between atoms: C1_1  and  C5_5 
REMARK       I    between atoms: C1_1  and  N8_8 
REMARK    2  A    between atoms: C5_5  and  S10_10 
REMARK    3  A    between atoms: C6_6  and  N8_8 
REMARK    4  A    between atoms: C7_7  and  N8_8 
ROOT
HETATM    1  C1  UNL     1     -34.272  14.981  -4.028  1.00 20.00     0.229 C 
HETATM    2  N8  UNL     1     -34.885  15.996  -3.278  1.00 20.00    -0.348 N 
HETATM    3  O9  UNL     1     -33.052  14.921  -4.201  1.00 20.00    -0.273 OA
ENDROOT
BRANCH   2   4
HETATM    4  C6  UNL     1     -36.237  16.470  -3.559  1.00 20.00     0.121 C 
HETATM    5  C2  UNL     1     -36.262  17.340  -4.770  1.00 20.00     0.026 C 
ENDBRANCH   2   4
BRANCH   2   6
HETATM    6  C7  UNL     1     -34.217  16.653  -2.161  1.00 20.00     0.079 C 
HETATM    7  C3  UNL     1     -35.256  17.051  -1.122  1.00 20.00     0.032 C 
HETATM    8  C4  UNL     1     -33.453  17.860  -2.685  1.00 20.00     0.032 C 
ENDBRANCH   2   6
BRANCH   1   9
HETATM    9  C5  UNL     1     -35.213  13.948  -4.624  1.00 20.00     0.173 C 
BRANCH   9  10
HETATM   10  S10 UNL     1     -35.120  13.905  -6.431  1.00 20.00    -0.173 SA
HETATM   11  H25 UNL     1     -34.483  12.730  -6.517  1.00 20.00     0.102 HD
ENDBRANCH   9  10
ENDBRANCH   1   9
TORSDOF 4
ENDMDL
MODEL 4
REMARK VINA RESULT:      -3.2      2.178      3.451
REMARK  4 active torsions:
REMARK  status: ('A' for Active; 'I' for Inactive)
REMARK    1  A    between atoms: C1_1  and  C5_5 
REMARK       I    between atoms: C1_1  and  N8_8 
REMARK    2  A    between atoms: C5_5  and  S10_10 
REMARK    3  A    between atoms: C6_6  and  N8_8 
REMARK    4  A    between atoms: C7_7  and  N8_8 
ROOT
HETATM    1  C1  UNL     1     -35.468  13.936  -5.255  1.00 20.00     0.229 C 
HETATM    2  N8  UNL     1     -36.064  15.064  -4.673  1.00 20.00    -0.348 N 
HETATM    3  O9  UNL     1     -35.909  12.794  -5.103  1.00 20.00    -0.273 OA
ENDROOT
BRANCH   2   4
HETATM    4  C6  UNL     1     -35.296  16.246  -4.290  1.00 20.00     0.121 C 
HETATM    5  C2  UNL     1     -34.534  16.008  -3.031  1.00 20.00     0.026 C 
ENDBRANCH   2   4
BRANCH   2   6
HETATM    6  C7  UNL     1     -37.495  15.142  -4.408  1.00 20.00     0.079 C 
HETATM    7  C3  UNL     1     -38.258  14.648  -5.629  1.00 20.00     0.032 C 
HETATM    8  C4  UNL     1     -37.855  16.580  -4.063  1.00 20.00     0.032 C 
ENDBRANCH   2   6
BRANCH   1   9
HETATM    9  C5  UNL     1     -34.231  14.207  -6.093  1.00 20.00     0.173 C 
BRANCH   9  10
HETATM   10  S10 UNL     1     -34.557  14.029  -7.865  1.00 20.00    -0.173 SA
HETATM   11  H25 UNL     1     -34.891  15.309  -8.082  1.00 20.00     0.102 HD
ENDBRANCH   9  10
ENDBRANCH   1   9
TORSDOF 4
ENDMDL
MODEL 5
REMARK VINA RESULT:      -3.2      2.227      3.414
REMARK  4 active torsions:
REMARK  status: ('A' for Active; 'I' for Inactive)
REMARK    1  A    between atoms: C1_1  and  C5_5 
REMARK       I    between atoms: C1_1  and  N8_8 
REMARK    2  A    between atoms: C5_5  and  S10_10 
REMARK    3  A    between atoms: C6_6  and  N8_8 
REMARK    4  A    between atoms: C7_7  and  N8_8 
ROOT
HETATM    1  C1  UNL     1     -34.885  14.621  -4.404  1.00 20.00     0.229 C 
HETATM    2  N8  UNL     1     -35.138  14.855  -5.763  1.00 20.00    -0.348 N 
HETATM    3  O9  UNL     1     -34.406  13.564  -3.985  1.00 20.00    -0.273 OA
ENDROOT
BRANCH   2   4
HETATM    4  C6  UNL     1     -36.217  15.726  -6.221  1.00 20.00     0.121 C 
HETATM    5  C2  UNL     1     -37.543  15.060  -6.082  1.00 20.00     0.026 C 
ENDBRANCH   2   4
BRANCH   2   6
HETATM    6  C7  UNL     1     -34.343  14.245  -6.822  1.00 20.00     0.079 C 
HETATM    7  C3  UNL     1     -34.091  15.276  -7.914  1.00 20.00     0.032 C 
HETATM    8  C4  UNL     1     -35.084  13.029  -7.357  1.00 20.00     0.032 C 
ENDBRANCH   2   6
BRANCH   1   9
HETATM    9  C5  UNL     1     -35.242  15.760  -3.465  1.00 20.00     0.173 C 
BRANCH   9  10
HETATM   10  S10 UNL     1     -33.783  16.707  -2.959  1.00 20.00    -0.173 SA
HETATM   11  H25 UNL     1     -33.586  16.063  -1.801  1.00 20.00     0.102 HD
ENDBRANCH   9  10
ENDBRANCH   1   9
TORSDOF 4
ENDMDL
MODEL 6
REMARK VINA RESULT:      -3.1      1.674      1.929
REMARK  4 active torsions:
REMARK  status: ('A' for Active; 'I' for Inactive)
REMARK    1  A    between atoms: C1_1  and  C5_5 
REMARK       I    between atoms: C1_1  and  N8_8 
REMARK    2  A    between atoms: C5_5  and  S10_10 
REMARK    3  A    between atoms: C6_6  and  N8_8 
REMARK    4  A    between atoms: C7_7  and  N8_8 
ROOT
HETATM    1  C1  UNL     1     -35.129  13.760  -5.550  1.00 20.00     0.229 C 
HETATM    2  N8  UNL     1     -34.532  14.864  -4.923  1.00 20.00    -0.348 N 
HETATM    3  O9  UNL     1     -35.742  12.889  -4.928  1.00 20.00    -0.273 OA
ENDROOT
BRANCH   2   4
HETATM    4  C6  UNL     1     -33.338  15.515  -5.455  1.00 20.00     0.121 C 
HETATM    5  C2  UNL     1     -33.697  16.611  -6.399  1.00 20.00     0.026 C 
ENDBRANCH   2   4
BRANCH   2   6
HETATM    6  C7  UNL     1     -35.059  15.443  -3.694  1.00 20.00     0.079 C 
HETATM    7  C3  UNL     1     -36.300  16.263  -4.020  1.00 20.00     0.032 C 
HETATM    8  C4  UNL     1     -33.976  16.294  -3.047  1.00 20.00     0.032 C 
ENDBRANCH   2   6
BRANCH   1   9
HETATM    9  C5  UNL     1     -34.974  13.701  -7.060  1.00 20.00     0.173 C 
BRANCH   9  10
HETATM   10  S10 UNL     1     -36.384  14.445  -7.918  1.00 20.00    -0.173 SA
HETATM   11  H25 UNL     1     -36.992  13.291  -8.228  1.00 20.00     0.102 HD
ENDBRANCH   9  10
ENDBRANCH   1   9
TORSDOF 4
ENDMDL
MODEL 7
REMARK VINA RESULT:      -3.1     11.656     12.734
REMARK  4 active torsions:
REMARK  status: ('A' for Active; 'I' for Inactive)
REMARK    1  A    between atoms: C1_1  and  C5_5 
REMARK       I    between atoms: C1_1  and  N8_8 
REMARK    2  A    between atoms: C5_5  and  S10_10 
REMARK    3  A    between atoms: C6_6  and  N8_8 
REMARK    4  A    between atoms: C7_7  and  N8_8 
ROOT
HETATM    1  C1  UNL     1     -32.740   6.756   3.152  1.00 20.00     0.229 C 
HETATM    2  N8  UNL     1     -33.521   6.697   4.315  1.00 20.00    -0.348 N 
HETATM    3  O9  UNL     1     -32.646   5.813   2.362  1.00 20.00    -0.273 OA
ENDROOT
BRANCH   2   4
HETATM    4  C6  UNL     1     -33.186   7.448   5.523  1.00 20.00     0.121 C 
HETATM    5  C2  UNL     1     -34.183   7.201   6.604  1.00 20.00     0.026 C 
ENDBRANCH   2   4
BRANCH   2   6
HETATM    6  C7  UNL     1     -34.726   5.882   4.407  1.00 20.00     0.079 C 
HETATM    7  C3  UNL     1     -34.336   4.411   4.400  1.00 20.00     0.032 C 
HETATM    8  C4  UNL     1     -35.645   6.227   3.244  1.00 20.00     0.032 C 
ENDBRANCH   2   6
BRANCH   1   9
HETATM    9  C5  UNL     1     -32.008   8.066   2.920  1.00 20.00     0.173 C 
BRANCH   9  10
HETATM   10  S10 UNL     1     -32.431   8.810   1.325  1.00 20.00    -0.173 SA
HETATM   11  H25 UNL     1     -31.411   9.678   1.293  1.00 20.00     0.102 HD
ENDBRANCH   9  10
ENDBRANCH   1   9
TORSDOF 4
ENDMDL
MODEL 8
REMARK VINA RESULT:      -3.0     11.367     12.280
REMARK  4 active torsions:
REMARK  status: ('A' for Active; 'I' for Inactive)
REMARK    1  A    between atoms: C1_1  and  C5_5 
REMARK       I    between atoms: C1_1  and  N8_8 
REMARK    2  A    between atoms: C5_5  and  S10_10 
REMARK    3  A    between atoms: C6_6  and  N8_8 
REMARK    4  A    between atoms: C7_7  and  N8_8 
ROOT
HETATM    1  C1  UNL     1     -33.747   6.998   4.516  1.00 20.00     0.229 C 
HETATM    2  N8  UNL     1     -33.254   7.186   3.217  1.00 20.00    -0.348 N 
HETATM    3  O9  UNL     1     -33.217   7.499   5.511  1.00 20.00    -0.273 OA
ENDROOT
BRANCH   2   4
HETATM    4  C6  UNL     1     -33.408   6.182   2.166  1.00 20.00     0.121 C 
HETATM    5  C2  UNL     1     -32.840   4.870   2.588  1.00 20.00     0.026 C 
ENDBRANCH   2   4
BRANCH   2   6
HETATM    6  C7  UNL     1     -32.550   8.398   2.816  1.00 20.00     0.079 C 
HETATM    7  C3  UNL     1     -32.654   8.561   1.306  1.00 20.00     0.032 C 
HETATM    8  C4  UNL     1     -31.101   8.300   3.273  1.00 20.00     0.032 C 
ENDBRANCH   2   6
BRANCH   1   9
HETATM    9  C5  UNL     1     -34.987   6.127   4.627  1.00 20.00     0.173 C 
BRANCH   9  10
HETATM   10  S10 UNL     1     -34.702   4.666   5.658  1.00 20.00    -0.173 SA
HETATM   11  H25 UNL     1     -33.373   4.810   5.751  1.00 20.00     0.102 HD
ENDBRANCH   9  10
ENDBRANCH   1   9
TORSDOF 4
ENDMDL
MODEL 9
REMARK VINA RESULT:      -2.9      2.538      3.739
REMARK  4 active torsions:
REMARK  status: ('A' for Active; 'I' for Inactive)
REMARK    1  A    between atoms: C1_1  and  C5_5 
REMARK       I    between atoms: C1_1  and  N8_8 
REMARK    2  A    between atoms: C5_5  and  S10_10 
REMARK    3  A    between atoms: C6_6  and  N8_8 
REMARK    4  A    between atoms: C7_7  and  N8_8 
ROOT
HETATM    1  C1  UNL     1     -33.912  16.459  -6.003  1.00 20.00     0.229 C 
HETATM    2  N8  UNL     1     -34.422  15.238  -5.540  1.00 20.00    -0.348 N 
HETATM    3  O9  UNL     1     -33.724  16.695  -7.200  1.00 20.00    -0.273 OA
ENDROOT
BRANCH   2   4
HETATM    4  C6  UNL     1     -34.076  14.690  -4.231  1.00 20.00     0.121 C 
HETATM    5  C2  UNL     1     -32.679  14.168  -4.218  1.00 20.00     0.026 C 
ENDBRANCH   2   4
BRANCH   2   6
HETATM    6  C7  UNL     1     -35.337  14.423  -6.330  1.00 20.00     0.079 C 
HETATM    7  C3  UNL     1     -36.242  13.636  -5.392  1.00 20.00     0.032 C 
HETATM    8  C4  UNL     1     -34.526  13.505  -7.232  1.00 20.00     0.032 C 
ENDBRANCH   2   6
BRANCH   1   9
HETATM    9  C5  UNL     1     -33.598  17.488  -4.930  1.00 20.00     0.173 C 
BRANCH   9  10
HETATM   10  S10 UNL     1     -35.062  18.442  -4.455  1.00 20.00    -0.173 SA
HETATM   11  H25 UNL     1     -35.628  18.456  -5.670  1.00 20.00     0.102 HD
ENDBRANCH   9  10
ENDBRANCH   1   9
TORSDOF 4
ENDMDL
