MODEL 1
REMARK VINA RESULT:      -4.7      0.000      0.000
REMARK  1 active torsions:
REMARK  status: ('A' for Active; 'I' for Inactive)
REMARK    1  A    between atoms: C3_3  and  C8_8 
ROOT
HETATM    1  C1  UNL     1     -35.553  16.670  -1.654  1.00 20.00     0.016 A 
HETATM    2  C2  UNL     1     -34.738  17.424  -0.761  1.00 20.00     0.015 A 
HETATM    3  C3  UNL     1     -34.930  16.452  -2.864  1.00 20.00    -0.013 A 
HETATM    4  C4  UNL     1     -33.523  17.753  -1.322  1.00 20.00    -0.021 A 
HETATM    5  C10 UNL     1     -32.409  18.520  -0.721  1.00 20.00     0.056 C 
HETATM    6  S11 UNL     1     -33.369  17.155  -2.919  1.00 20.00    -0.099 SA
ENDROOT
BRANCH   3   7
HETATM    7  C8  UNL     1     -35.453  15.703  -4.071  1.00 20.00     0.027 C 
HETATM    8  C5  UNL     1     -34.840  14.306  -4.255  1.00 20.00     0.011 C 
HETATM    9  C6  UNL     1     -35.817  13.517  -5.134  1.00 20.00     0.016 C 
HETATM   10  C9  UNL     1     -37.104  14.332  -5.179  1.00 20.00     0.058 C 
HETATM   11  C7  UNL     1     -36.959  15.393  -4.097  1.00 20.00     0.025 C 
HETATM   12 BR12 UNL     1     -37.306  15.181  -6.930  1.00 20.00    -0.091 Br
ENDBRANCH   3   7
TORSDOF 1
ENDMDL
MODEL 2
REMARK VINA RESULT:      -4.7      1.646      2.023
REMARK  1 active torsions:
REMARK  status: ('A' for Active; 'I' for Inactive)
REMARK    1  A    between atoms: C3_3  and  C8_8 
ROOT
HETATM    1  C1  UNL     1     -35.525  16.804  -1.495  1.00 20.00     0.016 A 
HETATM    2  C2  UNL     1     -35.149  17.502  -0.312  1.00 20.00     0.015 A 
HETATM    3  C3  UNL     1     -34.529  16.826  -2.447  1.00 20.00    -0.013 A 
HETATM    4  C4  UNL     1     -33.880  18.031  -0.403  1.00 20.00    -0.021 A 
HETATM    5  C10 UNL     1     -33.135  18.816   0.605  1.00 20.00     0.056 C 
HETATM    6  S11 UNL     1     -33.148  17.686  -1.912  1.00 20.00    -0.099 SA
ENDROOT
BRANCH   3   7
HETATM    7  C8  UNL     1     -34.533  16.206  -3.829  1.00 20.00     0.027 C 
HETATM    8  C5  UNL     1     -33.456  16.767  -4.771  1.00 20.00     0.011 C 
HETATM    9  C6  UNL     1     -33.247  15.714  -5.863  1.00 20.00     0.016 C 
HETATM   10  C9  UNL     1     -33.946  14.449  -5.379  1.00 20.00     0.058 C 
HETATM   11  C7  UNL     1     -34.267  14.693  -3.911  1.00 20.00     0.025 C 
HETATM   12 BR12 UNL     1     -35.595  14.159  -6.390  1.00 20.00    -0.091 Br
ENDBRANCH   3   7
TORSDOF 1
ENDMDL
MODEL 3
REMARK VINA RESULT:      -4.6      3.115      4.615
REMARK  1 active torsions:
REMARK  status: ('A' for Active; 'I' for Inactive)
REMARK    1  A    between atoms: C3_3  and  C8_8 
ROOT
HETATM    1  C1  UNL     1     -31.757  18.755   0.467  1.00 20.00     0.016 A 
HETATM    2  C2  UNL     1     -31.289  19.033   1.783  1.00 20.00     0.015 A 
HETATM    3  C3  UNL     1     -33.118  18.540   0.436  1.00 20.00    -0.013 A 
HETATM    4  C4  UNL     1     -32.309  19.021   2.709  1.00 20.00    -0.021 A 
HETATM    5  C10 UNL     1     -32.233  19.263   4.167  1.00 20.00     0.056 C 
HETATM    6  S11 UNL     1     -33.825  18.675   1.991  1.00 20.00    -0.099 SA
ENDROOT
BRANCH   3   7
HETATM    7  C8  UNL     1     -33.994  18.219  -0.756  1.00 20.00     0.027 C 
HETATM    8  C5  UNL     1     -33.294  17.387  -1.843  1.00 20.00     0.011 C 
HETATM    9  C6  UNL     1     -34.406  16.720  -2.659  1.00 20.00     0.016 C 
HETATM   10  C9  UNL     1     -35.692  16.905  -1.862  1.00 20.00     0.058 C 
HETATM   11  C7  UNL     1     -35.257  17.385  -0.485  1.00 20.00     0.025 C 
HETATM   12 BR12 UNL     1     -36.830  18.248  -2.715  1.00 20.00    -0.091 Br
ENDBRANCH   3   7
TORSDOF 1
ENDMDL
MODEL 4
REMARK VINA RESULT:      -4.6      1.861      2.517
REMARK  1 active torsions:
REMARK  status: ('A' for Active; 'I' for Inactive)
REMARK    1  A    between atoms: C3_3  and  C8_8 
ROOT
HETATM    1  C1  UNL     1     -33.056  17.625  -2.029  1.00 20.00     0.016 A 
HETATM    2  C2  UNL     1     -33.269  18.137  -0.717  1.00 20.00     0.015 A 
HETATM    3  C3  UNL     1     -34.165  16.965  -2.513  1.00 20.00    -0.013 A 
HETATM    4  C4  UNL     1     -34.532  17.850  -0.247  1.00 20.00    -0.021 A 
HETATM    5  C10 UNL     1     -35.133  18.206   1.057  1.00 20.00     0.056 C 
HETATM    6  S11 UNL     1     -35.456  16.966  -1.387  1.00 20.00    -0.099 SA
ENDROOT
BRANCH   3   7
HETATM    7  C8  UNL     1     -34.346  16.285  -3.854  1.00 20.00     0.027 C 
HETATM    8  C5  UNL     1     -33.424  16.823  -4.959  1.00 20.00     0.011 C 
HETATM    9  C6  UNL     1     -33.343  15.727  -6.027  1.00 20.00     0.016 C 
HETATM   10  C9  UNL     1     -33.939  14.473  -5.397  1.00 20.00     0.058 C 
HETATM   11  C7  UNL     1     -34.059  14.776  -3.911  1.00 20.00     0.025 C 
HETATM   12 BR12 UNL     1     -35.705  14.110  -6.155  1.00 20.00    -0.091 Br
ENDBRANCH   3   7
TORSDOF 1
ENDMDL
MODEL 5
REMARK VINA RESULT:      -4.5      2.884      5.355
REMARK  1 active torsions:
REMARK  status: ('A' for Active; 'I' for Inactive)
REMARK    1  A    between atoms: C3_3  and  C8_8 
ROOT
HETATM    1  C1  UNL     1     -33.623  15.238  -4.104  1.00 20.00     0.016 A 
HETATM    2  C2  UNL     1     -34.045  14.570  -5.289  1.00 20.00     0.015 A 
HETATM    3  C3  UNL     1     -34.684  15.769  -3.403  1.00 20.00    -0.013 A 
HETATM    4  C4  UNL     1     -35.413  14.613  -5.448  1.00 20.00    -0.021 A 
HETATM    5  C10 UNL     1     -36.232  14.039  -6.539  1.00 20.00     0.056 C 
HETATM    6  S11 UNL     1     -36.182  15.458  -4.173  1.00 20.00    -0.099 SA
ENDROOT
BRANCH   3   7
HETATM    7  C8  UNL     1     -34.660  16.546  -2.104  1.00 20.00     0.027 C 
HETATM    8  C5  UNL     1     -33.367  17.346  -1.876  1.00 20.00     0.011 C 
HETATM    9  C6  UNL     1     -33.711  18.441  -0.861  1.00 20.00     0.016 C 
HETATM   10  C9  UNL     1     -35.231  18.469  -0.760  1.00 20.00     0.058 C 
HETATM   11  C7  UNL     1     -35.737  17.629  -1.923  1.00 20.00     0.025 C 
HETATM   12 BR12 UNL     1     -35.810  17.688   0.938  1.00 20.00    -0.091 Br
ENDBRANCH   3   7
TORSDOF 1
ENDMDL
MODEL 6
REMARK VINA RESULT:      -4.4      3.136      5.505
REMARK  1 active torsions:
REMARK  status: ('A' for Active; 'I' for Inactive)
REMARK    1  A    between atoms: C3_3  and  C8_8 
ROOT
HETATM    1  C1  UNL     1     -34.821  14.735  -3.848  1.00 20.00     0.016 A 
HETATM    2  C2  UNL     1     -35.035  13.894  -4.977  1.00 20.00     0.015 A 
HETATM    3  C3  UNL     1     -33.969  15.780  -4.134  1.00 20.00    -0.013 A 
HETATM    4  C4  UNL     1     -34.340  14.328  -6.085  1.00 20.00    -0.021 A 
HETATM    5  C10 UNL     1     -34.302  13.733  -7.439  1.00 20.00     0.056 C 
HETATM    6  S11 UNL     1     -33.433  15.744  -5.761  1.00 20.00    -0.099 SA
ENDROOT
BRANCH   3   7
HETATM    7  C8  UNL     1     -33.492  16.885  -3.216  1.00 20.00     0.027 C 
HETATM    8  C5  UNL     1     -33.680  18.299  -3.787  1.00 20.00     0.011 C 
HETATM    9  C6  UNL     1     -33.666  19.254  -2.589  1.00 20.00     0.016 C 
HETATM   10  C9  UNL     1     -33.793  18.382  -1.345  1.00 20.00     0.058 C 
HETATM   11  C7  UNL     1     -34.186  17.001  -1.849  1.00 20.00     0.025 C 
HETATM   12 BR12 UNL     1     -32.080  18.292  -0.404  1.00 20.00    -0.091 Br
ENDBRANCH   3   7
TORSDOF 1
ENDMDL
MODEL 7
REMARK VINA RESULT:      -4.4      2.668      5.244
REMARK  1 active torsions:
REMARK  status: ('A' for Active; 'I' for Inactive)
REMARK    1  A    between atoms: C3_3  and  C8_8 
ROOT
HETATM    1  C1  UNL     1     -36.856  15.304  -4.314  1.00 20.00     0.016 A 
HETATM    2  C2  UNL     1     -36.851  14.494  -5.486  1.00 20.00     0.015 A 
HETATM    3  C3  UNL     1     -35.596  15.445  -3.776  1.00 20.00    -0.013 A 
HETATM    4  C4  UNL     1     -35.586  14.046  -5.800  1.00 20.00    -0.021 A 
HETATM    5  C10 UNL     1     -35.167  13.190  -6.932  1.00 20.00     0.056 C 
HETATM    6  S11 UNL     1     -34.412  14.602  -4.684  1.00 20.00    -0.099 SA
ENDROOT
BRANCH   3   7
HETATM    7  C8  UNL     1     -35.178  16.220  -2.544  1.00 20.00     0.027 C 
HETATM    8  C5  UNL     1     -33.708  16.667  -2.553  1.00 20.00     0.011 C 
HETATM    9  C6  UNL     1     -33.606  17.836  -1.568  1.00 20.00     0.016 C 
HETATM   10  C9  UNL     1     -35.037  18.255  -1.251  1.00 20.00     0.058 C 
HETATM   11  C7  UNL     1     -35.910  17.545  -2.277  1.00 20.00     0.025 C 
HETATM   12 BR12 UNL     1     -35.524  17.686   0.556  1.00 20.00    -0.091 Br
ENDBRANCH   3   7
TORSDOF 1
ENDMDL
MODEL 8
REMARK VINA RESULT:      -4.4      2.023      2.879
REMARK  1 active torsions:
REMARK  status: ('A' for Active; 'I' for Inactive)
REMARK    1  A    between atoms: C3_3  and  C8_8 
ROOT
HETATM    1  C1  UNL     1     -33.134  17.910  -1.235  1.00 20.00     0.016 A 
HETATM    2  C2  UNL     1     -33.058  18.516   0.052  1.00 20.00     0.015 A 
HETATM    3  C3  UNL     1     -34.364  17.333  -1.464  1.00 20.00    -0.013 A 
HETATM    4  C4  UNL     1     -34.233  18.381   0.758  1.00 20.00    -0.021 A 
HETATM    5  C10 UNL     1     -34.552  18.869   2.118  1.00 20.00     0.056 C 
HETATM    6  S11 UNL     1     -35.421  17.525  -0.129  1.00 20.00    -0.099 SA
ENDROOT
BRANCH   3   7
HETATM    7  C8  UNL     1     -34.844  16.596  -2.696  1.00 20.00     0.027 C 
HETATM    8  C5  UNL     1     -35.605  17.478  -3.698  1.00 20.00     0.011 C 
HETATM    9  C6  UNL     1     -35.536  16.757  -5.048  1.00 20.00     0.016 C 
HETATM   10  C9  UNL     1     -34.491  15.659  -4.893  1.00 20.00     0.058 C 
HETATM   11  C7  UNL     1     -33.766  15.961  -3.589  1.00 20.00     0.025 C 
HETATM   12 BR12 UNL     1     -35.358  13.908  -4.792  1.00 20.00    -0.091 Br
ENDBRANCH   3   7
TORSDOF 1
ENDMDL
MODEL 9
REMARK VINA RESULT:      -4.3      2.181      2.983
REMARK  1 active torsions:
REMARK  status: ('A' for Active; 'I' for Inactive)
REMARK    1  A    between atoms: C3_3  and  C8_8 
ROOT
HETATM    1  C1  UNL     1     -33.284  17.269  -2.486  1.00 20.00     0.016 A 
HETATM    2  C2  UNL     1     -33.643  17.591  -1.146  1.00 20.00     0.015 A 
HETATM    3  C3  UNL     1     -34.360  16.809  -3.214  1.00 20.00    -0.013 A 
HETATM    4  C4  UNL     1     -34.980  17.367  -0.900  1.00 20.00    -0.021 A 
HETATM    5  C10 UNL     1     -35.733  17.577   0.356  1.00 20.00     0.056 C 
HETATM    6  S11 UNL     1     -35.796  16.769  -2.281  1.00 20.00    -0.099 SA
ENDROOT
BRANCH   3   7
HETATM    7  C8  UNL     1     -34.398  16.366  -4.661  1.00 20.00     0.027 C 
HETATM    8  C5  UNL     1     -34.522  17.521  -5.668  1.00 20.00     0.011 C 
HETATM    9  C6  UNL     1     -34.017  16.981  -7.009  1.00 20.00     0.016 C 
HETATM   10  C9  UNL     1     -33.321  15.660  -6.704  1.00 20.00     0.058 C 
HETATM   11  C7  UNL     1     -33.164  15.617  -5.191  1.00 20.00     0.025 C 
HETATM   12 BR12 UNL     1     -34.421  14.160  -7.309  1.00 20.00    -0.091 Br
ENDBRANCH   3   7
TORSDOF 1
ENDMDL
