MODEL 1
REMARK VINA RESULT:      -4.6      0.000      0.000
REMARK  1 active torsions:
REMARK  status: ('A' for Active; 'I' for Inactive)
REMARK    1  A    between atoms: C3_3  and  C8_8 
ROOT
HETATM    1  C1  UNL     1     -35.509  16.868  -1.410  1.00 20.00     0.016 A 
HETATM    2  C2  UNL     1     -35.128  17.552  -0.218  1.00 20.00     0.015 A 
HETATM    3  C3  UNL     1     -34.517  16.905  -2.365  1.00 20.00    -0.012 A 
HETATM    4  C4  UNL     1     -33.861  18.084  -0.309  1.00 20.00    -0.021 A 
HETATM    5  C10 UNL     1     -33.112  18.857   0.705  1.00 20.00     0.056 C 
HETATM    6  S11 UNL     1     -33.136  17.760  -1.827  1.00 20.00    -0.099 SA
ENDROOT
BRANCH   3   7
HETATM    7  C8  UNL     1     -34.527  16.303  -3.754  1.00 20.00     0.040 C 
HETATM    8  C6  UNL     1     -33.315  15.391  -4.020  1.00 20.00     0.011 C 
HETATM    9  C5  UNL     1     -33.822  14.412  -5.067  1.00 20.00     0.002 C 
HETATM   10  C7  UNL     1     -35.230  14.096  -4.586  1.00 20.00     0.016 C 
HETATM   11  C9  UNL     1     -35.760  15.421  -4.042  1.00 20.00     0.067 C 
HETATM   12 BR12 UNL     1     -36.891  16.283  -5.393  1.00 20.00    -0.090 Br
ENDBRANCH   3   7
TORSDOF 1
ENDMDL
MODEL 2
REMARK VINA RESULT:      -4.6      2.756      4.170
REMARK  1 active torsions:
REMARK  status: ('A' for Active; 'I' for Inactive)
REMARK    1  A    between atoms: C3_3  and  C8_8 
ROOT
HETATM    1  C1  UNL     1     -31.926  18.868   1.138  1.00 20.00     0.016 A 
HETATM    2  C2  UNL     1     -31.711  18.914   2.546  1.00 20.00     0.015 A 
HETATM    3  C3  UNL     1     -33.247  18.632   0.824  1.00 20.00    -0.012 A 
HETATM    4  C4  UNL     1     -32.875  18.713   3.255  1.00 20.00    -0.021 A 
HETATM    5  C10 UNL     1     -33.068  18.689   4.720  1.00 20.00     0.056 C 
HETATM    6  S11 UNL     1     -34.220  18.468   2.223  1.00 20.00    -0.099 SA
ENDROOT
BRANCH   3   7
HETATM    7  C8  UNL     1     -33.882  18.512  -0.544  1.00 20.00     0.040 C 
HETATM    8  C6  UNL     1     -32.977  17.796  -1.563  1.00 20.00     0.011 C 
HETATM    9  C5  UNL     1     -33.957  17.182  -2.550  1.00 20.00     0.002 C 
HETATM   10  C7  UNL     1     -35.066  16.657  -1.649  1.00 20.00     0.016 C 
HETATM   11  C9  UNL     1     -35.200  17.708  -0.549  1.00 20.00     0.067 C 
HETATM   12 BR12 UNL     1     -36.702  18.902  -0.957  1.00 20.00    -0.090 Br
ENDBRANCH   3   7
TORSDOF 1
ENDMDL
MODEL 3
REMARK VINA RESULT:      -4.5      1.027      1.381
REMARK  1 active torsions:
REMARK  status: ('A' for Active; 'I' for Inactive)
REMARK    1  A    between atoms: C3_3  and  C8_8 
ROOT
HETATM    1  C1  UNL     1     -33.047  17.680  -1.929  1.00 20.00     0.016 A 
HETATM    2  C2  UNL     1     -33.273  18.156  -0.605  1.00 20.00     0.015 A 
HETATM    3  C3  UNL     1     -34.151  17.034  -2.441  1.00 20.00    -0.012 A 
HETATM    4  C4  UNL     1     -34.541  17.857  -0.156  1.00 20.00    -0.021 A 
HETATM    5  C10 UNL     1     -35.154  18.177   1.150  1.00 20.00     0.056 C 
HETATM    6  S11 UNL     1     -35.451  17.003  -1.329  1.00 20.00    -0.099 SA
ENDROOT
BRANCH   3   7
HETATM    7  C8  UNL     1     -34.317  16.390  -3.801  1.00 20.00     0.040 C 
HETATM    8  C6  UNL     1     -33.197  15.387  -4.129  1.00 20.00     0.011 C 
HETATM    9  C5  UNL     1     -33.854  14.411  -5.092  1.00 20.00     0.002 C 
HETATM   10  C7  UNL     1     -35.235  14.210  -4.486  1.00 20.00     0.016 C 
HETATM   11  C9  UNL     1     -35.627  15.587  -3.952  1.00 20.00     0.067 C 
HETATM   12 BR12 UNL     1     -36.807  16.482  -5.239  1.00 20.00    -0.090 Br
ENDBRANCH   3   7
TORSDOF 1
ENDMDL
MODEL 4
REMARK VINA RESULT:      -4.4      1.034      1.274
REMARK  1 active torsions:
REMARK  status: ('A' for Active; 'I' for Inactive)
REMARK    1  A    between atoms: C3_3  and  C8_8 
ROOT
HETATM    1  C1  UNL     1     -35.613  16.634  -1.819  1.00 20.00     0.016 A 
HETATM    2  C2  UNL     1     -34.958  17.390  -0.804  1.00 20.00     0.015 A 
HETATM    3  C3  UNL     1     -34.827  16.484  -2.940  1.00 20.00    -0.012 A 
HETATM    4  C4  UNL     1     -33.696  17.789  -1.188  1.00 20.00    -0.021 A 
HETATM    5  C10 UNL     1     -32.709  18.581  -0.424  1.00 20.00     0.056 C 
HETATM    6  S11 UNL     1     -33.307  17.253  -2.767  1.00 20.00    -0.099 SA
ENDROOT
BRANCH   3   7
HETATM    7  C8  UNL     1     -35.151  15.756  -4.227  1.00 20.00     0.040 C 
HETATM    8  C6  UNL     1     -34.800  14.258  -4.171  1.00 20.00     0.011 C 
HETATM    9  C5  UNL     1     -35.765  13.623  -5.160  1.00 20.00     0.002 C 
HETATM   10  C7  UNL     1     -37.068  14.360  -4.887  1.00 20.00     0.016 C 
HETATM   11  C9  UNL     1     -36.646  15.801  -4.607  1.00 20.00     0.067 C 
HETATM   12 BR12 UNL     1     -36.887  16.885  -6.224  1.00 20.00    -0.090 Br
ENDBRANCH   3   7
TORSDOF 1
ENDMDL
MODEL 5
REMARK VINA RESULT:      -4.4      2.318      5.148
REMARK  1 active torsions:
REMARK  status: ('A' for Active; 'I' for Inactive)
REMARK    1  A    between atoms: C3_3  and  C8_8 
ROOT
HETATM    1  C1  UNL     1     -36.633  15.075  -4.339  1.00 20.00     0.016 A 
HETATM    2  C2  UNL     1     -36.578  14.070  -5.348  1.00 20.00     0.015 A 
HETATM    3  C3  UNL     1     -35.471  15.812  -4.280  1.00 20.00    -0.012 A 
HETATM    4  C4  UNL     1     -35.376  14.077  -6.022  1.00 20.00    -0.021 A 
HETATM    5  C10 UNL     1     -34.935  13.200  -7.127  1.00 20.00     0.056 C 
HETATM    6  S11 UNL     1     -34.320  15.292  -5.436  1.00 20.00    -0.099 SA
ENDROOT
BRANCH   3   7
HETATM    7  C8  UNL     1     -35.130  16.960  -3.355  1.00 20.00     0.040 C 
HETATM    8  C6  UNL     1     -35.493  16.674  -1.887  1.00 20.00     0.011 C 
HETATM    9  C5  UNL     1     -34.517  17.532  -1.098  1.00 20.00     0.002 C 
HETATM   10  C7  UNL     1     -33.213  17.357  -1.862  1.00 20.00     0.016 C 
HETATM   11  C9  UNL     1     -33.629  17.317  -3.332  1.00 20.00     0.067 C 
HETATM   12 BR12 UNL     1     -33.354  19.081  -4.143  1.00 20.00    -0.090 Br
ENDBRANCH   3   7
TORSDOF 1
ENDMDL
MODEL 6
REMARK VINA RESULT:      -4.4      2.493      5.251
REMARK  1 active torsions:
REMARK  status: ('A' for Active; 'I' for Inactive)
REMARK    1  A    between atoms: C3_3  and  C8_8 
ROOT
HETATM    1  C1  UNL     1     -33.685  15.554  -3.698  1.00 20.00     0.016 A 
HETATM    2  C2  UNL     1     -33.943  14.462  -4.577  1.00 20.00     0.015 A 
HETATM    3  C3  UNL     1     -34.840  16.216  -3.343  1.00 20.00    -0.012 A 
HETATM    4  C4  UNL     1     -35.285  14.332  -4.862  1.00 20.00    -0.021 A 
HETATM    5  C10 UNL     1     -35.951  13.334  -5.725  1.00 20.00     0.056 C 
HETATM    6  S11 UNL     1     -36.227  15.524  -4.070  1.00 20.00    -0.099 SA
ENDROOT
BRANCH   3   7
HETATM    7  C8  UNL     1     -34.995  17.417  -2.436  1.00 20.00     0.040 C 
HETATM    8  C6  UNL     1     -36.464  17.720  -2.091  1.00 20.00     0.011 C 
HETATM    9  C5  UNL     1     -36.384  18.415  -0.741  1.00 20.00     0.002 C 
HETATM   10  C7  UNL     1     -35.325  17.608  -0.003  1.00 20.00     0.016 C 
HETATM   11  C9  UNL     1     -34.290  17.261  -1.072  1.00 20.00     0.067 C 
HETATM   12 BR12 UNL     1     -32.782  18.511  -0.959  1.00 20.00    -0.090 Br
ENDBRANCH   3   7
TORSDOF 1
ENDMDL
MODEL 7
REMARK VINA RESULT:      -4.4      1.923      2.478
REMARK  1 active torsions:
REMARK  status: ('A' for Active; 'I' for Inactive)
REMARK    1  A    between atoms: C3_3  and  C8_8 
ROOT
HETATM    1  C1  UNL     1     -32.985  17.727  -1.592  1.00 20.00     0.016 A 
HETATM    2  C2  UNL     1     -32.823  18.497  -0.403  1.00 20.00     0.015 A 
HETATM    3  C3  UNL     1     -34.228  17.139  -1.662  1.00 20.00    -0.012 A 
HETATM    4  C4  UNL     1     -33.950  18.467   0.390  1.00 20.00    -0.021 A 
HETATM    5  C10 UNL     1     -34.177  19.132   1.690  1.00 20.00     0.056 C 
HETATM    6  S11 UNL     1     -35.194  17.514  -0.299  1.00 20.00    -0.099 SA
ENDROOT
BRANCH   3   7
HETATM    7  C8  UNL     1     -34.789  16.251  -2.752  1.00 20.00     0.040 C 
HETATM    8  C6  UNL     1     -36.252  16.582  -3.098  1.00 20.00     0.011 C 
HETATM    9  C5  UNL     1     -36.390  16.141  -4.547  1.00 20.00     0.002 C 
HETATM   10  C7  UNL     1     -35.082  16.603  -5.171  1.00 20.00     0.016 C 
HETATM   11  C9  UNL     1     -34.030  16.355  -4.091  1.00 20.00     0.067 C 
HETATM   12 BR12 UNL     1     -33.095  14.670  -4.456  1.00 20.00    -0.090 Br
ENDBRANCH   3   7
TORSDOF 1
ENDMDL
MODEL 8
REMARK VINA RESULT:      -4.4      1.327      1.697
REMARK  1 active torsions:
REMARK  status: ('A' for Active; 'I' for Inactive)
REMARK    1  A    between atoms: C3_3  and  C8_8 
ROOT
HETATM    1  C1  UNL     1     -33.152  17.689  -2.115  1.00 20.00     0.016 A 
HETATM    2  C2  UNL     1     -33.335  18.072  -0.754  1.00 20.00     0.015 A 
HETATM    3  C3  UNL     1     -34.282  17.105  -2.644  1.00 20.00    -0.012 A 
HETATM    4  C4  UNL     1     -34.598  17.766  -0.295  1.00 20.00    -0.021 A 
HETATM    5  C10 UNL     1     -35.173  18.001   1.046  1.00 20.00     0.056 C 
HETATM    6  S11 UNL     1     -35.556  17.019  -1.503  1.00 20.00    -0.099 SA
ENDROOT
BRANCH   3   7
HETATM    7  C8  UNL     1     -34.496  16.566  -4.042  1.00 20.00     0.040 C 
HETATM    8  C6  UNL     1     -33.267  16.753  -4.950  1.00 20.00     0.011 C 
HETATM    9  C5  UNL     1     -33.388  15.624  -5.960  1.00 20.00     0.002 C 
HETATM   10  C7  UNL     1     -33.835  14.447  -5.106  1.00 20.00     0.016 C 
HETATM   11  C9  UNL     1     -34.797  15.053  -4.085  1.00 20.00     0.067 C 
HETATM   12 BR12 UNL     1     -36.647  14.763  -4.669  1.00 20.00    -0.090 Br
ENDBRANCH   3   7
TORSDOF 1
ENDMDL
MODEL 9
REMARK VINA RESULT:      -4.4      1.866      2.360
REMARK  1 active torsions:
REMARK  status: ('A' for Active; 'I' for Inactive)
REMARK    1  A    between atoms: C3_3  and  C8_8 
ROOT
HETATM    1  C1  UNL     1     -34.841  16.729  -1.571  1.00 20.00     0.016 A 
HETATM    2  C2  UNL     1     -35.589  17.456  -0.599  1.00 20.00     0.015 A 
HETATM    3  C3  UNL     1     -35.398  16.822  -2.827  1.00 20.00    -0.012 A 
HETATM    4  C4  UNL     1     -36.689  18.076  -1.150  1.00 20.00    -0.021 A 
HETATM    5  C10 UNL     1     -37.704  18.917  -0.480  1.00 20.00     0.056 C 
HETATM    6  S11 UNL     1     -36.816  17.781  -2.832  1.00 20.00    -0.099 SA
ENDROOT
BRANCH   3   7
HETATM    7  C8  UNL     1     -34.913  16.201  -4.119  1.00 20.00     0.040 C 
HETATM    8  C6  UNL     1     -33.603  16.827  -4.630  1.00 20.00     0.011 C 
HETATM    9  C5  UNL     1     -32.958  15.711  -5.436  1.00 20.00     0.002 C 
HETATM   10  C7  UNL     1     -33.216  14.479  -4.581  1.00 20.00     0.016 C 
HETATM   11  C9  UNL     1     -34.618  14.690  -4.011  1.00 20.00     0.067 C 
HETATM   12 BR12 UNL     1     -35.921  13.681  -5.074  1.00 20.00    -0.090 Br
ENDBRANCH   3   7
TORSDOF 1
ENDMDL
