MODEL 1
REMARK VINA RESULT:      -4.7      0.000      0.000
REMARK  5 active torsions:
REMARK  status: ('A' for Active; 'I' for Inactive)
REMARK    1  A    between atoms: C3_3  and  C5_5 
REMARK    2  A    between atoms: C3_3  and  C7_7 
REMARK    3  A    between atoms: C4_4  and  C6_6 
REMARK    4  A    between atoms: C4_4  and  C7_7 
REMARK    5  A    between atoms: C5_5  and  S8_8 
ROOT
HETATM    1  C1  UNL     1     -33.398   7.434   5.393  1.00 20.00     0.010 C 
HETATM    2  C7  UNL     1     -33.838   7.291   3.931  1.00 20.00    -0.017 C 
ENDROOT
BRANCH   2   3
HETATM    3  C3  UNL     1     -32.625   7.105   2.994  1.00 20.00     0.014 C 
BRANCH   3   4
HETATM    4  C5  UNL     1     -31.797   8.368   2.758  1.00 20.00     0.073 C 
BRANCH   4   5
HETATM    5  S8  UNL     1     -31.812   8.817   0.996  1.00 20.00    -0.173 SA
HETATM    6  C2  UNL     1     -32.765  10.347   1.125  1.00 20.00     0.089 C 
ENDBRANCH   4   5
ENDBRANCH   3   4
ENDBRANCH   2   3
BRANCH   2   7
HETATM    7  C4  UNL     1     -34.905   6.182   3.819  1.00 20.00     0.019 C 
BRANCH   7   8
HETATM    8  C6  UNL     1     -34.870   5.110   4.905  1.00 20.00     0.115 C 
HETATM    9 CL9  UNL     1     -33.931   3.684   4.410  1.00 20.00    -0.130 Cl
ENDBRANCH   7   8
ENDBRANCH   2   7
TORSDOF 5
ENDMDL
MODEL 2
REMARK VINA RESULT:      -4.7      1.742      2.037
REMARK  5 active torsions:
REMARK  status: ('A' for Active; 'I' for Inactive)
REMARK    1  A    between atoms: C3_3  and  C5_5 
REMARK    2  A    between atoms: C3_3  and  C7_7 
REMARK    3  A    between atoms: C4_4  and  C6_6 
REMARK    4  A    between atoms: C4_4  and  C7_7 
REMARK    5  A    between atoms: C5_5  and  S8_8 
ROOT
HETATM    1  C1  UNL     1     -33.011   4.743   2.528  1.00 20.00     0.010 C 
HETATM    2  C7  UNL     1     -33.352   5.991   3.351  1.00 20.00    -0.017 C 
ENDROOT
BRANCH   2   3
HETATM    3  C3  UNL     1     -33.382   7.257   2.468  1.00 20.00     0.014 C 
BRANCH   3   4
HETATM    4  C5  UNL     1     -32.122   8.120   2.542  1.00 20.00     0.073 C 
BRANCH   4   5
HETATM    5  S8  UNL     1     -31.775   8.877   0.925  1.00 20.00    -0.173 SA
HETATM    6  C2  UNL     1     -32.746  10.388   1.133  1.00 20.00     0.089 C 
ENDBRANCH   4   5
ENDBRANCH   3   4
ENDBRANCH   2   3
BRANCH   2   7
HETATM    7  C4  UNL     1     -34.648   5.743   4.152  1.00 20.00     0.019 C 
BRANCH   7   8
HETATM    8  C6  UNL     1     -34.552   5.959   5.660  1.00 20.00     0.115 C 
HETATM    9 CL9  UNL     1     -33.578   7.388   6.073  1.00 20.00    -0.130 Cl
ENDBRANCH   7   8
ENDBRANCH   2   7
TORSDOF 5
ENDMDL
MODEL 3
REMARK VINA RESULT:      -4.4      3.368      4.858
REMARK  5 active torsions:
REMARK  status: ('A' for Active; 'I' for Inactive)
REMARK    1  A    between atoms: C3_3  and  C5_5 
REMARK    2  A    between atoms: C3_3  and  C7_7 
REMARK    3  A    between atoms: C4_4  and  C6_6 
REMARK    4  A    between atoms: C4_4  and  C7_7 
REMARK    5  A    between atoms: C5_5  and  S8_8 
ROOT
HETATM    1  C1  UNL     1     -31.438   8.501   3.893  1.00 20.00     0.010 C 
HETATM    2  C7  UNL     1     -31.964   7.677   2.711  1.00 20.00    -0.017 C 
ENDROOT
BRANCH   2   3
HETATM    3  C3  UNL     1     -33.429   7.243   2.934  1.00 20.00     0.014 C 
BRANCH   3   4
HETATM    4  C5  UNL     1     -33.641   5.733   3.041  1.00 20.00     0.073 C 
BRANCH   4   5
HETATM    5  S8  UNL     1     -34.735   5.342   4.439  1.00 20.00    -0.173 SA
HETATM    6  C2  UNL     1     -34.139   6.598   5.594  1.00 20.00     0.089 C 
ENDBRANCH   4   5
ENDBRANCH   3   4
ENDBRANCH   2   3
BRANCH   2   7
HETATM    7  C4  UNL     1     -31.722   8.449   1.397  1.00 20.00     0.019 C 
BRANCH   7   8
HETATM    8  C6  UNL     1     -32.652   9.631   1.136  1.00 20.00     0.115 C 
HETATM    9 CL9  UNL     1     -33.307   9.617  -0.517  1.00 20.00    -0.130 Cl
ENDBRANCH   7   8
ENDBRANCH   2   7
TORSDOF 5
ENDMDL
MODEL 4
REMARK VINA RESULT:      -4.2      3.393      5.017
REMARK  5 active torsions:
REMARK  status: ('A' for Active; 'I' for Inactive)
REMARK    1  A    between atoms: C3_3  and  C5_5 
REMARK    2  A    between atoms: C3_3  and  C7_7 
REMARK    3  A    between atoms: C4_4  and  C6_6 
REMARK    4  A    between atoms: C4_4  and  C7_7 
REMARK    5  A    between atoms: C5_5  and  S8_8 
ROOT
HETATM    1  C1  UNL     1     -31.339   8.180   3.826  1.00 20.00     0.010 C 
HETATM    2  C7  UNL     1     -32.145   7.638   2.638  1.00 20.00    -0.017 C 
ENDROOT
BRANCH   2   3
HETATM    3  C3  UNL     1     -33.130   6.535   3.082  1.00 20.00     0.014 C 
BRANCH   3   4
HETATM    4  C5  UNL     1     -34.229   7.002   4.036  1.00 20.00     0.073 C 
BRANCH   4   5
HETATM    5  S8  UNL     1     -34.385   5.853   5.436  1.00 20.00    -0.173 SA
HETATM    6  C2  UNL     1     -34.433   4.308   4.500  1.00 20.00     0.089 C 
ENDBRANCH   4   5
ENDBRANCH   3   4
ENDBRANCH   2   3
BRANCH   2   7
HETATM    7  C4  UNL     1     -32.802   8.812   1.883  1.00 20.00     0.019 C 
BRANCH   7   8
HETATM    8  C6  UNL     1     -32.084   9.278   0.618  1.00 20.00     0.115 C 
HETATM    9 CL9  UNL     1     -33.189   9.419  -0.767  1.00 20.00    -0.130 Cl
ENDBRANCH   7   8
ENDBRANCH   2   7
TORSDOF 5
ENDMDL
MODEL 5
REMARK VINA RESULT:      -4.2      3.321      4.788
REMARK  5 active torsions:
REMARK  status: ('A' for Active; 'I' for Inactive)
REMARK    1  A    between atoms: C3_3  and  C5_5 
REMARK    2  A    between atoms: C3_3  and  C7_7 
REMARK    3  A    between atoms: C4_4  and  C6_6 
REMARK    4  A    between atoms: C4_4  and  C7_7 
REMARK    5  A    between atoms: C5_5  and  S8_8 
ROOT
HETATM    1  C1  UNL     1     -32.944   4.916   2.569  1.00 20.00     0.010 C 
HETATM    2  C7  UNL     1     -33.352   6.393   2.522  1.00 20.00    -0.017 C 
ENDROOT
BRANCH   2   3
HETATM    3  C3  UNL     1     -34.538   6.681   3.468  1.00 20.00     0.014 C 
BRANCH   3   4
HETATM    4  C5  UNL     1     -35.098   5.453   4.186  1.00 20.00     0.073 C 
BRANCH   4   5
HETATM    5  S8  UNL     1     -34.531   5.414   5.913  1.00 20.00    -0.173 SA
HETATM    6  C2  UNL     1     -33.900   7.105   6.017  1.00 20.00     0.089 C 
ENDBRANCH   4   5
ENDBRANCH   3   4
ENDBRANCH   2   3
BRANCH   2   7
HETATM    7  C4  UNL     1     -32.112   7.278   2.768  1.00 20.00     0.019 C 
BRANCH   7   8
HETATM    8  C6  UNL     1     -32.183   8.697   2.209  1.00 20.00     0.115 C 
HETATM    9 CL9  UNL     1     -31.491   8.811   0.576  1.00 20.00    -0.130 Cl
ENDBRANCH   7   8
ENDBRANCH   2   7
TORSDOF 5
ENDMDL
MODEL 6
REMARK VINA RESULT:      -3.3     11.377     11.909
REMARK  5 active torsions:
REMARK  status: ('A' for Active; 'I' for Inactive)
REMARK    1  A    between atoms: C3_3  and  C5_5 
REMARK    2  A    between atoms: C3_3  and  C7_7 
REMARK    3  A    between atoms: C4_4  and  C6_6 
REMARK    4  A    between atoms: C4_4  and  C7_7 
REMARK    5  A    between atoms: C5_5  and  S8_8 
ROOT
HETATM    1  C1  UNL     1     -35.039  17.228  -1.060  1.00 20.00     0.010 C 
HETATM    2  C7  UNL     1     -33.646  17.110  -1.690  1.00 20.00    -0.017 C 
ENDROOT
BRANCH   2   3
HETATM    3  C3  UNL     1     -33.729  16.628  -3.155  1.00 20.00     0.014 C 
BRANCH   3   4
HETATM    4  C5  UNL     1     -34.948  15.765  -3.478  1.00 20.00     0.073 C 
BRANCH   4   5
HETATM    5  S8  UNL     1     -34.446  14.267  -4.378  1.00 20.00    -0.173 SA
HETATM    6  C2  UNL     1     -36.062  13.810  -5.045  1.00 20.00     0.089 C 
ENDBRANCH   4   5
ENDBRANCH   3   4
ENDBRANCH   2   3
BRANCH   2   7
HETATM    7  C4  UNL     1     -32.879  18.435  -1.498  1.00 20.00     0.019 C 
BRANCH   7   8
HETATM    8  C6  UNL     1     -32.840  18.983  -0.074  1.00 20.00     0.115 C 
HETATM    9 CL9  UNL     1     -31.291  18.649   0.732  1.00 20.00    -0.130 Cl
ENDBRANCH   7   8
ENDBRANCH   2   7
TORSDOF 5
ENDMDL
MODEL 7
REMARK VINA RESULT:      -3.2     11.389     11.868
REMARK  5 active torsions:
REMARK  status: ('A' for Active; 'I' for Inactive)
REMARK    1  A    between atoms: C3_3  and  C5_5 
REMARK    2  A    between atoms: C3_3  and  C7_7 
REMARK    3  A    between atoms: C4_4  and  C6_6 
REMARK    4  A    between atoms: C4_4  and  C7_7 
REMARK    5  A    between atoms: C5_5  and  S8_8 
ROOT
HETATM    1  C1  UNL     1     -36.056  16.813  -2.997  1.00 20.00     0.010 C 
HETATM    2  C7  UNL     1     -34.678  16.318  -2.541  1.00 20.00    -0.017 C 
ENDROOT
BRANCH   2   3
HETATM    3  C3  UNL     1     -33.694  16.220  -3.726  1.00 20.00     0.014 C 
BRANCH   3   4
HETATM    4  C5  UNL     1     -33.500  14.811  -4.285  1.00 20.00     0.073 C 
BRANCH   4   5
HETATM    5  S8  UNL     1     -34.438  14.606  -5.829  1.00 20.00    -0.173 SA
HETATM    6  C2  UNL     1     -35.757  13.546  -5.194  1.00 20.00     0.089 C 
ENDBRANCH   4   5
ENDBRANCH   3   4
ENDBRANCH   2   3
BRANCH   2   7
HETATM    7  C4  UNL     1     -34.179  17.189  -1.369  1.00 20.00     0.019 C 
BRANCH   7   8
HETATM    8  C6  UNL     1     -32.902  17.985  -1.625  1.00 20.00     0.115 C 
HETATM    9 CL9  UNL     1     -32.218  18.657  -0.128  1.00 20.00    -0.130 Cl
ENDBRANCH   7   8
ENDBRANCH   2   7
TORSDOF 5
ENDMDL
MODEL 8
REMARK VINA RESULT:      -3.2     11.051     11.949
REMARK  5 active torsions:
REMARK  status: ('A' for Active; 'I' for Inactive)
REMARK    1  A    between atoms: C3_3  and  C5_5 
REMARK    2  A    between atoms: C3_3  and  C7_7 
REMARK    3  A    between atoms: C4_4  and  C6_6 
REMARK    4  A    between atoms: C4_4  and  C7_7 
REMARK    5  A    between atoms: C5_5  and  S8_8 
ROOT
HETATM    1  C1  UNL     1     -35.761  16.441  -4.611  1.00 20.00     0.010 C 
HETATM    2  C7  UNL     1     -34.959  15.538  -3.666  1.00 20.00    -0.017 C 
ENDROOT
BRANCH   2   3
HETATM    3  C3  UNL     1     -34.696  14.154  -4.297  1.00 20.00     0.014 C 
BRANCH   3   4
HETATM    4  C5  UNL     1     -35.829  13.624  -5.177  1.00 20.00     0.073 C 
BRANCH   4   5
HETATM    5  S8  UNL     1     -35.249  13.383  -6.883  1.00 20.00    -0.173 SA
HETATM    6  C2  UNL     1     -36.532  14.331  -7.731  1.00 20.00     0.089 C 
ENDBRANCH   4   5
ENDBRANCH   3   4
ENDBRANCH   2   3
BRANCH   2   7
HETATM    7  C4  UNL     1     -33.687  16.278  -3.202  1.00 20.00     0.019 C 
BRANCH   7   8
HETATM    8  C6  UNL     1     -33.859  17.221  -2.014  1.00 20.00     0.115 C 
HETATM    9 CL9  UNL     1     -35.326  16.860  -1.077  1.00 20.00    -0.130 Cl
ENDBRANCH   7   8
ENDBRANCH   2   7
TORSDOF 5
ENDMDL
MODEL 9
REMARK VINA RESULT:      -3.2     11.186     11.672
REMARK  5 active torsions:
REMARK  status: ('A' for Active; 'I' for Inactive)
REMARK    1  A    between atoms: C3_3  and  C5_5 
REMARK    2  A    between atoms: C3_3  and  C7_7 
REMARK    3  A    between atoms: C4_4  and  C6_6 
REMARK    4  A    between atoms: C4_4  and  C7_7 
REMARK    5  A    between atoms: C5_5  and  S8_8 
ROOT
HETATM    1  C1  UNL     1     -32.979  17.792  -1.602  1.00 20.00     0.010 C 
HETATM    2  C7  UNL     1     -34.111  17.218  -2.463  1.00 20.00    -0.017 C 
ENDROOT
BRANCH   2   3
HETATM    3  C3  UNL     1     -33.602  16.082  -3.377  1.00 20.00     0.014 C 
BRANCH   3   4
HETATM    4  C5  UNL     1     -34.676  15.090  -3.824  1.00 20.00     0.073 C 
BRANCH   4   5
HETATM    5  S8  UNL     1     -34.431  14.634  -5.567  1.00 20.00    -0.173 SA
HETATM    6  C2  UNL     1     -33.365  16.011  -6.050  1.00 20.00     0.089 C 
ENDBRANCH   4   5
ENDBRANCH   3   4
ENDBRANCH   2   3
BRANCH   2   7
HETATM    7  C4  UNL     1     -35.298  16.824  -1.559  1.00 20.00     0.019 C 
BRANCH   7   8
HETATM    8  C6  UNL     1     -35.846  17.928  -0.658  1.00 20.00     0.115 C 
HETATM    9 CL9  UNL     1     -35.794  17.479   1.061  1.00 20.00    -0.130 Cl
ENDBRANCH   7   8
ENDBRANCH   2   7
TORSDOF 5
ENDMDL
