MODEL 1
REMARK VINA RESULT:      -5.0      0.000      0.000
REMARK  1 active torsions:
REMARK  status: ('A' for Active; 'I' for Inactive)
REMARK    1  A    between atoms: C3_3  and  C8_8 
ROOT
HETATM    1  C1  UNL     1     -33.295  16.500  -5.113  1.00 20.00     0.016 A 
HETATM    2  C2  UNL     1     -33.373  15.797  -6.349  1.00 20.00     0.015 A 
HETATM    3  C3  UNL     1     -33.974  15.851  -4.105  1.00 20.00    -0.012 A 
HETATM    4  C4  UNL     1     -34.108  14.637  -6.239  1.00 20.00    -0.021 A 
HETATM    5  C10 UNL     1     -34.417  13.641  -7.287  1.00 20.00     0.056 C 
HETATM    6  S11 UNL     1     -34.702  14.400  -4.651  1.00 20.00    -0.099 SA
ENDROOT
BRANCH   3   7
HETATM    7  C8  UNL     1     -34.132  16.265  -2.657  1.00 20.00     0.040 C 
HETATM    8  C6  UNL     1     -33.293  17.448  -2.150  1.00 20.00     0.011 C 
HETATM    9  C5  UNL     1     -33.946  17.870  -0.834  1.00 20.00     0.002 C 
HETATM   10  C7  UNL     1     -35.330  17.219  -0.804  1.00 20.00     0.016 C 
HETATM   11  C9  UNL     1     -35.549  16.638  -2.197  1.00 20.00     0.067 C 
HETATM   12 BR12 UNL     1     -36.377  17.995  -3.341  1.00 20.00    -0.090 Br
ENDBRANCH   3   7
TORSDOF 1
ENDMDL
MODEL 2
REMARK VINA RESULT:      -4.7      1.770      5.181
REMARK  1 active torsions:
REMARK  status: ('A' for Active; 'I' for Inactive)
REMARK    1  A    between atoms: C3_3  and  C8_8 
ROOT
HETATM    1  C1  UNL     1     -35.316  16.624  -1.661  1.00 20.00     0.016 A 
HETATM    2  C2  UNL     1     -35.386  17.448  -0.502  1.00 20.00     0.015 A 
HETATM    3  C3  UNL     1     -34.105  16.741  -2.307  1.00 20.00    -0.012 A 
HETATM    4  C4  UNL     1     -34.226  18.164  -0.305  1.00 20.00    -0.021 A 
HETATM    5  C10 UNL     1     -33.907  19.121   0.776  1.00 20.00     0.056 C 
HETATM    6  S11 UNL     1     -33.059  17.842  -1.516  1.00 20.00    -0.099 SA
ENDROOT
BRANCH   3   7
HETATM    7  C8  UNL     1     -33.636  16.040  -3.564  1.00 20.00     0.040 C 
HETATM    8  C6  UNL     1     -34.431  14.817  -4.047  1.00 20.00     0.011 C 
HETATM    9  C5  UNL     1     -33.987  14.592  -5.492  1.00 20.00     0.002 C 
HETATM   10  C7  UNL     1     -33.279  15.874  -5.937  1.00 20.00     0.016 C 
HETATM   11  C9  UNL     1     -33.537  16.897  -4.836  1.00 20.00     0.067 C 
HETATM   12 BR12 UNL     1     -35.199  17.859  -5.224  1.00 20.00    -0.090 Br
ENDBRANCH   3   7
TORSDOF 1
ENDMDL
MODEL 3
REMARK VINA RESULT:      -4.6     11.356     12.007
REMARK  1 active torsions:
REMARK  status: ('A' for Active; 'I' for Inactive)
REMARK    1  A    between atoms: C3_3  and  C8_8 
ROOT
HETATM    1  C1  UNL     1     -31.842   7.751   3.124  1.00 20.00     0.016 A 
HETATM    2  C2  UNL     1     -31.407   8.918   2.432  1.00 20.00     0.015 A 
HETATM    3  C3  UNL     1     -33.043   7.281   2.642  1.00 20.00    -0.012 A 
HETATM    4  C4  UNL     1     -32.294   9.296   1.448  1.00 20.00    -0.021 A 
HETATM    5  C10 UNL     1     -32.204  10.442   0.519  1.00 20.00     0.056 C 
HETATM    6  S11 UNL     1     -33.644   8.246   1.362  1.00 20.00    -0.099 SA
ENDROOT
BRANCH   3   7
HETATM    7  C8  UNL     1     -33.836   6.076   3.102  1.00 20.00     0.040 C 
HETATM    8  C6  UNL     1     -33.061   4.800   3.467  1.00 20.00     0.011 C 
HETATM    9  C5  UNL     1     -34.051   3.939   4.252  1.00 20.00     0.002 C 
HETATM   10  C7  UNL     1     -35.203   4.859   4.663  1.00 20.00     0.016 C 
HETATM   11  C9  UNL     1     -34.748   6.274   4.323  1.00 20.00     0.067 C 
HETATM   12 BR12 UNL     1     -33.794   7.032   5.857  1.00 20.00    -0.090 Br
ENDBRANCH   3   7
TORSDOF 1
ENDMDL
MODEL 4
REMARK VINA RESULT:      -4.3      1.879      2.308
REMARK  1 active torsions:
REMARK  status: ('A' for Active; 'I' for Inactive)
REMARK    1  A    between atoms: C3_3  and  C8_8 
ROOT
HETATM    1  C1  UNL     1     -34.434  14.564  -3.977  1.00 20.00     0.016 A 
HETATM    2  C2  UNL     1     -35.372  13.896  -4.815  1.00 20.00     0.015 A 
HETATM    3  C3  UNL     1     -34.433  15.925  -4.183  1.00 20.00    -0.012 A 
HETATM    4  C4  UNL     1     -36.053  14.774  -5.631  1.00 20.00    -0.021 A 
HETATM    5  C10 UNL     1     -37.098  14.476  -6.634  1.00 20.00     0.056 C 
HETATM    6  S11 UNL     1     -35.558  16.395  -5.386  1.00 20.00    -0.099 SA
ENDROOT
BRANCH   3   7
HETATM    7  C8  UNL     1     -33.590  16.981  -3.500  1.00 20.00     0.040 C 
HETATM    8  C6  UNL     1     -33.842  18.452  -3.864  1.00 20.00     0.011 C 
HETATM    9  C5  UNL     1     -33.162  19.263  -2.762  1.00 20.00     0.002 C 
HETATM   10  C7  UNL     1     -32.888  18.293  -1.610  1.00 20.00     0.016 C 
HETATM   11  C9  UNL     1     -33.626  17.006  -1.964  1.00 20.00     0.067 C 
HETATM   12 BR12 UNL     1     -35.451  17.093  -1.258  1.00 20.00    -0.090 Br
ENDBRANCH   3   7
TORSDOF 1
ENDMDL
MODEL 5
REMARK VINA RESULT:      -4.3      1.825      5.296
REMARK  1 active torsions:
REMARK  status: ('A' for Active; 'I' for Inactive)
REMARK    1  A    between atoms: C3_3  and  C8_8 
ROOT
HETATM    1  C1  UNL     1     -36.223  15.767  -3.868  1.00 20.00     0.016 A 
HETATM    2  C2  UNL     1     -35.981  16.559  -2.709  1.00 20.00     0.015 A 
HETATM    3  C3  UNL     1     -35.054  15.306  -4.432  1.00 20.00    -0.012 A 
HETATM    4  C4  UNL     1     -34.637  16.673  -2.431  1.00 20.00    -0.021 A 
HETATM    5  C10 UNL     1     -33.985  17.404  -1.324  1.00 20.00     0.056 C 
HETATM    6  S11 UNL     1     -33.672  15.828  -3.566  1.00 20.00    -0.099 SA
ENDROOT
BRANCH   3   7
HETATM    7  C8  UNL     1     -34.879  14.441  -5.662  1.00 20.00     0.040 C 
HETATM    8  C6  UNL     1     -36.135  14.067  -6.465  1.00 20.00     0.011 C 
HETATM    9  C5  UNL     1     -35.617  13.564  -7.812  1.00 20.00     0.002 C 
HETATM   10  C7  UNL     1     -34.158  14.015  -7.917  1.00 20.00     0.016 C 
HETATM   11  C9  UNL     1     -33.932  14.970  -6.750  1.00 20.00     0.067 C 
HETATM   12 BR12 UNL     1     -34.379  16.793  -7.312  1.00 20.00    -0.090 Br
ENDBRANCH   3   7
TORSDOF 1
ENDMDL
MODEL 6
REMARK VINA RESULT:      -4.2      2.050      4.951
REMARK  1 active torsions:
REMARK  status: ('A' for Active; 'I' for Inactive)
REMARK    1  A    between atoms: C3_3  and  C8_8 
ROOT
HETATM    1  C1  UNL     1     -33.526  16.773  -3.252  1.00 20.00     0.016 A 
HETATM    2  C2  UNL     1     -33.755  17.004  -1.865  1.00 20.00     0.015 A 
HETATM    3  C3  UNL     1     -34.699  16.743  -3.972  1.00 20.00    -0.012 A 
HETATM    4  C4  UNL     1     -35.095  17.143  -1.578  1.00 20.00    -0.021 A 
HETATM    5  C10 UNL     1     -35.735  17.391  -0.268  1.00 20.00     0.056 C 
HETATM    6  S11 UNL     1     -36.071  16.992  -2.977  1.00 20.00    -0.099 SA
ENDROOT
BRANCH   3   7
HETATM    7  C8  UNL     1     -34.888  16.524  -5.458  1.00 20.00     0.040 C 
HETATM    8  C6  UNL     1     -33.657  16.130  -6.290  1.00 20.00     0.011 C 
HETATM    9  C5  UNL     1     -34.217  15.601  -7.610  1.00 20.00     0.002 C 
HETATM   10  C7  UNL     1     -35.704  15.327  -7.377  1.00 20.00     0.016 C 
HETATM   11  C9  UNL     1     -35.924  15.471  -5.875  1.00 20.00     0.067 C 
HETATM   12 BR12 UNL     1     -35.625  13.739  -5.010  1.00 20.00    -0.090 Br
ENDBRANCH   3   7
TORSDOF 1
ENDMDL
MODEL 7
REMARK VINA RESULT:      -4.1      2.172      5.140
REMARK  1 active torsions:
REMARK  status: ('A' for Active; 'I' for Inactive)
REMARK    1  A    between atoms: C3_3  and  C8_8 
ROOT
HETATM    1  C1  UNL     1     -35.552  16.674  -2.109  1.00 20.00     0.016 A 
HETATM    2  C2  UNL     1     -35.117  17.123  -0.829  1.00 20.00     0.015 A 
HETATM    3  C3  UNL     1     -34.711  17.090  -3.116  1.00 20.00    -0.012 A 
HETATM    4  C4  UNL     1     -33.959  17.865  -0.907  1.00 20.00    -0.021 A 
HETATM    5  C10 UNL     1     -33.199  18.502   0.190  1.00 20.00     0.056 C 
HETATM    6  S11 UNL     1     -33.402  18.020  -2.519  1.00 20.00    -0.099 SA
ENDROOT
BRANCH   3   7
HETATM    7  C8  UNL     1     -34.819  16.827  -4.603  1.00 20.00     0.040 C 
HETATM    8  C6  UNL     1     -33.826  17.538  -5.536  1.00 20.00     0.011 C 
HETATM    9  C5  UNL     1     -33.913  16.788  -6.864  1.00 20.00     0.002 C 
HETATM   10  C7  UNL     1     -34.620  15.463  -6.574  1.00 20.00     0.016 C 
HETATM   11  C9  UNL     1     -34.711  15.363  -5.055  1.00 20.00     0.067 C 
HETATM   12 BR12 UNL     1     -33.101  14.482  -4.368  1.00 20.00    -0.090 Br
ENDBRANCH   3   7
TORSDOF 1
ENDMDL
MODEL 8
REMARK VINA RESULT:      -4.1      2.510      5.049
REMARK  1 active torsions:
REMARK  status: ('A' for Active; 'I' for Inactive)
REMARK    1  A    between atoms: C3_3  and  C8_8 
ROOT
HETATM    1  C1  UNL     1     -33.403  17.098  -2.700  1.00 20.00     0.016 A 
HETATM    2  C2  UNL     1     -33.023  17.829  -1.539  1.00 20.00     0.015 A 
HETATM    3  C3  UNL     1     -34.691  16.618  -2.611  1.00 20.00    -0.012 A 
HETATM    4  C4  UNL     1     -34.035  17.882  -0.605  1.00 20.00    -0.021 A 
HETATM    5  C10 UNL     1     -34.033  18.540   0.718  1.00 20.00     0.056 C 
HETATM    6  S11 UNL     1     -35.437  17.049  -1.130  1.00 20.00    -0.099 SA
ENDROOT
BRANCH   3   7
HETATM    7  C8  UNL     1     -35.464  15.800  -3.623  1.00 20.00     0.040 C 
HETATM    8  C6  UNL     1     -35.719  16.419  -5.006  1.00 20.00     0.011 C 
HETATM    9  C5  UNL     1     -36.137  15.251  -5.899  1.00 20.00     0.002 C 
HETATM   10  C7  UNL     1     -35.744  13.971  -5.159  1.00 20.00     0.016 C 
HETATM   11  C9  UNL     1     -34.893  14.418  -3.975  1.00 20.00     0.067 C 
HETATM   12 BR12 UNL     1     -33.014  14.500  -4.523  1.00 20.00    -0.090 Br
ENDBRANCH   3   7
TORSDOF 1
ENDMDL
MODEL 9
REMARK VINA RESULT:      -3.8      1.793      4.998
REMARK  1 active torsions:
REMARK  status: ('A' for Active; 'I' for Inactive)
REMARK    1  A    between atoms: C3_3  and  C8_8 
ROOT
HETATM    1  C1  UNL     1     -34.716  15.880  -3.020  1.00 20.00     0.016 A 
HETATM    2  C2  UNL     1     -34.386  16.984  -2.183  1.00 20.00     0.015 A 
HETATM    3  C3  UNL     1     -34.284  16.065  -4.314  1.00 20.00    -0.012 A 
HETATM    4  C4  UNL     1     -33.714  17.972  -2.869  1.00 20.00    -0.021 A 
HETATM    5  C10 UNL     1     -33.205  19.263  -2.360  1.00 20.00     0.056 C 
HETATM    6  S11 UNL     1     -33.484  17.566  -4.517  1.00 20.00    -0.099 SA
ENDROOT
BRANCH   3   7
HETATM    7  C8  UNL     1     -34.435  15.136  -5.500  1.00 20.00     0.040 C 
HETATM    8  C6  UNL     1     -35.222  13.832  -5.298  1.00 20.00     0.011 C 
HETATM    9  C5  UNL     1     -35.542  13.332  -6.707  1.00 20.00     0.002 C 
HETATM   10  C7  UNL     1     -35.301  14.510  -7.655  1.00 20.00     0.016 C 
HETATM   11  C9  UNL     1     -35.084  15.726  -6.761  1.00 20.00     0.067 C 
HETATM   12 BR12 UNL     1     -36.812  16.572  -6.390  1.00 20.00    -0.090 Br
ENDBRANCH   3   7
TORSDOF 1
ENDMDL
