MODEL 1
REMARK VINA RESULT:      -5.8      0.000      0.000
REMARK  5 active torsions:
REMARK  status: ('A' for Active; 'I' for Inactive)
REMARK    1  A    between atoms: C1_1  and  C9_9 
REMARK    2  A    between atoms: C6_6  and  C7_7 
REMARK    3  A    between atoms: C6_6  and  C8_8 
REMARK    4  A    between atoms: C7_7  and  C9_9 
REMARK    5  A    between atoms: C8_8  and  C10_10 
ROOT
HETATM    1  C6  UNL     1     -32.497   7.423   2.658  1.00 20.00     0.001 C 
ENDROOT
BRANCH   1   2
HETATM    2  C7  UNL     1     -33.279   6.126   2.890  1.00 20.00     0.011 C 
BRANCH   2   3
HETATM    3  C9  UNL     1     -34.280   6.217   4.053  1.00 20.00     0.043 C 
HETATM    4  C2  UNL     1     -34.645   4.853   4.634  1.00 20.00     0.017 C 
BRANCH   3   5
HETATM    5  C1  UNL     1     -33.694   7.126   5.118  1.00 20.00     0.235 C 
HETATM    6  O11 UNL     1     -34.080   7.181   6.282  1.00 20.00    -0.306 OA
ENDBRANCH   3   5
ENDBRANCH   2   3
ENDBRANCH   1   2
BRANCH   1   7
HETATM    7  C8  UNL     1     -33.329   8.429   1.851  1.00 20.00     0.008 C 
BRANCH   7   8
HETATM    8  C10 UNL     1     -32.540   9.295   0.833  1.00 20.00    -0.051 C 
HETATM    9  C3  UNL     1     -32.491  10.740   1.370  1.00 20.00     0.014 C 
HETATM   10  C4  UNL     1     -31.097   8.788   0.670  1.00 20.00     0.014 C 
HETATM   11  C5  UNL     1     -33.231   9.310  -0.540  1.00 20.00     0.014 C 
ENDBRANCH   7   8
ENDBRANCH   1   7
TORSDOF 5
ENDMDL
MODEL 2
REMARK VINA RESULT:      -5.7      0.032      1.299
REMARK  5 active torsions:
REMARK  status: ('A' for Active; 'I' for Inactive)
REMARK    1  A    between atoms: C1_1  and  C9_9 
REMARK    2  A    between atoms: C6_6  and  C7_7 
REMARK    3  A    between atoms: C6_6  and  C8_8 
REMARK    4  A    between atoms: C7_7  and  C9_9 
REMARK    5  A    between atoms: C8_8  and  C10_10 
ROOT
HETATM    1  C6  UNL     1     -32.499   7.420   2.661  1.00 20.00     0.001 C 
ENDROOT
BRANCH   1   2
HETATM    2  C7  UNL     1     -33.280   6.119   2.885  1.00 20.00     0.011 C 
BRANCH   2   3
HETATM    3  C9  UNL     1     -34.286   6.204   4.044  1.00 20.00     0.043 C 
HETATM    4  C2  UNL     1     -34.656   4.837   4.614  1.00 20.00     0.017 C 
BRANCH   3   5
HETATM    5  C1  UNL     1     -33.703   7.104   5.119  1.00 20.00     0.235 C 
HETATM    6  O11 UNL     1     -34.109   7.169   6.275  1.00 20.00    -0.306 OA
ENDBRANCH   3   5
ENDBRANCH   2   3
ENDBRANCH   1   2
BRANCH   1   7
HETATM    7  C8  UNL     1     -33.330   8.425   1.852  1.00 20.00     0.008 C 
BRANCH   7   8
HETATM    8  C10 UNL     1     -32.534   9.317   0.862  1.00 20.00    -0.051 C 
HETATM    9  C3  UNL     1     -33.271   9.304  -0.493  1.00 20.00     0.014 C 
HETATM   10  C4  UNL     1     -32.454  10.769   1.359  1.00 20.00     0.014 C 
HETATM   11  C5  UNL     1     -31.111   8.775   0.646  1.00 20.00     0.014 C 
ENDBRANCH   7   8
ENDBRANCH   1   7
TORSDOF 5
ENDMDL
MODEL 3
REMARK VINA RESULT:      -5.7      2.405      5.327
REMARK  5 active torsions:
REMARK  status: ('A' for Active; 'I' for Inactive)
REMARK    1  A    between atoms: C1_1  and  C9_9 
REMARK    2  A    between atoms: C6_6  and  C7_7 
REMARK    3  A    between atoms: C6_6  and  C8_8 
REMARK    4  A    between atoms: C7_7  and  C9_9 
REMARK    5  A    between atoms: C8_8  and  C10_10 
ROOT
HETATM    1  C6  UNL     1     -32.390   7.688   3.330  1.00 20.00     0.001 C 
ENDROOT
BRANCH   1   2
HETATM    2  C7  UNL     1     -31.817   8.342   2.067  1.00 20.00     0.011 C 
BRANCH   2   3
HETATM    3  C9  UNL     1     -32.802   9.298   1.375  1.00 20.00     0.043 C 
HETATM    4  C2  UNL     1     -32.542  10.765   1.706  1.00 20.00     0.017 C 
BRANCH   3   5
HETATM    5  C1  UNL     1     -32.731   9.055  -0.122  1.00 20.00     0.235 C 
HETATM    6  O11 UNL     1     -33.602   9.377  -0.926  1.00 20.00    -0.306 OA
ENDBRANCH   3   5
ENDBRANCH   2   3
ENDBRANCH   1   2
BRANCH   1   7
HETATM    7  C8  UNL     1     -33.151   6.402   2.983  1.00 20.00     0.008 C 
BRANCH   7   8
HETATM    8  C10 UNL     1     -34.184   5.924   4.040  1.00 20.00    -0.051 C 
HETATM    9  C3  UNL     1     -35.596   6.233   3.504  1.00 20.00     0.014 C 
HETATM   10  C4  UNL     1     -34.075   4.409   4.280  1.00 20.00     0.014 C 
HETATM   11  C5  UNL     1     -33.998   6.664   5.375  1.00 20.00     0.014 C 
ENDBRANCH   7   8
ENDBRANCH   1   7
TORSDOF 5
ENDMDL
MODEL 4
REMARK VINA RESULT:      -5.7      2.408      5.325
REMARK  5 active torsions:
REMARK  status: ('A' for Active; 'I' for Inactive)
REMARK    1  A    between atoms: C1_1  and  C9_9 
REMARK    2  A    between atoms: C6_6  and  C7_7 
REMARK    3  A    between atoms: C6_6  and  C8_8 
REMARK    4  A    between atoms: C7_7  and  C9_9 
REMARK    5  A    between atoms: C8_8  and  C10_10 
ROOT
HETATM    1  C6  UNL     1     -32.405   7.687   3.303  1.00 20.00     0.001 C 
ENDROOT
BRANCH   1   2
HETATM    2  C7  UNL     1     -31.837   8.334   2.035  1.00 20.00     0.011 C 
BRANCH   2   3
HETATM    3  C9  UNL     1     -32.815   9.306   1.355  1.00 20.00     0.043 C 
HETATM    4  C2  UNL     1     -32.524  10.769   1.679  1.00 20.00     0.017 C 
BRANCH   3   5
HETATM    5  C1  UNL     1     -32.771   9.059  -0.142  1.00 20.00     0.235 C 
HETATM    6  O11 UNL     1     -33.629   9.429  -0.939  1.00 20.00    -0.306 OA
ENDBRANCH   3   5
ENDBRANCH   2   3
ENDBRANCH   1   2
BRANCH   1   7
HETATM    7  C8  UNL     1     -33.135   6.378   2.972  1.00 20.00     0.008 C 
BRANCH   7   8
HETATM    8  C10 UNL     1     -34.201   5.921   4.004  1.00 20.00    -0.051 C 
HETATM    9  C3  UNL     1     -33.968   6.703   5.312  1.00 20.00     0.014 C 
HETATM   10  C4  UNL     1     -35.624   6.221   3.504  1.00 20.00     0.014 C 
HETATM   11  C5  UNL     1     -34.076   4.419   4.306  1.00 20.00     0.014 C 
ENDBRANCH   7   8
ENDBRANCH   1   7
TORSDOF 5
ENDMDL
MODEL 5
REMARK VINA RESULT:      -5.7      2.398      5.321
REMARK  5 active torsions:
REMARK  status: ('A' for Active; 'I' for Inactive)
REMARK    1  A    between atoms: C1_1  and  C9_9 
REMARK    2  A    between atoms: C6_6  and  C7_7 
REMARK    3  A    between atoms: C6_6  and  C8_8 
REMARK    4  A    between atoms: C7_7  and  C9_9 
REMARK    5  A    between atoms: C8_8  and  C10_10 
ROOT
HETATM    1  C6  UNL     1     -32.411   7.702   3.348  1.00 20.00     0.001 C 
ENDROOT
BRANCH   1   2
HETATM    2  C7  UNL     1     -31.821   8.356   2.093  1.00 20.00     0.011 C 
BRANCH   2   3
HETATM    3  C9  UNL     1     -32.793   9.318   1.392  1.00 20.00     0.043 C 
HETATM    4  C2  UNL     1     -32.536  10.782   1.736  1.00 20.00     0.017 C 
BRANCH   3   5
HETATM    5  C1  UNL     1     -32.700   9.084  -0.106  1.00 20.00     0.235 C 
HETATM    6  O11 UNL     1     -33.611   9.283  -0.904  1.00 20.00    -0.306 OA
ENDBRANCH   3   5
ENDBRANCH   2   3
ENDBRANCH   1   2
BRANCH   1   7
HETATM    7  C8  UNL     1     -33.151   6.405   2.994  1.00 20.00     0.008 C 
BRANCH   7   8
HETATM    8  C10 UNL     1     -34.208   5.929   4.027  1.00 20.00    -0.051 C 
HETATM    9  C3  UNL     1     -34.032   4.410   4.225  1.00 20.00     0.014 C 
HETATM   10  C4  UNL     1     -34.013   6.623   5.385  1.00 20.00     0.014 C 
HETATM   11  C5  UNL     1     -35.636   6.191   3.523  1.00 20.00     0.014 C 
ENDBRANCH   7   8
ENDBRANCH   1   7
TORSDOF 5
ENDMDL
MODEL 6
REMARK VINA RESULT:      -5.6      0.794      1.246
REMARK  5 active torsions:
REMARK  status: ('A' for Active; 'I' for Inactive)
REMARK    1  A    between atoms: C1_1  and  C9_9 
REMARK    2  A    between atoms: C6_6  and  C7_7 
REMARK    3  A    between atoms: C6_6  and  C8_8 
REMARK    4  A    between atoms: C7_7  and  C9_9 
REMARK    5  A    between atoms: C8_8  and  C10_10 
ROOT
HETATM    1  C6  UNL     1     -32.416   7.800   2.959  1.00 20.00     0.001 C 
ENDROOT
BRANCH   1   2
HETATM    2  C7  UNL     1     -33.292   7.115   4.014  1.00 20.00     0.011 C 
BRANCH   2   3
HETATM    3  C9  UNL     1     -34.036   5.880   3.482  1.00 20.00     0.043 C 
HETATM    4  C2  UNL     1     -33.124   4.910   2.735  1.00 20.00     0.017 C 
BRANCH   3   5
HETATM    5  C1  UNL     1     -34.722   5.195   4.650  1.00 20.00     0.235 C 
HETATM    6  O11 UNL     1     -34.644   5.558   5.820  1.00 20.00    -0.306 OA
ENDBRANCH   3   5
ENDBRANCH   2   3
ENDBRANCH   1   2
BRANCH   1   7
HETATM    7  C8  UNL     1     -33.279   8.449   1.868  1.00 20.00     0.008 C 
BRANCH   7   8
HETATM    8  C10 UNL     1     -32.513   9.304   0.822  1.00 20.00    -0.051 C 
HETATM    9  C3  UNL     1     -32.430  10.749   1.353  1.00 20.00     0.014 C 
HETATM   10  C4  UNL     1     -31.084   8.779   0.613  1.00 20.00     0.014 C 
HETATM   11  C5  UNL     1     -33.250   9.323  -0.528  1.00 20.00     0.014 C 
ENDBRANCH   7   8
ENDBRANCH   1   7
TORSDOF 5
ENDMDL
MODEL 7
REMARK VINA RESULT:      -5.5      1.210      1.615
REMARK  5 active torsions:
REMARK  status: ('A' for Active; 'I' for Inactive)
REMARK    1  A    between atoms: C1_1  and  C9_9 
REMARK    2  A    between atoms: C6_6  and  C7_7 
REMARK    3  A    between atoms: C6_6  and  C8_8 
REMARK    4  A    between atoms: C7_7  and  C9_9 
REMARK    5  A    between atoms: C8_8  and  C10_10 
ROOT
HETATM    1  C6  UNL     1     -32.600   7.564   2.779  1.00 20.00     0.001 C 
ENDROOT
BRANCH   1   2
HETATM    2  C7  UNL     1     -33.467   6.341   3.101  1.00 20.00     0.011 C 
BRANCH   2   3
HETATM    3  C9  UNL     1     -33.570   6.045   4.605  1.00 20.00     0.043 C 
HETATM    4  C2  UNL     1     -33.830   7.295   5.442  1.00 20.00     0.017 C 
BRANCH   3   5
HETATM    5  C1  UNL     1     -34.663   5.011   4.815  1.00 20.00     0.235 C 
HETATM    6  O11 UNL     1     -34.610   3.848   4.427  1.00 20.00    -0.306 OA
ENDBRANCH   3   5
ENDBRANCH   2   3
ENDBRANCH   1   2
BRANCH   1   7
HETATM    7  C8  UNL     1     -33.372   8.570   1.915  1.00 20.00     0.008 C 
BRANCH   7   8
HETATM    8  C10 UNL     1     -32.530   9.341   0.862  1.00 20.00    -0.051 C 
HETATM    9  C3  UNL     1     -32.387  10.800   1.339  1.00 20.00     0.014 C 
HETATM   10  C4  UNL     1     -31.124   8.735   0.721  1.00 20.00     0.014 C 
HETATM   11  C5  UNL     1     -33.221   9.344  -0.511  1.00 20.00     0.014 C 
ENDBRANCH   7   8
ENDBRANCH   1   7
TORSDOF 5
ENDMDL
MODEL 8
REMARK VINA RESULT:      -5.4      2.318      5.308
REMARK  5 active torsions:
REMARK  status: ('A' for Active; 'I' for Inactive)
REMARK    1  A    between atoms: C1_1  and  C9_9 
REMARK    2  A    between atoms: C6_6  and  C7_7 
REMARK    3  A    between atoms: C6_6  and  C8_8 
REMARK    4  A    between atoms: C7_7  and  C9_9 
REMARK    5  A    between atoms: C8_8  and  C10_10 
ROOT
HETATM    1  C6  UNL     1     -32.458   7.338   3.039  1.00 20.00     0.001 C 
ENDROOT
BRANCH   1   2
HETATM    2  C7  UNL     1     -33.179   8.429   2.240  1.00 20.00     0.011 C 
BRANCH   2   3
HETATM    3  C9  UNL     1     -32.236   9.269   1.365  1.00 20.00     0.043 C 
HETATM    4  C2  UNL     1     -31.106   8.450   0.749  1.00 20.00     0.017 C 
BRANCH   3   5
HETATM    5  C1  UNL     1     -33.063   9.953   0.290  1.00 20.00     0.235 C 
HETATM    6  O11 UNL     1     -33.516   9.396  -0.706  1.00 20.00    -0.306 OA
ENDBRANCH   3   5
ENDBRANCH   2   3
ENDBRANCH   1   2
BRANCH   1   7
HETATM    7  C8  UNL     1     -33.233   6.015   2.985  1.00 20.00     0.008 C 
BRANCH   7   8
HETATM    8  C10 UNL     1     -34.248   5.780   4.137  1.00 20.00    -0.051 C 
HETATM    9  C3  UNL     1     -35.657   6.116   3.610  1.00 20.00     0.014 C 
HETATM   10  C4  UNL     1     -34.237   4.314   4.598  1.00 20.00     0.014 C 
HETATM   11  C5  UNL     1     -33.948   6.692   5.338  1.00 20.00     0.014 C 
ENDBRANCH   7   8
ENDBRANCH   1   7
TORSDOF 5
ENDMDL
MODEL 9
REMARK VINA RESULT:      -4.4     10.142     11.128
REMARK  5 active torsions:
REMARK  status: ('A' for Active; 'I' for Inactive)
REMARK    1  A    between atoms: C1_1  and  C9_9 
REMARK    2  A    between atoms: C6_6  and  C7_7 
REMARK    3  A    between atoms: C6_6  and  C8_8 
REMARK    4  A    between atoms: C7_7  and  C9_9 
REMARK    5  A    between atoms: C8_8  and  C10_10 
ROOT
HETATM    1  C6  UNL     1     -33.615  15.942  -3.457  1.00 20.00     0.001 C 
ENDROOT
BRANCH   1   2
HETATM    2  C7  UNL     1     -33.859  14.643  -4.234  1.00 20.00     0.011 C 
BRANCH   2   3
HETATM    3  C9  UNL     1     -34.846  14.805  -5.400  1.00 20.00     0.043 C 
HETATM    4  C2  UNL     1     -34.193  14.613  -6.766  1.00 20.00     0.017 C 
BRANCH   3   5
HETATM    5  C1  UNL     1     -35.990  13.826  -5.199  1.00 20.00     0.235 C 
HETATM    6  O11 UNL     1     -35.884  12.604  -5.256  1.00 20.00    -0.306 OA
ENDBRANCH   3   5
ENDBRANCH   2   3
ENDBRANCH   1   2
BRANCH   1   7
HETATM    7  C8  UNL     1     -34.830  16.300  -2.591  1.00 20.00     0.008 C 
BRANCH   7   8
HETATM    8  C10 UNL     1     -34.666  17.546  -1.680  1.00 20.00    -0.051 C 
HETATM    9  C3  UNL     1     -33.160  17.754  -1.421  1.00 20.00     0.014 C 
HETATM   10  C4  UNL     1     -35.222  18.809  -2.358  1.00 20.00     0.014 C 
HETATM   11  C5  UNL     1     -35.369  17.344  -0.328  1.00 20.00     0.014 C 
ENDBRANCH   7   8
ENDBRANCH   1   7
TORSDOF 5
ENDMDL
