MODEL 1
REMARK VINA RESULT:      -4.9      0.000      0.000
REMARK  3 active torsions:
REMARK  status: ('A' for Active; 'I' for Inactive)
REMARK    1  A    between atoms: C4_4  and  C9_9 
REMARK    2  A    between atoms: C7_7  and  C8_8 
REMARK    3  A    between atoms: C7_7  and  N10_10 
ROOT
HETATM    1  C1  UNL     1     -32.958   4.602   2.485  1.00 20.00     0.032 C 
HETATM    2  C2  UNL     1     -33.998   4.687   3.597  1.00 20.00     0.038 C 
HETATM    3  C3  UNL     1     -32.659   6.043   2.109  1.00 20.00     0.273 C 
HETATM    4  C4  UNL     1     -34.236   6.183   3.813  1.00 20.00     0.226 C 
HETATM    5  N10 UNL     1     -32.986   6.784   3.330  1.00 20.00     0.094 N 
ENDROOT
BRANCH   4   6
HETATM    6  C9  UNL     1     -34.537   6.502   5.272  1.00 20.00     0.011 C 
HETATM    7  C5  UNL     1     -34.681   5.218   6.088  1.00 20.00     0.011 C 
HETATM    8  C6  UNL     1     -33.447   7.394   5.866  1.00 20.00     0.011 C 
ENDBRANCH   4   6
BRANCH   5   9
HETATM    9  C7  UNL     1     -33.094   8.215   3.073  1.00 20.00     0.287 C 
BRANCH   9  10
HETATM   10  C8  UNL     1     -32.225   8.667   1.912  1.00 20.00     0.144 C 
HETATM   11 CL11 UNL     1     -32.819  10.194   1.215  1.00 20.00    -0.129 Cl
ENDBRANCH   9  10
ENDBRANCH   5   9
TORSDOF 3
ENDMDL
MODEL 2
REMARK VINA RESULT:      -4.4     11.510     12.132
REMARK  3 active torsions:
REMARK  status: ('A' for Active; 'I' for Inactive)
REMARK    1  A    between atoms: C4_4  and  C9_9 
REMARK    2  A    between atoms: C7_7  and  C8_8 
REMARK    3  A    between atoms: C7_7  and  N10_10 
ROOT
HETATM    1  C1  UNL     1     -37.082  15.324  -4.232  1.00 20.00     0.032 C 
HETATM    2  C2  UNL     1     -36.509  16.419  -3.337  1.00 20.00     0.038 C 
HETATM    3  C3  UNL     1     -35.874  14.658  -4.867  1.00 20.00     0.273 C 
HETATM    4  C4  UNL     1     -34.991  16.318  -3.497  1.00 20.00     0.226 C 
HETATM    5  N10 UNL     1     -34.800  14.920  -3.906  1.00 20.00     0.094 N 
ENDROOT
BRANCH   4   6
HETATM    6  C9  UNL     1     -34.262  16.677  -2.209  1.00 20.00     0.011 C 
HETATM    7  C5  UNL     1     -33.306  17.847  -2.437  1.00 20.00     0.011 C 
HETATM    8  C6  UNL     1     -35.258  17.010  -1.099  1.00 20.00     0.011 C 
ENDBRANCH   4   6
BRANCH   5   9
HETATM    9  C7  UNL     1     -33.488  14.662  -4.487  1.00 20.00     0.287 C 
BRANCH   9  10
HETATM   10  C8  UNL     1     -33.080  15.718  -5.501  1.00 20.00     0.144 C 
HETATM   11 CL11 UNL     1     -33.558  15.250  -7.151  1.00 20.00    -0.129 Cl
ENDBRANCH   9  10
ENDBRANCH   5   9
TORSDOF 3
ENDMDL
MODEL 3
REMARK VINA RESULT:      -4.4     11.433     12.571
REMARK  3 active torsions:
REMARK  status: ('A' for Active; 'I' for Inactive)
REMARK    1  A    between atoms: C4_4  and  C9_9 
REMARK    2  A    between atoms: C7_7  and  C8_8 
REMARK    3  A    between atoms: C7_7  and  N10_10 
ROOT
HETATM    1  C1  UNL     1     -33.925  17.318  -6.074  1.00 20.00     0.032 C 
HETATM    2  C2  UNL     1     -33.600  17.593  -4.609  1.00 20.00     0.038 C 
HETATM    3  C3  UNL     1     -34.268  15.839  -6.133  1.00 20.00     0.273 C 
HETATM    4  C4  UNL     1     -33.785  16.253  -3.895  1.00 20.00     0.226 C 
HETATM    5  N10 UNL     1     -34.727  15.545  -4.773  1.00 20.00     0.094 N 
ENDROOT
BRANCH   4   6
HETATM    6  C9  UNL     1     -34.304  16.436  -2.475  1.00 20.00     0.011 C 
HETATM    7  C5  UNL     1     -33.439  17.437  -1.709  1.00 20.00     0.011 C 
HETATM    8  C6  UNL     1     -35.763  16.890  -2.486  1.00 20.00     0.011 C 
ENDBRANCH   4   6
BRANCH   5   9
HETATM    9  C7  UNL     1     -34.780  14.109  -4.527  1.00 20.00     0.287 C 
BRANCH   9  10
HETATM   10  C8  UNL     1     -35.975  13.446  -5.189  1.00 20.00     0.144 C 
HETATM   11 CL11 UNL     1     -37.461  14.396  -4.944  1.00 20.00    -0.129 Cl
ENDBRANCH   9  10
ENDBRANCH   5   9
TORSDOF 3
ENDMDL
MODEL 4
REMARK VINA RESULT:      -4.4      1.133      2.517
REMARK  3 active torsions:
REMARK  status: ('A' for Active; 'I' for Inactive)
REMARK    1  A    between atoms: C4_4  and  C9_9 
REMARK    2  A    between atoms: C7_7  and  C8_8 
REMARK    3  A    between atoms: C7_7  and  N10_10 
ROOT
HETATM    1  C1  UNL     1     -33.269   7.968   6.005  1.00 20.00     0.032 C 
HETATM    2  C2  UNL     1     -33.768   6.547   5.761  1.00 20.00     0.038 C 
HETATM    3  C3  UNL     1     -32.553   8.362   4.724  1.00 20.00     0.273 C 
HETATM    4  C4  UNL     1     -33.320   6.200   4.340  1.00 20.00     0.226 C 
HETATM    5  N10 UNL     1     -33.190   7.520   3.709  1.00 20.00     0.094 N 
ENDROOT
BRANCH   4   6
HETATM    6  C9  UNL     1     -34.320   5.290   3.639  1.00 20.00     0.011 C 
HETATM    7  C5  UNL     1     -34.387   3.927   4.329  1.00 20.00     0.011 C 
HETATM    8  C6  UNL     1     -35.703   5.937   3.598  1.00 20.00     0.011 C 
ENDBRANCH   4   6
BRANCH   5   9
HETATM    9  C7  UNL     1     -32.416   7.496   2.473  1.00 20.00     0.287 C 
BRANCH   9  10
HETATM   10  C8  UNL     1     -31.802   8.846   2.143  1.00 20.00     0.144 C 
HETATM   11 CL11 UNL     1     -32.615   9.604   0.752  1.00 20.00    -0.129 Cl
ENDBRANCH   9  10
ENDBRANCH   5   9
TORSDOF 3
ENDMDL
MODEL 5
REMARK VINA RESULT:      -4.4     11.209     12.131
REMARK  3 active torsions:
REMARK  status: ('A' for Active; 'I' for Inactive)
REMARK    1  A    between atoms: C4_4  and  C9_9 
REMARK    2  A    between atoms: C7_7  and  C8_8 
REMARK    3  A    between atoms: C7_7  and  N10_10 
ROOT
HETATM    1  C1  UNL     1     -36.896  14.232  -4.970  1.00 20.00     0.032 C 
HETATM    2  C2  UNL     1     -35.415  13.903  -4.810  1.00 20.00     0.038 C 
HETATM    3  C3  UNL     1     -37.089  15.554  -4.246  1.00 20.00     0.273 C 
HETATM    4  C4  UNL     1     -34.827  15.065  -4.007  1.00 20.00     0.226 C 
HETATM    5  N10 UNL     1     -35.758  16.164  -4.297  1.00 20.00     0.094 N 
ENDROOT
BRANCH   4   6
HETATM    6  C9  UNL     1     -33.391  15.365  -4.416  1.00 20.00     0.011 C 
HETATM    7  C5  UNL     1     -32.503  14.138  -4.212  1.00 20.00     0.011 C 
HETATM    8  C6  UNL     1     -33.329  15.834  -5.869  1.00 20.00     0.011 C 
ENDBRANCH   4   6
BRANCH   5   9
HETATM    9  C7  UNL     1     -35.645  17.279  -3.365  1.00 20.00     0.287 C 
BRANCH   9  10
HETATM   10  C8  UNL     1     -35.583  16.825  -1.917  1.00 20.00     0.144 C 
HETATM   11 CL11 UNL     1     -34.021  17.245  -1.173  1.00 20.00    -0.129 Cl
ENDBRANCH   9  10
ENDBRANCH   5   9
TORSDOF 3
ENDMDL
MODEL 6
REMARK VINA RESULT:      -4.3     11.714     12.483
REMARK  3 active torsions:
REMARK  status: ('A' for Active; 'I' for Inactive)
REMARK    1  A    between atoms: C4_4  and  C9_9 
REMARK    2  A    between atoms: C7_7  and  C8_8 
REMARK    3  A    between atoms: C7_7  and  N10_10 
ROOT
HETATM    1  C1  UNL     1     -38.242  15.559  -4.407  1.00 20.00     0.032 C 
HETATM    2  C2  UNL     1     -36.948  16.246  -3.981  1.00 20.00     0.038 C 
HETATM    3  C3  UNL     1     -37.805  14.411  -5.302  1.00 20.00     0.273 C 
HETATM    4  C4  UNL     1     -35.827  15.447  -4.649  1.00 20.00     0.226 C 
HETATM    5  N10 UNL     1     -36.442  14.127  -4.846  1.00 20.00     0.094 N 
ENDROOT
BRANCH   4   6
HETATM    6  C9  UNL     1     -34.572  15.407  -3.787  1.00 20.00     0.011 C 
HETATM    7  C5  UNL     1     -33.341  15.789  -4.607  1.00 20.00     0.011 C 
HETATM    8  C6  UNL     1     -34.717  16.330  -2.578  1.00 20.00     0.011 C 
ENDBRANCH   4   6
BRANCH   5   9
HETATM    9  C7  UNL     1     -35.723  13.291  -5.799  1.00 20.00     0.287 C 
BRANCH   9  10
HETATM   10  C8  UNL     1     -35.751  13.856  -7.209  1.00 20.00     0.144 C 
HETATM   11 CL11 UNL     1     -34.107  14.048  -7.863  1.00 20.00    -0.129 Cl
ENDBRANCH   9  10
ENDBRANCH   5   9
TORSDOF 3
ENDMDL
MODEL 7
REMARK VINA RESULT:      -4.3     11.527     12.872
REMARK  3 active torsions:
REMARK  status: ('A' for Active; 'I' for Inactive)
REMARK    1  A    between atoms: C4_4  and  C9_9 
REMARK    2  A    between atoms: C7_7  and  C8_8 
REMARK    3  A    between atoms: C7_7  and  N10_10 
ROOT
HETATM    1  C1  UNL     1     -36.248  18.268  -4.705  1.00 20.00     0.032 C 
HETATM    2  C2  UNL     1     -35.613  18.475  -3.334  1.00 20.00     0.038 C 
HETATM    3  C3  UNL     1     -35.235  17.457  -5.493  1.00 20.00     0.273 C 
HETATM    4  C4  UNL     1     -34.263  17.759  -3.401  1.00 20.00     0.226 C 
HETATM    5  N10 UNL     1     -34.480  16.755  -4.451  1.00 20.00     0.094 N 
ENDROOT
BRANCH   4   6
HETATM    6  C9  UNL     1     -33.876  17.155  -2.058  1.00 20.00     0.011 C 
HETATM    7  C5  UNL     1     -32.833  18.023  -1.355  1.00 20.00     0.011 C 
HETATM    8  C6  UNL     1     -35.108  16.977  -1.171  1.00 20.00     0.011 C 
ENDBRANCH   4   6
BRANCH   5   9
HETATM    9  C7  UNL     1     -33.244  16.190  -4.976  1.00 20.00     0.287 C 
BRANCH   9  10
HETATM   10  C8  UNL     1     -33.119  14.701  -4.704  1.00 20.00     0.144 C 
HETATM   11 CL11 UNL     1     -34.629  14.036  -4.033  1.00 20.00    -0.129 Cl
ENDBRANCH   9  10
ENDBRANCH   5   9
TORSDOF 3
ENDMDL
MODEL 8
REMARK VINA RESULT:      -4.3     11.220     12.582
REMARK  3 active torsions:
REMARK  status: ('A' for Active; 'I' for Inactive)
REMARK    1  A    between atoms: C4_4  and  C9_9 
REMARK    2  A    between atoms: C7_7  and  C8_8 
REMARK    3  A    between atoms: C7_7  and  N10_10 
ROOT
HETATM    1  C1  UNL     1     -34.687  17.039  -1.504  1.00 20.00     0.032 C 
HETATM    2  C2  UNL     1     -33.821  16.605  -2.683  1.00 20.00     0.038 C 
HETATM    3  C3  UNL     1     -36.084  17.202  -2.077  1.00 20.00     0.273 C 
HETATM    4  C4  UNL     1     -34.774  16.531  -3.878  1.00 20.00     0.226 C 
HETATM    5  N10 UNL     1     -36.079  16.311  -3.240  1.00 20.00     0.094 N 
ENDROOT
BRANCH   4   6
HETATM    6  C9  UNL     1     -34.379  15.423  -4.847  1.00 20.00     0.011 C 
HETATM    7  C5  UNL     1     -33.003  15.698  -5.450  1.00 20.00     0.011 C 
HETATM    8  C6  UNL     1     -34.396  14.064  -4.149  1.00 20.00     0.011 C 
ENDBRANCH   4   6
BRANCH   5   9
HETATM    9  C7  UNL     1     -37.207  16.579  -4.124  1.00 20.00     0.287 C 
BRANCH   9  10
HETATM   10  C8  UNL     1     -38.086  15.359  -4.336  1.00 20.00     0.144 C 
HETATM   11 CL11 UNL     1     -37.673  14.518  -5.850  1.00 20.00    -0.129 Cl
ENDBRANCH   9  10
ENDBRANCH   5   9
TORSDOF 3
ENDMDL
MODEL 9
REMARK VINA RESULT:      -4.2     11.758     12.410
REMARK  3 active torsions:
REMARK  status: ('A' for Active; 'I' for Inactive)
REMARK    1  A    between atoms: C4_4  and  C9_9 
REMARK    2  A    between atoms: C7_7  and  C8_8 
REMARK    3  A    between atoms: C7_7  and  N10_10 
ROOT
HETATM    1  C1  UNL     1     -33.033  15.572  -5.298  1.00 20.00     0.032 C 
HETATM    2  C2  UNL     1     -33.511  16.161  -3.974  1.00 20.00     0.038 C 
HETATM    3  C3  UNL     1     -34.083  14.542  -5.676  1.00 20.00     0.273 C 
HETATM    4  C4  UNL     1     -34.825  15.442  -3.663  1.00 20.00     0.226 C 
HETATM    5  N10 UNL     1     -35.288  15.021  -4.992  1.00 20.00     0.094 N 
ENDROOT
BRANCH   4   6
HETATM    6  C9  UNL     1     -35.809  16.352  -2.940  1.00 20.00     0.011 C 
HETATM    7  C5  UNL     1     -35.256  16.773  -1.578  1.00 20.00     0.011 C 
HETATM    8  C6  UNL     1     -36.132  17.581  -3.788  1.00 20.00     0.011 C 
ENDBRANCH   4   6
BRANCH   5   9
HETATM    9  C7  UNL     1     -36.320  13.993  -4.946  1.00 20.00     0.287 C 
BRANCH   9  10
HETATM   10  C8  UNL     1     -37.606  14.426  -5.628  1.00 20.00     0.144 C 
HETATM   11 CL11 UNL     1     -37.327  15.801  -6.725  1.00 20.00    -0.129 Cl
ENDBRANCH   9  10
ENDBRANCH   5   9
TORSDOF 3
ENDMDL
