MODEL 1
REMARK VINA RESULT:      -4.8      0.000      0.000
REMARK  1 active torsions:
REMARK  status: ('A' for Active; 'I' for Inactive)
REMARK    1  A    between atoms: C3_3  and  C6_6 
ROOT
HETATM    1  C1  UNL     1     -32.404   9.108   1.341  1.00 20.00     0.087 C 
HETATM    2  C5  UNL     1     -32.828   7.865   1.885  1.00 20.00     0.095 C 
HETATM    3  C6  UNL     1     -33.196   7.699   3.204  1.00 20.00     0.032 C 
HETATM    4  N8  UNL     1     -32.058  10.121   0.892  1.00 20.00    -0.192 NA
ENDROOT
BRANCH   3   5
HETATM    5  C3  UNL     1     -33.619   6.508   3.828  1.00 20.00     0.031 A 
HETATM    6  C4  UNL     1     -33.996   6.270   5.132  1.00 20.00     0.048 A 
HETATM    7  C7  UNL     1     -34.043   7.265   6.225  1.00 20.00     0.072 C 
HETATM    8  N9  UNL     1     -34.360   4.971   5.428  1.00 20.00    -0.258 NA
HETATM    9  C2  UNL     1     -34.254   4.242   4.339  1.00 20.00     0.167 A 
HETATM   10  S10 UNL     1     -33.720   5.054   2.925  1.00 20.00    -0.081 SA
ENDBRANCH   3   5
TORSDOF 1
ENDMDL
MODEL 2
REMARK VINA RESULT:      -4.6      1.464      2.070
REMARK  1 active torsions:
REMARK  status: ('A' for Active; 'I' for Inactive)
REMARK    1  A    between atoms: C3_3  and  C6_6 
ROOT
HETATM    1  C1  UNL     1     -32.230   8.972   1.792  1.00 20.00     0.087 C 
HETATM    2  C5  UNL     1     -32.406   7.803   2.581  1.00 20.00     0.095 C 
HETATM    3  C6  UNL     1     -33.626   7.406   3.088  1.00 20.00     0.032 C 
HETATM    4  N8  UNL     1     -32.081   9.924   1.146  1.00 20.00    -0.192 NA
ENDROOT
BRANCH   3   5
HETATM    5  C3  UNL     1     -33.891   6.273   3.884  1.00 20.00     0.031 A 
HETATM    6  C4  UNL     1     -33.800   4.931   3.583  1.00 20.00     0.048 A 
HETATM    7  C7  UNL     1     -33.381   4.350   2.289  1.00 20.00     0.072 C 
HETATM    8  N9  UNL     1     -34.136   4.060   4.601  1.00 20.00    -0.258 NA
HETATM    9  C2  UNL     1     -34.478   4.758   5.661  1.00 20.00     0.167 A 
HETATM   10  S10 UNL     1     -34.419   6.465   5.504  1.00 20.00    -0.081 SA
ENDBRANCH   3   5
TORSDOF 1
ENDMDL
MODEL 3
REMARK VINA RESULT:      -4.1     11.074     11.786
REMARK  1 active torsions:
REMARK  status: ('A' for Active; 'I' for Inactive)
REMARK    1  A    between atoms: C3_3  and  C6_6 
ROOT
HETATM    1  C1  UNL     1     -32.990  18.130  -1.381  1.00 20.00     0.087 C 
HETATM    2  C5  UNL     1     -33.698  17.007  -1.892  1.00 20.00     0.095 C 
HETATM    3  C6  UNL     1     -33.872  16.768  -3.239  1.00 20.00     0.032 C 
HETATM    4  N8  UNL     1     -32.412  19.042  -0.959  1.00 20.00    -0.192 NA
ENDROOT
BRANCH   3   5
HETATM    5  C3  UNL     1     -34.564  15.693  -3.832  1.00 20.00     0.031 A 
HETATM    6  C4  UNL     1     -34.103  14.470  -4.271  1.00 20.00     0.048 A 
HETATM    7  C7  UNL     1     -32.706  13.988  -4.213  1.00 20.00     0.072 C 
HETATM    8  N9  UNL     1     -35.053  13.626  -4.814  1.00 20.00    -0.258 NA
HETATM    9  C2  UNL     1     -36.223  14.225  -4.778  1.00 20.00     0.167 A 
HETATM   10  S10 UNL     1     -36.253  15.804  -4.106  1.00 20.00    -0.081 SA
ENDBRANCH   3   5
TORSDOF 1
ENDMDL
MODEL 4
REMARK VINA RESULT:      -4.0     11.169     11.701
REMARK  1 active torsions:
REMARK  status: ('A' for Active; 'I' for Inactive)
REMARK    1  A    between atoms: C3_3  and  C6_6 
ROOT
HETATM    1  C1  UNL     1     -34.651  17.714  -0.727  1.00 20.00     0.087 C 
HETATM    2  C5  UNL     1     -35.140  16.685  -1.578  1.00 20.00     0.095 C 
HETATM    3  C6  UNL     1     -34.613  16.416  -2.823  1.00 20.00     0.032 C 
HETATM    4  N8  UNL     1     -34.256  18.552  -0.028  1.00 20.00    -0.192 NA
ENDROOT
BRANCH   3   5
HETATM    5  C3  UNL     1     -35.038  15.428  -3.734  1.00 20.00     0.031 A 
HETATM    6  C4  UNL     1     -34.322  14.442  -4.378  1.00 20.00     0.048 A 
HETATM    7  C7  UNL     1     -32.870  14.188  -4.250  1.00 20.00     0.072 C 
HETATM    8  N9  UNL     1     -35.047  13.621  -5.220  1.00 20.00    -0.258 NA
HETATM    9  C2  UNL     1     -36.306  13.999  -5.202  1.00 20.00     0.167 A 
HETATM   10  S10 UNL     1     -36.687  15.335  -4.194  1.00 20.00    -0.081 SA
ENDBRANCH   3   5
TORSDOF 1
ENDMDL
MODEL 5
REMARK VINA RESULT:      -3.9     11.579     11.977
REMARK  1 active torsions:
REMARK  status: ('A' for Active; 'I' for Inactive)
REMARK    1  A    between atoms: C3_3  and  C6_6 
ROOT
HETATM    1  C1  UNL     1     -32.937  17.881  -1.386  1.00 20.00     0.087 C 
HETATM    2  C5  UNL     1     -33.922  16.989  -1.892  1.00 20.00     0.095 C 
HETATM    3  C6  UNL     1     -33.996  16.613  -3.217  1.00 20.00     0.032 C 
HETATM    4  N8  UNL     1     -32.134  18.607  -0.968  1.00 20.00    -0.192 NA
ENDROOT
BRANCH   3   5
HETATM    5  C3  UNL     1     -34.939  15.746  -3.806  1.00 20.00     0.031 A 
HETATM    6  C4  UNL     1     -36.295  15.901  -3.995  1.00 20.00     0.048 A 
HETATM    7  C7  UNL     1     -37.106  17.074  -3.602  1.00 20.00     0.072 C 
HETATM    8  N9  UNL     1     -36.943  14.849  -4.613  1.00 20.00    -0.258 NA
HETATM    9  C2  UNL     1     -36.064  13.909  -4.883  1.00 20.00     0.167 A 
HETATM   10  S10 UNL     1     -34.442  14.224  -4.421  1.00 20.00    -0.081 SA
ENDBRANCH   3   5
TORSDOF 1
ENDMDL
MODEL 6
REMARK VINA RESULT:      -3.9     11.517     12.565
REMARK  1 active torsions:
REMARK  status: ('A' for Active; 'I' for Inactive)
REMARK    1  A    between atoms: C3_3  and  C6_6 
ROOT
HETATM    1  C1  UNL     1     -35.337  13.745  -4.760  1.00 20.00     0.087 C 
HETATM    2  C5  UNL     1     -34.616  14.822  -4.175  1.00 20.00     0.095 C 
HETATM    3  C6  UNL     1     -35.181  16.048  -3.890  1.00 20.00     0.032 C 
HETATM    4  N8  UNL     1     -35.921  12.863  -5.236  1.00 20.00    -0.192 NA
ENDROOT
BRANCH   3   5
HETATM    5  C3  UNL     1     -34.544  17.169  -3.322  1.00 20.00     0.031 A 
HETATM    6  C4  UNL     1     -34.574  17.654  -2.033  1.00 20.00     0.048 A 
HETATM    7  C7  UNL     1     -35.323  17.074  -0.897  1.00 20.00     0.072 C 
HETATM    8  N9  UNL     1     -33.828  18.793  -1.797  1.00 20.00    -0.258 NA
HETATM    9  C2  UNL     1     -33.241  19.154  -2.917  1.00 20.00     0.167 A 
HETATM   10  S10 UNL     1     -33.544  18.171  -4.290  1.00 20.00    -0.081 SA
ENDBRANCH   3   5
TORSDOF 1
ENDMDL
MODEL 7
REMARK VINA RESULT:      -3.8     11.585     12.438
REMARK  1 active torsions:
REMARK  status: ('A' for Active; 'I' for Inactive)
REMARK    1  A    between atoms: C3_3  and  C6_6 
ROOT
HETATM    1  C1  UNL     1     -35.117  17.027  -1.128  1.00 20.00     0.087 C 
HETATM    2  C5  UNL     1     -34.547  16.720  -2.394  1.00 20.00     0.095 C 
HETATM    3  C6  UNL     1     -35.181  15.947  -3.345  1.00 20.00     0.032 C 
HETATM    4  N8  UNL     1     -35.579  17.282  -0.095  1.00 20.00    -0.192 NA
ENDROOT
BRANCH   3   5
HETATM    5  C3  UNL     1     -34.689  15.586  -4.615  1.00 20.00     0.031 A 
HETATM    6  C4  UNL     1     -35.016  14.521  -5.428  1.00 20.00     0.048 A 
HETATM    7  C7  UNL     1     -36.008  13.465  -5.131  1.00 20.00     0.072 C 
HETATM    8  N9  UNL     1     -34.341  14.450  -6.631  1.00 20.00    -0.258 NA
HETATM    9  C2  UNL     1     -33.510  15.466  -6.712  1.00 20.00     0.167 A 
HETATM   10  S10 UNL     1     -33.488  16.544  -5.377  1.00 20.00    -0.081 SA
ENDBRANCH   3   5
TORSDOF 1
ENDMDL
MODEL 8
REMARK VINA RESULT:      -3.7     11.409     12.661
REMARK  1 active torsions:
REMARK  status: ('A' for Active; 'I' for Inactive)
REMARK    1  A    between atoms: C3_3  and  C6_6 
ROOT
HETATM    1  C1  UNL     1     -35.490  17.292  -0.318  1.00 20.00     0.087 C 
HETATM    2  C5  UNL     1     -35.361  16.958  -1.694  1.00 20.00     0.095 C 
HETATM    3  C6  UNL     1     -34.155  16.654  -2.291  1.00 20.00     0.032 C 
HETATM    4  N8  UNL     1     -35.602  17.564   0.804  1.00 20.00    -0.192 NA
ENDROOT
BRANCH   3   5
HETATM    5  C3  UNL     1     -33.933  16.323  -3.644  1.00 20.00     0.031 A 
HETATM    6  C4  UNL     1     -33.598  17.124  -4.714  1.00 20.00     0.048 A 
HETATM    7  C7  UNL     1     -33.385  18.587  -4.681  1.00 20.00     0.072 C 
HETATM    8  N9  UNL     1     -33.451  16.480  -5.927  1.00 20.00    -0.258 NA
HETATM    9  C2  UNL     1     -33.678  15.196  -5.757  1.00 20.00     0.167 A 
HETATM   10  S10 UNL     1     -34.074  14.695  -4.164  1.00 20.00    -0.081 SA
ENDBRANCH   3   5
TORSDOF 1
ENDMDL
MODEL 9
REMARK VINA RESULT:      -3.7     11.604     11.942
REMARK  1 active torsions:
REMARK  status: ('A' for Active; 'I' for Inactive)
REMARK    1  A    between atoms: C3_3  and  C6_6 
ROOT
HETATM    1  C1  UNL     1     -35.209  15.412  -3.775  1.00 20.00     0.087 C 
HETATM    2  C5  UNL     1     -34.429  16.150  -2.842  1.00 20.00     0.095 C 
HETATM    3  C6  UNL     1     -34.973  16.872  -1.801  1.00 20.00     0.032 C 
HETATM    4  N8  UNL     1     -35.840  14.807  -4.537  1.00 20.00    -0.192 NA
ENDROOT
BRANCH   3   5
HETATM    5  C3  UNL     1     -34.281  17.636  -0.840  1.00 20.00     0.031 A 
HETATM    6  C4  UNL     1     -34.646  18.006   0.437  1.00 20.00     0.048 A 
HETATM    7  C7  UNL     1     -35.914  17.663   1.119  1.00 20.00     0.072 C 
HETATM    8  N9  UNL     1     -33.728  18.769   1.131  1.00 20.00    -0.258 NA
HETATM    9  C2  UNL     1     -32.677  18.967   0.366  1.00 20.00     0.167 A 
HETATM   10  S10 UNL     1     -32.727  18.265  -1.199  1.00 20.00    -0.081 SA
ENDBRANCH   3   5
TORSDOF 1
ENDMDL
