MODEL 1
REMARK VINA RESULT:      -4.7      0.000      0.000
REMARK  0 active torsions:
REMARK  status: ('A' for Active; 'I' for Inactive)
ROOT
HETATM    1  C1  UNL     1     -34.544  15.844  -3.281  1.00 20.00     0.002 C 
HETATM    2  C2  UNL     1     -34.464  14.436  -3.923  1.00 20.00     0.015 C 
HETATM    3  C3  UNL     1     -36.004  15.929  -3.793  1.00 20.00     0.015 C 
HETATM    4  C4  UNL     1     -35.907  13.832  -7.918  1.00 20.00     0.036 C 
HETATM    5  C5  UNL     1     -34.426  13.678  -7.593  1.00 20.00     0.168 C 
HETATM    6  C6  UNL     1     -36.508  14.568  -6.723  1.00 20.00     0.050 C 
HETATM    7  C7  UNL     1     -36.569  13.831  -5.346  1.00 20.00     0.178 C 
HETATM    8  C8  UNL     1     -35.280  15.370  -6.213  1.00 20.00     0.139 C 
HETATM    9  C9  UNL     1     -35.612  14.872  -4.813  1.00 20.00     0.016 C 
HETATM   10  O10 UNL     1     -37.860  13.845  -4.798  1.00 20.00    -0.234 OA
HETATM   11  O11 UNL     1     -34.089  14.863  -6.864  1.00 20.00    -0.385 OA
ENDROOT
TORSDOF 0
ENDMDL
MODEL 2
REMARK VINA RESULT:      -4.6     11.606     13.010
REMARK  0 active torsions:
REMARK  status: ('A' for Active; 'I' for Inactive)
ROOT
HETATM    1  C1  UNL     1     -32.539   8.157   2.060  1.00 20.00     0.002 C 
HETATM    2  C2  UNL     1     -31.990   7.103   3.054  1.00 20.00     0.015 C 
HETATM    3  C3  UNL     1     -33.610   8.515   3.123  1.00 20.00     0.015 C 
HETATM    4  C4  UNL     1     -34.704   4.462   5.071  1.00 20.00     0.036 C 
HETATM    5  C5  UNL     1     -33.692   3.921   4.068  1.00 20.00     0.168 C 
HETATM    6  C6  UNL     1     -34.746   5.968   4.830  1.00 20.00     0.050 C 
HETATM    7  C7  UNL     1     -33.481   6.816   5.181  1.00 20.00     0.178 C 
HETATM    8  C8  UNL     1     -34.355   6.046   3.329  1.00 20.00     0.139 C 
HETATM    9  C9  UNL     1     -33.359   7.134   3.708  1.00 20.00     0.016 C 
HETATM   10  O10 UNL     1     -33.787   7.899   6.019  1.00 20.00    -0.234 OA
HETATM   11  O11 UNL     1     -33.845   4.755   2.914  1.00 20.00    -0.385 OA
ENDROOT
TORSDOF 0
ENDMDL
MODEL 3
REMARK VINA RESULT:      -4.5      1.593      2.826
REMARK  0 active torsions:
REMARK  status: ('A' for Active; 'I' for Inactive)
ROOT
HETATM    1  C1  UNL     1     -34.881  16.435  -2.101  1.00 20.00     0.002 C 
HETATM    2  C2  UNL     1     -35.826  16.250  -3.315  1.00 20.00     0.015 C 
HETATM    3  C3  UNL     1     -33.740  16.725  -3.109  1.00 20.00     0.015 C 
HETATM    4  C4  UNL     1     -34.568  13.858  -6.647  1.00 20.00     0.036 C 
HETATM    5  C5  UNL     1     -35.740  13.423  -5.774  1.00 20.00     0.168 C 
HETATM    6  C6  UNL     1     -33.850  14.941  -5.848  1.00 20.00     0.050 C 
HETATM    7  C7  UNL     1     -34.579  16.303  -5.610  1.00 20.00     0.178 C 
HETATM    8  C8  UNL     1     -34.199  14.526  -4.393  1.00 20.00     0.139 C 
HETATM    9  C9  UNL     1     -34.579  15.978  -4.134  1.00 20.00     0.016 C 
HETATM   10  O10 UNL     1     -33.793  17.398  -5.998  1.00 20.00    -0.234 OA
HETATM   11  O11 UNL     1     -35.252  13.531  -4.432  1.00 20.00    -0.385 OA
ENDROOT
TORSDOF 0
ENDMDL
MODEL 4
REMARK VINA RESULT:      -4.5      1.691      4.036
REMARK  0 active torsions:
REMARK  status: ('A' for Active; 'I' for Inactive)
ROOT
HETATM    1  C1  UNL     1     -35.817  13.729  -6.819  1.00 20.00     0.002 C 
HETATM    2  C2  UNL     1     -35.980  13.595  -5.285  1.00 20.00     0.015 C 
HETATM    3  C3  UNL     1     -34.309  13.994  -6.576  1.00 20.00     0.015 C 
HETATM    4  C4  UNL     1     -34.189  16.505  -2.690  1.00 20.00     0.036 C 
HETATM    5  C5  UNL     1     -35.705  16.369  -2.780  1.00 20.00     0.168 C 
HETATM    6  C6  UNL     1     -33.645  15.756  -3.903  1.00 20.00     0.050 C 
HETATM    7  C7  UNL     1     -33.812  14.203  -3.960  1.00 20.00     0.178 C 
HETATM    8  C8  UNL     1     -34.825  15.898  -4.902  1.00 20.00     0.139 C 
HETATM    9  C9  UNL     1     -34.702  14.403  -5.166  1.00 20.00     0.016 C 
HETATM   10  O10 UNL     1     -32.594  13.549  -4.197  1.00 20.00    -0.234 OA
HETATM   11  O11 UNL     1     -35.987  16.381  -4.184  1.00 20.00    -0.385 OA
ENDROOT
TORSDOF 0
ENDMDL
MODEL 5
REMARK VINA RESULT:      -4.3      1.747      2.849
REMARK  0 active torsions:
REMARK  status: ('A' for Active; 'I' for Inactive)
ROOT
HETATM    1  C1  UNL     1     -33.707  17.747  -3.645  1.00 20.00     0.002 C 
HETATM    2  C2  UNL     1     -33.647  17.038  -5.021  1.00 20.00     0.015 C 
HETATM    3  C3  UNL     1     -33.556  16.353  -2.985  1.00 20.00     0.015 C 
HETATM    4  C4  UNL     1     -36.002  13.518  -5.705  1.00 20.00     0.036 C 
HETATM    5  C5  UNL     1     -36.283  14.804  -6.474  1.00 20.00     0.168 C 
HETATM    6  C6  UNL     1     -35.114  13.932  -4.536  1.00 20.00     0.050 C 
HETATM    7  C7  UNL     1     -33.665  14.432  -4.839  1.00 20.00     0.178 C 
HETATM    8  C8  UNL     1     -35.555  15.406  -4.327  1.00 20.00     0.139 C 
HETATM    9  C9  UNL     1     -34.079  15.779  -4.293  1.00 20.00     0.016 C 
HETATM   10  O10 UNL     1     -32.700  13.737  -4.094  1.00 20.00    -0.234 OA
HETATM   11  O11 UNL     1     -36.348  15.820  -5.467  1.00 20.00    -0.385 OA
ENDROOT
TORSDOF 0
ENDMDL
MODEL 6
REMARK VINA RESULT:      -4.2      1.628      3.237
REMARK  0 active torsions:
REMARK  status: ('A' for Active; 'I' for Inactive)
ROOT
HETATM    1  C1  UNL     1     -37.297  15.804  -7.578  1.00 20.00     0.002 C 
HETATM    2  C2  UNL     1     -36.984  15.971  -6.070  1.00 20.00     0.015 C 
HETATM    3  C3  UNL     1     -36.623  14.410  -7.503  1.00 20.00     0.015 C 
HETATM    4  C4  UNL     1     -33.078  14.996  -4.585  1.00 20.00     0.036 C 
HETATM    5  C5  UNL     1     -33.588  16.433  -4.554  1.00 20.00     0.168 C 
HETATM    6  C6  UNL     1     -34.015  14.257  -5.536  1.00 20.00     0.050 C 
HETATM    7  C7  UNL     1     -35.503  14.047  -5.105  1.00 20.00     0.178 C 
HETATM    8  C8  UNL     1     -34.472  15.410  -6.470  1.00 20.00     0.139 C 
HETATM    9  C9  UNL     1     -35.902  14.926  -6.268  1.00 20.00     0.016 C 
HETATM   10  O10 UNL     1     -35.893  12.702  -5.191  1.00 20.00    -0.234 OA
HETATM   11  O11 UNL     1     -34.078  16.673  -5.877  1.00 20.00    -0.385 OA
ENDROOT
TORSDOF 0
ENDMDL
MODEL 7
REMARK VINA RESULT:      -4.2      1.798      2.644
REMARK  0 active torsions:
REMARK  status: ('A' for Active; 'I' for Inactive)
ROOT
HETATM    1  C1  UNL     1     -33.236  15.769  -4.826  1.00 20.00     0.002 C 
HETATM    2  C2  UNL     1     -34.133  15.567  -6.073  1.00 20.00     0.015 C 
HETATM    3  C3  UNL     1     -34.031  14.628  -4.142  1.00 20.00     0.015 C 
HETATM    4  C4  UNL     1     -38.384  15.216  -5.603  1.00 20.00     0.036 C 
HETATM    5  C5  UNL     1     -37.776  16.407  -6.335  1.00 20.00     0.168 C 
HETATM    6  C6  UNL     1     -37.223  14.572  -4.849  1.00 20.00     0.050 C 
HETATM    7  C7  UNL     1     -36.089  13.881  -5.673  1.00 20.00     0.178 C 
HETATM    8  C8  UNL     1     -36.290  15.793  -4.629  1.00 20.00     0.139 C 
HETATM    9  C9  UNL     1     -35.142  14.929  -5.136  1.00 20.00     0.016 C 
HETATM   10  O10 UNL     1     -35.854  12.565  -5.248  1.00 20.00    -0.234 OA
HETATM   11  O11 UNL     1     -36.751  16.887  -5.458  1.00 20.00    -0.385 OA
ENDROOT
TORSDOF 0
ENDMDL
MODEL 8
REMARK VINA RESULT:      -4.2     11.390     12.807
REMARK  0 active torsions:
REMARK  status: ('A' for Active; 'I' for Inactive)
ROOT
HETATM    1  C1  UNL     1     -35.131   4.604   4.284  1.00 20.00     0.002 C 
HETATM    2  C2  UNL     1     -35.344   6.077   3.854  1.00 20.00     0.015 C 
HETATM    3  C3  UNL     1     -34.048   5.111   5.272  1.00 20.00     0.015 C 
HETATM    4  C4  UNL     1     -31.948   8.561   3.012  1.00 20.00     0.036 C 
HETATM    5  C5  UNL     1     -32.930   8.183   1.909  1.00 20.00     0.168 C 
HETATM    6  C6  UNL     1     -32.240   7.597   4.159  1.00 20.00     0.050 C 
HETATM    7  C7  UNL     1     -33.606   7.720   4.908  1.00 20.00     0.178 C 
HETATM    8  C8  UNL     1     -32.797   6.370   3.389  1.00 20.00     0.139 C 
HETATM    9  C9  UNL     1     -33.948   6.343   4.387  1.00 20.00     0.016 C 
HETATM   10  O10 UNL     1     -33.439   7.827   6.296  1.00 20.00    -0.234 OA
HETATM   11  O11 UNL     1     -33.075   6.763   2.022  1.00 20.00    -0.385 OA
ENDROOT
TORSDOF 0
ENDMDL
MODEL 9
REMARK VINA RESULT:      -4.1      1.537      2.150
REMARK  0 active torsions:
REMARK  status: ('A' for Active; 'I' for Inactive)
ROOT
HETATM    1  C1  UNL     1     -37.845  16.067  -4.166  1.00 20.00     0.002 C 
HETATM    2  C2  UNL     1     -36.313  15.888  -4.022  1.00 20.00     0.015 C 
HETATM    3  C3  UNL     1     -37.866  14.740  -4.967  1.00 20.00     0.015 C 
HETATM    4  C4  UNL     1     -33.963  14.832  -7.453  1.00 20.00     0.036 C 
HETATM    5  C5  UNL     1     -33.785  16.185  -6.773  1.00 20.00     0.168 C 
HETATM    6  C6  UNL     1     -35.284  14.284  -6.922  1.00 20.00     0.050 C 
HETATM    7  C7  UNL     1     -35.374  13.885  -5.413  1.00 20.00     0.178 C 
HETATM    8  C8  UNL     1     -36.048  15.596  -6.597  1.00 20.00     0.139 C 
HETATM    9  C9  UNL     1     -36.391  14.990  -5.243  1.00 20.00     0.016 C 
HETATM   10  O10 UNL     1     -35.853  12.578  -5.240  1.00 20.00    -0.234 OA
HETATM   11  O11 UNL     1     -35.114  16.703  -6.644  1.00 20.00    -0.385 OA
ENDROOT
TORSDOF 0
ENDMDL
