MODEL 1
REMARK VINA RESULT:      -5.3      0.000      0.000
REMARK  2 active torsions:
REMARK  status: ('A' for Active; 'I' for Inactive)
REMARK    1  A    between atoms: C1_1  and  C7_7 
REMARK    2  A    between atoms: C3_3  and  C7_7 
ROOT
HETATM    1  C2  UNL     1     -35.332   6.017   3.485  1.00 20.00     0.015 A 
HETATM    2  C3  UNL     1     -33.848   6.263   3.440  1.00 20.00     0.004 A 
HETATM    3  C4  UNL     1     -34.437   5.366   4.517  1.00 20.00    -0.043 A 
HETATM    4  C5  UNL     1     -34.180   3.886   4.394  1.00 20.00     0.015 C 
HETATM    5  C6  UNL     1     -34.526   5.853   5.939  1.00 20.00     0.015 C 
ENDROOT
BRANCH   2   6
HETATM    6  C7  UNL     1     -33.301   7.618   3.733  1.00 20.00     0.118 C 
BRANCH   6   7
HETATM    7  C1  UNL     1     -32.196   8.125   2.784  1.00 20.00     0.172 C 
HETATM    8  O8  UNL     1     -32.548   8.326   1.589  1.00 20.00    -0.648 OA
HETATM    9  O9  UNL     1     -31.061   8.281   3.321  1.00 20.00    -0.648 OA
ENDBRANCH   6   7
ENDBRANCH   2   6
TORSDOF 2
ENDMDL
MODEL 2
REMARK VINA RESULT:      -5.1      2.744      3.961
REMARK  2 active torsions:
REMARK  status: ('A' for Active; 'I' for Inactive)
REMARK    1  A    between atoms: C1_1  and  C7_7 
REMARK    2  A    between atoms: C3_3  and  C7_7 
ROOT
HETATM    1  C2  UNL     1     -32.659   5.804   2.863  1.00 20.00     0.015 A 
HETATM    2  C3  UNL     1     -34.072   6.321   2.814  1.00 20.00     0.004 A 
HETATM    3  C4  UNL     1     -32.924   7.274   3.112  1.00 20.00    -0.043 A 
HETATM    4  C5  UNL     1     -32.544   8.250   2.029  1.00 20.00     0.015 C 
HETATM    5  C6  UNL     1     -32.725   7.802   4.507  1.00 20.00     0.015 C 
ENDROOT
BRANCH   2   6
HETATM    6  C7  UNL     1     -35.062   5.907   3.848  1.00 20.00     0.118 C 
BRANCH   6   7
HETATM    7  C1  UNL     1     -34.622   4.772   4.796  1.00 20.00     0.172 C 
HETATM    8  O8  UNL     1     -34.446   3.645   4.258  1.00 20.00    -0.648 OA
HETATM    9  O9  UNL     1     -34.488   5.111   6.008  1.00 20.00    -0.648 OA
ENDBRANCH   6   7
ENDBRANCH   2   6
TORSDOF 2
ENDMDL
MODEL 3
REMARK VINA RESULT:      -5.1      2.439      4.806
REMARK  2 active torsions:
REMARK  status: ('A' for Active; 'I' for Inactive)
REMARK    1  A    between atoms: C1_1  and  C7_7 
REMARK    2  A    between atoms: C3_3  and  C7_7 
ROOT
HETATM    1  C2  UNL     1     -31.169   8.780   0.776  1.00 20.00     0.015 A 
HETATM    2  C3  UNL     1     -32.323   8.145   1.504  1.00 20.00     0.004 A 
HETATM    3  C4  UNL     1     -32.525   9.453   0.755  1.00 20.00    -0.043 A 
HETATM    4  C5  UNL     1     -33.318   9.396  -0.526  1.00 20.00     0.015 C 
HETATM    5  C6  UNL     1     -32.687  10.741   1.517  1.00 20.00     0.015 C 
ENDROOT
BRANCH   2   6
HETATM    6  C7  UNL     1     -32.322   8.062   2.991  1.00 20.00     0.118 C 
BRANCH   6   7
HETATM    7  C1  UNL     1     -33.309   7.056   3.618  1.00 20.00     0.172 C 
HETATM    8  O8  UNL     1     -33.611   7.263   4.826  1.00 20.00    -0.648 OA
HETATM    9  O9  UNL     1     -33.700   6.137   2.841  1.00 20.00    -0.648 OA
ENDBRANCH   6   7
ENDBRANCH   2   6
TORSDOF 2
ENDMDL
MODEL 4
REMARK VINA RESULT:      -4.9      2.618      4.253
REMARK  2 active torsions:
REMARK  status: ('A' for Active; 'I' for Inactive)
REMARK    1  A    between atoms: C1_1  and  C7_7 
REMARK    2  A    between atoms: C3_3  and  C7_7 
ROOT
HETATM    1  C2  UNL     1     -32.618   6.532   2.464  1.00 20.00     0.015 A 
HETATM    2  C3  UNL     1     -33.613   7.348   3.244  1.00 20.00     0.004 A 
HETATM    3  C4  UNL     1     -32.323   7.988   2.757  1.00 20.00    -0.043 A 
HETATM    4  C5  UNL     1     -32.431   8.970   1.619  1.00 20.00     0.015 C 
HETATM    5  C6  UNL     1     -31.221   8.304   3.733  1.00 20.00     0.015 C 
ENDROOT
BRANCH   2   6
HETATM    6  C7  UNL     1     -33.870   7.050   4.681  1.00 20.00     0.118 C 
BRANCH   6   7
HETATM    7  C1  UNL     1     -34.691   5.778   4.977  1.00 20.00     0.172 C 
HETATM    8  O8  UNL     1     -34.401   5.174   6.046  1.00 20.00    -0.648 OA
HETATM    9  O9  UNL     1     -35.562   5.490   4.106  1.00 20.00    -0.648 OA
ENDBRANCH   6   7
ENDBRANCH   2   6
TORSDOF 2
ENDMDL
MODEL 5
REMARK VINA RESULT:      -4.9      2.200      3.352
REMARK  2 active torsions:
REMARK  status: ('A' for Active; 'I' for Inactive)
REMARK    1  A    between atoms: C1_1  and  C7_7 
REMARK    2  A    between atoms: C3_3  and  C7_7 
ROOT
HETATM    1  C2  UNL     1     -31.655   7.888   3.611  1.00 20.00     0.015 A 
HETATM    2  C3  UNL     1     -32.644   8.399   2.599  1.00 20.00     0.004 A 
HETATM    3  C4  UNL     1     -32.943   7.127   3.377  1.00 20.00    -0.043 A 
HETATM    4  C5  UNL     1     -34.010   7.206   4.438  1.00 20.00     0.015 C 
HETATM    5  C6  UNL     1     -32.858   5.788   2.694  1.00 20.00     0.015 C 
ENDROOT
BRANCH   2   6
HETATM    6  C7  UNL     1     -32.307   8.393   1.147  1.00 20.00     0.118 C 
BRANCH   6   7
HETATM    7  C1  UNL     1     -32.793   9.608   0.330  1.00 20.00     0.172 C 
HETATM    8  O8  UNL     1     -32.483  10.740   0.793  1.00 20.00    -0.648 OA
HETATM    9  O9  UNL     1     -33.449   9.322  -0.713  1.00 20.00    -0.648 OA
ENDBRANCH   6   7
ENDBRANCH   2   6
TORSDOF 2
ENDMDL
MODEL 6
REMARK VINA RESULT:      -4.9      2.201      3.221
REMARK  2 active torsions:
REMARK  status: ('A' for Active; 'I' for Inactive)
REMARK    1  A    between atoms: C1_1  and  C7_7 
REMARK    2  A    between atoms: C3_3  and  C7_7 
ROOT
HETATM    1  C2  UNL     1     -31.655   7.890   3.615  1.00 20.00     0.015 A 
HETATM    2  C3  UNL     1     -32.638   8.404   2.598  1.00 20.00     0.004 A 
HETATM    3  C4  UNL     1     -32.943   7.132   3.373  1.00 20.00    -0.043 A 
HETATM    4  C5  UNL     1     -34.015   7.211   4.429  1.00 20.00     0.015 C 
HETATM    5  C6  UNL     1     -32.858   5.793   2.689  1.00 20.00     0.015 C 
ENDROOT
BRANCH   2   6
HETATM    6  C7  UNL     1     -32.294   8.400   1.149  1.00 20.00     0.118 C 
BRANCH   6   7
HETATM    7  C1  UNL     1     -32.794   9.605   0.326  1.00 20.00     0.172 C 
HETATM    8  O8  UNL     1     -33.450   9.324  -0.715  1.00 20.00    -0.648 OA
HETATM    9  O9  UNL     1     -32.486  10.738   0.797  1.00 20.00    -0.648 OA
ENDBRANCH   6   7
ENDBRANCH   2   6
TORSDOF 2
ENDMDL
MODEL 7
REMARK VINA RESULT:      -4.7      2.334      4.457
REMARK  2 active torsions:
REMARK  status: ('A' for Active; 'I' for Inactive)
REMARK    1  A    between atoms: C1_1  and  C7_7 
REMARK    2  A    between atoms: C3_3  and  C7_7 
ROOT
HETATM    1  C2  UNL     1     -31.415   8.492   3.103  1.00 20.00     0.015 A 
HETATM    2  C3  UNL     1     -32.430   7.507   2.589  1.00 20.00     0.004 A 
HETATM    3  C4  UNL     1     -32.109   8.756   1.783  1.00 20.00    -0.043 A 
HETATM    4  C5  UNL     1     -31.310   8.571   0.519  1.00 20.00     0.015 C 
HETATM    5  C6  UNL     1     -33.100   9.887   1.719  1.00 20.00     0.015 C 
ENDROOT
BRANCH   2   6
HETATM    6  C7  UNL     1     -33.726   7.320   3.300  1.00 20.00     0.118 C 
BRANCH   6   7
HETATM    7  C1  UNL     1     -34.214   5.865   3.455  1.00 20.00     0.172 C 
HETATM    8  O8  UNL     1     -35.330   5.718   4.026  1.00 20.00    -0.648 OA
HETATM    9  O9  UNL     1     -33.433   4.987   2.987  1.00 20.00    -0.648 OA
ENDBRANCH   6   7
ENDBRANCH   2   6
TORSDOF 2
ENDMDL
MODEL 8
REMARK VINA RESULT:      -4.3     11.369     12.235
REMARK  2 active torsions:
REMARK  status: ('A' for Active; 'I' for Inactive)
REMARK    1  A    between atoms: C1_1  and  C7_7 
REMARK    2  A    between atoms: C3_3  and  C7_7 
ROOT
HETATM    1  C2  UNL     1     -33.779  15.999  -3.433  1.00 20.00     0.015 A 
HETATM    2  C3  UNL     1     -34.625  14.829  -3.859  1.00 20.00     0.004 A 
HETATM    3  C4  UNL     1     -33.287  15.083  -4.534  1.00 20.00    -0.043 A 
HETATM    4  C5  UNL     1     -32.163  14.133  -4.209  1.00 20.00     0.015 C 
HETATM    5  C6  UNL     1     -33.241  15.625  -5.938  1.00 20.00     0.015 C 
ENDROOT
BRANCH   2   6
HETATM    6  C7  UNL     1     -35.928  15.054  -4.546  1.00 20.00     0.118 C 
BRANCH   6   7
HETATM    7  C1  UNL     1     -36.684  13.789  -5.003  1.00 20.00     0.172 C 
HETATM    8  O8  UNL     1     -35.962  12.801  -5.313  1.00 20.00    -0.648 OA
HETATM    9  O9  UNL     1     -37.944  13.894  -5.013  1.00 20.00    -0.648 OA
ENDBRANCH   6   7
ENDBRANCH   2   6
TORSDOF 2
ENDMDL
MODEL 9
REMARK VINA RESULT:      -4.2     11.592     12.193
REMARK  2 active torsions:
REMARK  status: ('A' for Active; 'I' for Inactive)
REMARK    1  A    between atoms: C1_1  and  C7_7 
REMARK    2  A    between atoms: C3_3  and  C7_7 
ROOT
HETATM    1  C2  UNL     1     -35.873  17.150  -3.781  1.00 20.00     0.015 A 
HETATM    2  C3  UNL     1     -35.837  15.679  -3.464  1.00 20.00     0.004 A 
HETATM    3  C4  UNL     1     -35.020  16.654  -2.632  1.00 20.00    -0.043 A 
HETATM    4  C5  UNL     1     -35.498  16.930  -1.230  1.00 20.00     0.015 C 
HETATM    5  C6  UNL     1     -33.523  16.709  -2.788  1.00 20.00     0.015 C 
ENDROOT
BRANCH   2   6
HETATM    6  C7  UNL     1     -35.215  14.718  -4.419  1.00 20.00     0.118 C 
BRANCH   6   7
HETATM    7  C1  UNL     1     -36.155  13.656  -5.025  1.00 20.00     0.172 C 
HETATM    8  O8  UNL     1     -37.390  13.861  -4.867  1.00 20.00    -0.648 OA
HETATM    9  O9  UNL     1     -35.571  12.700  -5.613  1.00 20.00    -0.648 OA
ENDBRANCH   6   7
ENDBRANCH   2   6
TORSDOF 2
ENDMDL
