MODEL 1
REMARK VINA RESULT:      -5.4      0.000      0.000
REMARK  2 active torsions:
REMARK  status: ('A' for Active; 'I' for Inactive)
REMARK    1  A    between atoms: C6_6  and  C7_7 
REMARK    2  A    between atoms: C7_7  and  N8_8 
ROOT
HETATM    1  C1  UNL     1     -32.546   9.301   1.071  1.00 20.00     0.157 C 
HETATM    2  N8  UNL     1     -32.168   9.222   2.183  1.00 20.00    -0.274 NA
HETATM    3  S9  UNL     1     -33.058   9.430  -0.431  1.00 20.00    -0.055 SA
ENDROOT
BRANCH   2   4
HETATM    4  C7  UNL     1     -31.938   7.864   2.664  1.00 20.00     0.165 C 
BRANCH   4   5
HETATM    5  C6  UNL     1     -33.149   7.424   3.481  1.00 20.00     0.067 C 
HETATM    6  C4  UNL     1     -32.858   7.510   4.983  1.00 20.00     0.017 C 
HETATM    7  C2  UNL     1     -34.055   7.125   5.849  1.00 20.00     0.002 C 
HETATM    8  C3  UNL     1     -34.528   5.695   5.606  1.00 20.00     0.010 C 
HETATM    9  C5  UNL     1     -34.959   5.446   4.167  1.00 20.00     0.074 C 
HETATM   10  S10 UNL     1     -33.597   5.719   2.999  1.00 20.00    -0.163 SA
ENDBRANCH   4   5
ENDBRANCH   2   4
TORSDOF 2
ENDMDL
MODEL 2
REMARK VINA RESULT:      -4.6      1.360      1.904
REMARK  2 active torsions:
REMARK  status: ('A' for Active; 'I' for Inactive)
REMARK    1  A    between atoms: C6_6  and  C7_7 
REMARK    2  A    between atoms: C7_7  and  N8_8 
ROOT
HETATM    1  C1  UNL     1     -32.156   9.011   1.497  1.00 20.00     0.157 C 
HETATM    2  N8  UNL     1     -31.796   8.103   2.152  1.00 20.00    -0.274 NA
HETATM    3  S9  UNL     1     -32.635  10.230   0.590  1.00 20.00    -0.055 SA
ENDROOT
BRANCH   2   4
HETATM    4  C7  UNL     1     -32.043   8.236   3.584  1.00 20.00     0.165 C 
BRANCH   4   5
HETATM    5  C6  UNL     1     -32.638   6.929   4.100  1.00 20.00     0.067 C 
HETATM    6  C4  UNL     1     -33.343   6.166   2.974  1.00 20.00     0.017 C 
HETATM    7  C2  UNL     1     -33.918   4.825   3.426  1.00 20.00     0.002 C 
HETATM    8  C3  UNL     1     -34.955   4.967   4.536  1.00 20.00     0.010 C 
HETATM    9  C5  UNL     1     -34.398   5.626   5.791  1.00 20.00     0.074 C 
HETATM   10  S10 UNL     1     -33.798   7.306   5.460  1.00 20.00    -0.163 SA
ENDBRANCH   4   5
ENDBRANCH   2   4
TORSDOF 2
ENDMDL
MODEL 3
REMARK VINA RESULT:      -3.6     11.103     11.946
REMARK  2 active torsions:
REMARK  status: ('A' for Active; 'I' for Inactive)
REMARK    1  A    between atoms: C6_6  and  C7_7 
REMARK    2  A    between atoms: C7_7  and  N8_8 
ROOT
HETATM    1  C1  UNL     1     -39.028  14.748  -5.288  1.00 20.00     0.157 C 
HETATM    2  N8  UNL     1     -38.163  14.040  -4.918  1.00 20.00    -0.274 NA
HETATM    3  S9  UNL     1     -40.212  15.697  -5.771  1.00 20.00    -0.055 SA
ENDROOT
BRANCH   2   4
HETATM    4  C7  UNL     1     -36.952  14.065  -5.732  1.00 20.00     0.165 C 
BRANCH   4   5
HETATM    5  C6  UNL     1     -35.755  14.319  -4.820  1.00 20.00     0.067 C 
HETATM    6  C4  UNL     1     -35.944  15.609  -4.016  1.00 20.00     0.017 C 
HETATM    7  C2  UNL     1     -34.794  15.887  -3.050  1.00 20.00     0.002 C 
HETATM    8  C3  UNL     1     -33.449  16.036  -3.755  1.00 20.00     0.010 C 
HETATM    9  C5  UNL     1     -33.044  14.794  -4.537  1.00 20.00     0.074 C 
HETATM   10  S10 UNL     1     -34.243  14.399  -5.841  1.00 20.00    -0.163 SA
ENDBRANCH   4   5
ENDBRANCH   2   4
TORSDOF 2
ENDMDL
MODEL 4
REMARK VINA RESULT:      -3.6     11.151     12.270
REMARK  2 active torsions:
REMARK  status: ('A' for Active; 'I' for Inactive)
REMARK    1  A    between atoms: C6_6  and  C7_7 
REMARK    2  A    between atoms: C7_7  and  N8_8 
ROOT
HETATM    1  C1  UNL     1     -38.539  14.798  -4.917  1.00 20.00     0.157 C 
HETATM    2  N8  UNL     1     -37.650  14.028  -4.982  1.00 20.00    -0.274 NA
HETATM    3  S9  UNL     1     -39.746  15.831  -4.808  1.00 20.00    -0.055 SA
ENDROOT
BRANCH   2   4
HETATM    4  C7  UNL     1     -36.905  14.047  -6.237  1.00 20.00     0.165 C 
BRANCH   4   5
HETATM    5  C6  UNL     1     -35.459  14.434  -5.941  1.00 20.00     0.067 C 
HETATM    6  C4  UNL     1     -35.059  14.014  -4.524  1.00 20.00     0.017 C 
HETATM    7  C2  UNL     1     -33.604  14.336  -4.191  1.00 20.00     0.002 C 
HETATM    8  C3  UNL     1     -33.291  15.827  -4.280  1.00 20.00     0.010 C 
HETATM    9  C5  UNL     1     -33.539  16.407  -5.666  1.00 20.00     0.074 C 
HETATM   10  S10 UNL     1     -35.275  16.238  -6.166  1.00 20.00    -0.163 SA
ENDBRANCH   4   5
ENDBRANCH   2   4
TORSDOF 2
ENDMDL
MODEL 5
REMARK VINA RESULT:      -3.6     10.958     11.895
REMARK  2 active torsions:
REMARK  status: ('A' for Active; 'I' for Inactive)
REMARK    1  A    between atoms: C6_6  and  C7_7 
REMARK    2  A    between atoms: C7_7  and  N8_8 
ROOT
HETATM    1  C1  UNL     1     -35.329  16.938  -1.521  1.00 20.00     0.157 C 
HETATM    2  N8  UNL     1     -35.523  16.371  -2.534  1.00 20.00    -0.274 NA
HETATM    3  S9  UNL     1     -35.091  17.709  -0.148  1.00 20.00    -0.055 SA
ENDROOT
BRANCH   2   4
HETATM    4  C7  UNL     1     -34.321  15.961  -3.254  1.00 20.00     0.165 C 
BRANCH   4   5
HETATM    5  C6  UNL     1     -34.723  15.492  -4.649  1.00 20.00     0.067 C 
HETATM    6  C4  UNL     1     -35.207  14.039  -4.619  1.00 20.00     0.017 C 
HETATM    7  C2  UNL     1     -35.668  13.532  -5.984  1.00 20.00     0.002 C 
HETATM    8  C3  UNL     1     -34.564  13.575  -7.037  1.00 20.00     0.010 C 
HETATM    9  C5  UNL     1     -34.020  14.977  -7.275  1.00 20.00     0.074 C 
HETATM   10  S10 UNL     1     -33.293  15.682  -5.769  1.00 20.00    -0.163 SA
ENDBRANCH   4   5
ENDBRANCH   2   4
TORSDOF 2
ENDMDL
MODEL 6
REMARK VINA RESULT:      -3.5     11.124     11.807
REMARK  2 active torsions:
REMARK  status: ('A' for Active; 'I' for Inactive)
REMARK    1  A    between atoms: C6_6  and  C7_7 
REMARK    2  A    between atoms: C7_7  and  N8_8 
ROOT
HETATM    1  C1  UNL     1     -34.452  14.330  -6.187  1.00 20.00     0.157 C 
HETATM    2  N8  UNL     1     -33.966  15.099  -5.441  1.00 20.00    -0.274 NA
HETATM    3  S9  UNL     1     -35.096  13.271  -7.188  1.00 20.00    -0.055 SA
ENDROOT
BRANCH   2   4
HETATM    4  C7  UNL     1     -34.391  16.484  -5.616  1.00 20.00     0.165 C 
BRANCH   4   5
HETATM    5  C6  UNL     1     -34.624  17.102  -4.240  1.00 20.00     0.067 C 
HETATM    6  C4  UNL     1     -33.712  16.459  -3.191  1.00 20.00     0.017 C 
HETATM    7  C2  UNL     1     -33.871  17.073  -1.802  1.00 20.00     0.002 C 
HETATM    8  C3  UNL     1     -35.288  16.939  -1.251  1.00 20.00     0.010 C 
HETATM    9  C5  UNL     1     -36.334  17.615  -2.127  1.00 20.00     0.074 C 
HETATM   10  S10 UNL     1     -36.383  16.897  -3.793  1.00 20.00    -0.163 SA
ENDBRANCH   4   5
ENDBRANCH   2   4
TORSDOF 2
ENDMDL
MODEL 7
REMARK VINA RESULT:      -3.5     11.125     11.982
REMARK  2 active torsions:
REMARK  status: ('A' for Active; 'I' for Inactive)
REMARK    1  A    between atoms: C6_6  and  C7_7 
REMARK    2  A    between atoms: C7_7  and  N8_8 
ROOT
HETATM    1  C1  UNL     1     -33.947  18.494   3.191  1.00 20.00     0.157 C 
HETATM    2  N8  UNL     1     -34.456  18.143   2.190  1.00 20.00    -0.274 NA
HETATM    3  S9  UNL     1     -33.255  18.947   4.552  1.00 20.00    -0.055 SA
ENDROOT
BRANCH   2   4
HETATM    4  C7  UNL     1     -34.901  19.219   1.311  1.00 20.00     0.165 C 
BRANCH   4   5
HETATM    5  C6  UNL     1     -34.778  18.751  -0.136  1.00 20.00     0.067 C 
HETATM    6  C4  UNL     1     -35.344  17.338  -0.305  1.00 20.00     0.017 C 
HETATM    7  C2  UNL     1     -35.289  16.837  -1.746  1.00 20.00     0.002 C 
HETATM    8  C3  UNL     1     -33.868  16.777  -2.300  1.00 20.00     0.010 C 
HETATM    9  C5  UNL     1     -33.171  18.131  -2.302  1.00 20.00     0.074 C 
HETATM   10  S10 UNL     1     -33.019  18.814  -0.628  1.00 20.00    -0.163 SA
ENDBRANCH   4   5
ENDBRANCH   2   4
TORSDOF 2
ENDMDL
MODEL 8
REMARK VINA RESULT:      -3.5     11.205     12.094
REMARK  2 active torsions:
REMARK  status: ('A' for Active; 'I' for Inactive)
REMARK    1  A    between atoms: C6_6  and  C7_7 
REMARK    2  A    between atoms: C7_7  and  N8_8 
ROOT
HETATM    1  C1  UNL     1     -35.360  13.697  -5.999  1.00 20.00     0.157 C 
HETATM    2  N8  UNL     1     -35.780  13.724  -4.900  1.00 20.00    -0.274 NA
HETATM    3  S9  UNL     1     -34.789  13.637  -7.484  1.00 20.00    -0.055 SA
ENDROOT
BRANCH   2   4
HETATM    4  C7  UNL     1     -36.183  15.043  -4.424  1.00 20.00     0.165 C 
BRANCH   4   5
HETATM    5  C6  UNL     1     -34.929  15.856  -4.116  1.00 20.00     0.067 C 
HETATM    6  C4  UNL     1     -34.873  16.235  -2.633  1.00 20.00     0.017 C 
HETATM    7  C2  UNL     1     -33.612  17.011  -2.259  1.00 20.00     0.002 C 
HETATM    8  C3  UNL     1     -33.474  18.324  -3.024  1.00 20.00     0.010 C 
HETATM    9  C5  UNL     1     -33.413  18.132  -4.533  1.00 20.00     0.074 C 
HETATM   10  S10 UNL     1     -34.917  17.345  -5.173  1.00 20.00    -0.163 SA
ENDBRANCH   4   5
ENDBRANCH   2   4
TORSDOF 2
ENDMDL
MODEL 9
REMARK VINA RESULT:      -3.4     11.163     12.028
REMARK  2 active torsions:
REMARK  status: ('A' for Active; 'I' for Inactive)
REMARK    1  A    between atoms: C6_6  and  C7_7 
REMARK    2  A    between atoms: C7_7  and  N8_8 
ROOT
HETATM    1  C1  UNL     1     -33.640  17.020  -2.317  1.00 20.00     0.157 C 
HETATM    2  N8  UNL     1     -34.043  16.221  -3.082  1.00 20.00    -0.274 NA
HETATM    3  S9  UNL     1     -33.111  18.094  -1.267  1.00 20.00    -0.055 SA
ENDROOT
BRANCH   2   4
HETATM    4  C7  UNL     1     -33.388  16.227  -4.386  1.00 20.00     0.165 C 
BRANCH   4   5
HETATM    5  C6  UNL     1     -33.889  15.030  -5.189  1.00 20.00     0.067 C 
HETATM    6  C4  UNL     1     -33.821  15.312  -6.693  1.00 20.00     0.017 C 
HETATM    7  C2  UNL     1     -34.267  14.127  -7.547  1.00 20.00     0.002 C 
HETATM    8  C3  UNL     1     -35.708  13.707  -7.273  1.00 20.00     0.010 C 
HETATM    9  C5  UNL     1     -35.944  13.291  -5.828  1.00 20.00     0.074 C 
HETATM   10  S10 UNL     1     -35.598  14.646  -4.672  1.00 20.00    -0.163 SA
ENDBRANCH   4   5
ENDBRANCH   2   4
TORSDOF 2
ENDMDL
