MODEL 1
REMARK VINA RESULT:      -5.4      0.000      0.000
REMARK  2 active torsions:
REMARK  status: ('A' for Active; 'I' for Inactive)
REMARK    1  A    between atoms: C6_6  and  C7_7 
REMARK    2  A    between atoms: C7_7  and  N8_8 
ROOT
HETATM    1  C1  UNL     1     -32.304   8.846   1.549  1.00 20.00     0.157 C 
HETATM    2  N8  UNL     1     -32.089   7.785   2.010  1.00 20.00    -0.274 NA
HETATM    3  S9  UNL     1     -32.592  10.273   0.904  1.00 20.00    -0.055 SA
ENDROOT
BRANCH   2   4
HETATM    4  C7  UNL     1     -32.251   7.695   3.457  1.00 20.00     0.165 C 
BRANCH   4   5
HETATM    5  C6  UNL     1     -33.679   7.241   3.762  1.00 20.00     0.067 C 
HETATM    6  C4  UNL     1     -34.094   6.053   2.882  1.00 20.00     0.017 C 
HETATM    7  C2  UNL     1     -33.604   4.703   3.397  1.00 20.00     0.002 C 
HETATM    8  C3  UNL     1     -34.237   4.300   4.731  1.00 20.00     0.010 C 
HETATM    9  C5  UNL     1     -34.851   5.438   5.537  1.00 20.00     0.074 C 
HETATM   10  S10 UNL     1     -33.792   6.909   5.563  1.00 20.00    -0.163 SA
ENDBRANCH   4   5
ENDBRANCH   2   4
TORSDOF 2
ENDMDL
MODEL 2
REMARK VINA RESULT:      -4.0      1.410      1.915
REMARK  2 active torsions:
REMARK  status: ('A' for Active; 'I' for Inactive)
REMARK    1  A    between atoms: C6_6  and  C7_7 
REMARK    2  A    between atoms: C7_7  and  N8_8 
ROOT
HETATM    1  C1  UNL     1     -32.537   9.043   1.052  1.00 20.00     0.157 C 
HETATM    2  N8  UNL     1     -32.252   8.686   2.136  1.00 20.00    -0.274 NA
HETATM    3  S9  UNL     1     -32.901   9.531  -0.420  1.00 20.00    -0.055 SA
ENDROOT
BRANCH   2   4
HETATM    4  C7  UNL     1     -33.350   8.115   2.908  1.00 20.00     0.165 C 
BRANCH   4   5
HETATM    5  C6  UNL     1     -32.843   6.867   3.633  1.00 20.00     0.067 C 
HETATM    6  C4  UNL     1     -33.062   6.968   5.150  1.00 20.00     0.017 C 
HETATM    7  C2  UNL     1     -34.473   6.597   5.595  1.00 20.00     0.002 C 
HETATM    8  C3  UNL     1     -34.814   5.124   5.359  1.00 20.00     0.010 C 
HETATM    9  C5  UNL     1     -33.938   4.403   4.341  1.00 20.00     0.074 C 
HETATM   10  S10 UNL     1     -33.639   5.406   2.861  1.00 20.00    -0.163 SA
ENDBRANCH   4   5
ENDBRANCH   2   4
TORSDOF 2
ENDMDL
MODEL 3
REMARK VINA RESULT:      -4.0     11.183     12.346
REMARK  2 active torsions:
REMARK  status: ('A' for Active; 'I' for Inactive)
REMARK    1  A    between atoms: C6_6  and  C7_7 
REMARK    2  A    between atoms: C7_7  and  N8_8 
ROOT
HETATM    1  C1  UNL     1     -35.588  13.356  -6.222  1.00 20.00     0.157 C 
HETATM    2  N8  UNL     1     -35.612  13.160  -5.062  1.00 20.00    -0.274 NA
HETATM    3  S9  UNL     1     -35.573  13.607  -7.794  1.00 20.00    -0.055 SA
ENDROOT
BRANCH   2   4
HETATM    4  C7  UNL     1     -34.676  13.960  -4.279  1.00 20.00     0.165 C 
BRANCH   4   5
HETATM    5  C6  UNL     1     -34.964  15.440  -4.535  1.00 20.00     0.067 C 
HETATM    6  C4  UNL     1     -35.552  16.123  -3.292  1.00 20.00     0.017 C 
HETATM    7  C2  UNL     1     -34.505  16.550  -2.269  1.00 20.00     0.002 C 
HETATM    8  C3  UNL     1     -33.574  17.652  -2.781  1.00 20.00     0.010 C 
HETATM    9  C5  UNL     1     -33.517  17.811  -4.296  1.00 20.00     0.074 C 
HETATM   10  S10 UNL     1     -33.419  16.215  -5.150  1.00 20.00    -0.163 SA
ENDBRANCH   4   5
ENDBRANCH   2   4
TORSDOF 2
ENDMDL
MODEL 4
REMARK VINA RESULT:      -3.7     11.590     12.715
REMARK  2 active torsions:
REMARK  status: ('A' for Active; 'I' for Inactive)
REMARK    1  A    between atoms: C6_6  and  C7_7 
REMARK    2  A    between atoms: C7_7  and  N8_8 
ROOT
HETATM    1  C1  UNL     1     -38.667  14.783  -4.958  1.00 20.00     0.157 C 
HETATM    2  N8  UNL     1     -37.780  14.011  -5.006  1.00 20.00    -0.274 NA
HETATM    3  S9  UNL     1     -39.873  15.820  -4.874  1.00 20.00    -0.055 SA
ENDROOT
BRANCH   2   4
HETATM    4  C7  UNL     1     -36.893  14.158  -6.155  1.00 20.00     0.165 C 
BRANCH   4   5
HETATM    5  C6  UNL     1     -35.499  13.667  -5.762  1.00 20.00     0.067 C 
HETATM    6  C4  UNL     1     -34.509  13.790  -6.930  1.00 20.00     0.017 C 
HETATM    7  C2  UNL     1     -33.920  15.187  -7.096  1.00 20.00     0.002 C 
HETATM    8  C3  UNL     1     -33.030  15.610  -5.925  1.00 20.00     0.010 C 
HETATM    9  C5  UNL     1     -33.233  14.832  -4.631  1.00 20.00     0.074 C 
HETATM   10  S10 UNL     1     -34.987  14.575  -4.253  1.00 20.00    -0.163 SA
ENDBRANCH   4   5
ENDBRANCH   2   4
TORSDOF 2
ENDMDL
MODEL 5
REMARK VINA RESULT:      -3.7     11.273     12.236
REMARK  2 active torsions:
REMARK  status: ('A' for Active; 'I' for Inactive)
REMARK    1  A    between atoms: C6_6  and  C7_7 
REMARK    2  A    between atoms: C7_7  and  N8_8 
ROOT
HETATM    1  C1  UNL     1     -33.300  17.403  -1.954  1.00 20.00     0.157 C 
HETATM    2  N8  UNL     1     -33.725  16.579  -2.679  1.00 20.00    -0.274 NA
HETATM    3  S9  UNL     1     -32.729  18.504  -0.954  1.00 20.00    -0.055 SA
ENDROOT
BRANCH   2   4
HETATM    4  C7  UNL     1     -33.671  16.917  -4.097  1.00 20.00     0.165 C 
BRANCH   4   5
HETATM    5  C6  UNL     1     -33.234  15.678  -4.880  1.00 20.00     0.067 C 
HETATM    6  C4  UNL     1     -33.770  14.389  -4.239  1.00 20.00     0.017 C 
HETATM    7  C2  UNL     1     -35.211  14.064  -4.620  1.00 20.00     0.002 C 
HETATM    8  C3  UNL     1     -35.385  13.735  -6.104  1.00 20.00     0.010 C 
HETATM    9  C5  UNL     1     -34.266  14.218  -7.019  1.00 20.00     0.074 C 
HETATM   10  S10 UNL     1     -33.741  15.908  -6.627  1.00 20.00    -0.163 SA
ENDBRANCH   4   5
ENDBRANCH   2   4
TORSDOF 2
ENDMDL
MODEL 6
REMARK VINA RESULT:      -3.7     10.973     12.067
REMARK  2 active torsions:
REMARK  status: ('A' for Active; 'I' for Inactive)
REMARK    1  A    between atoms: C6_6  and  C7_7 
REMARK    2  A    between atoms: C7_7  and  N8_8 
ROOT
HETATM    1  C1  UNL     1     -34.342  16.952  -1.861  1.00 20.00     0.157 C 
HETATM    2  N8  UNL     1     -33.549  16.636  -2.671  1.00 20.00    -0.274 NA
HETATM    3  S9  UNL     1     -35.398  17.379  -0.748  1.00 20.00    -0.055 SA
ENDROOT
BRANCH   2   4
HETATM    4  C7  UNL     1     -34.036  16.636  -4.046  1.00 20.00     0.165 C 
BRANCH   4   5
HETATM    5  C6  UNL     1     -33.561  15.356  -4.735  1.00 20.00     0.067 C 
HETATM    6  C4  UNL     1     -34.298  14.120  -4.198  1.00 20.00     0.017 C 
HETATM    7  C2  UNL     1     -35.669  13.897  -4.829  1.00 20.00     0.002 C 
HETATM    8  C3  UNL     1     -35.599  13.558  -6.320  1.00 20.00     0.010 C 
HETATM    9  C5  UNL     1     -34.302  13.943  -7.020  1.00 20.00     0.074 C 
HETATM   10  S10 UNL     1     -33.730  15.596  -6.545  1.00 20.00    -0.163 SA
ENDBRANCH   4   5
ENDBRANCH   2   4
TORSDOF 2
ENDMDL
MODEL 7
REMARK VINA RESULT:      -3.7     11.715     12.895
REMARK  2 active torsions:
REMARK  status: ('A' for Active; 'I' for Inactive)
REMARK    1  A    between atoms: C6_6  and  C7_7 
REMARK    2  A    between atoms: C7_7  and  N8_8 
ROOT
HETATM    1  C1  UNL     1     -38.889  14.775  -5.292  1.00 20.00     0.157 C 
HETATM    2  N8  UNL     1     -38.059  14.029  -4.917  1.00 20.00    -0.274 NA
HETATM    3  S9  UNL     1     -40.026  15.778  -5.780  1.00 20.00    -0.055 SA
ENDROOT
BRANCH   2   4
HETATM    4  C7  UNL     1     -36.816  14.053  -5.681  1.00 20.00     0.165 C 
BRANCH   4   5
HETATM    5  C6  UNL     1     -36.054  15.333  -5.335  1.00 20.00     0.067 C 
HETATM    6  C4  UNL     1     -35.280  15.190  -4.016  1.00 20.00     0.017 C 
HETATM    7  C2  UNL     1     -33.936  14.484  -4.163  1.00 20.00     0.002 C 
HETATM    8  C3  UNL     1     -32.926  15.275  -4.998  1.00 20.00     0.010 C 
HETATM    9  C5  UNL     1     -33.520  16.347  -5.904  1.00 20.00     0.074 C 
HETATM   10  S10 UNL     1     -35.001  15.767  -6.773  1.00 20.00    -0.163 SA
ENDBRANCH   4   5
ENDBRANCH   2   4
TORSDOF 2
ENDMDL
MODEL 8
REMARK VINA RESULT:      -3.4     10.882     11.970
REMARK  2 active torsions:
REMARK  status: ('A' for Active; 'I' for Inactive)
REMARK    1  A    between atoms: C6_6  and  C7_7 
REMARK    2  A    between atoms: C7_7  and  N8_8 
ROOT
HETATM    1  C1  UNL     1     -35.429  17.066  -1.134  1.00 20.00     0.157 C 
HETATM    2  N8  UNL     1     -35.265  16.656  -2.225  1.00 20.00    -0.274 NA
HETATM    3  S9  UNL     1     -35.676  17.616   0.340  1.00 20.00    -0.055 SA
ENDROOT
BRANCH   2   4
HETATM    4  C7  UNL     1     -33.876  16.624  -2.670  1.00 20.00     0.165 C 
BRANCH   4   5
HETATM    5  C6  UNL     1     -33.846  16.273  -4.158  1.00 20.00     0.067 C 
HETATM    6  C4  UNL     1     -33.500  14.793  -4.381  1.00 20.00     0.017 C 
HETATM    7  C2  UNL     1     -34.690  13.851  -4.229  1.00 20.00     0.002 C 
HETATM    8  C3  UNL     1     -35.762  14.055  -5.302  1.00 20.00     0.010 C 
HETATM    9  C5  UNL     1     -35.720  15.395  -6.025  1.00 20.00     0.074 C 
HETATM   10  S10 UNL     1     -35.450  16.781  -4.888  1.00 20.00    -0.163 SA
ENDBRANCH   4   5
ENDBRANCH   2   4
TORSDOF 2
ENDMDL
MODEL 9
REMARK VINA RESULT:      -3.4     11.851     12.585
REMARK  2 active torsions:
REMARK  status: ('A' for Active; 'I' for Inactive)
REMARK    1  A    between atoms: C6_6  and  C7_7 
REMARK    2  A    between atoms: C7_7  and  N8_8 
ROOT
HETATM    1  C1  UNL     1     -33.730  17.415  -3.132  1.00 20.00     0.157 C 
HETATM    2  N8  UNL     1     -33.467  17.542  -4.272  1.00 20.00    -0.274 NA
HETATM    3  S9  UNL     1     -34.089  17.267  -1.587  1.00 20.00    -0.055 SA
ENDROOT
BRANCH   2   4
HETATM    4  C7  UNL     1     -33.304  16.295  -5.011  1.00 20.00     0.165 C 
BRANCH   4   5
HETATM    5  C6  UNL     1     -34.681  15.814  -5.470  1.00 20.00     0.067 C 
HETATM    6  C4  UNL     1     -34.772  15.744  -7.002  1.00 20.00     0.017 C 
HETATM    7  C2  UNL     1     -34.179  14.470  -7.597  1.00 20.00     0.002 C 
HETATM    8  C3  UNL     1     -34.951  13.207  -7.211  1.00 20.00     0.010 C 
HETATM    9  C5  UNL     1     -35.845  13.334  -5.983  1.00 20.00     0.074 C 
HETATM   10  S10 UNL     1     -35.030  14.222  -4.629  1.00 20.00    -0.163 SA
ENDBRANCH   4   5
ENDBRANCH   2   4
TORSDOF 2
ENDMDL
