MODEL 1
REMARK VINA RESULT:      -4.6      0.000      0.000
REMARK  0 active torsions:
REMARK  status: ('A' for Active; 'I' for Inactive)
ROOT
HETATM    1  C1  UNL     1     -32.408   7.715   3.709  1.00 20.00     0.066 C 
HETATM    2  C2  UNL     1     -33.484   5.000   3.016  1.00 20.00     0.038 C 
HETATM    3  C3  UNL     1     -33.755   4.443   4.413  1.00 20.00     0.273 C 
HETATM    4  C4  UNL     1     -34.011   6.658   5.325  1.00 20.00     0.292 C 
HETATM    5  C5  UNL     1     -35.547   5.781   3.812  1.00 20.00     0.278 C 
HETATM    6  C6  UNL     1     -33.799   7.332   3.963  1.00 20.00     0.127 C 
HETATM    7  C7  UNL     1     -34.350   6.265   3.008  1.00 20.00     0.035 C 
HETATM    8  N8  UNL     1     -31.306   8.017   3.506  1.00 20.00    -0.197 NA
HETATM    9  N9  UNL     1     -34.738   5.394   5.001  1.00 20.00     0.090 N 
ENDROOT
TORSDOF 0
ENDMDL
MODEL 2
REMARK VINA RESULT:      -4.1     11.842     13.097
REMARK  0 active torsions:
REMARK  status: ('A' for Active; 'I' for Inactive)
ROOT
HETATM    1  C1  UNL     1     -35.668  13.832  -4.815  1.00 20.00     0.066 C 
HETATM    2  C2  UNL     1     -33.038  15.270  -4.964  1.00 20.00     0.038 C 
HETATM    3  C3  UNL     1     -33.433  16.488  -5.799  1.00 20.00     0.273 C 
HETATM    4  C4  UNL     1     -35.727  16.328  -5.079  1.00 20.00     0.292 C 
HETATM    5  C5  UNL     1     -34.025  16.902  -3.599  1.00 20.00     0.278 C 
HETATM    6  C6  UNL     1     -35.442  15.127  -4.167  1.00 20.00     0.127 C 
HETATM    7  C7  UNL     1     -33.985  15.390  -3.765  1.00 20.00     0.035 C 
HETATM    8  N8  UNL     1     -35.846  12.807  -5.328  1.00 20.00    -0.197 NA
HETATM    9  N9  UNL     1     -34.488  17.159  -4.991  1.00 20.00     0.090 N 
ENDROOT
TORSDOF 0
ENDMDL
MODEL 3
REMARK VINA RESULT:      -3.7     12.171     13.256
REMARK  0 active torsions:
REMARK  status: ('A' for Active; 'I' for Inactive)
ROOT
HETATM    1  C1  UNL     1     -35.489  13.880  -5.516  1.00 20.00     0.066 C 
HETATM    2  C2  UNL     1     -35.175  15.995  -3.410  1.00 20.00     0.038 C 
HETATM    3  C3  UNL     1     -33.658  16.180  -3.425  1.00 20.00     0.273 C 
HETATM    4  C4  UNL     1     -33.516  15.419  -5.707  1.00 20.00     0.292 C 
HETATM    5  C5  UNL     1     -34.553  17.429  -5.158  1.00 20.00     0.278 C 
HETATM    6  C6  UNL     1     -35.035  15.237  -5.827  1.00 20.00     0.127 C 
HETATM    7  C7  UNL     1     -35.546  16.316  -4.862  1.00 20.00     0.035 C 
HETATM    8  N8  UNL     1     -35.849  12.805  -5.269  1.00 20.00    -0.197 NA
HETATM    9  N9  UNL     1     -33.356  16.610  -4.819  1.00 20.00     0.090 N 
ENDROOT
TORSDOF 0
ENDMDL
MODEL 4
REMARK VINA RESULT:      -3.7     12.044     13.078
REMARK  0 active torsions:
REMARK  status: ('A' for Active; 'I' for Inactive)
ROOT
HETATM    1  C1  UNL     1     -36.672  14.748  -4.633  1.00 20.00     0.066 C 
HETATM    2  C2  UNL     1     -33.690  14.501  -4.406  1.00 20.00     0.038 C 
HETATM    3  C3  UNL     1     -33.246  15.481  -5.492  1.00 20.00     0.273 C 
HETATM    4  C4  UNL     1     -35.292  16.737  -5.295  1.00 20.00     0.292 C 
HETATM    5  C5  UNL     1     -33.722  16.694  -3.578  1.00 20.00     0.278 C 
HETATM    6  C6  UNL     1     -35.826  15.848  -4.164  1.00 20.00     0.127 C 
HETATM    7  C7  UNL     1     -34.521  15.403  -3.488  1.00 20.00     0.035 C 
HETATM    8  N8  UNL     1     -37.342  13.876  -5.003  1.00 20.00    -0.197 NA
HETATM    9  N9  UNL     1     -33.818  16.787  -5.061  1.00 20.00     0.090 N 
ENDROOT
TORSDOF 0
ENDMDL
MODEL 5
REMARK VINA RESULT:      -3.7     12.220     13.209
REMARK  0 active torsions:
REMARK  status: ('A' for Active; 'I' for Inactive)
ROOT
HETATM    1  C1  UNL     1     -36.802  14.508  -4.705  1.00 20.00     0.066 C 
HETATM    2  C2  UNL     1     -34.259  14.118  -6.250  1.00 20.00     0.038 C 
HETATM    3  C3  UNL     1     -34.041  15.532  -6.788  1.00 20.00     0.273 C 
HETATM    4  C4  UNL     1     -35.292  16.495  -4.969  1.00 20.00     0.292 C 
HETATM    5  C5  UNL     1     -33.239  15.457  -4.617  1.00 20.00     0.278 C 
HETATM    6  C6  UNL     1     -35.538  15.132  -4.308  1.00 20.00     0.127 C 
HETATM    7  C7  UNL     1     -34.284  14.358  -4.736  1.00 20.00     0.035 C 
HETATM    8  N8  UNL     1     -37.803  14.013  -5.020  1.00 20.00    -0.197 NA
HETATM    9  N9  UNL     1     -33.928  16.375  -5.566  1.00 20.00     0.090 N 
ENDROOT
TORSDOF 0
ENDMDL
MODEL 6
REMARK VINA RESULT:      -3.6     11.816     13.053
REMARK  0 active torsions:
REMARK  status: ('A' for Active; 'I' for Inactive)
ROOT
HETATM    1  C1  UNL     1     -36.610  14.027  -5.210  1.00 20.00     0.066 C 
HETATM    2  C2  UNL     1     -35.281  16.716  -5.080  1.00 20.00     0.038 C 
HETATM    3  C3  UNL     1     -34.416  16.538  -3.833  1.00 20.00     0.273 C 
HETATM    4  C4  UNL     1     -34.346  14.149  -4.132  1.00 20.00     0.292 C 
HETATM    5  C5  UNL     1     -33.296  15.593  -5.626  1.00 20.00     0.278 C 
HETATM    6  C6  UNL     1     -35.172  14.205  -5.425  1.00 20.00     0.127 C 
HETATM    7  C7  UNL     1     -34.776  15.581  -5.978  1.00 20.00     0.035 C 
HETATM    8  N8  UNL     1     -37.749  13.888  -5.040  1.00 20.00    -0.197 NA
HETATM    9  N9  UNL     1     -33.523  15.395  -4.167  1.00 20.00     0.090 N 
ENDROOT
TORSDOF 0
ENDMDL
MODEL 7
REMARK VINA RESULT:      -3.5     11.839     12.906
REMARK  0 active torsions:
REMARK  status: ('A' for Active; 'I' for Inactive)
ROOT
HETATM    1  C1  UNL     1     -34.649  16.664  -2.240  1.00 20.00     0.066 C 
HETATM    2  C2  UNL     1     -34.864  14.489  -4.296  1.00 20.00     0.038 C 
HETATM    3  C3  UNL     1     -35.315  15.299  -5.511  1.00 20.00     0.273 C 
HETATM    4  C4  UNL     1     -34.303  17.304  -4.642  1.00 20.00     0.292 C 
HETATM    5  C5  UNL     1     -33.015  15.493  -5.331  1.00 20.00     0.278 C 
HETATM    6  C6  UNL     1     -33.757  16.588  -3.399  1.00 20.00     0.127 C 
HETATM    7  C7  UNL     1     -33.537  15.168  -3.940  1.00 20.00     0.035 C 
HETATM    8  N8  UNL     1     -35.356  16.724  -1.321  1.00 20.00    -0.197 NA
HETATM    9  N9  UNL     1     -34.216  16.280  -5.726  1.00 20.00     0.090 N 
ENDROOT
TORSDOF 0
ENDMDL
MODEL 8
REMARK VINA RESULT:      -3.5     12.693     13.764
REMARK  0 active torsions:
REMARK  status: ('A' for Active; 'I' for Inactive)
ROOT
HETATM    1  C1  UNL     1     -37.167  13.972  -5.281  1.00 20.00     0.066 C 
HETATM    2  C2  UNL     1     -36.133  15.220  -7.807  1.00 20.00     0.038 C 
HETATM    3  C3  UNL     1     -34.933  15.994  -7.263  1.00 20.00     0.273 C 
HETATM    4  C4  UNL     1     -34.714  14.487  -5.396  1.00 20.00     0.292 C 
HETATM    5  C5  UNL     1     -34.286  13.793  -7.576  1.00 20.00     0.278 C 
HETATM    6  C6  UNL     1     -35.877  13.604  -5.868  1.00 20.00     0.127 C 
HETATM    7  C7  UNL     1     -35.796  13.784  -7.390  1.00 20.00     0.035 C 
HETATM    8  N8  UNL     1     -38.190  14.263  -4.817  1.00 20.00    -0.197 NA
HETATM    9  N9  UNL     1     -34.064  14.946  -6.661  1.00 20.00     0.090 N 
ENDROOT
TORSDOF 0
ENDMDL
MODEL 9
REMARK VINA RESULT:      -3.5     11.710     13.060
REMARK  0 active torsions:
REMARK  status: ('A' for Active; 'I' for Inactive)
ROOT
HETATM    1  C1  UNL     1     -34.767  14.758  -3.915  1.00 20.00     0.066 C 
HETATM    2  C2  UNL     1     -33.576  16.959  -2.259  1.00 20.00     0.038 C 
HETATM    3  C3  UNL     1     -33.558  18.097  -3.279  1.00 20.00     0.273 C 
HETATM    4  C4  UNL     1     -35.382  17.117  -4.511  1.00 20.00     0.292 C 
HETATM    5  C5  UNL     1     -35.685  17.980  -2.370  1.00 20.00     0.278 C 
HETATM    6  C6  UNL     1     -35.527  15.949  -3.527  1.00 20.00     0.127 C 
HETATM    7  C7  UNL     1     -35.065  16.599  -2.215  1.00 20.00     0.035 C 
HETATM    8  N8  UNL     1     -34.165  13.815  -4.221  1.00 20.00    -0.197 NA
HETATM    9  N9  UNL     1     -34.988  18.275  -3.653  1.00 20.00     0.090 N 
ENDROOT
TORSDOF 0
ENDMDL
