MODEL 1
REMARK VINA RESULT:      -4.6      0.000      0.000
REMARK  2 active torsions:
REMARK  status: ('A' for Active; 'I' for Inactive)
REMARK    1  A    between atoms: C5_5  and  C6_6 
REMARK    2  A    between atoms: C6_6  and  S8_8 
ROOT
HETATM    1  C1  UNL     1     -34.072   7.011   5.784  1.00 20.00     0.027 C 
HETATM    2  C2  UNL     1     -32.936   7.460   4.871  1.00 20.00     0.009 C 
HETATM    3  C3  UNL     1     -34.584   5.637   5.372  1.00 20.00     0.167 C 
HETATM    4  C4  UNL     1     -33.900   5.937   3.123  1.00 20.00     0.172 C 
HETATM    5  C5  UNL     1     -33.348   7.338   3.398  1.00 20.00     0.019 C 
HETATM    6  O7  UNL     1     -34.985   5.638   4.003  1.00 20.00    -0.391 OA
ENDROOT
BRANCH   5   7
HETATM    7  C6  UNL     1     -32.181   7.663   2.472  1.00 20.00     0.077 C 
BRANCH   7   8
HETATM    8  S8  UNL     1     -32.519   9.182   1.546  1.00 20.00    -0.182 SA
HETATM    9  H20 UNL     1     -33.574   8.709   0.868  1.00 20.00     0.101 HD
ENDBRANCH   7   8
ENDBRANCH   5   7
TORSDOF 2
ENDMDL
MODEL 2
REMARK VINA RESULT:      -4.2      1.307      1.987
REMARK  2 active torsions:
REMARK  status: ('A' for Active; 'I' for Inactive)
REMARK    1  A    between atoms: C5_5  and  C6_6 
REMARK    2  A    between atoms: C6_6  and  S8_8 
ROOT
HETATM    1  C1  UNL     1     -34.172   4.337   4.364  1.00 20.00     0.027 C 
HETATM    2  C2  UNL     1     -33.915   5.269   3.183  1.00 20.00     0.009 C 
HETATM    3  C3  UNL     1     -34.847   5.087   5.505  1.00 20.00     0.167 C 
HETATM    4  C4  UNL     1     -33.925   7.163   4.831  1.00 20.00     0.172 C 
HETATM    5  C5  UNL     1     -33.186   6.537   3.646  1.00 20.00     0.019 C 
HETATM    6  O7  UNL     1     -34.071   6.220   5.893  1.00 20.00    -0.391 OA
ENDROOT
BRANCH   5   7
HETATM    7  C6  UNL     1     -33.035   7.532   2.501  1.00 20.00     0.077 C 
BRANCH   7   8
HETATM    8  S8  UNL     1     -31.540   8.528   2.728  1.00 20.00    -0.182 SA
HETATM    9  H20 UNL     1     -30.838   7.592   3.383  1.00 20.00     0.101 HD
ENDBRANCH   7   8
ENDBRANCH   5   7
TORSDOF 2
ENDMDL
MODEL 3
REMARK VINA RESULT:      -4.1      1.059      1.880
REMARK  2 active torsions:
REMARK  status: ('A' for Active; 'I' for Inactive)
REMARK    1  A    between atoms: C5_5  and  C6_6 
REMARK    2  A    between atoms: C6_6  and  S8_8 
ROOT
HETATM    1  C1  UNL     1     -34.098   5.322   3.235  1.00 20.00     0.027 C 
HETATM    2  C2  UNL     1     -33.276   6.492   2.702  1.00 20.00     0.009 C 
HETATM    3  C3  UNL     1     -34.944   5.756   4.424  1.00 20.00     0.167 C 
HETATM    4  C4  UNL     1     -33.444   7.498   4.996  1.00 20.00     0.172 C 
HETATM    5  C5  UNL     1     -32.498   7.166   3.839  1.00 20.00     0.019 C 
HETATM    6  O7  UNL     1     -34.127   6.326   5.444  1.00 20.00    -0.391 OA
ENDROOT
BRANCH   5   7
HETATM    7  C6  UNL     1     -31.772   8.412   3.345  1.00 20.00     0.077 C 
BRANCH   7   8
HETATM    8  S8  UNL     1     -32.237   8.772   1.632  1.00 20.00    -0.182 SA
HETATM    9  H20 UNL     1     -33.545   8.520   1.780  1.00 20.00     0.101 HD
ENDBRANCH   7   8
ENDBRANCH   5   7
TORSDOF 2
ENDMDL
MODEL 4
REMARK VINA RESULT:      -3.9      2.659      3.713
REMARK  2 active torsions:
REMARK  status: ('A' for Active; 'I' for Inactive)
REMARK    1  A    between atoms: C5_5  and  C6_6 
REMARK    2  A    between atoms: C6_6  and  S8_8 
ROOT
HETATM    1  C1  UNL     1     -32.344   7.759   2.466  1.00 20.00     0.027 C 
HETATM    2  C2  UNL     1     -33.352   6.630   2.655  1.00 20.00     0.009 C 
HETATM    3  C3  UNL     1     -31.570   8.012   3.752  1.00 20.00     0.167 C 
HETATM    4  C4  UNL     1     -33.331   7.185   5.104  1.00 20.00     0.172 C 
HETATM    5  C5  UNL     1     -34.220   6.885   3.894  1.00 20.00     0.019 C 
HETATM    6  O7  UNL     1     -32.461   8.285   4.832  1.00 20.00    -0.391 OA
ENDROOT
BRANCH   5   7
HETATM    7  C6  UNL     1     -35.145   5.705   4.169  1.00 20.00     0.077 C 
BRANCH   7   8
HETATM    8  S8  UNL     1     -34.178   4.203   4.464  1.00 20.00    -0.182 SA
HETATM    9  H20 UNL     1     -33.536   4.208   3.287  1.00 20.00     0.101 HD
ENDBRANCH   7   8
ENDBRANCH   5   7
TORSDOF 2
ENDMDL
MODEL 5
REMARK VINA RESULT:      -3.5     11.235     12.151
REMARK  2 active torsions:
REMARK  status: ('A' for Active; 'I' for Inactive)
REMARK    1  A    between atoms: C5_5  and  C6_6 
REMARK    2  A    between atoms: C6_6  and  S8_8 
ROOT
HETATM    1  C1  UNL     1     -34.399  13.754  -7.304  1.00 20.00     0.027 C 
HETATM    2  C2  UNL     1     -33.899  14.930  -6.471  1.00 20.00     0.009 C 
HETATM    3  C3  UNL     1     -35.702  13.207  -6.737  1.00 20.00     0.167 C 
HETATM    4  C4  UNL     1     -35.196  13.966  -4.550  1.00 20.00     0.172 C 
HETATM    5  C5  UNL     1     -33.853  14.557  -4.984  1.00 20.00     0.019 C 
HETATM    6  O7  UNL     1     -35.544  12.846  -5.366  1.00 20.00    -0.391 OA
ENDROOT
BRANCH   5   7
HETATM    7  C6  UNL     1     -33.477  15.760  -4.127  1.00 20.00     0.077 C 
BRANCH   7   8
HETATM    8  S8  UNL     1     -34.840  16.191  -3.016  1.00 20.00    -0.182 SA
HETATM    9  H20 UNL     1     -34.501  15.345  -2.033  1.00 20.00     0.101 HD
ENDBRANCH   7   8
ENDBRANCH   5   7
TORSDOF 2
ENDMDL
MODEL 6
REMARK VINA RESULT:      -3.3     11.837     12.405
REMARK  2 active torsions:
REMARK  status: ('A' for Active; 'I' for Inactive)
REMARK    1  A    between atoms: C5_5  and  C6_6 
REMARK    2  A    between atoms: C6_6  and  S8_8 
ROOT
HETATM    1  C1  UNL     1     -34.020  18.012  -0.419  1.00 20.00     0.027 C 
HETATM    2  C2  UNL     1     -34.694  17.032  -1.375  1.00 20.00     0.009 C 
HETATM    3  C3  UNL     1     -33.525  19.241  -1.169  1.00 20.00     0.167 C 
HETATM    4  C4  UNL     1     -33.305  18.047  -3.203  1.00 20.00     0.172 C 
HETATM    5  C5  UNL     1     -33.784  16.737  -2.574  1.00 20.00     0.019 C 
HETATM    6  O7  UNL     1     -32.652  18.866  -2.232  1.00 20.00    -0.391 OA
ENDROOT
BRANCH   5   7
HETATM    7  C6  UNL     1     -34.494  15.860  -3.599  1.00 20.00     0.077 C 
BRANCH   7   8
HETATM    8  S8  UNL     1     -33.293  14.838  -4.490  1.00 20.00    -0.182 SA
HETATM    9  H20 UNL     1     -33.841  13.657  -4.172  1.00 20.00     0.101 HD
ENDBRANCH   7   8
ENDBRANCH   5   7
TORSDOF 2
ENDMDL
MODEL 7
REMARK VINA RESULT:      -3.2     11.285     12.312
REMARK  2 active torsions:
REMARK  status: ('A' for Active; 'I' for Inactive)
REMARK    1  A    between atoms: C5_5  and  C6_6 
REMARK    2  A    between atoms: C6_6  and  S8_8 
ROOT
HETATM    1  C1  UNL     1     -33.279  15.854  -6.193  1.00 20.00     0.027 C 
HETATM    2  C2  UNL     1     -33.810  16.618  -4.984  1.00 20.00     0.009 C 
HETATM    3  C3  UNL     1     -34.083  14.581  -6.421  1.00 20.00     0.167 C 
HETATM    4  C4  UNL     1     -34.691  14.425  -4.137  1.00 20.00     0.172 C 
HETATM    5  C5  UNL     1     -33.916  15.692  -3.766  1.00 20.00     0.019 C 
HETATM    6  O7  UNL     1     -34.084  13.767  -5.250  1.00 20.00    -0.391 OA
ENDROOT
BRANCH   5   7
HETATM    7  C6  UNL     1     -34.562  16.408  -2.585  1.00 20.00     0.077 C 
BRANCH   7   8
HETATM    8  S8  UNL     1     -33.386  17.558  -1.829  1.00 20.00    -0.182 SA
HETATM    9  H20 UNL     1     -32.278  16.911  -2.216  1.00 20.00     0.101 HD
ENDBRANCH   7   8
ENDBRANCH   5   7
TORSDOF 2
ENDMDL
MODEL 8
REMARK VINA RESULT:      -3.2     11.794     12.264
REMARK  2 active torsions:
REMARK  status: ('A' for Active; 'I' for Inactive)
REMARK    1  A    between atoms: C5_5  and  C6_6 
REMARK    2  A    between atoms: C6_6  and  S8_8 
ROOT
HETATM    1  C1  UNL     1     -34.112  16.238  -3.300  1.00 20.00     0.027 C 
HETATM    2  C2  UNL     1     -35.277  15.346  -3.719  1.00 20.00     0.009 C 
HETATM    3  C3  UNL     1     -33.354  16.742  -4.520  1.00 20.00     0.167 C 
HETATM    4  C4  UNL     1     -34.001  14.877  -5.830  1.00 20.00     0.172 C 
HETATM    5  C5  UNL     1     -34.799  14.253  -4.683  1.00 20.00     0.019 C 
HETATM    6  O7  UNL     1     -32.911  15.652  -5.326  1.00 20.00    -0.391 OA
ENDROOT
BRANCH   5   7
HETATM    7  C6  UNL     1     -35.971  13.432  -5.209  1.00 20.00     0.077 C 
BRANCH   7   8
HETATM    8  S8  UNL     1     -37.483  14.429  -5.214  1.00 20.00    -0.182 SA
HETATM    9  H20 UNL     1     -38.042  13.841  -6.281  1.00 20.00     0.101 HD
ENDBRANCH   7   8
ENDBRANCH   5   7
TORSDOF 2
ENDMDL
MODEL 9
REMARK VINA RESULT:      -3.2     11.525     11.903
REMARK  2 active torsions:
REMARK  status: ('A' for Active; 'I' for Inactive)
REMARK    1  A    between atoms: C5_5  and  C6_6 
REMARK    2  A    between atoms: C6_6  and  S8_8 
ROOT
HETATM    1  C1  UNL     1     -35.016  16.132  -3.059  1.00 20.00     0.027 C 
HETATM    2  C2  UNL     1     -35.893  15.356  -4.037  1.00 20.00     0.009 C 
HETATM    3  C3  UNL     1     -33.636  16.381  -3.654  1.00 20.00     0.167 C 
HETATM    4  C4  UNL     1     -33.773  14.471  -5.049  1.00 20.00     0.172 C 
HETATM    5  C5  UNL     1     -35.165  14.100  -4.533  1.00 20.00     0.019 C 
HETATM    6  O7  UNL     1     -33.024  15.152  -4.041  1.00 20.00    -0.391 OA
ENDROOT
BRANCH   5   7
HETATM    7  C6  UNL     1     -35.978  13.382  -5.605  1.00 20.00     0.077 C 
BRANCH   7   8
HETATM    8  S8  UNL     1     -35.067  13.356  -7.171  1.00 20.00    -0.182 SA
HETATM    9  H20 UNL     1     -36.144  13.425  -7.967  1.00 20.00     0.101 HD
ENDBRANCH   7   8
ENDBRANCH   5   7
TORSDOF 2
ENDMDL
