MODEL 1
REMARK VINA RESULT:      -6.0      0.000      0.000
REMARK  2 active torsions:
REMARK  status: ('A' for Active; 'I' for Inactive)
REMARK    1  A    between atoms: C5_5  and  C7_7 
REMARK    2  A    between atoms: C6_6  and  C8_8 
ROOT
HETATM    1  C1  UNL     1     -32.501   8.418   5.266  1.00 20.00     0.001 C 
HETATM    2  C2  UNL     1     -31.686   8.440   3.976  1.00 20.00     0.005 C 
HETATM    3  C3  UNL     1     -33.282   7.116   5.417  1.00 20.00     0.013 C 
HETATM    4  C4  UNL     1     -33.349   6.867   2.903  1.00 20.00     0.019 C 
HETATM    5  C5  UNL     1     -32.568   8.179   2.748  1.00 20.00    -0.000 C 
HETATM    6  C6  UNL     1     -34.173   6.846   4.198  1.00 20.00     0.094 C 
ENDROOT
BRANCH   6   7
HETATM    7  C8  UNL     1     -34.907   5.515   4.349  1.00 20.00     0.391 C 
HETATM    8  F9  UNL     1     -35.028   5.203   5.648  1.00 20.00    -0.171 F 
HETATM    9  F10 UNL     1     -36.131   5.601   3.807  1.00 20.00    -0.171 F 
HETATM   10  F11 UNL     1     -34.224   4.540   3.730  1.00 20.00    -0.171 F 
ENDBRANCH   6   7
BRANCH   5  11
HETATM   11  C7  UNL     1     -31.723   8.157   1.474  1.00 20.00     0.119 C 
HETATM   12 CL12 UNL     1     -32.037   9.609   0.508  1.00 20.00    -0.130 Cl
ENDBRANCH   5  11
TORSDOF 2
ENDMDL
MODEL 2
REMARK VINA RESULT:      -6.0      0.008      1.092
REMARK  2 active torsions:
REMARK  status: ('A' for Active; 'I' for Inactive)
REMARK    1  A    between atoms: C5_5  and  C7_7 
REMARK    2  A    between atoms: C6_6  and  C8_8 
ROOT
HETATM    1  C1  UNL     1     -32.506   8.416   5.264  1.00 20.00     0.001 C 
HETATM    2  C2  UNL     1     -31.693   8.440   3.972  1.00 20.00     0.005 C 
HETATM    3  C3  UNL     1     -33.284   7.111   5.416  1.00 20.00     0.013 C 
HETATM    4  C4  UNL     1     -33.353   6.862   2.902  1.00 20.00     0.019 C 
HETATM    5  C5  UNL     1     -32.575   8.177   2.746  1.00 20.00    -0.000 C 
HETATM    6  C6  UNL     1     -34.175   6.840   4.198  1.00 20.00     0.094 C 
ENDROOT
BRANCH   6   7
HETATM    7  C8  UNL     1     -34.905   5.506   4.350  1.00 20.00     0.391 C 
HETATM    8  F9  UNL     1     -34.220   4.534   3.730  1.00 20.00    -0.171 F 
HETATM    9  F10 UNL     1     -35.023   5.194   5.650  1.00 20.00    -0.171 F 
HETATM   10  F11 UNL     1     -36.130   5.588   3.810  1.00 20.00    -0.171 F 
ENDBRANCH   6   7
BRANCH   5  11
HETATM   11  C7  UNL     1     -31.732   8.156   1.471  1.00 20.00     0.119 C 
HETATM   12 CL12 UNL     1     -32.040   9.615   0.513  1.00 20.00    -0.130 Cl
ENDBRANCH   5  11
TORSDOF 2
ENDMDL
MODEL 3
REMARK VINA RESULT:      -6.0      0.032      1.087
REMARK  2 active torsions:
REMARK  status: ('A' for Active; 'I' for Inactive)
REMARK    1  A    between atoms: C5_5  and  C7_7 
REMARK    2  A    between atoms: C6_6  and  C8_8 
ROOT
HETATM    1  C1  UNL     1     -32.523   8.414   5.266  1.00 20.00     0.001 C 
HETATM    2  C2  UNL     1     -31.706   8.448   3.977  1.00 20.00     0.005 C 
HETATM    3  C3  UNL     1     -33.287   7.101   5.413  1.00 20.00     0.013 C 
HETATM    4  C4  UNL     1     -33.347   6.855   2.899  1.00 20.00     0.019 C 
HETATM    5  C5  UNL     1     -32.582   8.178   2.747  1.00 20.00    -0.000 C 
HETATM    6  C6  UNL     1     -34.173   6.822   4.192  1.00 20.00     0.094 C 
ENDROOT
BRANCH   6   7
HETATM    7  C8  UNL     1     -34.889   5.480   4.341  1.00 20.00     0.391 C 
HETATM    8  F9  UNL     1     -36.121   5.558   3.815  1.00 20.00    -0.171 F 
HETATM    9  F10 UNL     1     -34.202   4.521   3.703  1.00 20.00    -0.171 F 
HETATM   10  F11 UNL     1     -34.989   5.154   5.638  1.00 20.00    -0.171 F 
ENDBRANCH   6   7
BRANCH   5  11
HETATM   11  C7  UNL     1     -31.735   8.168   1.475  1.00 20.00     0.119 C 
HETATM   12 CL12 UNL     1     -32.053   9.627   0.519  1.00 20.00    -0.130 Cl
ENDBRANCH   5  11
TORSDOF 2
ENDMDL
MODEL 4
REMARK VINA RESULT:      -5.4      3.830      4.765
REMARK  2 active torsions:
REMARK  status: ('A' for Active; 'I' for Inactive)
REMARK    1  A    between atoms: C5_5  and  C7_7 
REMARK    2  A    between atoms: C6_6  and  C8_8 
ROOT
HETATM    1  C1  UNL     1     -31.844   8.283   4.457  1.00 20.00     0.001 C 
HETATM    2  C2  UNL     1     -33.128   7.478   4.644  1.00 20.00     0.005 C 
HETATM    3  C3  UNL     1     -31.870   9.091   3.162  1.00 20.00     0.013 C 
HETATM    4  C4  UNL     1     -33.436   7.394   2.136  1.00 20.00     0.019 C 
HETATM    5  C5  UNL     1     -33.409   6.576   3.436  1.00 20.00    -0.000 C 
HETATM    6  C6  UNL     1     -32.144   8.199   1.945  1.00 20.00     0.094 C 
ENDROOT
BRANCH   6   7
HETATM    7  C8  UNL     1     -32.213   9.036   0.668  1.00 20.00     0.391 C 
HETATM    8  F9  UNL     1     -32.232  10.341   0.976  1.00 20.00    -0.171 F 
HETATM    9  F10 UNL     1     -31.145   8.785  -0.103  1.00 20.00    -0.171 F 
HETATM   10  F11 UNL     1     -33.326   8.735  -0.019  1.00 20.00    -0.171 F 
ENDBRANCH   6   7
BRANCH   5  11
HETATM   11  C7  UNL     1     -34.723   5.819   3.624  1.00 20.00     0.119 C 
HETATM   12 CL12 UNL     1     -34.814   5.155   5.265  1.00 20.00    -0.130 Cl
ENDBRANCH   5  11
TORSDOF 2
ENDMDL
MODEL 5
REMARK VINA RESULT:      -5.4      3.841      4.772
REMARK  2 active torsions:
REMARK  status: ('A' for Active; 'I' for Inactive)
REMARK    1  A    between atoms: C5_5  and  C7_7 
REMARK    2  A    between atoms: C6_6  and  C8_8 
ROOT
HETATM    1  C1  UNL     1     -31.839   8.312   4.446  1.00 20.00     0.001 C 
HETATM    2  C2  UNL     1     -33.114   7.490   4.625  1.00 20.00     0.005 C 
HETATM    3  C3  UNL     1     -31.870   9.124   3.155  1.00 20.00     0.013 C 
HETATM    4  C4  UNL     1     -33.412   7.412   2.116  1.00 20.00     0.019 C 
HETATM    5  C5  UNL     1     -33.379   6.589   3.412  1.00 20.00    -0.000 C 
HETATM    6  C6  UNL     1     -32.128   8.234   1.933  1.00 20.00     0.094 C 
ENDROOT
BRANCH   6   7
HETATM    7  C8  UNL     1     -32.204   9.075   0.659  1.00 20.00     0.391 C 
HETATM    8  F9  UNL     1     -31.138   8.829  -0.117  1.00 20.00    -0.171 F 
HETATM    9  F10 UNL     1     -33.318   8.774  -0.024  1.00 20.00    -0.171 F 
HETATM   10  F11 UNL     1     -32.223  10.380   0.971  1.00 20.00    -0.171 F 
ENDBRANCH   6   7
BRANCH   5  11
HETATM   11  C7  UNL     1     -34.684   5.815   3.593  1.00 20.00     0.119 C 
HETATM   12 CL12 UNL     1     -34.800   5.194   5.249  1.00 20.00    -0.130 Cl
ENDBRANCH   5  11
TORSDOF 2
ENDMDL
MODEL 6
REMARK VINA RESULT:      -5.3      3.437      4.692
REMARK  2 active torsions:
REMARK  status: ('A' for Active; 'I' for Inactive)
REMARK    1  A    between atoms: C5_5  and  C7_7 
REMARK    2  A    between atoms: C6_6  and  C8_8 
ROOT
HETATM    1  C1  UNL     1     -33.442   4.673   2.509  1.00 20.00     0.001 C 
HETATM    2  C2  UNL     1     -33.816   4.677   3.989  1.00 20.00     0.005 C 
HETATM    3  C3  UNL     1     -32.540   5.851   2.153  1.00 20.00     0.013 C 
HETATM    4  C4  UNL     1     -33.545   7.189   4.047  1.00 20.00     0.019 C 
HETATM    5  C5  UNL     1     -34.457   6.007   4.405  1.00 20.00    -0.000 C 
HETATM    6  C6  UNL     1     -33.172   7.189   2.558  1.00 20.00     0.094 C 
ENDROOT
BRANCH   6   7
HETATM    7  C8  UNL     1     -32.231   8.349   2.236  1.00 20.00     0.391 C 
HETATM    8  F9  UNL     1     -32.940   9.425   1.865  1.00 20.00    -0.171 F 
HETATM    9  F10 UNL     1     -31.501   8.660   3.318  1.00 20.00    -0.171 F 
HETATM   10  F11 UNL     1     -31.404   8.007   1.237  1.00 20.00    -0.171 F 
ENDBRANCH   6   7
BRANCH   5  11
HETATM   11  C7  UNL     1     -34.777   6.006   5.899  1.00 20.00     0.119 C 
HETATM   12 CL12 UNL     1     -34.023   7.405   6.685  1.00 20.00    -0.130 Cl
ENDBRANCH   5  11
TORSDOF 2
ENDMDL
MODEL 7
REMARK VINA RESULT:      -5.3      3.438      4.691
REMARK  2 active torsions:
REMARK  status: ('A' for Active; 'I' for Inactive)
REMARK    1  A    between atoms: C5_5  and  C7_7 
REMARK    2  A    between atoms: C6_6  and  C8_8 
ROOT
HETATM    1  C1  UNL     1     -33.442   4.673   2.510  1.00 20.00     0.001 C 
HETATM    2  C2  UNL     1     -33.817   4.678   3.990  1.00 20.00     0.005 C 
HETATM    3  C3  UNL     1     -32.541   5.851   2.154  1.00 20.00     0.013 C 
HETATM    4  C4  UNL     1     -33.544   7.190   4.048  1.00 20.00     0.019 C 
HETATM    5  C5  UNL     1     -34.457   6.008   4.406  1.00 20.00    -0.000 C 
HETATM    6  C6  UNL     1     -33.172   7.189   2.559  1.00 20.00     0.094 C 
ENDROOT
BRANCH   6   7
HETATM    7  C8  UNL     1     -32.231   8.349   2.237  1.00 20.00     0.391 C 
HETATM    8  F9  UNL     1     -31.406   8.006   1.237  1.00 20.00    -0.171 F 
HETATM    9  F10 UNL     1     -32.940   9.426   1.867  1.00 20.00    -0.171 F 
HETATM   10  F11 UNL     1     -31.499   8.660   3.318  1.00 20.00    -0.171 F 
ENDBRANCH   6   7
BRANCH   5  11
HETATM   11  C7  UNL     1     -34.777   6.007   5.900  1.00 20.00     0.119 C 
HETATM   12 CL12 UNL     1     -34.023   7.406   6.686  1.00 20.00    -0.130 Cl
ENDBRANCH   5  11
TORSDOF 2
ENDMDL
MODEL 8
REMARK VINA RESULT:      -4.9      1.365      2.185
REMARK  2 active torsions:
REMARK  status: ('A' for Active; 'I' for Inactive)
REMARK    1  A    between atoms: C5_5  and  C7_7 
REMARK    2  A    between atoms: C6_6  and  C8_8 
ROOT
HETATM    1  C1  UNL     1     -32.987   5.603   2.036  1.00 20.00     0.001 C 
HETATM    2  C2  UNL     1     -32.673   7.079   1.803  1.00 20.00     0.005 C 
HETATM    3  C3  UNL     1     -33.944   5.409   3.209  1.00 20.00     0.013 C 
HETATM    4  C4  UNL     1     -33.100   7.552   4.250  1.00 20.00     0.019 C 
HETATM    5  C5  UNL     1     -32.133   7.747   3.074  1.00 20.00    -0.000 C 
HETATM    6  C6  UNL     1     -33.412   6.067   4.488  1.00 20.00     0.094 C 
ENDROOT
BRANCH   6   7
HETATM    7  C8  UNL     1     -34.408   5.902   5.634  1.00 20.00     0.391 C 
HETATM    8  F9  UNL     1     -34.337   6.957   6.459  1.00 20.00    -0.171 F 
HETATM    9  F10 UNL     1     -35.655   5.812   5.148  1.00 20.00    -0.171 F 
HETATM   10  F11 UNL     1     -34.130   4.787   6.327  1.00 20.00    -0.171 F 
ENDBRANCH   6   7
BRANCH   5  11
HETATM   11  C7  UNL     1     -31.874   9.234   2.831  1.00 20.00     0.119 C 
HETATM   12 CL12 UNL     1     -32.443   9.696   1.217  1.00 20.00    -0.130 Cl
ENDBRANCH   5  11
TORSDOF 2
ENDMDL
MODEL 9
REMARK VINA RESULT:      -4.6     11.430     12.009
REMARK  2 active torsions:
REMARK  status: ('A' for Active; 'I' for Inactive)
REMARK    1  A    between atoms: C5_5  and  C7_7 
REMARK    2  A    between atoms: C6_6  and  C8_8 
ROOT
HETATM    1  C1  UNL     1     -35.519  17.945   0.140  1.00 20.00     0.001 C 
HETATM    2  C2  UNL     1     -34.147  18.180   0.766  1.00 20.00     0.005 C 
HETATM    3  C3  UNL     1     -35.442  16.983  -1.041  1.00 20.00     0.013 C 
HETATM    4  C4  UNL     1     -33.052  17.689  -1.459  1.00 20.00     0.019 C 
HETATM    5  C5  UNL     1     -33.128  18.663  -0.274  1.00 20.00    -0.000 C 
HETATM    6  C6  UNL     1     -34.431  17.457  -2.092  1.00 20.00     0.094 C 
ENDROOT
BRANCH   6   7
HETATM    7  C8  UNL     1     -34.335  16.454  -3.241  1.00 20.00     0.391 C 
HETATM    8  F9  UNL     1     -33.139  15.847  -3.221  1.00 20.00    -0.171 F 
HETATM    9  F10 UNL     1     -35.296  15.526  -3.119  1.00 20.00    -0.171 F 
HETATM   10  F11 UNL     1     -34.484  17.084  -4.415  1.00 20.00    -0.171 F 
ENDBRANCH   6   7
BRANCH   5  11
HETATM   11  C7  UNL     1     -31.751  18.842   0.365  1.00 20.00     0.119 C 
HETATM   12 CL12 UNL     1     -31.843  18.535   2.108  1.00 20.00    -0.130 Cl
ENDBRANCH   5  11
TORSDOF 2
ENDMDL
