MODEL 1
REMARK VINA RESULT:      -4.5      0.000      0.000
REMARK  4 active torsions:
REMARK  status: ('A' for Active; 'I' for Inactive)
REMARK    1  A    between atoms: C3_3  and  C6_6 
REMARK    2  A    between atoms: C4_4  and  C6_6 
REMARK    3  A    between atoms: C4_4  and  O7_7 
REMARK    4  A    between atoms: C5_5  and  C6_6 
ROOT
HETATM    1  C6  UNL     1     -33.779   7.218   3.728  1.00 20.00     0.023 C 
ENDROOT
BRANCH   1   2
HETATM    2  C3  UNL     1     -33.720   7.161   5.271  1.00 20.00     0.003 C 
HETATM    3  C1  UNL     1     -34.412   5.943   5.866  1.00 20.00     0.005 C 
ENDBRANCH   1   2
BRANCH   1   4
HETATM    4  C4  UNL     1     -32.419   7.646   3.151  1.00 20.00     0.172 C 
BRANCH   4   5
HETATM    5  O7  UNL     1     -32.601   8.695   2.208  1.00 20.00    -0.396 OA
HETATM    6  C2  UNL     1     -31.648   8.623   1.158  1.00 20.00     0.201 C 
ENDBRANCH   4   5
ENDBRANCH   1   4
BRANCH   1   7
HETATM    7  C5  UNL     1     -34.274   5.922   3.067  1.00 20.00     0.121 C 
HETATM    8 CL8  UNL     1     -32.961   4.805   2.622  1.00 20.00    -0.130 Cl
ENDBRANCH   1   7
TORSDOF 4
ENDMDL
MODEL 2
REMARK VINA RESULT:      -4.1      1.665      2.380
REMARK  4 active torsions:
REMARK  status: ('A' for Active; 'I' for Inactive)
REMARK    1  A    between atoms: C3_3  and  C6_6 
REMARK    2  A    between atoms: C4_4  and  C6_6 
REMARK    3  A    between atoms: C4_4  and  O7_7 
REMARK    4  A    between atoms: C5_5  and  C6_6 
ROOT
HETATM    1  C6  UNL     1     -32.746   7.030   3.791  1.00 20.00     0.023 C 
ENDROOT
BRANCH   1   2
HETATM    2  C3  UNL     1     -33.570   6.222   2.763  1.00 20.00     0.003 C 
HETATM    3  C1  UNL     1     -33.101   4.785   2.594  1.00 20.00     0.005 C 
ENDBRANCH   1   2
BRANCH   1   4
HETATM    4  C4  UNL     1     -32.081   8.242   3.118  1.00 20.00     0.172 C 
BRANCH   4   5
HETATM    5  O7  UNL     1     -32.411   8.269   1.735  1.00 20.00    -0.396 OA
HETATM    6  C2  UNL     1     -32.353   9.588   1.211  1.00 20.00     0.201 C 
ENDBRANCH   4   5
ENDBRANCH   1   4
BRANCH   1   7
HETATM    7  C5  UNL     1     -33.539   7.458   5.037  1.00 20.00     0.121 C 
HETATM    8 CL8  UNL     1     -34.334   6.102   5.873  1.00 20.00    -0.130 Cl
ENDBRANCH   1   7
TORSDOF 4
ENDMDL
MODEL 3
REMARK VINA RESULT:      -4.0      1.921      2.244
REMARK  4 active torsions:
REMARK  status: ('A' for Active; 'I' for Inactive)
REMARK    1  A    between atoms: C3_3  and  C6_6 
REMARK    2  A    between atoms: C4_4  and  C6_6 
REMARK    3  A    between atoms: C4_4  and  O7_7 
REMARK    4  A    between atoms: C5_5  and  C6_6 
ROOT
HETATM    1  C6  UNL     1     -33.243   6.528   3.691  1.00 20.00     0.023 C 
ENDROOT
BRANCH   1   2
HETATM    2  C3  UNL     1     -34.590   5.774   3.746  1.00 20.00     0.003 C 
HETATM    3  C1  UNL     1     -34.499   4.399   4.392  1.00 20.00     0.005 C 
ENDBRANCH   1   2
BRANCH   1   4
HETATM    4  C4  UNL     1     -33.010   7.118   2.291  1.00 20.00     0.172 C 
BRANCH   4   5
HETATM    5  O7  UNL     1     -32.031   8.148   2.356  1.00 20.00    -0.396 OA
HETATM    6  C2  UNL     1     -32.119   9.022   1.239  1.00 20.00     0.201 C 
ENDBRANCH   4   5
ENDBRANCH   1   4
BRANCH   1   7
HETATM    7  C5  UNL     1     -33.079   7.604   4.777  1.00 20.00     0.121 C 
HETATM    8 CL8  UNL     1     -33.998   7.261   6.262  1.00 20.00    -0.130 Cl
ENDBRANCH   1   7
TORSDOF 4
ENDMDL
MODEL 4
REMARK VINA RESULT:      -4.0      2.330      3.823
REMARK  4 active torsions:
REMARK  status: ('A' for Active; 'I' for Inactive)
REMARK    1  A    between atoms: C3_3  and  C6_6 
REMARK    2  A    between atoms: C4_4  and  C6_6 
REMARK    3  A    between atoms: C4_4  and  O7_7 
REMARK    4  A    between atoms: C5_5  and  C6_6 
ROOT
HETATM    1  C6  UNL     1     -33.525   7.275   3.486  1.00 20.00     0.023 C 
ENDROOT
BRANCH   1   2
HETATM    2  C3  UNL     1     -33.947   6.074   2.610  1.00 20.00     0.003 C 
HETATM    3  C1  UNL     1     -32.934   4.939   2.594  1.00 20.00     0.005 C 
ENDBRANCH   1   2
BRANCH   1   4
HETATM    4  C4  UNL     1     -33.766   6.969   4.973  1.00 20.00     0.172 C 
BRANCH   4   5
HETATM    5  O7  UNL     1     -34.884   6.100   5.114  1.00 20.00    -0.396 OA
HETATM    6  C2  UNL     1     -34.562   4.961   5.900  1.00 20.00     0.201 C 
ENDBRANCH   4   5
ENDBRANCH   1   4
BRANCH   1   7
HETATM    7  C5  UNL     1     -32.082   7.751   3.249  1.00 20.00     0.121 C 
HETATM    8 CL8  UNL     1     -31.842   8.525   1.663  1.00 20.00    -0.130 Cl
ENDBRANCH   1   7
TORSDOF 4
ENDMDL
MODEL 5
REMARK VINA RESULT:      -4.0      2.396      3.996
REMARK  4 active torsions:
REMARK  status: ('A' for Active; 'I' for Inactive)
REMARK    1  A    between atoms: C3_3  and  C6_6 
REMARK    2  A    between atoms: C4_4  and  C6_6 
REMARK    3  A    between atoms: C4_4  and  O7_7 
REMARK    4  A    between atoms: C5_5  and  C6_6 
ROOT
HETATM    1  C6  UNL     1     -33.678   7.347   3.594  1.00 20.00     0.023 C 
ENDROOT
BRANCH   1   2
HETATM    2  C3  UNL     1     -32.621   7.187   2.479  1.00 20.00     0.003 C 
HETATM    3  C1  UNL     1     -31.937   8.489   2.088  1.00 20.00     0.005 C 
ENDBRANCH   1   2
BRANCH   1   4
HETATM    4  C4  UNL     1     -34.632   6.142   3.611  1.00 20.00     0.172 C 
BRANCH   4   5
HETATM    5  O7  UNL     1     -33.890   4.935   3.479  1.00 20.00    -0.396 OA
HETATM    6  C2  UNL     1     -34.234   3.999   4.490  1.00 20.00     0.201 C 
ENDBRANCH   4   5
ENDBRANCH   1   4
BRANCH   1   7
HETATM    7  C5  UNL     1     -33.087   7.602   4.990  1.00 20.00     0.121 C 
HETATM    8 CL8  UNL     1     -34.126   7.028   6.317  1.00 20.00    -0.130 Cl
ENDBRANCH   1   7
TORSDOF 4
ENDMDL
MODEL 6
REMARK VINA RESULT:      -3.8      1.662      3.569
REMARK  4 active torsions:
REMARK  status: ('A' for Active; 'I' for Inactive)
REMARK    1  A    between atoms: C3_3  and  C6_6 
REMARK    2  A    between atoms: C4_4  and  C6_6 
REMARK    3  A    between atoms: C4_4  and  O7_7 
REMARK    4  A    between atoms: C5_5  and  C6_6 
ROOT
HETATM    1  C6  UNL     1     -32.716   7.071   3.657  1.00 20.00     0.023 C 
ENDROOT
BRANCH   1   2
HETATM    2  C3  UNL     1     -31.795   8.217   3.182  1.00 20.00     0.003 C 
HETATM    3  C1  UNL     1     -32.019   8.625   1.733  1.00 20.00     0.005 C 
ENDBRANCH   1   2
BRANCH   1   4
HETATM    4  C4  UNL     1     -33.765   7.596   4.650  1.00 20.00     0.172 C 
BRANCH   4   5
HETATM    5  O7  UNL     1     -33.718   6.836   5.852  1.00 20.00    -0.396 OA
HETATM    6  C2  UNL     1     -34.531   5.674   5.764  1.00 20.00     0.201 C 
ENDBRANCH   4   5
ENDBRANCH   1   4
BRANCH   1   7
HETATM    7  C5  UNL     1     -33.382   6.285   2.516  1.00 20.00     0.121 C 
HETATM    8 CL8  UNL     1     -33.000   4.546   2.534  1.00 20.00    -0.130 Cl
ENDBRANCH   1   7
TORSDOF 4
ENDMDL
MODEL 7
REMARK VINA RESULT:      -3.8      2.290      3.258
REMARK  4 active torsions:
REMARK  status: ('A' for Active; 'I' for Inactive)
REMARK    1  A    between atoms: C3_3  and  C6_6 
REMARK    2  A    between atoms: C4_4  and  C6_6 
REMARK    3  A    between atoms: C4_4  and  O7_7 
REMARK    4  A    between atoms: C5_5  and  C6_6 
ROOT
HETATM    1  C6  UNL     1     -32.846   6.980   3.635  1.00 20.00     0.023 C 
ENDROOT
BRANCH   1   2
HETATM    2  C3  UNL     1     -33.876   7.665   4.561  1.00 20.00     0.003 C 
HETATM    3  C1  UNL     1     -33.743   7.272   6.024  1.00 20.00     0.005 C 
ENDBRANCH   1   2
BRANCH   1   4
HETATM    4  C4  UNL     1     -33.553   6.049   2.636  1.00 20.00     0.172 C 
BRANCH   4   5
HETATM    5  O7  UNL     1     -33.279   4.692   2.961  1.00 20.00    -0.396 OA
HETATM    6  C2  UNL     1     -34.129   4.223   3.999  1.00 20.00     0.201 C 
ENDBRANCH   4   5
ENDBRANCH   1   4
BRANCH   1   7
HETATM    7  C5  UNL     1     -31.905   7.954   2.909  1.00 20.00     0.121 C 
HETATM    8 CL8  UNL     1     -32.616   8.669   1.441  1.00 20.00    -0.130 Cl
ENDBRANCH   1   7
TORSDOF 4
ENDMDL
MODEL 8
REMARK VINA RESULT:      -3.4     11.235     11.658
REMARK  4 active torsions:
REMARK  status: ('A' for Active; 'I' for Inactive)
REMARK    1  A    between atoms: C3_3  and  C6_6 
REMARK    2  A    between atoms: C4_4  and  C6_6 
REMARK    3  A    between atoms: C4_4  and  O7_7 
REMARK    4  A    between atoms: C5_5  and  C6_6 
ROOT
HETATM    1  C6  UNL     1     -34.630  14.576  -4.009  1.00 20.00     0.023 C 
ENDROOT
BRANCH   1   2
HETATM    2  C3  UNL     1     -35.094  15.848  -3.266  1.00 20.00     0.003 C 
HETATM    3  C1  UNL     1     -33.968  16.596  -2.567  1.00 20.00     0.005 C 
ENDBRANCH   1   2
BRANCH   1   4
HETATM    4  C4  UNL     1     -35.644  14.186  -5.098  1.00 20.00     0.172 C 
BRANCH   4   5
HETATM    5  O7  UNL     1     -35.304  12.916  -5.643  1.00 20.00    -0.396 OA
HETATM    6  C2  UNL     1     -35.254  12.956  -7.062  1.00 20.00     0.201 C 
ENDBRANCH   4   5
ENDBRANCH   1   4
BRANCH   1   7
HETATM    7  C5  UNL     1     -33.208  14.666  -4.587  1.00 20.00     0.121 C 
HETATM    8 CL8  UNL     1     -33.084  15.736  -6.004  1.00 20.00    -0.130 Cl
ENDBRANCH   1   7
TORSDOF 4
ENDMDL
MODEL 9
REMARK VINA RESULT:      -3.3     10.891     11.655
REMARK  4 active torsions:
REMARK  status: ('A' for Active; 'I' for Inactive)
REMARK    1  A    between atoms: C3_3  and  C6_6 
REMARK    2  A    between atoms: C4_4  and  C6_6 
REMARK    3  A    between atoms: C4_4  and  O7_7 
REMARK    4  A    between atoms: C5_5  and  C6_6 
ROOT
HETATM    1  C6  UNL     1     -35.501  14.796  -4.709  1.00 20.00     0.023 C 
ENDROOT
BRANCH   1   2
HETATM    2  C3  UNL     1     -34.262  14.247  -3.968  1.00 20.00     0.003 C 
HETATM    3  C1  UNL     1     -32.941  14.795  -4.489  1.00 20.00     0.005 C 
ENDBRANCH   1   2
BRANCH   1   4
HETATM    4  C4  UNL     1     -36.328  13.645  -5.305  1.00 20.00     0.172 C 
BRANCH   4   5
HETATM    5  O7  UNL     1     -35.464  12.698  -5.923  1.00 20.00    -0.396 OA
HETATM    6  C2  UNL     1     -35.172  13.059  -7.266  1.00 20.00     0.201 C 
ENDBRANCH   4   5
ENDBRANCH   1   4
BRANCH   1   7
HETATM    7  C5  UNL     1     -36.383  15.725  -3.859  1.00 20.00     0.121 C 
HETATM    8 CL8  UNL     1     -35.542  16.405  -2.445  1.00 20.00    -0.130 Cl
ENDBRANCH   1   7
TORSDOF 4
ENDMDL
