MODEL 1
REMARK VINA RESULT:      -5.6      0.000      0.000
REMARK  2 active torsions:
REMARK  status: ('A' for Active; 'I' for Inactive)
REMARK    1  A    between atoms: C1_1  and  C5_5 
REMARK    2  A    between atoms: C6_6  and  C8_8 
ROOT
HETATM    1  C2  UNL     1     -34.209   7.256   4.726  1.00 20.00     0.012 C 
HETATM    2  C3  UNL     1     -32.724   7.505   4.488  1.00 20.00     0.005 C 
HETATM    3  C4  UNL     1     -33.412   5.906   2.837  1.00 20.00     0.016 C 
HETATM    4  C5  UNL     1     -34.555   6.062   3.842  1.00 20.00     0.047 C 
HETATM    5  C6  UNL     1     -32.512   7.132   3.023  1.00 20.00    -0.014 C 
ENDROOT
BRANCH   4   6
HETATM    6  C1  UNL     1     -34.626   4.820   4.710  1.00 20.00     0.235 C 
HETATM    7  O9  UNL     1     -34.328   3.699   4.311  1.00 20.00    -0.306 OA
ENDBRANCH   4   6
BRANCH   5   8
HETATM    8  C8  UNL     1     -32.895   8.268   2.075  1.00 20.00     0.000 C 
HETATM    9  C7  UNL     1     -31.728   8.740   1.264  1.00 20.00     0.005 C 
ENDBRANCH   5   8
TORSDOF 2
ENDMDL
MODEL 2
REMARK VINA RESULT:      -5.4      2.161      4.021
REMARK  2 active torsions:
REMARK  status: ('A' for Active; 'I' for Inactive)
REMARK    1  A    between atoms: C1_1  and  C5_5 
REMARK    2  A    between atoms: C6_6  and  C8_8 
ROOT
HETATM    1  C2  UNL     1     -32.906   7.446   4.384  1.00 20.00     0.012 C 
HETATM    2  C3  UNL     1     -34.405   7.207   4.520  1.00 20.00     0.005 C 
HETATM    3  C4  UNL     1     -33.752   6.221   2.433  1.00 20.00     0.016 C 
HETATM    4  C5  UNL     1     -32.571   7.042   2.952  1.00 20.00     0.047 C 
HETATM    5  C6  UNL     1     -34.672   5.991   3.637  1.00 20.00    -0.014 C 
ENDROOT
BRANCH   4   6
HETATM    6  C1  UNL     1     -32.432   8.299   2.113  1.00 20.00     0.235 C 
HETATM    7  O9  UNL     1     -31.551   8.457   1.275  1.00 20.00    -0.306 OA
ENDBRANCH   4   6
BRANCH   5   8
HETATM    8  C8  UNL     1     -34.358   4.677   4.350  1.00 20.00     0.000 C 
HETATM    9  C7  UNL     1     -34.609   4.765   5.824  1.00 20.00     0.005 C 
ENDBRANCH   5   8
TORSDOF 2
ENDMDL
MODEL 3
REMARK VINA RESULT:      -4.5     11.080     11.800
REMARK  2 active torsions:
REMARK  status: ('A' for Active; 'I' for Inactive)
REMARK    1  A    between atoms: C1_1  and  C5_5 
REMARK    2  A    between atoms: C6_6  and  C8_8 
ROOT
HETATM    1  C2  UNL     1     -33.280  14.671  -4.479  1.00 20.00     0.012 C 
HETATM    2  C3  UNL     1     -33.226  16.168  -4.756  1.00 20.00     0.005 C 
HETATM    3  C4  UNL     1     -35.350  15.749  -3.722  1.00 20.00     0.016 C 
HETATM    4  C5  UNL     1     -34.721  14.397  -4.064  1.00 20.00     0.047 C 
HETATM    5  C6  UNL     1     -34.207  16.770  -3.753  1.00 20.00    -0.014 C 
ENDROOT
BRANCH   4   6
HETATM    6  C1  UNL     1     -35.459  13.790  -5.242  1.00 20.00     0.235 C 
HETATM    7  O9  UNL     1     -35.881  12.639  -5.254  1.00 20.00    -0.306 OA
ENDBRANCH   4   6
BRANCH   5   8
HETATM    8  C8  UNL     1     -33.579  16.963  -2.373  1.00 20.00     0.000 C 
HETATM    9  C7  UNL     1     -34.614  17.087  -1.298  1.00 20.00     0.005 C 
ENDBRANCH   5   8
TORSDOF 2
ENDMDL
MODEL 4
REMARK VINA RESULT:      -4.4      0.894      1.668
REMARK  2 active torsions:
REMARK  status: ('A' for Active; 'I' for Inactive)
REMARK    1  A    between atoms: C1_1  and  C5_5 
REMARK    2  A    between atoms: C6_6  and  C8_8 
ROOT
HETATM    1  C2  UNL     1     -33.289   5.287   3.063  1.00 20.00     0.012 C 
HETATM    2  C3  UNL     1     -33.814   6.423   2.195  1.00 20.00     0.005 C 
HETATM    3  C4  UNL     1     -33.626   7.306   4.417  1.00 20.00     0.016 C 
HETATM    4  C5  UNL     1     -33.421   5.792   4.496  1.00 20.00     0.047 C 
HETATM    5  C6  UNL     1     -33.412   7.688   2.949  1.00 20.00    -0.014 C 
ENDROOT
BRANCH   4   6
HETATM    6  C1  UNL     1     -34.648   5.157   5.124  1.00 20.00     0.235 C 
HETATM    7  O9  UNL     1     -35.125   4.092   4.746  1.00 20.00    -0.306 OA
ENDBRANCH   4   6
BRANCH   5   8
HETATM    8  C8  UNL     1     -31.964   8.092   2.671  1.00 20.00     0.000 C 
HETATM    9  C7  UNL     1     -31.822   8.801   1.360  1.00 20.00     0.005 C 
ENDBRANCH   5   8
TORSDOF 2
ENDMDL
MODEL 5
REMARK VINA RESULT:      -4.1     11.169     11.973
REMARK  2 active torsions:
REMARK  status: ('A' for Active; 'I' for Inactive)
REMARK    1  A    between atoms: C1_1  and  C5_5 
REMARK    2  A    between atoms: C6_6  and  C8_8 
ROOT
HETATM    1  C2  UNL     1     -35.834  15.987  -5.291  1.00 20.00     0.012 C 
HETATM    2  C3  UNL     1     -36.038  16.059  -3.783  1.00 20.00     0.005 C 
HETATM    3  C4  UNL     1     -34.219  14.538  -4.145  1.00 20.00     0.016 C 
HETATM    4  C5  UNL     1     -34.858  14.835  -5.503  1.00 20.00     0.047 C 
HETATM    5  C6  UNL     1     -34.686  15.652  -3.203  1.00 20.00    -0.014 C 
ENDROOT
BRANCH   4   6
HETATM    6  C1  UNL     1     -35.637  13.616  -5.962  1.00 20.00     0.235 C 
HETATM    7  O9  UNL     1     -35.917  12.677  -5.226  1.00 20.00    -0.306 OA
ENDBRANCH   4   6
BRANCH   5   8
HETATM    8  C8  UNL     1     -33.697  16.817  -3.164  1.00 20.00     0.000 C 
HETATM    9  C7  UNL     1     -33.511  17.349  -1.777  1.00 20.00     0.005 C 
ENDBRANCH   5   8
TORSDOF 2
ENDMDL
MODEL 6
REMARK VINA RESULT:      -4.1      2.470      4.283
REMARK  2 active torsions:
REMARK  status: ('A' for Active; 'I' for Inactive)
REMARK    1  A    between atoms: C1_1  and  C5_5 
REMARK    2  A    between atoms: C6_6  and  C8_8 
ROOT
HETATM    1  C2  UNL     1     -33.611   6.737   1.935  1.00 20.00     0.012 C 
HETATM    2  C3  UNL     1     -33.111   5.638   2.865  1.00 20.00     0.005 C 
HETATM    3  C4  UNL     1     -32.551   7.719   3.918  1.00 20.00     0.016 C 
HETATM    4  C5  UNL     1     -33.022   8.027   2.496  1.00 20.00     0.047 C 
HETATM    5  C6  UNL     1     -33.052   6.306   4.236  1.00 20.00    -0.014 C 
ENDROOT
BRANCH   4   6
HETATM    6  C1  UNL     1     -31.826   8.422   1.651  1.00 20.00     0.235 C 
HETATM    7  O9  UNL     1     -31.899   9.178   0.688  1.00 20.00    -0.306 OA
ENDBRANCH   4   6
BRANCH   5   8
HETATM    8  C8  UNL     1     -34.414   6.328   4.929  1.00 20.00     0.000 C 
HETATM    9  C7  UNL     1     -34.771   4.993   5.505  1.00 20.00     0.005 C 
ENDBRANCH   5   8
TORSDOF 2
ENDMDL
MODEL 7
REMARK VINA RESULT:      -4.0     11.054     12.202
REMARK  2 active torsions:
REMARK  status: ('A' for Active; 'I' for Inactive)
REMARK    1  A    between atoms: C1_1  and  C5_5 
REMARK    2  A    between atoms: C6_6  and  C8_8 
ROOT
HETATM    1  C2  UNL     1     -35.215  14.126  -4.813  1.00 20.00     0.012 C 
HETATM    2  C3  UNL     1     -33.889  14.255  -4.075  1.00 20.00     0.005 C 
HETATM    3  C4  UNL     1     -33.598  15.364  -6.182  1.00 20.00     0.016 C 
HETATM    4  C5  UNL     1     -34.926  14.607  -6.231  1.00 20.00     0.047 C 
HETATM    5  C6  UNL     1     -33.231  15.483  -4.699  1.00 20.00    -0.014 C 
ENDROOT
BRANCH   4   6
HETATM    6  C1  UNL     1     -34.774  13.397  -7.133  1.00 20.00     0.235 C 
HETATM    7  O9  UNL     1     -35.068  12.257  -6.789  1.00 20.00    -0.306 OA
ENDBRANCH   4   6
BRANCH   5   8
HETATM    8  C8  UNL     1     -33.743  16.788  -4.089  1.00 20.00     0.000 C 
HETATM    9  C7  UNL     1     -33.691  16.765  -2.592  1.00 20.00     0.005 C 
ENDBRANCH   5   8
TORSDOF 2
ENDMDL
MODEL 8
REMARK VINA RESULT:      -3.8     11.670     12.447
REMARK  2 active torsions:
REMARK  status: ('A' for Active; 'I' for Inactive)
REMARK    1  A    between atoms: C1_1  and  C5_5 
REMARK    2  A    between atoms: C6_6  and  C8_8 
ROOT
HETATM    1  C2  UNL     1     -35.121  16.695  -1.550  1.00 20.00     0.012 C 
HETATM    2  C3  UNL     1     -35.893  16.685  -2.863  1.00 20.00     0.005 C 
HETATM    3  C4  UNL     1     -33.582  16.968  -3.442  1.00 20.00     0.016 C 
HETATM    4  C5  UNL     1     -33.708  17.128  -1.926  1.00 20.00     0.047 C 
HETATM    5  C6  UNL     1     -34.859  16.257  -3.902  1.00 20.00    -0.014 C 
ENDROOT
BRANCH   4   6
HETATM    6  C1  UNL     1     -33.536  18.591  -1.564  1.00 20.00     0.235 C 
HETATM    7  O9  UNL     1     -32.569  19.263  -1.907  1.00 20.00    -0.306 OA
ENDBRANCH   4   6
BRANCH   5   8
HETATM    8  C8  UNL     1     -34.680  14.740  -3.951  1.00 20.00     0.000 C 
HETATM    9  C7  UNL     1     -33.305  14.352  -4.400  1.00 20.00     0.005 C 
ENDBRANCH   5   8
TORSDOF 2
ENDMDL
MODEL 9
REMARK VINA RESULT:      -3.7     11.915     12.776
REMARK  2 active torsions:
REMARK  status: ('A' for Active; 'I' for Inactive)
REMARK    1  A    between atoms: C1_1  and  C5_5 
REMARK    2  A    between atoms: C6_6  and  C8_8 
ROOT
HETATM    1  C2  UNL     1     -33.264  18.147  -1.924  1.00 20.00     0.012 C 
HETATM    2  C3  UNL     1     -34.116  16.889  -1.805  1.00 20.00     0.005 C 
HETATM    3  C4  UNL     1     -34.499  18.154   0.197  1.00 20.00     0.016 C 
HETATM    4  C5  UNL     1     -33.327  18.797  -0.546  1.00 20.00     0.047 C 
HETATM    5  C6  UNL     1     -35.224  17.278  -0.830  1.00 20.00    -0.014 C 
ENDROOT
BRANCH   4   6
HETATM    6  C1  UNL     1     -32.039  18.490   0.195  1.00 20.00     0.235 C 
HETATM    7  O9  UNL     1     -30.974  18.261  -0.367  1.00 20.00    -0.306 OA
ENDBRANCH   4   6
BRANCH   5   8
HETATM    8  C8  UNL     1     -36.362  18.032  -1.518  1.00 20.00     0.000 C 
HETATM    9  C7  UNL     1     -37.427  18.444  -0.549  1.00 20.00     0.005 C 
ENDBRANCH   5   8
TORSDOF 2
ENDMDL
