MODEL 1
REMARK VINA RESULT:      -6.0      0.000      0.000
REMARK  2 active torsions:
REMARK  status: ('A' for Active; 'I' for Inactive)
REMARK    1  A    between atoms: C1_1  and  C7_7 
REMARK    2  A    between atoms: C8_8  and  C10_10 
ROOT
HETATM    1  C2  UNL     1     -32.589   7.663   4.881  1.00 20.00     0.001 C 
HETATM    2  C3  UNL     1     -34.077   7.329   4.778  1.00 20.00     0.011 C 
HETATM    3  C4  UNL     1     -33.297   5.677   2.914  1.00 20.00     0.012 C 
HETATM    4  C5  UNL     1     -31.988   8.358   3.652  1.00 20.00     0.004 C 
HETATM    5  C6  UNL     1     -32.794   6.675   1.874  1.00 20.00     0.005 C 
HETATM    6  C7  UNL     1     -34.431   6.182   3.811  1.00 20.00     0.047 C 
HETATM    7  C8  UNL     1     -32.708   8.143   2.314  1.00 20.00    -0.015 C 
ENDROOT
BRANCH   6   8
HETATM    8  C1  UNL     1     -34.935   5.021   4.617  1.00 20.00     0.235 C 
HETATM    9  O11 UNL     1     -34.536   3.870   4.470  1.00 20.00    -0.306 OA
ENDBRANCH   6   8
BRANCH   7  10
HETATM   10  C10 UNL     1     -32.017   8.965   1.217  1.00 20.00     0.000 C 
HETATM   11  C9  UNL     1     -32.709  10.268   0.995  1.00 20.00     0.005 C 
ENDBRANCH   7  10
TORSDOF 2
ENDMDL
MODEL 2
REMARK VINA RESULT:      -5.2     10.861     11.532
REMARK  2 active torsions:
REMARK  status: ('A' for Active; 'I' for Inactive)
REMARK    1  A    between atoms: C1_1  and  C7_7 
REMARK    2  A    between atoms: C8_8  and  C10_10 
ROOT
HETATM    1  C2  UNL     1     -33.411  16.620  -4.714  1.00 20.00     0.001 C 
HETATM    2  C3  UNL     1     -33.559  15.108  -4.549  1.00 20.00     0.011 C 
HETATM    3  C4  UNL     1     -35.956  15.707  -3.712  1.00 20.00     0.012 C 
HETATM    4  C5  UNL     1     -33.426  17.425  -3.408  1.00 20.00     0.004 C 
HETATM    5  C6  UNL     1     -35.605  16.458  -2.429  1.00 20.00     0.005 C 
HETATM    6  C7  UNL     1     -34.959  14.622  -4.128  1.00 20.00     0.047 C 
HETATM    7  C8  UNL     1     -34.121  16.777  -2.202  1.00 20.00    -0.015 C 
ENDROOT
BRANCH   6   8
HETATM    8  C1  UNL     1     -35.559  13.858  -5.272  1.00 20.00     0.235 C 
HETATM    9  O11 UNL     1     -35.884  12.677  -5.201  1.00 20.00    -0.306 OA
ENDBRANCH   6   8
BRANCH   7  10
HETATM   10  C10 UNL     1     -33.976  17.684  -0.973  1.00 20.00     0.000 C 
HETATM   11  C9  UNL     1     -32.640  18.347  -0.939  1.00 20.00     0.005 C 
ENDBRANCH   7  10
TORSDOF 2
ENDMDL
MODEL 3
REMARK VINA RESULT:      -5.0      2.439      4.793
REMARK  2 active torsions:
REMARK  status: ('A' for Active; 'I' for Inactive)
REMARK    1  A    between atoms: C1_1  and  C7_7 
REMARK    2  A    between atoms: C8_8  and  C10_10 
ROOT
HETATM    1  C2  UNL     1     -33.138   5.811   2.223  1.00 20.00     0.001 C 
HETATM    2  C3  UNL     1     -33.468   7.177   1.622  1.00 20.00     0.011 C 
HETATM    3  C4  UNL     1     -31.841   8.073   3.455  1.00 20.00     0.012 C 
HETATM    4  C5  UNL     1     -33.639   5.589   3.655  1.00 20.00     0.004 C 
HETATM    5  C6  UNL     1     -32.639   7.718   4.708  1.00 20.00     0.005 C 
HETATM    6  C7  UNL     1     -32.679   8.365   2.207  1.00 20.00     0.047 C 
HETATM    7  C8  UNL     1     -33.883   6.842   4.507  1.00 20.00    -0.015 C 
ENDROOT
BRANCH   6   8
HETATM    8  C1  UNL     1     -31.759   8.893   1.146  1.00 20.00     0.235 C 
HETATM    9  O11 UNL     1     -32.079   9.767   0.346  1.00 20.00    -0.306 OA
ENDBRANCH   6   8
BRANCH   7  10
HETATM   10  C10 UNL     1     -34.449   6.436   5.875  1.00 20.00     0.000 C 
HETATM   11  C9  UNL     1     -34.672   4.964   5.956  1.00 20.00     0.005 C 
ENDBRANCH   7  10
TORSDOF 2
ENDMDL
MODEL 4
REMARK VINA RESULT:      -4.9      2.322      4.497
REMARK  2 active torsions:
REMARK  status: ('A' for Active; 'I' for Inactive)
REMARK    1  A    between atoms: C1_1  and  C7_7 
REMARK    2  A    between atoms: C8_8  and  C10_10 
ROOT
HETATM    1  C2  UNL     1     -32.912   8.171   4.701  1.00 20.00     0.001 C 
HETATM    2  C3  UNL     1     -31.762   8.011   3.707  1.00 20.00     0.011 C 
HETATM    3  C4  UNL     1     -33.669   7.502   2.000  1.00 20.00     0.012 C 
HETATM    4  C5  UNL     1     -33.692   6.888   5.011  1.00 20.00     0.004 C 
HETATM    5  C6  UNL     1     -34.197   6.192   2.582  1.00 20.00     0.005 C 
HETATM    6  C7  UNL     1     -32.181   7.773   2.244  1.00 20.00     0.047 C 
HETATM    7  C8  UNL     1     -33.648   5.777   3.953  1.00 20.00    -0.015 C 
ENDROOT
BRANCH   6   8
HETATM    8  C1  UNL     1     -31.793   8.977   1.437  1.00 20.00     0.235 C 
HETATM    9  O11 UNL     1     -32.542   9.928   1.235  1.00 20.00    -0.306 OA
ENDBRANCH   6   8
BRANCH   7  10
HETATM   10  C10 UNL     1     -34.416   4.548   4.460  1.00 20.00     0.000 C 
HETATM   11  C9  UNL     1     -34.792   4.696   5.895  1.00 20.00     0.005 C 
ENDBRANCH   7  10
TORSDOF 2
ENDMDL
MODEL 5
REMARK VINA RESULT:      -4.7     10.978     11.674
REMARK  2 active torsions:
REMARK  status: ('A' for Active; 'I' for Inactive)
REMARK    1  A    between atoms: C1_1  and  C7_7 
REMARK    2  A    between atoms: C8_8  and  C10_10 
ROOT
HETATM    1  C2  UNL     1     -33.313  16.922  -4.555  1.00 20.00     0.001 C 
HETATM    2  C3  UNL     1     -33.332  15.396  -4.478  1.00 20.00     0.011 C 
HETATM    3  C4  UNL     1     -35.808  15.735  -3.728  1.00 20.00     0.012 C 
HETATM    4  C5  UNL     1     -33.458  17.646  -3.210  1.00 20.00     0.004 C 
HETATM    5  C6  UNL     1     -35.582  16.439  -2.391  1.00 20.00     0.005 C 
HETATM    6  C7  UNL     1     -34.701  14.767  -4.153  1.00 20.00     0.047 C 
HETATM    7  C8  UNL     1     -34.144  16.873  -2.076  1.00 20.00    -0.015 C 
ENDROOT
BRANCH   6   8
HETATM    8  C1  UNL     1     -35.179  14.020  -5.364  1.00 20.00     0.235 C 
HETATM    9  O11 UNL     1     -34.430  13.422  -6.130  1.00 20.00    -0.306 OA
ENDBRANCH   6   8
BRANCH   7  10
HETATM   10  C10 UNL     1     -34.135  17.717  -0.794  1.00 20.00     0.000 C 
HETATM   11  C9  UNL     1     -35.362  17.483   0.021  1.00 20.00     0.005 C 
ENDBRANCH   7  10
TORSDOF 2
ENDMDL
MODEL 6
REMARK VINA RESULT:      -4.6     11.170     11.880
REMARK  2 active torsions:
REMARK  status: ('A' for Active; 'I' for Inactive)
REMARK    1  A    between atoms: C1_1  and  C7_7 
REMARK    2  A    between atoms: C8_8  and  C10_10 
ROOT
HETATM    1  C2  UNL     1     -36.220  17.100  -2.570  1.00 20.00     0.001 C 
HETATM    2  C3  UNL     1     -35.225  16.904  -1.427  1.00 20.00     0.011 C 
HETATM    3  C4  UNL     1     -33.433  17.127  -3.311  1.00 20.00     0.012 C 
HETATM    4  C5  UNL     1     -36.264  15.966  -3.602  1.00 20.00     0.004 C 
HETATM    5  C6  UNL     1     -33.740  15.865  -4.114  1.00 20.00     0.005 C 
HETATM    6  C7  UNL     1     -33.739  17.040  -1.813  1.00 20.00     0.047 C 
HETATM    7  C8  UNL     1     -35.007  15.092  -3.725  1.00 20.00    -0.015 C 
ENDROOT
BRANCH   6   8
HETATM    8  C1  UNL     1     -33.189  18.272  -1.156  1.00 20.00     0.235 C 
HETATM    9  O11 UNL     1     -31.991  18.524  -1.085  1.00 20.00    -0.306 OA
ENDBRANCH   6   8
BRANCH   7  10
HETATM   10  C10 UNL     1     -35.255  13.971  -4.744  1.00 20.00     0.000 C 
HETATM   11  C9  UNL     1     -36.662  13.985  -5.238  1.00 20.00     0.005 C 
ENDBRANCH   7  10
TORSDOF 2
ENDMDL
MODEL 7
REMARK VINA RESULT:      -4.5     10.955     11.729
REMARK  2 active torsions:
REMARK  status: ('A' for Active; 'I' for Inactive)
REMARK    1  A    between atoms: C1_1  and  C7_7 
REMARK    2  A    between atoms: C8_8  and  C10_10 
ROOT
HETATM    1  C2  UNL     1     -36.402  15.116  -4.376  1.00 20.00     0.001 C 
HETATM    2  C3  UNL     1     -35.896  15.300  -5.807  1.00 20.00     0.011 C 
HETATM    3  C4  UNL     1     -33.759  14.097  -4.915  1.00 20.00     0.012 C 
HETATM    4  C5  UNL     1     -35.645  15.914  -3.307  1.00 20.00     0.004 C 
HETATM    5  C6  UNL     1     -33.263  15.147  -3.922  1.00 20.00     0.005 C 
HETATM    6  C7  UNL     1     -34.534  14.646  -6.115  1.00 20.00     0.047 C 
HETATM    7  C8  UNL     1     -34.204  16.326  -3.640  1.00 20.00    -0.015 C 
ENDROOT
BRANCH   6   8
HETATM    8  C1  UNL     1     -34.758  13.517  -7.077  1.00 20.00     0.235 C 
HETATM    9  O11 UNL     1     -35.073  12.383  -6.729  1.00 20.00    -0.306 OA
ENDBRANCH   6   8
BRANCH   7  10
HETATM   10  C10 UNL     1     -33.631  17.174  -2.496  1.00 20.00     0.000 C 
HETATM   11  C9  UNL     1     -34.525  17.154  -1.302  1.00 20.00     0.005 C 
ENDBRANCH   7  10
TORSDOF 2
ENDMDL
MODEL 8
REMARK VINA RESULT:      -4.3     11.047     11.768
REMARK  2 active torsions:
REMARK  status: ('A' for Active; 'I' for Inactive)
REMARK    1  A    between atoms: C1_1  and  C7_7 
REMARK    2  A    between atoms: C8_8  and  C10_10 
ROOT
HETATM    1  C2  UNL     1     -36.310  17.694  -2.006  1.00 20.00     0.001 C 
HETATM    2  C3  UNL     1     -35.615  17.401  -0.676  1.00 20.00     0.011 C 
HETATM    3  C4  UNL     1     -33.430  17.846  -2.031  1.00 20.00     0.012 C 
HETATM    4  C5  UNL     1     -36.053  16.669  -3.117  1.00 20.00     0.004 C 
HETATM    5  C6  UNL     1     -33.478  16.666  -3.000  1.00 20.00     0.005 C 
HETATM    6  C7  UNL     1     -34.087  17.602  -0.670  1.00 20.00     0.047 C 
HETATM    7  C8  UNL     1     -34.768  15.835  -3.008  1.00 20.00    -0.015 C 
ENDROOT
BRANCH   6   8
HETATM    8  C1  UNL     1     -33.767  18.772   0.215  1.00 20.00     0.235 C 
HETATM    9  O11 UNL     1     -33.497  18.665   1.407  1.00 20.00    -0.306 OA
ENDBRANCH   6   8
BRANCH   7  10
HETATM   10  C10 UNL     1     -34.713  14.818  -4.156  1.00 20.00     0.000 C 
HETATM   11  C9  UNL     1     -33.307  14.448  -4.489  1.00 20.00     0.005 C 
ENDBRANCH   7  10
TORSDOF 2
ENDMDL
MODEL 9
REMARK VINA RESULT:      -4.2     11.079     11.747
REMARK  2 active torsions:
REMARK  status: ('A' for Active; 'I' for Inactive)
REMARK    1  A    between atoms: C1_1  and  C7_7 
REMARK    2  A    between atoms: C8_8  and  C10_10 
ROOT
HETATM    1  C2  UNL     1     -36.337  18.046  -0.441  1.00 20.00     0.001 C 
HETATM    2  C3  UNL     1     -35.743  17.563   0.882  1.00 20.00     0.011 C 
HETATM    3  C4  UNL     1     -33.664  18.957   0.145  1.00 20.00     0.012 C 
HETATM    4  C5  UNL     1     -35.649  17.509  -1.702  1.00 20.00     0.004 C 
HETATM    5  C6  UNL     1     -33.232  18.154  -1.080  1.00 20.00     0.005 C 
HETATM    6  C7  UNL     1     -34.365  18.151   1.242  1.00 20.00     0.047 C 
HETATM    7  C8  UNL     1     -34.190  17.053  -1.555  1.00 20.00    -0.015 C 
ENDROOT
BRANCH   6   8
HETATM    8  C1  UNL     1     -34.527  19.042   2.439  1.00 20.00     0.235 C 
HETATM    9  O11 UNL     1     -34.478  18.637   3.596  1.00 20.00    -0.306 OA
ENDBRANCH   6   8
BRANCH   7  10
HETATM   10  C10 UNL     1     -33.690  16.481  -2.888  1.00 20.00     0.000 C 
HETATM   11  C9  UNL     1     -34.678  15.533  -3.479  1.00 20.00     0.005 C 
ENDBRANCH   7  10
TORSDOF 2
ENDMDL
