MODEL 1
REMARK VINA RESULT:      -4.5      0.000      0.000
REMARK  2 active torsions:
REMARK  status: ('A' for Active; 'I' for Inactive)
REMARK    1  A    between atoms: C4_4  and  C8_8 
REMARK    2  A    between atoms: C5_5  and  C9_9 
ROOT
HETATM    1  C1  UNL     1     -32.674   8.037   4.879  1.00 20.00     0.032 C 
HETATM    2  C2  UNL     1     -33.118   6.343   3.090  1.00 20.00     0.043 C 
HETATM    3  C3  UNL     1     -33.748   7.355   5.712  1.00 20.00     0.169 C 
HETATM    4  C4  UNL     1     -32.938   7.838   3.385  1.00 20.00     0.004 C 
HETATM    5  C5  UNL     1     -34.156   5.681   4.018  1.00 20.00     0.057 C 
HETATM    6  C6  UNL     1     -35.593   6.099   3.673  1.00 20.00     0.046 C 
HETATM    7  O10 UNL     1     -33.857   5.970   5.392  1.00 20.00    -0.381 OA
ENDROOT
BRANCH   5   8
HETATM    8  C9  UNL     1     -34.054   4.156   3.878  1.00 20.00     0.033 C 
HETATM    9  C7  UNL     1     -33.133   3.772   2.771  1.00 20.00     0.008 C 
ENDBRANCH   5   8
BRANCH   4  10
HETATM   10  C8  UNL     1     -31.806   8.428   2.546  1.00 20.00     0.119 C 
HETATM   11 CL11 UNL     1     -32.471   9.338   1.177  1.00 20.00    -0.130 Cl
ENDBRANCH   4  10
TORSDOF 2
ENDMDL
MODEL 2
REMARK VINA RESULT:      -4.5      2.772      4.543
REMARK  2 active torsions:
REMARK  status: ('A' for Active; 'I' for Inactive)
REMARK    1  A    between atoms: C4_4  and  C8_8 
REMARK    2  A    between atoms: C5_5  and  C9_9 
ROOT
HETATM    1  C1  UNL     1     -32.539   7.501   4.156  1.00 20.00     0.032 C 
HETATM    2  C2  UNL     1     -33.483   7.914   1.875  1.00 20.00     0.043 C 
HETATM    3  C3  UNL     1     -31.408   8.453   3.799  1.00 20.00     0.169 C 
HETATM    4  C4  UNL     1     -33.107   6.836   2.901  1.00 20.00     0.004 C 
HETATM    5  C5  UNL     1     -32.330   8.903   1.611  1.00 20.00     0.057 C 
HETATM    6  C6  UNL     1     -31.199   8.270   0.789  1.00 20.00     0.046 C 
HETATM    7  O10 UNL     1     -31.828   9.430   2.848  1.00 20.00    -0.381 OA
ENDROOT
BRANCH   5   8
HETATM    8  C9  UNL     1     -32.872  10.109   0.832  1.00 20.00     0.033 C 
HETATM    9  C7  UNL     1     -33.277   9.726  -0.550  1.00 20.00     0.008 C 
ENDBRANCH   5   8
BRANCH   4  10
HETATM   10  C8  UNL     1     -34.313   5.963   3.242  1.00 20.00     0.119 C 
HETATM   11 CL11 UNL     1     -34.557   5.920   4.998  1.00 20.00    -0.130 Cl
ENDBRANCH   4  10
TORSDOF 2
ENDMDL
MODEL 3
REMARK VINA RESULT:      -4.4      0.849      1.094
REMARK  2 active torsions:
REMARK  status: ('A' for Active; 'I' for Inactive)
REMARK    1  A    between atoms: C4_4  and  C8_8 
REMARK    2  A    between atoms: C5_5  and  C9_9 
ROOT
HETATM    1  C1  UNL     1     -32.128   8.346   3.917  1.00 20.00     0.032 C 
HETATM    2  C2  UNL     1     -32.994   6.581   2.368  1.00 20.00     0.043 C 
HETATM    3  C3  UNL     1     -33.018   7.754   4.998  1.00 20.00     0.169 C 
HETATM    4  C4  UNL     1     -32.711   8.080   2.528  1.00 20.00     0.004 C 
HETATM    5  C5  UNL     1     -33.828   6.012   3.533  1.00 20.00     0.057 C 
HETATM    6  C6  UNL     1     -35.292   6.471   3.475  1.00 20.00     0.046 C 
HETATM    7  O10 UNL     1     -33.234   6.359   4.792  1.00 20.00    -0.381 OA
ENDROOT
BRANCH   5   8
HETATM    8  C9  UNL     1     -33.804   4.479   3.465  1.00 20.00     0.033 C 
HETATM    9  C7  UNL     1     -34.303   3.871   4.731  1.00 20.00     0.008 C 
ENDBRANCH   5   8
BRANCH   4  10
HETATM   10  C8  UNL     1     -31.767   8.578   1.434  1.00 20.00     0.119 C 
HETATM   11 CL11 UNL     1     -32.403  10.066   0.710  1.00 20.00    -0.130 Cl
ENDBRANCH   4  10
TORSDOF 2
ENDMDL
MODEL 4
REMARK VINA RESULT:      -4.2     11.692     12.404
REMARK  2 active torsions:
REMARK  status: ('A' for Active; 'I' for Inactive)
REMARK    1  A    between atoms: C4_4  and  C8_8 
REMARK    2  A    between atoms: C5_5  and  C9_9 
ROOT
HETATM    1  C1  UNL     1     -33.580  18.022  -3.591  1.00 20.00     0.032 C 
HETATM    2  C2  UNL     1     -34.878  16.036  -2.796  1.00 20.00     0.043 C 
HETATM    3  C3  UNL     1     -33.520  17.363  -4.961  1.00 20.00     0.169 C 
HETATM    4  C4  UNL     1     -33.701  16.970  -2.487  1.00 20.00     0.004 C 
HETATM    5  C5  UNL     1     -34.815  15.461  -4.225  1.00 20.00     0.057 C 
HETATM    6  C6  UNL     1     -33.712  14.404  -4.377  1.00 20.00     0.046 C 
HETATM    7  O10 UNL     1     -34.645  16.516  -5.183  1.00 20.00    -0.381 OA
ENDROOT
BRANCH   5   8
HETATM    8  C9  UNL     1     -36.160  14.802  -4.561  1.00 20.00     0.033 C 
HETATM    9  C7  UNL     1     -35.968  13.480  -5.223  1.00 20.00     0.008 C 
ENDBRANCH   5   8
BRANCH   4  10
HETATM   10  C8  UNL     1     -33.870  17.629  -1.119  1.00 20.00     0.119 C 
HETATM   11 CL11 UNL     1     -35.446  17.202  -0.428  1.00 20.00    -0.130 Cl
ENDBRANCH   4  10
TORSDOF 2
ENDMDL
MODEL 5
REMARK VINA RESULT:      -3.9     11.757     12.738
REMARK  2 active torsions:
REMARK  status: ('A' for Active; 'I' for Inactive)
REMARK    1  A    between atoms: C4_4  and  C8_8 
REMARK    2  A    between atoms: C5_5  and  C9_9 
ROOT
HETATM    1  C1  UNL     1     -35.651  16.573  -4.728  1.00 20.00     0.032 C 
HETATM    2  C2  UNL     1     -33.907  16.043  -3.014  1.00 20.00     0.043 C 
HETATM    3  C3  UNL     1     -36.004  17.804  -3.907  1.00 20.00     0.169 C 
HETATM    4  C4  UNL     1     -35.069  15.474  -3.837  1.00 20.00     0.004 C 
HETATM    5  C5  UNL     1     -34.291  17.337  -2.268  1.00 20.00     0.057 C 
HETATM    6  C6  UNL     1     -35.227  17.065  -1.081  1.00 20.00     0.046 C 
HETATM    7  O10 UNL     1     -34.879  18.282  -3.173  1.00 20.00    -0.381 OA
ENDROOT
BRANCH   5   8
HETATM    8  C9  UNL     1     -33.018  18.004  -1.731  1.00 20.00     0.033 C 
HETATM    9  C7  UNL     1     -33.186  18.437  -0.315  1.00 20.00     0.008 C 
ENDBRANCH   5   8
BRANCH   4  10
HETATM   10  C8  UNL     1     -34.613  14.278  -4.671  1.00 20.00     0.119 C 
HETATM   11 CL11 UNL     1     -36.019  13.345  -5.218  1.00 20.00    -0.130 Cl
ENDBRANCH   4  10
TORSDOF 2
ENDMDL
MODEL 6
REMARK VINA RESULT:      -3.9     11.789     12.664
REMARK  2 active torsions:
REMARK  status: ('A' for Active; 'I' for Inactive)
REMARK    1  A    between atoms: C4_4  and  C8_8 
REMARK    2  A    between atoms: C5_5  and  C9_9 
ROOT
HETATM    1  C1  UNL     1     -33.292  16.160  -4.863  1.00 20.00     0.032 C 
HETATM    2  C2  UNL     1     -35.632  15.758  -4.073  1.00 20.00     0.043 C 
HETATM    3  C3  UNL     1     -33.618  15.313  -6.083  1.00 20.00     0.169 C 
HETATM    4  C4  UNL     1     -34.152  15.746  -3.668  1.00 20.00     0.004 C 
HETATM    5  C5  UNL     1     -35.896  14.956  -5.362  1.00 20.00     0.057 C 
HETATM    6  C6  UNL     1     -35.793  13.441  -5.134  1.00 20.00     0.046 C 
HETATM    7  O10 UNL     1     -35.006  15.376  -6.406  1.00 20.00    -0.381 OA
ENDROOT
BRANCH   5   8
HETATM    8  C9  UNL     1     -37.312  15.268  -5.867  1.00 20.00     0.033 C 
HETATM    9  C7  UNL     1     -38.350  14.689  -4.969  1.00 20.00     0.008 C 
ENDBRANCH   5   8
BRANCH   4  10
HETATM   10  C8  UNL     1     -33.906  16.664  -2.471  1.00 20.00     0.119 C 
HETATM   11 CL11 UNL     1     -35.353  16.734  -1.449  1.00 20.00    -0.130 Cl
ENDBRANCH   4  10
TORSDOF 2
ENDMDL
MODEL 7
REMARK VINA RESULT:      -3.9     11.955     13.037
REMARK  2 active torsions:
REMARK  status: ('A' for Active; 'I' for Inactive)
REMARK    1  A    between atoms: C4_4  and  C8_8 
REMARK    2  A    between atoms: C5_5  and  C9_9 
ROOT
HETATM    1  C1  UNL     1     -34.245  15.276  -6.399  1.00 20.00     0.032 C 
HETATM    2  C2  UNL     1     -34.981  15.239  -4.007  1.00 20.00     0.043 C 
HETATM    3  C3  UNL     1     -33.751  16.696  -6.166  1.00 20.00     0.169 C 
HETATM    4  C4  UNL     1     -35.399  14.940  -5.453  1.00 20.00     0.004 C 
HETATM    5  C5  UNL     1     -34.409  16.661  -3.841  1.00 20.00     0.057 C 
HETATM    6  C6  UNL     1     -35.499  17.739  -3.932  1.00 20.00     0.046 C 
HETATM    7  O10 UNL     1     -33.374  16.901  -4.806  1.00 20.00    -0.381 OA
ENDROOT
BRANCH   5   8
HETATM    8  C9  UNL     1     -33.736  16.774  -2.467  1.00 20.00     0.033 C 
HETATM    9  C7  UNL     1     -34.736  17.026  -1.391  1.00 20.00     0.008 C 
ENDBRANCH   5   8
BRANCH   4  10
HETATM   10  C8  UNL     1     -35.828  13.482  -5.608  1.00 20.00     0.119 C 
HETATM   11 CL11 UNL     1     -35.212  12.825  -7.135  1.00 20.00    -0.130 Cl
ENDBRANCH   4  10
TORSDOF 2
ENDMDL
MODEL 8
REMARK VINA RESULT:      -3.9     11.716     12.574
REMARK  2 active torsions:
REMARK  status: ('A' for Active; 'I' for Inactive)
REMARK    1  A    between atoms: C4_4  and  C8_8 
REMARK    2  A    between atoms: C5_5  and  C9_9 
ROOT
HETATM    1  C1  UNL     1     -33.592  16.144  -3.564  1.00 20.00     0.032 C 
HETATM    2  C2  UNL     1     -36.003  15.895  -4.187  1.00 20.00     0.043 C 
HETATM    3  C3  UNL     1     -33.253  15.244  -4.742  1.00 20.00     0.169 C 
HETATM    4  C4  UNL     1     -34.993  15.839  -3.033  1.00 20.00     0.004 C 
HETATM    5  C5  UNL     1     -35.571  15.033  -5.390  1.00 20.00     0.057 C 
HETATM    6  C6  UNL     1     -35.716  13.531  -5.108  1.00 20.00     0.046 C 
HETATM    7  O10 UNL     1     -34.227  15.351  -5.778  1.00 20.00    -0.381 OA
ENDROOT
BRANCH   5   8
HETATM    8  C9  UNL     1     -36.451  15.381  -6.598  1.00 20.00     0.033 C 
HETATM    9  C7  UNL     1     -36.521  14.248  -7.564  1.00 20.00     0.008 C 
ENDBRANCH   5   8
BRANCH   4  10
HETATM   10  C8  UNL     1     -35.381  16.811  -1.920  1.00 20.00     0.119 C 
HETATM   11 CL11 UNL     1     -33.929  17.381  -1.076  1.00 20.00    -0.130 Cl
ENDBRANCH   4  10
TORSDOF 2
ENDMDL
MODEL 9
REMARK VINA RESULT:      -3.8     11.720     12.643
REMARK  2 active torsions:
REMARK  status: ('A' for Active; 'I' for Inactive)
REMARK    1  A    between atoms: C4_4  and  C8_8 
REMARK    2  A    between atoms: C5_5  and  C9_9 
ROOT
HETATM    1  C1  UNL     1     -35.155  14.080  -4.746  1.00 20.00     0.032 C 
HETATM    2  C2  UNL     1     -35.593  16.172  -3.445  1.00 20.00     0.043 C 
HETATM    3  C3  UNL     1     -33.685  14.471  -4.772  1.00 20.00     0.169 C 
HETATM    4  C4  UNL     1     -36.045  15.319  -4.638  1.00 20.00     0.004 C 
HETATM    5  C5  UNL     1     -34.081  16.469  -3.473  1.00 20.00     0.057 C 
HETATM    6  C6  UNL     1     -33.710  17.486  -4.562  1.00 20.00     0.046 C 
HETATM    7  O10 UNL     1     -33.334  15.255  -3.634  1.00 20.00    -0.381 OA
ENDROOT
BRANCH   5   8
HETATM    8  C9  UNL     1     -33.658  17.046  -2.115  1.00 20.00     0.033 C 
HETATM    9  C7  UNL     1     -34.814  17.138  -1.179  1.00 20.00     0.008 C 
ENDBRANCH   5   8
BRANCH   4  10
HETATM   10  C8  UNL     1     -37.516  14.927  -4.503  1.00 20.00     0.119 C 
HETATM   11 CL11 UNL     1     -38.373  15.246  -6.022  1.00 20.00    -0.130 Cl
ENDBRANCH   4  10
TORSDOF 2
ENDMDL
