MODEL 1
REMARK VINA RESULT:      -5.6      0.000      0.000
REMARK  3 active torsions:
REMARK  status: ('A' for Active; 'I' for Inactive)
REMARK    1  A    between atoms: C6_6  and  C9_9 
REMARK    2  A    between atoms: C7_7  and  C10_10 
REMARK    3  A    between atoms: C9_9  and  C11_11 
ROOT
HETATM    1  C1  UNL     1     -32.927   7.726   5.520  1.00 20.00     0.001 C 
HETATM    2  C2  UNL     1     -32.178   7.664   4.189  1.00 20.00     0.005 C 
HETATM    3  C3  UNL     1     -34.381   7.269   5.557  1.00 20.00     0.005 C 
HETATM    4  C4  UNL     1     -33.680   6.416   2.557  1.00 20.00     0.005 C 
HETATM    5  C5  UNL     1     -34.907   6.047   3.387  1.00 20.00     0.006 C 
HETATM    6  C6  UNL     1     -33.027   7.762   2.916  1.00 20.00    -0.014 C 
HETATM    7  C7  UNL     1     -34.722   5.925   4.904  1.00 20.00    -0.001 C 
ENDROOT
BRANCH   6   8
HETATM    8  C9  UNL     1     -32.128   8.199   1.750  1.00 20.00     0.004 C 
BRANCH   8   9
HETATM    9  C11 UNL     1     -32.527   9.575   1.236  1.00 20.00    -0.004 C 
HETATM   10  C8  UNL     1     -32.993   9.504  -0.211  1.00 20.00     0.005 C 
ENDBRANCH   8   9
ENDBRANCH   6   8
BRANCH   7  11
HETATM   11  C10 UNL     1     -33.779   4.791   5.303  1.00 20.00     0.119 C 
HETATM   12 CL12 UNL     1     -33.913   3.459   4.145  1.00 20.00    -0.130 Cl
ENDBRANCH   7  11
TORSDOF 3
ENDMDL
MODEL 2
REMARK VINA RESULT:      -4.7      2.403      4.723
REMARK  3 active torsions:
REMARK  status: ('A' for Active; 'I' for Inactive)
REMARK    1  A    between atoms: C6_6  and  C9_9 
REMARK    2  A    between atoms: C7_7  and  C10_10 
REMARK    3  A    between atoms: C9_9  and  C11_11 
ROOT
HETATM    1  C1  UNL     1     -31.866   8.594   4.628  1.00 20.00     0.001 C 
HETATM    2  C2  UNL     1     -33.254   8.058   4.976  1.00 20.00     0.005 C 
HETATM    3  C3  UNL     1     -31.199   8.107   3.346  1.00 20.00     0.005 C 
HETATM    4  C4  UNL     1     -34.064   6.744   2.953  1.00 20.00     0.005 C 
HETATM    5  C5  UNL     1     -32.935   6.893   1.935  1.00 20.00     0.006 C 
HETATM    6  C6  UNL     1     -33.616   6.675   4.423  1.00 20.00    -0.014 C 
HETATM    7  C7  UNL     1     -32.031   8.125   2.060  1.00 20.00    -0.001 C 
ENDROOT
BRANCH   6   8
HETATM    8  C9  UNL     1     -34.764   6.088   5.259  1.00 20.00     0.004 C 
BRANCH   8   9
HETATM    9  C11 UNL     1     -34.517   4.619   5.572  1.00 20.00    -0.004 C 
HETATM   10  C8  UNL     1     -34.080   3.862   4.328  1.00 20.00     0.005 C 
ENDBRANCH   8   9
ENDBRANCH   6   8
BRANCH   7  11
HETATM   11  C10 UNL     1     -32.775   9.439   1.827  1.00 20.00     0.119 C 
HETATM   12 CL12 UNL     1     -32.932   9.744   0.090  1.00 20.00    -0.130 Cl
ENDBRANCH   7  11
TORSDOF 3
ENDMDL
MODEL 3
REMARK VINA RESULT:      -4.7     11.266     12.188
REMARK  3 active torsions:
REMARK  status: ('A' for Active; 'I' for Inactive)
REMARK    1  A    between atoms: C6_6  and  C9_9 
REMARK    2  A    between atoms: C7_7  and  C10_10 
REMARK    3  A    between atoms: C9_9  and  C11_11 
ROOT
HETATM    1  C1  UNL     1     -33.594  14.783  -4.185  1.00 20.00     0.001 C 
HETATM    2  C2  UNL     1     -33.639  16.109  -3.427  1.00 20.00     0.005 C 
HETATM    3  C3  UNL     1     -34.907  14.054  -4.452  1.00 20.00     0.005 C 
HETATM    4  C4  UNL     1     -36.092  16.751  -3.210  1.00 20.00     0.005 C 
HETATM    5  C5  UNL     1     -36.836  15.633  -3.938  1.00 20.00     0.006 C 
HETATM    6  C6  UNL     1     -34.817  16.314  -2.468  1.00 20.00    -0.014 C 
HETATM    7  C7  UNL     1     -36.071  14.869  -5.025  1.00 20.00    -0.001 C 
ENDROOT
BRANCH   6   8
HETATM    8  C9  UNL     1     -34.446  17.401  -1.447  1.00 20.00     0.004 C 
BRANCH   8   9
HETATM    9  C11 UNL     1     -32.986  17.806  -1.587  1.00 20.00    -0.004 C 
HETATM   10  C8  UNL     1     -32.508  18.556  -0.352  1.00 20.00     0.005 C 
ENDBRANCH   8   9
ENDBRANCH   6   8
BRANCH   7  11
HETATM   11  C10 UNL     1     -35.680  15.747  -6.212  1.00 20.00     0.119 C 
HETATM   12 CL12 UNL     1     -35.031  14.743  -7.518  1.00 20.00    -0.130 Cl
ENDBRANCH   7  11
TORSDOF 3
ENDMDL
MODEL 4
REMARK VINA RESULT:      -4.5     11.126     12.451
REMARK  3 active torsions:
REMARK  status: ('A' for Active; 'I' for Inactive)
REMARK    1  A    between atoms: C6_6  and  C9_9 
REMARK    2  A    between atoms: C7_7  and  C10_10 
REMARK    3  A    between atoms: C9_9  and  C11_11 
ROOT
HETATM    1  C1  UNL     1     -33.661  16.672  -6.232  1.00 20.00     0.001 C 
HETATM    2  C2  UNL     1     -33.962  17.186  -4.824  1.00 20.00     0.005 C 
HETATM    3  C3  UNL     1     -33.746  15.172  -6.491  1.00 20.00     0.005 C 
HETATM    4  C4  UNL     1     -34.871  15.213  -3.499  1.00 20.00     0.005 C 
HETATM    5  C5  UNL     1     -34.893  14.065  -4.506  1.00 20.00     0.006 C 
HETATM    6  C6  UNL     1     -33.713  16.211  -3.667  1.00 20.00    -0.014 C 
HETATM    7  C7  UNL     1     -34.992  14.433  -5.992  1.00 20.00    -0.001 C 
ENDROOT
BRANCH   6   8
HETATM    8  C9  UNL     1     -33.560  17.011  -2.365  1.00 20.00     0.004 C 
BRANCH   8   9
HETATM    9  C11 UNL     1     -34.839  16.964  -1.541  1.00 20.00    -0.004 C 
HETATM   10  C8  UNL     1     -34.682  17.745  -0.245  1.00 20.00     0.005 C 
ENDBRANCH   8   9
ENDBRANCH   6   8
BRANCH   7  11
HETATM   11  C10 UNL     1     -36.304  15.127  -6.351  1.00 20.00     0.119 C 
HETATM   12 CL12 UNL     1     -37.660  14.293  -5.577  1.00 20.00    -0.130 Cl
ENDBRANCH   7  11
TORSDOF 3
ENDMDL
MODEL 5
REMARK VINA RESULT:      -4.5     11.163     12.674
REMARK  3 active torsions:
REMARK  status: ('A' for Active; 'I' for Inactive)
REMARK    1  A    between atoms: C6_6  and  C9_9 
REMARK    2  A    between atoms: C7_7  and  C10_10 
REMARK    3  A    between atoms: C9_9  and  C11_11 
ROOT
HETATM    1  C1  UNL     1     -34.834  17.578  -5.799  1.00 20.00     0.001 C 
HETATM    2  C2  UNL     1     -35.547  17.174  -4.510  1.00 20.00     0.005 C 
HETATM    3  C3  UNL     1     -33.643  16.747  -6.262  1.00 20.00     0.005 C 
HETATM    4  C4  UNL     1     -34.584  14.925  -3.810  1.00 20.00     0.005 C 
HETATM    5  C5  UNL     1     -33.577  14.592  -4.908  1.00 20.00     0.006 C 
HETATM    6  C6  UNL     1     -34.712  16.420  -3.468  1.00 20.00    -0.014 C 
HETATM    7  C7  UNL     1     -33.804  15.223  -6.287  1.00 20.00    -0.001 C 
ENDROOT
BRANCH   6   8
HETATM    8  C9  UNL     1     -35.386  16.554  -2.095  1.00 20.00     0.004 C 
BRANCH   8   9
HETATM    9  C11 UNL     1     -34.472  17.259  -1.103  1.00 20.00    -0.004 C 
HETATM   10  C8  UNL     1     -33.147  17.631  -1.751  1.00 20.00     0.005 C 
ENDBRANCH   8   9
ENDBRANCH   6   8
BRANCH   7  11
HETATM   11  C10 UNL     1     -35.094  14.753  -6.956  1.00 20.00     0.119 C 
HETATM   12 CL12 UNL     1     -35.075  12.992  -7.134  1.00 20.00    -0.130 Cl
ENDBRANCH   7  11
TORSDOF 3
ENDMDL
MODEL 6
REMARK VINA RESULT:      -4.4     11.417     12.316
REMARK  3 active torsions:
REMARK  status: ('A' for Active; 'I' for Inactive)
REMARK    1  A    between atoms: C6_6  and  C9_9 
REMARK    2  A    between atoms: C7_7  and  C10_10 
REMARK    3  A    between atoms: C9_9  and  C11_11 
ROOT
HETATM    1  C1  UNL     1     -33.445  14.993  -4.190  1.00 20.00     0.001 C 
HETATM    2  C2  UNL     1     -33.559  16.264  -3.349  1.00 20.00     0.005 C 
HETATM    3  C3  UNL     1     -34.714  14.202  -4.488  1.00 20.00     0.005 C 
HETATM    4  C4  UNL     1     -36.044  16.738  -3.066  1.00 20.00     0.005 C 
HETATM    5  C5  UNL     1     -36.728  15.624  -3.854  1.00 20.00     0.006 C 
HETATM    6  C6  UNL     1     -34.734  16.335  -2.366  1.00 20.00    -0.014 C 
HETATM    7  C7  UNL     1     -35.934  14.978  -4.996  1.00 20.00    -0.001 C 
ENDROOT
BRANCH   6   8
HETATM    8  C9  UNL     1     -34.415  17.377  -1.283  1.00 20.00     0.004 C 
BRANCH   8   9
HETATM    9  C11 UNL     1     -35.505  17.415  -0.222  1.00 20.00    -0.004 C 
HETATM   10  C8  UNL     1     -35.025  18.137   1.028  1.00 20.00     0.005 C 
ENDBRANCH   8   9
ENDBRANCH   6   8
BRANCH   7  11
HETATM   11  C10 UNL     1     -35.615  15.950  -6.129  1.00 20.00     0.119 C 
HETATM   12 CL12 UNL     1     -37.073  16.844  -6.586  1.00 20.00    -0.130 Cl
ENDBRANCH   7  11
TORSDOF 3
ENDMDL
MODEL 7
REMARK VINA RESULT:      -4.2     11.623     12.625
REMARK  3 active torsions:
REMARK  status: ('A' for Active; 'I' for Inactive)
REMARK    1  A    between atoms: C6_6  and  C9_9 
REMARK    2  A    between atoms: C7_7  and  C10_10 
REMARK    3  A    between atoms: C9_9  and  C11_11 
ROOT
HETATM    1  C1  UNL     1     -33.684  15.780  -3.425  1.00 20.00     0.001 C 
HETATM    2  C2  UNL     1     -33.979  16.796  -2.323  1.00 20.00     0.005 C 
HETATM    3  C3  UNL     1     -34.849  15.243  -4.249  1.00 20.00     0.005 C 
HETATM    4  C4  UNL     1     -36.422  17.464  -2.572  1.00 20.00     0.005 C 
HETATM    5  C5  UNL     1     -36.901  16.677  -3.789  1.00 20.00     0.006 C 
HETATM    6  C6  UNL     1     -35.378  16.748  -1.697  1.00 20.00    -0.014 C 
HETATM    7  C7  UNL     1     -35.846  16.259  -4.819  1.00 20.00    -0.001 C 
ENDROOT
BRANCH   6   8
HETATM    8  C9  UNL     1     -35.334  17.433  -0.323  1.00 20.00     0.004 C 
BRANCH   8   9
HETATM    9  C11 UNL     1     -34.038  18.209  -0.140  1.00 20.00    -0.004 C 
HETATM   10  C8  UNL     1     -33.812  18.556   1.324  1.00 20.00     0.005 C 
ENDBRANCH   8   9
ENDBRANCH   6   8
BRANCH   7  11
HETATM   11  C10 UNL     1     -35.183  17.446  -5.514  1.00 20.00     0.119 C 
HETATM   12 CL12 UNL     1     -34.169  16.876  -6.848  1.00 20.00    -0.130 Cl
ENDBRANCH   7  11
TORSDOF 3
ENDMDL
MODEL 8
REMARK VINA RESULT:      -4.1     11.579     12.808
REMARK  3 active torsions:
REMARK  status: ('A' for Active; 'I' for Inactive)
REMARK    1  A    between atoms: C6_6  and  C9_9 
REMARK    2  A    between atoms: C7_7  and  C10_10 
REMARK    3  A    between atoms: C9_9  and  C11_11 
ROOT
HETATM    1  C1  UNL     1     -36.173  17.163  -4.166  1.00 20.00     0.001 C 
HETATM    2  C2  UNL     1     -35.518  17.157  -5.547  1.00 20.00     0.005 C 
HETATM    3  C3  UNL     1     -35.564  16.297  -3.069  1.00 20.00     0.005 C 
HETATM    4  C4  UNL     1     -33.333  15.871  -5.320  1.00 20.00     0.005 C 
HETATM    5  C5  UNL     1     -33.275  15.494  -3.842  1.00 20.00     0.006 C 
HETATM    6  C6  UNL     1     -34.743  15.892  -5.936  1.00 20.00    -0.014 C 
HETATM    7  C7  UNL     1     -34.048  16.379  -2.857  1.00 20.00    -0.001 C 
ENDROOT
BRANCH   6   8
HETATM    8  C9  UNL     1     -34.612  15.838  -7.465  1.00 20.00     0.004 C 
BRANCH   8   9
HETATM    9  C11 UNL     1     -33.987  14.525  -7.915  1.00 20.00    -0.004 C 
HETATM   10  C8  UNL     1     -34.804  13.337  -7.430  1.00 20.00     0.005 C 
ENDBRANCH   8   9
ENDBRANCH   6   8
BRANCH   7  11
HETATM   11  C10 UNL     1     -33.514  17.807  -2.788  1.00 20.00     0.119 C 
HETATM   12 CL12 UNL     1     -32.603  18.040  -1.288  1.00 20.00    -0.130 Cl
ENDBRANCH   7  11
TORSDOF 3
ENDMDL
MODEL 9
REMARK VINA RESULT:      -4.0     11.564     12.475
REMARK  3 active torsions:
REMARK  status: ('A' for Active; 'I' for Inactive)
REMARK    1  A    between atoms: C6_6  and  C9_9 
REMARK    2  A    between atoms: C7_7  and  C10_10 
REMARK    3  A    between atoms: C9_9  and  C11_11 
ROOT
HETATM    1  C1  UNL     1     -33.239  15.441  -4.311  1.00 20.00     0.001 C 
HETATM    2  C2  UNL     1     -33.759  16.510  -3.352  1.00 20.00     0.005 C 
HETATM    3  C3  UNL     1     -34.224  14.411  -4.855  1.00 20.00     0.005 C 
HETATM    4  C4  UNL     1     -36.297  16.309  -3.331  1.00 20.00     0.005 C 
HETATM    5  C5  UNL     1     -36.590  15.186  -4.322  1.00 20.00     0.006 C 
HETATM    6  C6  UNL     1     -34.998  16.148  -2.522  1.00 20.00    -0.014 C 
HETATM    7  C7  UNL     1     -35.552  14.926  -5.421  1.00 20.00    -0.001 C 
ENDROOT
BRANCH   6   8
HETATM    8  C9  UNL     1     -35.064  17.070  -1.296  1.00 20.00     0.004 C 
BRANCH   8   9
HETATM    9  C11 UNL     1     -36.265  18.002  -1.376  1.00 20.00    -0.004 C 
HETATM   10  C8  UNL     1     -36.827  18.288   0.008  1.00 20.00     0.005 C 
ENDBRANCH   8   9
ENDBRANCH   6   8
BRANCH   7  11
HETATM   11  C10 UNL     1     -35.395  16.099  -6.386  1.00 20.00     0.119 C 
HETATM   12 CL12 UNL     1     -34.344  15.636  -7.734  1.00 20.00    -0.130 Cl
ENDBRANCH   7  11
TORSDOF 3
ENDMDL
