MODEL 1
REMARK VINA RESULT:      -5.6      0.000      0.000
REMARK  2 active torsions:
REMARK  status: ('A' for Active; 'I' for Inactive)
REMARK    1  A    between atoms: C1_1  and  C5_5 
REMARK    2  A    between atoms: C6_6  and  C8_8 
ROOT
HETATM    1  C2  UNL     1     -34.422   5.934   3.255  1.00 20.00     0.012 C 
HETATM    2  C3  UNL     1     -32.980   5.917   2.760  1.00 20.00     0.005 C 
HETATM    3  C4  UNL     1     -33.054   7.493   4.567  1.00 20.00     0.016 C 
HETATM    4  C5  UNL     1     -34.386   6.741   4.549  1.00 20.00     0.047 C 
HETATM    5  C6  UNL     1     -32.422   7.272   3.189  1.00 20.00    -0.014 C 
ENDROOT
BRANCH   4   6
HETATM    6  C1  UNL     1     -34.428   5.778   5.721  1.00 20.00     0.235 C 
HETATM    7  O9  UNL     1     -34.540   4.563   5.595  1.00 20.00    -0.306 OA
ENDBRANCH   4   6
BRANCH   5   8
HETATM    8  C8  UNL     1     -32.786   8.386   2.209  1.00 20.00     0.000 C 
HETATM    9  C7  UNL     1     -31.683   8.657   1.234  1.00 20.00     0.005 C 
ENDBRANCH   5   8
TORSDOF 2
ENDMDL
MODEL 2
REMARK VINA RESULT:      -5.1      2.216      4.025
REMARK  2 active torsions:
REMARK  status: ('A' for Active; 'I' for Inactive)
REMARK    1  A    between atoms: C1_1  and  C5_5 
REMARK    2  A    between atoms: C6_6  and  C8_8 
ROOT
HETATM    1  C2  UNL     1     -33.154   6.053   2.748  1.00 20.00     0.012 C 
HETATM    2  C3  UNL     1     -34.602   6.110   3.219  1.00 20.00     0.005 C 
HETATM    3  C4  UNL     1     -33.434   7.828   4.420  1.00 20.00     0.016 C 
HETATM    4  C5  UNL     1     -32.499   7.303   3.329  1.00 20.00     0.047 C 
HETATM    5  C6  UNL     1     -34.521   6.762   4.598  1.00 20.00    -0.014 C 
ENDROOT
BRANCH   4   6
HETATM    6  C1  UNL     1     -32.385   8.345   2.232  1.00 20.00     0.235 C 
HETATM    7  O9  UNL     1     -31.476   8.363   1.408  1.00 20.00    -0.306 OA
ENDBRANCH   4   6
BRANCH   5   8
HETATM    8  C8  UNL     1     -34.162   5.758   5.694  1.00 20.00     0.000 C 
HETATM    9  C7  UNL     1     -34.568   4.364   5.330  1.00 20.00     0.005 C 
ENDBRANCH   5   8
TORSDOF 2
ENDMDL
MODEL 3
REMARK VINA RESULT:      -4.6      1.111      1.111
REMARK  2 active torsions:
REMARK  status: ('A' for Active; 'I' for Inactive)
REMARK    1  A    between atoms: C1_1  and  C5_5 
REMARK    2  A    between atoms: C6_6  and  C8_8 
ROOT
HETATM    1  C2  UNL     1     -34.228   5.968   3.097  1.00 20.00     0.012 C 
HETATM    2  C3  UNL     1     -32.790   5.783   2.628  1.00 20.00     0.005 C 
HETATM    3  C4  UNL     1     -32.808   7.764   3.981  1.00 20.00     0.016 C 
HETATM    4  C5  UNL     1     -34.163   7.073   4.147  1.00 20.00     0.047 C 
HETATM    5  C6  UNL     1     -32.188   7.184   2.705  1.00 20.00    -0.014 C 
ENDROOT
BRANCH   4   6
HETATM    6  C1  UNL     1     -34.229   6.437   5.523  1.00 20.00     0.235 C 
HETATM    7  O9  UNL     1     -34.151   7.076   6.568  1.00 20.00    -0.306 OA
ENDBRANCH   4   6
BRANCH   5   8
HETATM    8  C8  UNL     1     -32.522   8.028   1.475  1.00 20.00     0.000 C 
HETATM    9  C7  UNL     1     -32.251   9.482   1.704  1.00 20.00     0.005 C 
ENDBRANCH   5   8
TORSDOF 2
ENDMDL
MODEL 4
REMARK VINA RESULT:      -4.2     11.275     12.213
REMARK  2 active torsions:
REMARK  status: ('A' for Active; 'I' for Inactive)
REMARK    1  A    between atoms: C1_1  and  C5_5 
REMARK    2  A    between atoms: C6_6  and  C8_8 
ROOT
HETATM    1  C2  UNL     1     -33.635  15.343  -6.018  1.00 20.00     0.012 C 
HETATM    2  C3  UNL     1     -33.079  14.903  -4.670  1.00 20.00     0.005 C 
HETATM    3  C4  UNL     1     -35.336  14.096  -4.762  1.00 20.00     0.016 C 
HETATM    4  C5  UNL     1     -34.966  14.608  -6.155  1.00 20.00     0.047 C 
HETATM    5  C6  UNL     1     -34.317  14.713  -3.798  1.00 20.00    -0.014 C 
ENDROOT
BRANCH   4   6
HETATM    6  C1  UNL     1     -34.772  13.424  -7.083  1.00 20.00     0.235 C 
HETATM    7  O9  UNL     1     -35.043  12.269  -6.771  1.00 20.00    -0.306 OA
ENDBRANCH   4   6
BRANCH   5   8
HETATM    8  C8  UNL     1     -34.817  16.031  -3.206  1.00 20.00     0.000 C 
HETATM    9  C7  UNL     1     -33.732  16.769  -2.487  1.00 20.00     0.005 C 
ENDBRANCH   5   8
TORSDOF 2
ENDMDL
MODEL 5
REMARK VINA RESULT:      -4.2     11.266     12.137
REMARK  2 active torsions:
REMARK  status: ('A' for Active; 'I' for Inactive)
REMARK    1  A    between atoms: C1_1  and  C5_5 
REMARK    2  A    between atoms: C6_6  and  C8_8 
ROOT
HETATM    1  C2  UNL     1     -34.302  15.750  -6.059  1.00 20.00     0.012 C 
HETATM    2  C3  UNL     1     -33.013  15.553  -5.269  1.00 20.00     0.005 C 
HETATM    3  C4  UNL     1     -34.792  14.781  -3.858  1.00 20.00     0.016 C 
HETATM    4  C5  UNL     1     -35.374  15.025  -5.251  1.00 20.00     0.047 C 
HETATM    5  C6  UNL     1     -33.465  15.546  -3.811  1.00 20.00    -0.014 C 
ENDROOT
BRANCH   4   6
HETATM    6  C1  UNL     1     -35.658  13.689  -5.911  1.00 20.00     0.235 C 
HETATM    7  O9  UNL     1     -35.866  12.655  -5.284  1.00 20.00    -0.306 OA
ENDBRANCH   4   6
BRANCH   5   8
HETATM    8  C8  UNL     1     -33.639  16.957  -3.250  1.00 20.00     0.000 C 
HETATM    9  C7  UNL     1     -34.245  16.944  -1.881  1.00 20.00     0.005 C 
ENDBRANCH   5   8
TORSDOF 2
ENDMDL
MODEL 6
REMARK VINA RESULT:      -4.0      2.803      4.569
REMARK  2 active torsions:
REMARK  status: ('A' for Active; 'I' for Inactive)
REMARK    1  A    between atoms: C1_1  and  C5_5 
REMARK    2  A    between atoms: C6_6  and  C8_8 
ROOT
HETATM    1  C2  UNL     1     -31.902   9.364   2.901  1.00 20.00     0.012 C 
HETATM    2  C3  UNL     1     -31.401   8.042   3.469  1.00 20.00     0.005 C 
HETATM    3  C4  UNL     1     -33.212   7.498   1.993  1.00 20.00     0.016 C 
HETATM    4  C5  UNL     1     -32.870   8.975   1.788  1.00 20.00     0.047 C 
HETATM    5  C6  UNL     1     -32.597   7.102   3.339  1.00 20.00    -0.014 C 
ENDROOT
BRANCH   4   6
HETATM    6  C1  UNL     1     -32.166   9.140   0.454  1.00 20.00     0.235 C 
HETATM    7  O9  UNL     1     -32.754   9.177  -0.622  1.00 20.00    -0.306 OA
ENDBRANCH   4   6
BRANCH   5   8
HETATM    8  C8  UNL     1     -33.590   7.265   4.490  1.00 20.00     0.000 C 
HETATM    9  C7  UNL     1     -34.482   6.071   4.632  1.00 20.00     0.005 C 
ENDBRANCH   5   8
TORSDOF 2
ENDMDL
MODEL 7
REMARK VINA RESULT:      -3.9     11.278     12.000
REMARK  2 active torsions:
REMARK  status: ('A' for Active; 'I' for Inactive)
REMARK    1  A    between atoms: C1_1  and  C5_5 
REMARK    2  A    between atoms: C6_6  and  C8_8 
ROOT
HETATM    1  C2  UNL     1     -36.059  15.614  -3.892  1.00 20.00     0.012 C 
HETATM    2  C3  UNL     1     -35.342  16.940  -4.112  1.00 20.00     0.005 C 
HETATM    3  C4  UNL     1     -33.628  15.277  -3.890  1.00 20.00     0.016 C 
HETATM    4  C5  UNL     1     -34.970  14.551  -4.007  1.00 20.00     0.047 C 
HETATM    5  C6  UNL     1     -33.958  16.723  -3.505  1.00 20.00    -0.014 C 
ENDROOT
BRANCH   4   6
HETATM    6  C1  UNL     1     -35.066  13.905  -5.376  1.00 20.00     0.235 C 
HETATM    7  O9  UNL     1     -35.595  12.817  -5.575  1.00 20.00    -0.306 OA
ENDBRANCH   4   6
BRANCH   5   8
HETATM    8  C8  UNL     1     -33.951  16.926  -1.991  1.00 20.00     0.000 C 
HETATM    9  C7  UNL     1     -32.912  17.917  -1.564  1.00 20.00     0.005 C 
ENDBRANCH   5   8
TORSDOF 2
ENDMDL
MODEL 8
REMARK VINA RESULT:      -3.8      1.330      2.323
REMARK  2 active torsions:
REMARK  status: ('A' for Active; 'I' for Inactive)
REMARK    1  A    between atoms: C1_1  and  C5_5 
REMARK    2  A    between atoms: C6_6  and  C8_8 
ROOT
HETATM    1  C2  UNL     1     -31.940   6.882   2.891  1.00 20.00     0.012 C 
HETATM    2  C3  UNL     1     -31.503   8.333   3.052  1.00 20.00     0.005 C 
HETATM    3  C4  UNL     1     -33.757   8.394   2.233  1.00 20.00     0.016 C 
HETATM    4  C5  UNL     1     -33.439   6.948   2.616  1.00 20.00     0.047 C 
HETATM    5  C6  UNL     1     -32.406   9.104   2.092  1.00 20.00    -0.014 C 
ENDROOT
BRANCH   4   6
HETATM    6  C1  UNL     1     -34.181   6.599   3.893  1.00 20.00     0.235 C 
HETATM    7  O9  UNL     1     -35.158   5.858   3.927  1.00 20.00    -0.306 OA
ENDBRANCH   4   6
BRANCH   5   8
HETATM    8  C8  UNL     1     -31.890   9.068   0.654  1.00 20.00     0.000 C 
HETATM    9  C7  UNL     1     -32.959   9.416  -0.334  1.00 20.00     0.005 C 
ENDBRANCH   5   8
TORSDOF 2
ENDMDL
MODEL 9
REMARK VINA RESULT:      -3.7     11.629     12.842
REMARK  2 active torsions:
REMARK  status: ('A' for Active; 'I' for Inactive)
REMARK    1  A    between atoms: C1_1  and  C5_5 
REMARK    2  A    between atoms: C6_6  and  C8_8 
ROOT
HETATM    1  C2  UNL     1     -33.060  14.809  -4.697  1.00 20.00     0.012 C 
HETATM    2  C3  UNL     1     -34.360  14.566  -3.940  1.00 20.00     0.005 C 
HETATM    3  C4  UNL     1     -34.544  16.753  -4.909  1.00 20.00     0.016 C 
HETATM    4  C5  UNL     1     -33.304  16.081  -5.503  1.00 20.00     0.047 C 
HETATM    5  C6  UNL     1     -34.885  15.968  -3.638  1.00 20.00    -0.014 C 
ENDROOT
BRANCH   4   6
HETATM    6  C1  UNL     1     -33.591  15.696  -6.942  1.00 20.00     0.235 C 
HETATM    7  O9  UNL     1     -34.713  15.433  -7.361  1.00 20.00    -0.306 OA
ENDBRANCH   4   6
BRANCH   5   8
HETATM    8  C8  UNL     1     -34.231  16.577  -2.398  1.00 20.00     0.000 C 
HETATM    9  C7  UNL     1     -35.237  16.907  -1.339  1.00 20.00     0.005 C 
ENDBRANCH   5   8
TORSDOF 2
ENDMDL
