MODEL 1
REMARK VINA RESULT:      -5.7      0.000      0.000
REMARK  2 active torsions:
REMARK  status: ('A' for Active; 'I' for Inactive)
REMARK    1  A    between atoms: C1_1  and  C7_7 
REMARK    2  A    between atoms: C8_8  and  C11_11 
ROOT
HETATM    1  C2  UNL     1     -33.244   5.600   2.678  1.00 20.00     0.001 C 
HETATM    2  C3  UNL     1     -34.527   5.970   3.421  1.00 20.00     0.011 C 
HETATM    3  C4  UNL     1     -32.914   7.270   5.007  1.00 20.00     0.012 C 
HETATM    4  C5  UNL     1     -32.519   6.771   2.003  1.00 20.00     0.005 C 
HETATM    5  C6  UNL     1     -32.415   8.345   4.042  1.00 20.00     0.005 C 
HETATM    6  C7  UNL     1     -34.328   6.752   4.733  1.00 20.00     0.047 C 
HETATM    7  C8  UNL     1     -32.792   8.174   2.565  1.00 20.00    -0.011 C 
ENDROOT
BRANCH   7   8
HETATM    8  C11 UNL     1     -32.051   9.222   1.724  1.00 20.00    -0.019 C 
HETATM    9  C9  UNL     1     -31.372   8.559   0.530  1.00 20.00     0.010 C 
HETATM   10  C10 UNL     1     -33.014  10.310   1.265  1.00 20.00     0.010 C 
ENDBRANCH   7   8
BRANCH   6  11
HETATM   11  C1  UNL     1     -34.725   5.866   5.878  1.00 20.00     0.235 C 
HETATM   12  O12 UNL     1     -34.613   4.644   5.858  1.00 20.00    -0.306 OA
ENDBRANCH   6  11
TORSDOF 2
ENDMDL
MODEL 2
REMARK VINA RESULT:      -5.1     11.039     11.913
REMARK  2 active torsions:
REMARK  status: ('A' for Active; 'I' for Inactive)
REMARK    1  A    between atoms: C1_1  and  C7_7 
REMARK    2  A    between atoms: C8_8  and  C11_11 
ROOT
HETATM    1  C2  UNL     1     -36.257  15.202  -4.266  1.00 20.00     0.001 C 
HETATM    2  C3  UNL     1     -35.405  14.002  -4.676  1.00 20.00     0.011 C 
HETATM    3  C4  UNL     1     -33.868  15.807  -5.764  1.00 20.00     0.012 C 
HETATM    4  C5  UNL     1     -35.604  16.153  -3.255  1.00 20.00     0.005 C 
HETATM    5  C6  UNL     1     -33.380  16.523  -4.505  1.00 20.00     0.005 C 
HETATM    6  C7  UNL     1     -34.203  14.325  -5.583  1.00 20.00     0.047 C 
HETATM    7  C8  UNL     1     -34.070  16.148  -3.188  1.00 20.00    -0.011 C 
ENDROOT
BRANCH   7   8
HETATM    8  C11 UNL     1     -33.597  17.093  -2.076  1.00 20.00    -0.019 C 
HETATM    9  C9  UNL     1     -33.200  18.444  -2.663  1.00 20.00     0.010 C 
HETATM   10  C10 UNL     1     -34.686  17.259  -1.023  1.00 20.00     0.010 C 
ENDBRANCH   7   8
BRANCH   6  11
HETATM   11  C1  UNL     1     -34.466  13.742  -6.943  1.00 20.00     0.235 C 
HETATM   12  O12 UNL     1     -34.879  12.601  -7.121  1.00 20.00    -0.306 OA
ENDBRANCH   6  11
TORSDOF 2
ENDMDL
MODEL 3
REMARK VINA RESULT:      -4.9     11.042     11.732
REMARK  2 active torsions:
REMARK  status: ('A' for Active; 'I' for Inactive)
REMARK    1  A    between atoms: C1_1  and  C7_7 
REMARK    2  A    between atoms: C8_8  and  C11_11 
ROOT
HETATM    1  C2  UNL     1     -36.656  16.527  -4.500  1.00 20.00     0.001 C 
HETATM    2  C3  UNL     1     -36.796  15.006  -4.437  1.00 20.00     0.011 C 
HETATM    3  C4  UNL     1     -34.234  15.021  -4.934  1.00 20.00     0.012 C 
HETATM    4  C5  UNL     1     -35.811  17.152  -3.384  1.00 20.00     0.005 C 
HETATM    5  C6  UNL     1     -33.725  15.659  -3.642  1.00 20.00     0.005 C 
HETATM    6  C7  UNL     1     -35.526  14.211  -4.797  1.00 20.00     0.047 C 
HETATM    7  C8  UNL     1     -34.784  16.241  -2.697  1.00 20.00    -0.011 C 
ENDROOT
BRANCH   7   8
HETATM    8  C11 UNL     1     -34.091  17.005  -1.562  1.00 20.00    -0.019 C 
HETATM    9  C9  UNL     1     -33.176  18.084  -2.132  1.00 20.00     0.010 C 
HETATM   10  C10 UNL     1     -35.125  17.613  -0.622  1.00 20.00     0.010 C 
ENDBRANCH   7   8
BRANCH   6  11
HETATM   11  C1  UNL     1     -35.765  13.500  -6.098  1.00 20.00     0.235 C 
HETATM   12  O12 UNL     1     -35.172  12.479  -6.430  1.00 20.00    -0.306 OA
ENDBRANCH   6  11
TORSDOF 2
ENDMDL
MODEL 4
REMARK VINA RESULT:      -4.7     10.982     11.798
REMARK  2 active torsions:
REMARK  status: ('A' for Active; 'I' for Inactive)
REMARK    1  A    between atoms: C1_1  and  C7_7 
REMARK    2  A    between atoms: C8_8  and  C11_11 
ROOT
HETATM    1  C2  UNL     1     -33.050  14.671  -4.641  1.00 20.00     0.001 C 
HETATM    2  C3  UNL     1     -33.768  14.985  -5.952  1.00 20.00     0.011 C 
HETATM    3  C4  UNL     1     -35.928  14.496  -4.574  1.00 20.00     0.012 C 
HETATM    4  C5  UNL     1     -33.299  15.667  -3.503  1.00 20.00     0.005 C 
HETATM    5  C6  UNL     1     -35.875  15.664  -3.590  1.00 20.00     0.005 C 
HETATM    6  C7  UNL     1     -35.292  14.765  -5.940  1.00 20.00     0.047 C 
HETATM    7  C8  UNL     1     -34.588  16.499  -3.578  1.00 20.00    -0.011 C 
ENDROOT
BRANCH   7   8
HETATM    8  C11 UNL     1     -34.633  17.491  -2.409  1.00 20.00    -0.019 C 
HETATM    9  C9  UNL     1     -35.491  16.937  -1.277  1.00 20.00     0.010 C 
HETATM   10  C10 UNL     1     -33.223  17.799  -1.921  1.00 20.00     0.010 C 
ENDBRANCH   7   8
BRANCH   6  11
HETATM   11  C1  UNL     1     -35.610  13.600  -6.833  1.00 20.00     0.235 C 
HETATM   12  O12 UNL     1     -35.201  12.460  -6.630  1.00 20.00    -0.306 OA
ENDBRANCH   6  11
TORSDOF 2
ENDMDL
MODEL 5
REMARK VINA RESULT:      -4.7     11.103     11.970
REMARK  2 active torsions:
REMARK  status: ('A' for Active; 'I' for Inactive)
REMARK    1  A    between atoms: C1_1  and  C7_7 
REMARK    2  A    between atoms: C8_8  and  C11_11 
ROOT
HETATM    1  C2  UNL     1     -35.501  18.645  -0.457  1.00 20.00     0.001 C 
HETATM    2  C3  UNL     1     -35.270  17.194  -0.877  1.00 20.00     0.011 C 
HETATM    3  C4  UNL     1     -33.047  18.121  -1.879  1.00 20.00     0.012 C 
HETATM    4  C5  UNL     1     -34.524  19.185   0.594  1.00 20.00     0.005 C 
HETATM    5  C6  UNL     1     -32.332  18.524  -0.590  1.00 20.00     0.005 C 
HETATM    6  C7  UNL     1     -34.022  16.949  -1.746  1.00 20.00     0.047 C 
HETATM    7  C8  UNL     1     -33.161  18.485   0.700  1.00 20.00    -0.011 C 
ENDROOT
BRANCH   7   8
HETATM    8  C11 UNL     1     -32.351  19.100   1.847  1.00 20.00    -0.019 C 
HETATM    9  C9  UNL     1     -32.883  18.615   3.192  1.00 20.00     0.010 C 
HETATM   10  C10 UNL     1     -30.873  18.760   1.695  1.00 20.00     0.010 C 
ENDBRANCH   7   8
BRANCH   6  11
HETATM   11  C1  UNL     1     -34.473  16.565  -3.126  1.00 20.00     0.235 C 
HETATM   12  O12 UNL     1     -34.660  15.404  -3.478  1.00 20.00    -0.306 OA
ENDBRANCH   6  11
TORSDOF 2
ENDMDL
MODEL 6
REMARK VINA RESULT:      -4.6     10.921     11.764
REMARK  2 active torsions:
REMARK  status: ('A' for Active; 'I' for Inactive)
REMARK    1  A    between atoms: C1_1  and  C7_7 
REMARK    2  A    between atoms: C8_8  and  C11_11 
ROOT
HETATM    1  C2  UNL     1     -33.294  18.717  -2.903  1.00 20.00     0.001 C 
HETATM    2  C3  UNL     1     -33.015  18.288  -1.463  1.00 20.00     0.011 C 
HETATM    3  C4  UNL     1     -35.330  17.100  -1.652  1.00 20.00     0.012 C 
HETATM    4  C5  UNL     1     -33.326  17.579  -3.930  1.00 20.00     0.005 C 
HETATM    5  C6  UNL     1     -34.991  16.041  -2.700  1.00 20.00     0.005 C 
HETATM    6  C7  UNL     1     -34.162  17.535  -0.763  1.00 20.00     0.047 C 
HETATM    7  C8  UNL     1     -33.630  16.171  -3.396  1.00 20.00    -0.011 C 
ENDROOT
BRANCH   7   8
HETATM    8  C11 UNL     1     -33.543  15.154  -4.542  1.00 20.00    -0.019 C 
HETATM    9  C9  UNL     1     -34.796  14.285  -4.575  1.00 20.00     0.010 C 
HETATM   10  C10 UNL     1     -33.344  15.869  -5.872  1.00 20.00     0.010 C 
ENDBRANCH   7   8
BRANCH   6  11
HETATM   11  C1  UNL     1     -34.713  18.415   0.323  1.00 20.00     0.235 C 
HETATM   12  O12 UNL     1     -34.448  18.267   1.512  1.00 20.00    -0.306 OA
ENDBRANCH   6  11
TORSDOF 2
ENDMDL
MODEL 7
REMARK VINA RESULT:      -4.6     11.434     12.530
REMARK  2 active torsions:
REMARK  status: ('A' for Active; 'I' for Inactive)
REMARK    1  A    between atoms: C1_1  and  C7_7 
REMARK    2  A    between atoms: C8_8  and  C11_11 
ROOT
HETATM    1  C2  UNL     1     -35.129  15.856  -3.134  1.00 20.00     0.001 C 
HETATM    2  C3  UNL     1     -33.911  15.317  -3.883  1.00 20.00     0.011 C 
HETATM    3  C4  UNL     1     -33.635  17.790  -4.666  1.00 20.00     0.012 C 
HETATM    4  C5  UNL     1     -34.816  16.836  -1.997  1.00 20.00     0.005 C 
HETATM    5  C6  UNL     1     -33.308  18.449  -3.327  1.00 20.00     0.005 C 
HETATM    6  C7  UNL     1     -33.198  16.329  -4.799  1.00 20.00     0.047 C 
HETATM    7  C8  UNL     1     -33.476  17.582  -2.072  1.00 20.00    -0.011 C 
ENDROOT
BRANCH   7   8
HETATM    8  C11 UNL     1     -33.297  18.453  -0.822  1.00 20.00    -0.019 C 
HETATM    9  C9  UNL     1     -34.296  18.044   0.255  1.00 20.00     0.010 C 
HETATM   10  C10 UNL     1     -31.867  18.348  -0.304  1.00 20.00     0.010 C 
ENDBRANCH   7   8
BRANCH   6  11
HETATM   11  C1  UNL     1     -33.412  15.911  -6.225  1.00 20.00     0.235 C 
HETATM   12  O12 UNL     1     -33.876  16.654  -7.085  1.00 20.00    -0.306 OA
ENDBRANCH   6  11
TORSDOF 2
ENDMDL
MODEL 8
REMARK VINA RESULT:      -4.5     10.901     11.561
REMARK  2 active torsions:
REMARK  status: ('A' for Active; 'I' for Inactive)
REMARK    1  A    between atoms: C1_1  and  C7_7 
REMARK    2  A    between atoms: C8_8  and  C11_11 
ROOT
HETATM    1  C2  UNL     1     -33.445  17.651  -3.098  1.00 20.00     0.001 C 
HETATM    2  C3  UNL     1     -33.729  17.196  -1.668  1.00 20.00     0.011 C 
HETATM    3  C4  UNL     1     -36.164  16.863  -2.544  1.00 20.00     0.012 C 
HETATM    4  C5  UNL     1     -33.576  16.562  -4.170  1.00 20.00     0.005 C 
HETATM    5  C6  UNL     1     -35.928  15.721  -3.532  1.00 20.00     0.005 C 
HETATM    6  C7  UNL     1     -35.207  16.900  -1.350  1.00 20.00     0.047 C 
HETATM    7  C8  UNL     1     -34.467  15.358  -3.831  1.00 20.00    -0.011 C 
ENDROOT
BRANCH   7   8
HETATM    8  C11 UNL     1     -34.418  14.339  -4.976  1.00 20.00    -0.019 C 
HETATM    9  C9  UNL     1     -35.736  13.577  -5.064  1.00 20.00     0.010 C 
HETATM   10  C10 UNL     1     -34.106  15.037  -6.294  1.00 20.00     0.010 C 
ENDBRANCH   7   8
BRANCH   6  11
HETATM   11  C1  UNL     1     -35.705  17.946  -0.394  1.00 20.00     0.235 C 
HETATM   12  O12 UNL     1     -36.070  17.698   0.751  1.00 20.00    -0.306 OA
ENDBRANCH   6  11
TORSDOF 2
ENDMDL
MODEL 9
REMARK VINA RESULT:      -4.4      2.526      5.021
REMARK  2 active torsions:
REMARK  status: ('A' for Active; 'I' for Inactive)
REMARK    1  A    between atoms: C1_1  and  C7_7 
REMARK    2  A    between atoms: C8_8  and  C11_11 
ROOT
HETATM    1  C2  UNL     1     -32.050   8.383   4.189  1.00 20.00     0.001 C 
HETATM    2  C3  UNL     1     -32.628   9.086   2.961  1.00 20.00     0.011 C 
HETATM    3  C4  UNL     1     -32.382   6.742   1.840  1.00 20.00     0.012 C 
HETATM    4  C5  UNL     1     -32.946   7.303   4.806  1.00 20.00     0.005 C 
HETATM    5  C6  UNL     1     -33.409   5.958   2.656  1.00 20.00     0.005 C 
HETATM    6  C7  UNL     1     -32.681   8.235   1.678  1.00 20.00     0.047 C 
HETATM    7  C8  UNL     1     -33.995   6.662   3.886  1.00 20.00    -0.011 C 
ENDROOT
BRANCH   7   8
HETATM    8  C11 UNL     1     -34.847   5.668   4.686  1.00 20.00    -0.019 C 
HETATM    9  C9  UNL     1     -34.418   4.237   4.381  1.00 20.00     0.010 C 
HETATM   10  C10 UNL     1     -34.740   5.959   6.178  1.00 20.00     0.010 C 
ENDBRANCH   7   8
BRANCH   6  11
HETATM   11  C1  UNL     1     -31.695   8.798   0.695  1.00 20.00     0.235 C 
HETATM   12  O12 UNL     1     -31.738   9.952   0.280  1.00 20.00    -0.306 OA
ENDBRANCH   6  11
TORSDOF 2
ENDMDL
