MODEL 1
REMARK VINA RESULT:      -4.7      0.000      0.000
REMARK  5 active torsions:
REMARK  status: ('A' for Active; 'I' for Inactive)
REMARK    1  A    between atoms: C3_3  and  C7_7 
REMARK    2  A    between atoms: C5_5  and  C6_6 
REMARK    3  A    between atoms: C5_5  and  C7_7 
REMARK    4  A    between atoms: C6_6  and  S9_9 
REMARK    5  A    between atoms: C7_7  and  O8_8 
ROOT
HETATM    1  C7  UNL     1     -32.930   7.097   3.938  1.00 20.00     0.122 C 
ENDROOT
BRANCH   1   2
HETATM    2  C3  UNL     1     -34.240   6.819   4.616  1.00 20.00     0.014 A 
HETATM    3  C1  UNL     1     -35.155   5.750   4.086  1.00 20.00     0.007 A 
HETATM    4  C2  UNL     1     -34.436   5.544   5.389  1.00 20.00     0.007 A 
ENDBRANCH   1   2
BRANCH   1   5
HETATM    5  C5  UNL     1     -33.087   7.627   2.506  1.00 20.00     0.042 C 
BRANCH   5   6
HETATM    6  C6  UNL     1     -31.978   8.557   2.010  1.00 20.00     0.076 C 
BRANCH   6   7
HETATM    7  S9  UNL     1     -32.611  10.038   1.171  1.00 20.00    -0.173 SA
HETATM    8  C4  UNL     1     -33.045   9.277  -0.410  1.00 20.00     0.089 C 
ENDBRANCH   6   7
ENDBRANCH   5   6
ENDBRANCH   1   5
BRANCH   1   9
HETATM    9  O8  UNL     1     -32.217   8.075   4.701  1.00 20.00    -0.395 OA
HETATM   10  H23 UNL     1     -32.499   7.960   5.620  1.00 20.00     0.210 HD
ENDBRANCH   1   9
TORSDOF 5
ENDMDL
MODEL 2
REMARK VINA RESULT:      -4.5      2.081      4.674
REMARK  5 active torsions:
REMARK  status: ('A' for Active; 'I' for Inactive)
REMARK    1  A    between atoms: C3_3  and  C7_7 
REMARK    2  A    between atoms: C5_5  and  C6_6 
REMARK    3  A    between atoms: C5_5  and  C7_7 
REMARK    4  A    between atoms: C6_6  and  S9_9 
REMARK    5  A    between atoms: C7_7  and  O8_8 
ROOT
HETATM    1  C7  UNL     1     -32.396   8.295   2.689  1.00 20.00     0.122 C 
ENDROOT
BRANCH   1   2
HETATM    2  C3  UNL     1     -31.983   8.925   1.390  1.00 20.00     0.014 A 
HETATM    3  C1  UNL     1     -32.959   9.018   0.250  1.00 20.00     0.007 A 
HETATM    4  C2  UNL     1     -32.543  10.261   0.986  1.00 20.00     0.007 A 
ENDBRANCH   1   2
BRANCH   1   5
HETATM    5  C5  UNL     1     -32.793   6.819   2.549  1.00 20.00     0.042 C 
BRANCH   5   6
HETATM    6  C6  UNL     1     -34.092   6.405   3.243  1.00 20.00     0.076 C 
BRANCH   6   7
HETATM    7  S9  UNL     1     -34.056   6.670   5.040  1.00 20.00    -0.173 SA
HETATM    8  C4  UNL     1     -34.615   5.031   5.557  1.00 20.00     0.089 C 
ENDBRANCH   6   7
ENDBRANCH   5   6
ENDBRANCH   1   5
BRANCH   1   9
HETATM    9  O8  UNL     1     -31.302   8.378   3.607  1.00 20.00    -0.395 OA
HETATM   10  H23 UNL     1     -30.675   7.688   3.344  1.00 20.00     0.210 HD
ENDBRANCH   1   9
TORSDOF 5
ENDMDL
MODEL 3
REMARK VINA RESULT:      -4.4      1.441      1.536
REMARK  5 active torsions:
REMARK  status: ('A' for Active; 'I' for Inactive)
REMARK    1  A    between atoms: C3_3  and  C7_7 
REMARK    2  A    between atoms: C5_5  and  C6_6 
REMARK    3  A    between atoms: C5_5  and  C7_7 
REMARK    4  A    between atoms: C6_6  and  S9_9 
REMARK    5  A    between atoms: C7_7  and  O8_8 
ROOT
HETATM    1  C7  UNL     1     -33.895   6.198   2.886  1.00 20.00     0.122 C 
ENDROOT
BRANCH   1   2
HETATM    2  C3  UNL     1     -34.842   5.858   4.000  1.00 20.00     0.014 A 
HETATM    3  C1  UNL     1     -34.604   4.641   4.851  1.00 20.00     0.007 A 
HETATM    4  C2  UNL     1     -34.411   6.013   5.432  1.00 20.00     0.007 A 
ENDBRANCH   1   2
BRANCH   1   5
HETATM    5  C5  UNL     1     -33.090   7.480   3.142  1.00 20.00     0.042 C 
BRANCH   5   6
HETATM    6  C6  UNL     1     -32.172   7.934   2.006  1.00 20.00     0.076 C 
BRANCH   6   7
HETATM    7  S9  UNL     1     -32.503   9.635   1.459  1.00 20.00    -0.173 SA
HETATM    8  C4  UNL     1     -32.912   9.280  -0.265  1.00 20.00     0.089 C 
ENDBRANCH   6   7
ENDBRANCH   5   6
ENDBRANCH   1   5
BRANCH   1   9
HETATM    9  O8  UNL     1     -32.971   5.117   2.723  1.00 20.00    -0.395 OA
HETATM   10  H23 UNL     1     -32.155   5.390   3.168  1.00 20.00     0.210 HD
ENDBRANCH   1   9
TORSDOF 5
ENDMDL
MODEL 4
REMARK VINA RESULT:      -4.1      2.329      4.571
REMARK  5 active torsions:
REMARK  status: ('A' for Active; 'I' for Inactive)
REMARK    1  A    between atoms: C3_3  and  C7_7 
REMARK    2  A    between atoms: C5_5  and  C6_6 
REMARK    3  A    between atoms: C5_5  and  C7_7 
REMARK    4  A    between atoms: C6_6  and  S9_9 
REMARK    5  A    between atoms: C7_7  and  O8_8 
ROOT
HETATM    1  C7  UNL     1     -32.272   8.568   2.573  1.00 20.00     0.122 C 
ENDROOT
BRANCH   1   2
HETATM    2  C3  UNL     1     -31.944   9.012   1.177  1.00 20.00     0.014 A 
HETATM    3  C1  UNL     1     -33.030   9.120   0.143  1.00 20.00     0.007 A 
HETATM    4  C2  UNL     1     -32.388  10.364   0.690  1.00 20.00     0.007 A 
ENDBRANCH   1   2
BRANCH   1   5
HETATM    5  C5  UNL     1     -33.125   7.293   2.621  1.00 20.00     0.042 C 
BRANCH   5   6
HETATM    6  C6  UNL     1     -33.918   7.064   3.909  1.00 20.00     0.076 C 
BRANCH   6   7
HETATM    7  S9  UNL     1     -34.478   5.347   4.106  1.00 20.00    -0.173 SA
HETATM    8  C4  UNL     1     -33.341   4.566   2.938  1.00 20.00     0.089 C 
ENDBRANCH   6   7
ENDBRANCH   5   6
ENDBRANCH   1   5
BRANCH   1   9
HETATM    9  O8  UNL     1     -31.050   8.313   3.272  1.00 20.00    -0.395 OA
HETATM   10  H23 UNL     1     -31.124   7.415   3.628  1.00 20.00     0.210 HD
ENDBRANCH   1   9
TORSDOF 5
ENDMDL
MODEL 5
REMARK VINA RESULT:      -3.7      2.919      4.494
REMARK  5 active torsions:
REMARK  status: ('A' for Active; 'I' for Inactive)
REMARK    1  A    between atoms: C3_3  and  C7_7 
REMARK    2  A    between atoms: C5_5  and  C6_6 
REMARK    3  A    between atoms: C5_5  and  C7_7 
REMARK    4  A    between atoms: C6_6  and  S9_9 
REMARK    5  A    between atoms: C7_7  and  O8_8 
ROOT
HETATM    1  C7  UNL     1     -32.988   5.957   3.054  1.00 20.00     0.122 C 
ENDROOT
BRANCH   1   2
HETATM    2  C3  UNL     1     -32.128   7.019   2.433  1.00 20.00     0.014 A 
HETATM    3  C1  UNL     1     -32.674   8.403   2.215  1.00 20.00     0.007 A 
HETATM    4  C2  UNL     1     -31.625   8.166   3.265  1.00 20.00     0.007 A 
ENDBRANCH   1   2
BRANCH   1   5
HETATM    5  C5  UNL     1     -34.492   6.224   2.897  1.00 20.00     0.042 C 
BRANCH   5   6
HETATM    6  C6  UNL     1     -35.374   5.803   4.074  1.00 20.00     0.076 C 
BRANCH   6   7
HETATM    7  S9  UNL     1     -34.428   5.447   5.583  1.00 20.00    -0.173 SA
HETATM    8  C4  UNL     1     -33.942   7.139   5.992  1.00 20.00     0.089 C 
ENDBRANCH   6   7
ENDBRANCH   5   6
ENDBRANCH   1   5
BRANCH   1   9
HETATM    9  O8  UNL     1     -32.691   4.704   2.432  1.00 20.00    -0.395 OA
HETATM   10  H23 UNL     1     -32.578   4.065   3.151  1.00 20.00     0.210 HD
ENDBRANCH   1   9
TORSDOF 5
ENDMDL
MODEL 6
REMARK VINA RESULT:      -3.7     10.601     11.732
REMARK  5 active torsions:
REMARK  status: ('A' for Active; 'I' for Inactive)
REMARK    1  A    between atoms: C3_3  and  C7_7 
REMARK    2  A    between atoms: C5_5  and  C6_6 
REMARK    3  A    between atoms: C5_5  and  C7_7 
REMARK    4  A    between atoms: C6_6  and  S9_9 
REMARK    5  A    between atoms: C7_7  and  O8_8 
ROOT
HETATM    1  C7  UNL     1     -35.336  13.923  -5.291  1.00 20.00     0.122 C 
ENDROOT
BRANCH   1   2
HETATM    2  C3  UNL     1     -34.438  14.250  -4.133  1.00 20.00     0.014 A 
HETATM    3  C1  UNL     1     -33.330  15.253  -4.294  1.00 20.00     0.007 A 
HETATM    4  C2  UNL     1     -34.533  15.590  -3.459  1.00 20.00     0.007 A 
ENDBRANCH   1   2
BRANCH   1   5
HETATM    5  C5  UNL     1     -34.595  13.850  -6.633  1.00 20.00     0.042 C 
BRANCH   5   6
HETATM    6  C6  UNL     1     -34.982  14.904  -7.672  1.00 20.00     0.076 C 
BRANCH   6   7
HETATM    7  S9  UNL     1     -36.270  16.043  -7.086  1.00 20.00    -0.173 SA
HETATM    8  C4  UNL     1     -35.213  17.455  -6.696  1.00 20.00     0.089 C 
ENDBRANCH   6   7
ENDBRANCH   5   6
ENDBRANCH   1   5
BRANCH   1   9
HETATM    9  O8  UNL     1     -35.950  12.653  -5.052  1.00 20.00    -0.395 OA
HETATM   10  H23 UNL     1     -35.619  12.350  -4.194  1.00 20.00     0.210 HD
ENDBRANCH   1   9
TORSDOF 5
ENDMDL
MODEL 7
REMARK VINA RESULT:      -3.4      2.635      4.286
REMARK  5 active torsions:
REMARK  status: ('A' for Active; 'I' for Inactive)
REMARK    1  A    between atoms: C3_3  and  C7_7 
REMARK    2  A    between atoms: C5_5  and  C6_6 
REMARK    3  A    between atoms: C5_5  and  C7_7 
REMARK    4  A    between atoms: C6_6  and  S9_9 
REMARK    5  A    between atoms: C7_7  and  O8_8 
ROOT
HETATM    1  C7  UNL     1     -33.304   7.839   4.314  1.00 20.00     0.122 C 
ENDROOT
BRANCH   1   2
HETATM    2  C3  UNL     1     -32.095   7.824   3.424  1.00 20.00     0.014 A 
HETATM    3  C1  UNL     1     -32.251   7.941   1.933  1.00 20.00     0.007 A 
HETATM    4  C2  UNL     1     -31.662   9.079   2.718  1.00 20.00     0.007 A 
ENDBRANCH   1   2
BRANCH   1   5
HETATM    5  C5  UNL     1     -34.366   6.804   3.914  1.00 20.00     0.042 C 
BRANCH   5   6
HETATM    6  C6  UNL     1     -34.675   5.725   4.954  1.00 20.00     0.076 C 
BRANCH   6   7
HETATM    7  S9  UNL     1     -34.172   4.062   4.426  1.00 20.00    -0.173 SA
HETATM    8  C4  UNL     1     -33.335   4.517   2.891  1.00 20.00     0.089 C 
ENDBRANCH   6   7
ENDBRANCH   5   6
ENDBRANCH   1   5
BRANCH   1   9
HETATM    9  O8  UNL     1     -32.892   7.559   5.655  1.00 20.00    -0.395 OA
HETATM   10  H23 UNL     1     -33.388   8.167   6.223  1.00 20.00     0.210 HD
ENDBRANCH   1   9
TORSDOF 5
ENDMDL
MODEL 8
REMARK VINA RESULT:      -3.4     10.962     11.965
REMARK  5 active torsions:
REMARK  status: ('A' for Active; 'I' for Inactive)
REMARK    1  A    between atoms: C3_3  and  C7_7 
REMARK    2  A    between atoms: C5_5  and  C6_6 
REMARK    3  A    between atoms: C5_5  and  C7_7 
REMARK    4  A    between atoms: C6_6  and  S9_9 
REMARK    5  A    between atoms: C7_7  and  O8_8 
ROOT
HETATM    1  C7  UNL     1     -35.535  13.855  -5.447  1.00 20.00     0.122 C 
ENDROOT
BRANCH   1   2
HETATM    2  C3  UNL     1     -35.534  13.856  -6.948  1.00 20.00     0.014 A 
HETATM    3  C1  UNL     1     -35.286  15.131  -7.704  1.00 20.00     0.007 A 
HETATM    4  C2  UNL     1     -34.248  14.045  -7.703  1.00 20.00     0.007 A 
ENDBRANCH   1   2
BRANCH   1   5
HETATM    5  C5  UNL     1     -36.497  14.886  -4.839  1.00 20.00     0.042 C 
BRANCH   5   6
HETATM    6  C6  UNL     1     -35.854  15.991  -4.001  1.00 20.00     0.076 C 
BRANCH   6   7
HETATM    7  S9  UNL     1     -34.066  15.765  -3.773  1.00 20.00    -0.173 SA
HETATM    8  C4  UNL     1     -33.493  16.982  -4.979  1.00 20.00     0.089 C 
ENDBRANCH   6   7
ENDBRANCH   5   6
ENDBRANCH   1   5
BRANCH   1   9
HETATM    9  O8  UNL     1     -35.925  12.557  -4.989  1.00 20.00    -0.395 OA
HETATM   10  H23 UNL     1     -36.452  12.165  -5.701  1.00 20.00     0.210 HD
ENDBRANCH   1   9
TORSDOF 5
ENDMDL
MODEL 9
REMARK VINA RESULT:      -3.4     10.726     11.264
REMARK  5 active torsions:
REMARK  status: ('A' for Active; 'I' for Inactive)
REMARK    1  A    between atoms: C3_3  and  C7_7 
REMARK    2  A    between atoms: C5_5  and  C6_6 
REMARK    3  A    between atoms: C5_5  and  C7_7 
REMARK    4  A    between atoms: C6_6  and  S9_9 
REMARK    5  A    between atoms: C7_7  and  O8_8 
ROOT
HETATM    1  C7  UNL     1     -33.542  15.014  -4.109  1.00 20.00     0.122 C 
ENDROOT
BRANCH   1   2
HETATM    2  C3  UNL     1     -34.009  16.365  -3.650  1.00 20.00     0.014 A 
HETATM    3  C1  UNL     1     -34.973  16.483  -2.502  1.00 20.00     0.007 A 
HETATM    4  C2  UNL     1     -33.545  16.917  -2.331  1.00 20.00     0.007 A 
ENDBRANCH   1   2
BRANCH   1   5
HETATM    5  C5  UNL     1     -34.690  14.080  -4.517  1.00 20.00     0.042 C 
BRANCH   5   6
HETATM    6  C6  UNL     1     -34.940  13.942  -6.020  1.00 20.00     0.076 C 
BRANCH   6   7
HETATM    7  S9  UNL     1     -36.604  14.475  -6.518  1.00 20.00    -0.173 SA
HETATM    8  C4  UNL     1     -37.371  14.497  -4.882  1.00 20.00     0.089 C 
ENDBRANCH   6   7
ENDBRANCH   5   6
ENDBRANCH   1   5
BRANCH   1   9
HETATM    9  O8  UNL     1     -32.683  15.185  -5.240  1.00 20.00    -0.395 OA
HETATM   10  H23 UNL     1     -33.207  15.648  -5.910  1.00 20.00     0.210 HD
ENDBRANCH   1   9
TORSDOF 5
ENDMDL
