MODEL 1
REMARK VINA RESULT:      -4.6      0.000      0.000
REMARK  4 active torsions:
REMARK  status: ('A' for Active; 'I' for Inactive)
REMARK    1  A    between atoms: C5_5  and  C7_7 
REMARK    2  A    between atoms: C5_5  and  C8_8 
REMARK    3  A    between atoms: C6_6  and  C7_7 
REMARK    4  A    between atoms: C8_8  and  O9_9 
ROOT
HETATM    1  C5  UNL     1     -32.892   6.553   2.861  1.00 20.00     0.042 C 
ENDROOT
BRANCH   1   2
HETATM    2  C7  UNL     1     -32.582   8.064   2.730  1.00 20.00    -0.002 C 
HETATM    3  C1  UNL     1     -31.292   8.385   3.501  1.00 20.00     0.011 C 
BRANCH   2   4
HETATM    4  C6  UNL     1     -32.507   8.606   1.295  1.00 20.00     0.119 C 
HETATM    5 CL10 UNL     1     -32.751  10.367   1.181  1.00 20.00    -0.130 Cl
ENDBRANCH   2   4
ENDBRANCH   1   2
BRANCH   1   6
HETATM    6  C8  UNL     1     -34.044   6.137   3.806  1.00 20.00     0.053 C 
HETATM    7  C2  UNL     1     -33.923   6.909   5.128  1.00 20.00     0.045 C 
HETATM    8  C3  UNL     1     -35.424   6.382   3.197  1.00 20.00     0.045 C 
BRANCH   6   9
HETATM    9  O9  UNL     1     -33.950   4.748   4.121  1.00 20.00    -0.386 OA
HETATM   10  C4  UNL     1     -34.528   4.467   5.386  1.00 20.00     0.202 C 
ENDBRANCH   6   9
ENDBRANCH   1   6
TORSDOF 4
ENDMDL
MODEL 2
REMARK VINA RESULT:      -4.6      0.932      1.388
REMARK  4 active torsions:
REMARK  status: ('A' for Active; 'I' for Inactive)
REMARK    1  A    between atoms: C5_5  and  C7_7 
REMARK    2  A    between atoms: C5_5  and  C8_8 
REMARK    3  A    between atoms: C6_6  and  C7_7 
REMARK    4  A    between atoms: C8_8  and  O9_9 
ROOT
HETATM    1  C5  UNL     1     -32.901   6.417   2.770  1.00 20.00     0.042 C 
ENDROOT
BRANCH   1   2
HETATM    2  C7  UNL     1     -32.634   7.942   2.720  1.00 20.00    -0.002 C 
HETATM    3  C1  UNL     1     -31.446   8.279   3.634  1.00 20.00     0.011 C 
BRANCH   2   4
HETATM    4  C6  UNL     1     -32.428   8.536   1.319  1.00 20.00     0.119 C 
HETATM    5 CL10 UNL     1     -32.877  10.255   1.197  1.00 20.00    -0.130 Cl
ENDBRANCH   2   4
ENDBRANCH   1   2
BRANCH   1   6
HETATM    6  C8  UNL     1     -34.020   5.916   3.712  1.00 20.00     0.053 C 
HETATM    7  C2  UNL     1     -35.387   6.311   3.136  1.00 20.00     0.045 C 
HETATM    8  C3  UNL     1     -33.976   4.405   3.930  1.00 20.00     0.045 C 
BRANCH   6   9
HETATM    9  O9  UNL     1     -33.909   6.541   4.991  1.00 20.00    -0.386 OA
HETATM   10  C4  UNL     1     -34.546   5.770   5.998  1.00 20.00     0.202 C 
ENDBRANCH   6   9
ENDBRANCH   1   6
TORSDOF 4
ENDMDL
MODEL 3
REMARK VINA RESULT:      -4.4      2.860      4.471
REMARK  4 active torsions:
REMARK  status: ('A' for Active; 'I' for Inactive)
REMARK    1  A    between atoms: C5_5  and  C7_7 
REMARK    2  A    between atoms: C5_5  and  C8_8 
REMARK    3  A    between atoms: C6_6  and  C7_7 
REMARK    4  A    between atoms: C8_8  and  O9_9 
ROOT
HETATM    1  C5  UNL     1     -33.933   7.559   3.840  1.00 20.00     0.042 C 
ENDROOT
BRANCH   1   2
HETATM    2  C7  UNL     1     -33.815   6.630   5.074  1.00 20.00    -0.002 C 
HETATM    3  C1  UNL     1     -33.850   7.480   6.353  1.00 20.00     0.011 C 
BRANCH   2   4
HETATM    4  C6  UNL     1     -34.842   5.491   5.150  1.00 20.00     0.119 C 
HETATM    5 CL10 UNL     1     -34.289   3.977   4.391  1.00 20.00    -0.130 Cl
ENDBRANCH   2   4
ENDBRANCH   1   2
BRANCH   1   6
HETATM    6  C8  UNL     1     -32.779   7.532   2.811  1.00 20.00     0.053 C 
HETATM    7  C2  UNL     1     -31.520   8.147   3.439  1.00 20.00     0.045 C 
HETATM    8  C3  UNL     1     -32.465   6.122   2.313  1.00 20.00     0.045 C 
BRANCH   6   9
HETATM    9  O9  UNL     1     -33.111   8.328   1.673  1.00 20.00    -0.386 OA
HETATM   10  C4  UNL     1     -31.968   8.996   1.161  1.00 20.00     0.202 C 
ENDBRANCH   6   9
ENDBRANCH   1   6
TORSDOF 4
ENDMDL
MODEL 4
REMARK VINA RESULT:      -4.2      3.103      4.771
REMARK  4 active torsions:
REMARK  status: ('A' for Active; 'I' for Inactive)
REMARK    1  A    between atoms: C5_5  and  C7_7 
REMARK    2  A    between atoms: C5_5  and  C8_8 
REMARK    3  A    between atoms: C6_6  and  C7_7 
REMARK    4  A    between atoms: C8_8  and  O9_9 
ROOT
HETATM    1  C5  UNL     1     -33.241   7.364   2.121  1.00 20.00     0.042 C 
ENDROOT
BRANCH   1   2
HETATM    2  C7  UNL     1     -33.188   6.407   3.337  1.00 20.00    -0.002 C 
HETATM    3  C1  UNL     1     -34.206   6.870   4.391  1.00 20.00     0.011 C 
BRANCH   2   4
HETATM    4  C6  UNL     1     -33.373   4.917   3.020  1.00 20.00     0.119 C 
HETATM    5 CL10 UNL     1     -34.225   4.013   4.297  1.00 20.00    -0.130 Cl
ENDBRANCH   2   4
ENDBRANCH   1   2
BRANCH   1   6
HETATM    6  C8  UNL     1     -32.180   8.487   2.046  1.00 20.00     0.053 C 
HETATM    7  C2  UNL     1     -31.253   8.396   3.267  1.00 20.00     0.045 C 
HETATM    8  C3  UNL     1     -31.346   8.426   0.767  1.00 20.00     0.045 C 
BRANCH   6   9
HETATM    9  O9  UNL     1     -32.809   9.768   2.093  1.00 20.00    -0.386 OA
HETATM   10  C4  UNL     1     -32.722  10.430   0.841  1.00 20.00     0.202 C 
ENDBRANCH   6   9
ENDBRANCH   1   6
TORSDOF 4
ENDMDL
MODEL 5
REMARK VINA RESULT:      -4.1      2.883      4.686
REMARK  4 active torsions:
REMARK  status: ('A' for Active; 'I' for Inactive)
REMARK    1  A    between atoms: C5_5  and  C7_7 
REMARK    2  A    between atoms: C5_5  and  C8_8 
REMARK    3  A    between atoms: C6_6  and  C7_7 
REMARK    4  A    between atoms: C8_8  and  O9_9 
ROOT
HETATM    1  C5  UNL     1     -32.888   6.981   2.617  1.00 20.00     0.042 C 
ENDROOT
BRANCH   1   2
HETATM    2  C7  UNL     1     -34.063   7.060   3.622  1.00 20.00    -0.002 C 
HETATM    3  C1  UNL     1     -35.040   5.906   3.350  1.00 20.00     0.011 C 
BRANCH   2   4
HETATM    4  C6  UNL     1     -33.670   7.102   5.106  1.00 20.00     0.119 C 
HETATM    5 CL10 UNL     1     -34.440   5.831   6.087  1.00 20.00    -0.130 Cl
ENDBRANCH   2   4
ENDBRANCH   1   2
BRANCH   1   6
HETATM    6  C8  UNL     1     -32.168   8.301   2.251  1.00 20.00     0.053 C 
HETATM    7  C2  UNL     1     -31.152   8.649   3.348  1.00 20.00     0.045 C 
HETATM    8  C3  UNL     1     -31.457   8.230   0.901  1.00 20.00     0.045 C 
BRANCH   6   9
HETATM    9  O9  UNL     1     -33.105   9.376   2.191  1.00 20.00    -0.386 OA
HETATM   10  C4  UNL     1     -32.806  10.260   1.123  1.00 20.00     0.202 C 
ENDBRANCH   6   9
ENDBRANCH   1   6
TORSDOF 4
ENDMDL
MODEL 6
REMARK VINA RESULT:      -4.1      2.928      4.784
REMARK  4 active torsions:
REMARK  status: ('A' for Active; 'I' for Inactive)
REMARK    1  A    between atoms: C5_5  and  C7_7 
REMARK    2  A    between atoms: C5_5  and  C8_8 
REMARK    3  A    between atoms: C6_6  and  C7_7 
REMARK    4  A    between atoms: C8_8  and  O9_9 
ROOT
HETATM    1  C5  UNL     1     -32.109   7.957   2.752  1.00 20.00     0.042 C 
ENDROOT
BRANCH   1   2
HETATM    2  C7  UNL     1     -33.381   7.180   3.171  1.00 20.00    -0.002 C 
HETATM    3  C1  UNL     1     -33.260   5.721   2.707  1.00 20.00     0.011 C 
BRANCH   2   4
HETATM    4  C6  UNL     1     -33.743   7.249   4.661  1.00 20.00     0.119 C 
HETATM    5 CL10 UNL     1     -34.535   5.777   5.275  1.00 20.00    -0.130 Cl
ENDBRANCH   2   4
ENDBRANCH   1   2
BRANCH   1   6
HETATM    6  C8  UNL     1     -32.203   8.866   1.504  1.00 20.00     0.053 C 
HETATM    7  C2  UNL     1     -32.381  10.325   1.946  1.00 20.00     0.045 C 
HETATM    8  C3  UNL     1     -30.976   8.753   0.599  1.00 20.00     0.045 C 
BRANCH   6   9
HETATM    9  O9  UNL     1     -33.348   8.521   0.725  1.00 20.00    -0.386 OA
HETATM   10  C4  UNL     1     -33.378   9.245  -0.496  1.00 20.00     0.202 C 
ENDBRANCH   6   9
ENDBRANCH   1   6
TORSDOF 4
ENDMDL
MODEL 7
REMARK VINA RESULT:      -3.9      3.087      4.765
REMARK  4 active torsions:
REMARK  status: ('A' for Active; 'I' for Inactive)
REMARK    1  A    between atoms: C5_5  and  C7_7 
REMARK    2  A    between atoms: C5_5  and  C8_8 
REMARK    3  A    between atoms: C6_6  and  C7_7 
REMARK    4  A    between atoms: C8_8  and  O9_9 
ROOT
HETATM    1  C5  UNL     1     -33.508   7.884   2.289  1.00 20.00     0.042 C 
ENDROOT
BRANCH   1   2
HETATM    2  C7  UNL     1     -33.154   6.794   3.330  1.00 20.00    -0.002 C 
HETATM    3  C1  UNL     1     -33.798   7.152   4.678  1.00 20.00     0.011 C 
BRANCH   2   4
HETATM    4  C6  UNL     1     -33.497   5.352   2.929  1.00 20.00     0.119 C 
HETATM    5 CL10 UNL     1     -34.308   4.425   4.214  1.00 20.00    -0.130 Cl
ENDBRANCH   2   4
ENDBRANCH   1   2
BRANCH   1   6
HETATM    6  C8  UNL     1     -32.373   8.825   1.822  1.00 20.00     0.053 C 
HETATM    7  C2  UNL     1     -32.876  10.275   1.833  1.00 20.00     0.045 C 
HETATM    8  C3  UNL     1     -31.120   8.713   2.690  1.00 20.00     0.045 C 
BRANCH   6   9
HETATM    9  O9  UNL     1     -31.998   8.522   0.479  1.00 20.00    -0.386 OA
HETATM   10  C4  UNL     1     -32.842   9.181  -0.453  1.00 20.00     0.202 C 
ENDBRANCH   6   9
ENDBRANCH   1   6
TORSDOF 4
ENDMDL
MODEL 8
REMARK VINA RESULT:      -3.8     10.771     11.567
REMARK  4 active torsions:
REMARK  status: ('A' for Active; 'I' for Inactive)
REMARK    1  A    between atoms: C5_5  and  C7_7 
REMARK    2  A    between atoms: C5_5  and  C8_8 
REMARK    3  A    between atoms: C6_6  and  C7_7 
REMARK    4  A    between atoms: C8_8  and  O9_9 
ROOT
HETATM    1  C5  UNL     1     -34.771  15.722  -3.669  1.00 20.00     0.042 C 
ENDROOT
BRANCH   1   2
HETATM    2  C7  UNL     1     -33.766  16.666  -2.964  1.00 20.00    -0.002 C 
HETATM    3  C1  UNL     1     -33.543  17.911  -3.837  1.00 20.00     0.011 C 
BRANCH   2   4
HETATM    4  C6  UNL     1     -34.124  17.067  -1.526  1.00 20.00     0.119 C 
HETATM    5 CL10 UNL     1     -32.963  18.199  -0.788  1.00 20.00    -0.130 Cl
ENDBRANCH   2   4
ENDBRANCH   1   2
BRANCH   1   6
HETATM    6  C8  UNL     1     -34.195  14.604  -4.568  1.00 20.00     0.053 C 
HETATM    7  C2  UNL     1     -34.298  15.029  -6.040  1.00 20.00     0.045 C 
HETATM    8  C3  UNL     1     -32.742  14.269  -4.235  1.00 20.00     0.045 C 
BRANCH   6   9
HETATM    9  O9  UNL     1     -34.960  13.408  -4.423  1.00 20.00    -0.386 OA
HETATM   10  C4  UNL     1     -36.048  13.378  -5.333  1.00 20.00     0.202 C 
ENDBRANCH   6   9
ENDBRANCH   1   6
TORSDOF 4
ENDMDL
MODEL 9
REMARK VINA RESULT:      -3.8     11.061     11.887
REMARK  4 active torsions:
REMARK  status: ('A' for Active; 'I' for Inactive)
REMARK    1  A    between atoms: C5_5  and  C7_7 
REMARK    2  A    between atoms: C5_5  and  C8_8 
REMARK    3  A    between atoms: C6_6  and  C7_7 
REMARK    4  A    between atoms: C8_8  and  O9_9 
ROOT
HETATM    1  C5  UNL     1     -33.822  16.912  -3.969  1.00 20.00     0.042 C 
ENDROOT
BRANCH   1   2
HETATM    2  C7  UNL     1     -33.957  16.688  -2.443  1.00 20.00    -0.002 C 
HETATM    3  C1  UNL     1     -33.063  17.694  -1.702  1.00 20.00     0.011 C 
BRANCH   2   4
HETATM    4  C6  UNL     1     -35.389  16.722  -1.889  1.00 20.00     0.119 C 
HETATM    5 CL10 UNL     1     -35.492  17.296  -0.206  1.00 20.00    -0.130 Cl
ENDBRANCH   2   4
ENDBRANCH   1   2
BRANCH   1   6
HETATM    6  C8  UNL     1     -33.908  15.669  -4.886  1.00 20.00     0.053 C 
HETATM    7  C2  UNL     1     -33.373  16.025  -6.280  1.00 20.00     0.045 C 
HETATM    8  C3  UNL     1     -33.133  14.473  -4.332  1.00 20.00     0.045 C 
BRANCH   6   9
HETATM    9  O9  UNL     1     -35.268  15.266  -5.048  1.00 20.00    -0.386 OA
HETATM   10  C4  UNL     1     -35.431  13.883  -4.776  1.00 20.00     0.202 C 
ENDBRANCH   6   9
ENDBRANCH   1   6
TORSDOF 4
ENDMDL
