MODEL 1
REMARK VINA RESULT:      -5.4      0.000      0.000
REMARK  2 active torsions:
REMARK  status: ('A' for Active; 'I' for Inactive)
REMARK    1  A    between atoms: C5_5  and  C8_8 
REMARK    2  A    between atoms: C6_6  and  C9_9 
ROOT
HETATM    1  C1  UNL     1     -33.473   4.042   3.724  1.00 20.00     0.001 C 
HETATM    2  C2  UNL     1     -34.845   4.442   4.261  1.00 20.00     0.005 C 
HETATM    3  C3  UNL     1     -33.011   4.974   2.606  1.00 20.00     0.005 C 
HETATM    4  C4  UNL     1     -34.412   6.839   3.580  1.00 20.00     0.010 C 
HETATM    5  C5  UNL     1     -34.915   5.912   4.698  1.00 20.00    -0.014 C 
HETATM    6  C6  UNL     1     -33.028   6.444   3.043  1.00 20.00    -0.000 C 
ENDROOT
BRANCH   5   7
HETATM    7  C8  UNL     1     -34.166   6.149   6.012  1.00 20.00     0.000 C 
HETATM    8  C7  UNL     1     -33.601   7.529   6.084  1.00 20.00     0.005 C 
ENDBRANCH   5   7
BRANCH   6   9
HETATM    9  C9  UNL     1     -32.623   7.353   1.882  1.00 20.00     0.119 C 
HETATM   10 CL10 UNL     1     -31.769   8.777   2.497  1.00 20.00    -0.130 Cl
ENDBRANCH   6   9
TORSDOF 2
ENDMDL
MODEL 2
REMARK VINA RESULT:      -5.4      1.178      1.569
REMARK  2 active torsions:
REMARK  status: ('A' for Active; 'I' for Inactive)
REMARK    1  A    between atoms: C5_5  and  C8_8 
REMARK    2  A    between atoms: C6_6  and  C9_9 
ROOT
HETATM    1  C1  UNL     1     -33.448   5.218   2.860  1.00 20.00     0.001 C 
HETATM    2  C2  UNL     1     -34.777   5.751   3.392  1.00 20.00     0.005 C 
HETATM    3  C3  UNL     1     -32.564   6.341   2.326  1.00 20.00     0.005 C 
HETATM    4  C4  UNL     1     -33.681   7.972   3.901  1.00 20.00     0.010 C 
HETATM    5  C5  UNL     1     -34.604   6.865   4.434  1.00 20.00    -0.014 C 
HETATM    6  C6  UNL     1     -32.340   7.440   3.372  1.00 20.00    -0.000 C 
ENDROOT
BRANCH   5   7
HETATM    7  C8  UNL     1     -34.114   6.315   5.776  1.00 20.00     0.000 C 
HETATM    8  C7  UNL     1     -34.612   4.928   6.018  1.00 20.00     0.005 C 
ENDBRANCH   5   7
BRANCH   6   9
HETATM    9  C9  UNL     1     -31.506   8.578   2.784  1.00 20.00     0.119 C 
HETATM   10 CL10 UNL     1     -32.222   9.131   1.261  1.00 20.00    -0.130 Cl
ENDBRANCH   6   9
TORSDOF 2
ENDMDL
MODEL 3
REMARK VINA RESULT:      -4.8      2.269      4.065
REMARK  2 active torsions:
REMARK  status: ('A' for Active; 'I' for Inactive)
REMARK    1  A    between atoms: C5_5  and  C8_8 
REMARK    2  A    between atoms: C6_6  and  C9_9 
ROOT
HETATM    1  C1  UNL     1     -33.910   6.211   2.085  1.00 20.00     0.001 C 
HETATM    2  C2  UNL     1     -32.483   6.669   1.790  1.00 20.00     0.005 C 
HETATM    3  C3  UNL     1     -34.144   6.024   3.582  1.00 20.00     0.005 C 
HETATM    4  C4  UNL     1     -32.356   7.741   4.077  1.00 20.00     0.010 C 
HETATM    5  C5  UNL     1     -32.081   7.925   2.577  1.00 20.00    -0.014 C 
HETATM    6  C6  UNL     1     -33.792   7.287   4.378  1.00 20.00    -0.000 C 
ENDROOT
BRANCH   5   7
HETATM    7  C8  UNL     1     -32.759   9.181   2.024  1.00 20.00     0.000 C 
HETATM    8  C7  UNL     1     -32.180   9.589   0.710  1.00 20.00     0.005 C 
ENDBRANCH   5   7
BRANCH   6   9
HETATM    9  C9  UNL     1     -33.976   7.044   5.876  1.00 20.00     0.119 C 
HETATM   10 CL10 UNL     1     -34.560   5.396   6.156  1.00 20.00    -0.130 Cl
ENDBRANCH   6   9
TORSDOF 2
ENDMDL
MODEL 4
REMARK VINA RESULT:      -4.3     12.125     12.850
REMARK  2 active torsions:
REMARK  status: ('A' for Active; 'I' for Inactive)
REMARK    1  A    between atoms: C5_5  and  C8_8 
REMARK    2  A    between atoms: C6_6  and  C9_9 
ROOT
HETATM    1  C1  UNL     1     -34.951  17.739   0.048  1.00 20.00     0.001 C 
HETATM    2  C2  UNL     1     -34.220  19.045  -0.254  1.00 20.00     0.005 C 
HETATM    3  C3  UNL     1     -35.328  16.995  -1.230  1.00 20.00     0.005 C 
HETATM    4  C4  UNL     1     -33.381  18.070  -2.432  1.00 20.00     0.010 C 
HETATM    5  C5  UNL     1     -33.000  18.853  -1.167  1.00 20.00    -0.014 C 
HETATM    6  C6  UNL     1     -34.111  16.752  -2.131  1.00 20.00    -0.000 C 
ENDROOT
BRANCH   5   7
HETATM    7  C8  UNL     1     -31.833  18.197  -0.423  1.00 20.00     0.000 C 
HETATM    8  C7  UNL     1     -31.538  18.894   0.864  1.00 20.00     0.005 C 
ENDBRANCH   5   7
BRANCH   6   9
HETATM    9  C9  UNL     1     -34.534  16.064  -3.429  1.00 20.00     0.119 C 
HETATM   10 CL10 UNL     1     -33.182  15.129  -4.088  1.00 20.00    -0.130 Cl
ENDBRANCH   6   9
TORSDOF 2
ENDMDL
MODEL 5
REMARK VINA RESULT:      -4.2     11.812     12.904
REMARK  2 active torsions:
REMARK  status: ('A' for Active; 'I' for Inactive)
REMARK    1  A    between atoms: C5_5  and  C8_8 
REMARK    2  A    between atoms: C6_6  and  C9_9 
ROOT
HETATM    1  C1  UNL     1     -34.508  16.919  -5.709  1.00 20.00     0.001 C 
HETATM    2  C2  UNL     1     -33.356  16.692  -4.733  1.00 20.00     0.005 C 
HETATM    3  C3  UNL     1     -35.073  15.600  -6.230  1.00 20.00     0.005 C 
HETATM    4  C4  UNL     1     -34.326  14.441  -4.112  1.00 20.00     0.010 C 
HETATM    5  C5  UNL     1     -33.723  15.749  -3.578  1.00 20.00    -0.014 C 
HETATM    6  C6  UNL     1     -35.491  14.666  -5.088  1.00 20.00    -0.000 C 
ENDROOT
BRANCH   5   7
HETATM    7  C8  UNL     1     -34.647  16.429  -2.564  1.00 20.00     0.000 C 
HETATM    8  C7  UNL     1     -33.878  17.243  -1.577  1.00 20.00     0.005 C 
ENDBRANCH   5   7
BRANCH   6   9
HETATM    9  C9  UNL     1     -35.991  13.332  -5.643  1.00 20.00     0.119 C 
HETATM   10 CL10 UNL     1     -35.118  12.929  -7.131  1.00 20.00    -0.130 Cl
ENDBRANCH   6   9
TORSDOF 2
ENDMDL
MODEL 6
REMARK VINA RESULT:      -4.2     11.932     12.830
REMARK  2 active torsions:
REMARK  status: ('A' for Active; 'I' for Inactive)
REMARK    1  A    between atoms: C5_5  and  C8_8 
REMARK    2  A    between atoms: C6_6  and  C9_9 
ROOT
HETATM    1  C1  UNL     1     -36.311  15.074  -4.438  1.00 20.00     0.001 C 
HETATM    2  C2  UNL     1     -35.452  13.900  -4.904  1.00 20.00     0.005 C 
HETATM    3  C3  UNL     1     -35.662  15.821  -3.276  1.00 20.00     0.005 C 
HETATM    4  C4  UNL     1     -33.379  15.091  -4.080  1.00 20.00     0.010 C 
HETATM    5  C5  UNL     1     -34.010  14.306  -5.240  1.00 20.00    -0.014 C 
HETATM    6  C6  UNL     1     -34.237  16.277  -3.614  1.00 20.00    -0.000 C 
ENDROOT
BRANCH   5   7
HETATM    7  C8  UNL     1     -33.933  15.081  -6.558  1.00 20.00     0.000 C 
HETATM    8  C7  UNL     1     -34.195  14.198  -7.733  1.00 20.00     0.005 C 
ENDBRANCH   5   7
BRANCH   6   9
HETATM    9  C9  UNL     1     -33.595  16.964  -2.408  1.00 20.00     0.119 C 
HETATM   10 CL10 UNL     1     -34.768  17.094  -1.088  1.00 20.00    -0.130 Cl
ENDBRANCH   6   9
TORSDOF 2
ENDMDL
MODEL 7
REMARK VINA RESULT:      -4.1     12.283     13.454
REMARK  2 active torsions:
REMARK  status: ('A' for Active; 'I' for Inactive)
REMARK    1  A    between atoms: C5_5  and  C8_8 
REMARK    2  A    between atoms: C6_6  and  C9_9 
ROOT
HETATM    1  C1  UNL     1     -35.148  17.665  -0.595  1.00 20.00     0.001 C 
HETATM    2  C2  UNL     1     -34.186  17.069  -1.620  1.00 20.00     0.005 C 
HETATM    3  C3  UNL     1     -34.436  18.015   0.710  1.00 20.00     0.005 C 
HETATM    4  C4  UNL     1     -32.270  18.331  -0.555  1.00 20.00     0.010 C 
HETATM    5  C5  UNL     1     -32.957  17.953  -1.876  1.00 20.00    -0.014 C 
HETATM    6  C6  UNL     1     -33.234  18.938   0.476  1.00 20.00    -0.000 C 
ENDROOT
BRANCH   5   7
HETATM    7  C8  UNL     1     -33.312  19.190  -2.706  1.00 20.00     0.000 C 
HETATM    8  C7  UNL     1     -33.233  18.913  -4.171  1.00 20.00     0.005 C 
ENDBRANCH   5   7
BRANCH   6   9
HETATM    9  C9  UNL     1     -32.507  19.214   1.792  1.00 20.00     0.119 C 
HETATM   10 CL10 UNL     1     -30.794  18.793   1.639  1.00 20.00    -0.130 Cl
ENDBRANCH   6   9
TORSDOF 2
ENDMDL
MODEL 8
REMARK VINA RESULT:      -4.1      1.217      2.721
REMARK  2 active torsions:
REMARK  status: ('A' for Active; 'I' for Inactive)
REMARK    1  A    between atoms: C5_5  and  C8_8 
REMARK    2  A    between atoms: C6_6  and  C9_9 
ROOT
HETATM    1  C1  UNL     1     -34.032   7.276   6.036  1.00 20.00     0.001 C 
HETATM    2  C2  UNL     1     -34.179   5.786   5.735  1.00 20.00     0.005 C 
HETATM    3  C3  UNL     1     -32.812   7.874   5.340  1.00 20.00     0.005 C 
HETATM    4  C4  UNL     1     -32.978   6.113   3.533  1.00 20.00     0.010 C 
HETATM    5  C5  UNL     1     -34.188   5.475   4.231  1.00 20.00    -0.014 C 
HETATM    6  C6  UNL     1     -32.831   7.613   3.829  1.00 20.00    -0.000 C 
ENDROOT
BRANCH   5   7
HETATM    7  C8  UNL     1     -35.507   5.891   3.575  1.00 20.00     0.000 C 
HETATM    8  C7  UNL     1     -35.306   6.326   2.161  1.00 20.00     0.005 C 
ENDBRANCH   5   7
BRANCH   6   9
HETATM    9  C9  UNL     1     -31.565   8.168   3.174  1.00 20.00     0.119 C 
HETATM   10 CL10 UNL     1     -31.904   8.633   1.499  1.00 20.00    -0.130 Cl
ENDBRANCH   6   9
TORSDOF 2
ENDMDL
MODEL 9
REMARK VINA RESULT:      -4.0     12.270     13.167
REMARK  2 active torsions:
REMARK  status: ('A' for Active; 'I' for Inactive)
REMARK    1  A    between atoms: C5_5  and  C8_8 
REMARK    2  A    between atoms: C6_6  and  C9_9 
ROOT
HETATM    1  C1  UNL     1     -32.974  15.103  -4.559  1.00 20.00     0.001 C 
HETATM    2  C2  UNL     1     -33.390  15.585  -5.947  1.00 20.00     0.005 C 
HETATM    3  C3  UNL     1     -33.686  15.881  -3.455  1.00 20.00     0.005 C 
HETATM    4  C4  UNL     1     -35.621  16.331  -5.018  1.00 20.00     0.010 C 
HETATM    5  C5  UNL     1     -34.911  15.579  -6.155  1.00 20.00    -0.014 C 
HETATM    6  C6  UNL     1     -35.211  15.844  -3.621  1.00 20.00    -0.000 C 
ENDROOT
BRANCH   5   7
HETATM    7  C8  UNL     1     -35.455  14.157  -6.321  1.00 20.00     0.000 C 
HETATM    8  C7  UNL     1     -34.680  13.386  -7.337  1.00 20.00     0.005 C 
ENDBRANCH   5   7
BRANCH   6   9
HETATM    9  C9  UNL     1     -35.888  16.685  -2.538  1.00 20.00     0.119 C 
HETATM   10 CL10 UNL     1     -34.742  17.029  -1.233  1.00 20.00    -0.130 Cl
ENDBRANCH   6   9
TORSDOF 2
ENDMDL
