MODEL 1
REMARK VINA RESULT:      -4.7      0.000      0.000
REMARK  2 active torsions:
REMARK  status: ('A' for Active; 'I' for Inactive)
REMARK    1  A    between atoms: C4_4  and  C8_8 
REMARK    2  A    between atoms: C5_5  and  C9_9 
ROOT
HETATM    1  C1  UNL     1     -31.756   8.838   2.794  1.00 20.00     0.032 C 
HETATM    2  C2  UNL     1     -33.700   7.481   1.997  1.00 20.00     0.043 C 
HETATM    3  C3  UNL     1     -31.613   7.852   3.946  1.00 20.00     0.169 C 
HETATM    4  C4  UNL     1     -32.392   8.164   1.578  1.00 20.00     0.004 C 
HETATM    5  C5  UNL     1     -33.520   6.559   3.217  1.00 20.00     0.057 C 
HETATM    6  C6  UNL     1     -32.759   5.272   2.866  1.00 20.00     0.046 C 
HETATM    7  O10 UNL     1     -32.866   7.262   4.284  1.00 20.00    -0.381 OA
ENDROOT
BRANCH   5   8
HETATM    8  C9  UNL     1     -34.901   6.166   3.760  1.00 20.00     0.033 C 
HETATM    9  C7  UNL     1     -34.787   5.372   5.016  1.00 20.00     0.008 C 
ENDBRANCH   5   8
BRANCH   4  10
HETATM   10  C8  UNL     1     -32.636   9.173   0.457  1.00 20.00     0.119 C 
HETATM   11 CL11 UNL     1     -32.645  10.820   1.113  1.00 20.00    -0.130 Cl
ENDBRANCH   4  10
TORSDOF 2
ENDMDL
MODEL 2
REMARK VINA RESULT:      -4.4      1.414      2.422
REMARK  2 active torsions:
REMARK  status: ('A' for Active; 'I' for Inactive)
REMARK    1  A    between atoms: C4_4  and  C8_8 
REMARK    2  A    between atoms: C5_5  and  C9_9 
ROOT
HETATM    1  C1  UNL     1     -32.286   5.918   2.217  1.00 20.00     0.032 C 
HETATM    2  C2  UNL     1     -33.479   7.303   3.924  1.00 20.00     0.043 C 
HETATM    3  C3  UNL     1     -33.193   4.759   2.606  1.00 20.00     0.169 C 
HETATM    4  C4  UNL     1     -32.976   7.258   2.476  1.00 20.00     0.004 C 
HETATM    5  C5  UNL     1     -34.322   6.068   4.295  1.00 20.00     0.057 C 
HETATM    6  C6  UNL     1     -35.707   6.088   3.631  1.00 20.00     0.046 C 
HETATM    7  O10 UNL     1     -33.616   4.862   3.964  1.00 20.00    -0.381 OA
ENDROOT
BRANCH   5   8
HETATM    8  C9  UNL     1     -34.520   6.032   5.817  1.00 20.00     0.033 C 
HETATM    9  C7  UNL     1     -33.921   7.228   6.472  1.00 20.00     0.008 C 
ENDBRANCH   5   8
BRANCH   4  10
HETATM   10  C8  UNL     1     -32.033   8.424   2.188  1.00 20.00     0.119 C 
HETATM   11 CL11 UNL     1     -32.507   9.232   0.682  1.00 20.00    -0.130 Cl
ENDBRANCH   4  10
TORSDOF 2
ENDMDL
MODEL 3
REMARK VINA RESULT:      -4.2     10.273     11.557
REMARK  2 active torsions:
REMARK  status: ('A' for Active; 'I' for Inactive)
REMARK    1  A    between atoms: C4_4  and  C8_8 
REMARK    2  A    between atoms: C5_5  and  C9_9 
ROOT
HETATM    1  C1  UNL     1     -36.063  17.092  -2.590  1.00 20.00     0.032 C 
HETATM    2  C2  UNL     1     -33.686  16.540  -3.138  1.00 20.00     0.043 C 
HETATM    3  C3  UNL     1     -36.476  16.252  -3.791  1.00 20.00     0.169 C 
HETATM    4  C4  UNL     1     -34.731  16.604  -2.018  1.00 20.00     0.004 C 
HETATM    5  C5  UNL     1     -34.182  15.750  -4.364  1.00 20.00     0.057 C 
HETATM    6  C6  UNL     1     -34.241  14.238  -4.097  1.00 20.00     0.046 C 
HETATM    7  O10 UNL     1     -35.461  16.241  -4.793  1.00 20.00    -0.381 OA
ENDROOT
BRANCH   5   8
HETATM    8  C9  UNL     1     -33.225  15.991  -5.540  1.00 20.00     0.033 C 
HETATM    9  C7  UNL     1     -33.734  15.364  -6.793  1.00 20.00     0.008 C 
ENDBRANCH   5   8
BRANCH   4  10
HETATM   10  C8  UNL     1     -34.260  17.508  -0.881  1.00 20.00     0.119 C 
HETATM   11 CL11 UNL     1     -32.611  18.076  -1.198  1.00 20.00    -0.130 Cl
ENDBRANCH   4  10
TORSDOF 2
ENDMDL
MODEL 4
REMARK VINA RESULT:      -4.0      2.644      4.333
REMARK  2 active torsions:
REMARK  status: ('A' for Active; 'I' for Inactive)
REMARK    1  A    between atoms: C4_4  and  C8_8 
REMARK    2  A    between atoms: C5_5  and  C9_9 
ROOT
HETATM    1  C1  UNL     1     -33.288   7.097   5.143  1.00 20.00     0.032 C 
HETATM    2  C2  UNL     1     -33.377   6.947   2.647  1.00 20.00     0.043 C 
HETATM    3  C3  UNL     1     -32.453   8.359   4.980  1.00 20.00     0.169 C 
HETATM    4  C4  UNL     1     -34.207   6.894   3.936  1.00 20.00     0.004 C 
HETATM    5  C5  UNL     1     -32.486   8.202   2.569  1.00 20.00     0.057 C 
HETATM    6  C6  UNL     1     -33.300   9.477   2.302  1.00 20.00     0.046 C 
HETATM    7  O10 UNL     1     -31.706   8.337   3.766  1.00 20.00    -0.381 OA
ENDROOT
BRANCH   5   8
HETATM    8  C9  UNL     1     -31.475   8.031   1.427  1.00 20.00     0.033 C 
HETATM    9  C7  UNL     1     -31.672   9.060   0.367  1.00 20.00     0.008 C 
ENDBRANCH   5   8
BRANCH   4  10
HETATM   10  C8  UNL     1     -34.969   5.575   4.043  1.00 20.00     0.119 C 
HETATM   11 CL11 UNL     1     -34.583   4.773   5.576  1.00 20.00    -0.130 Cl
ENDBRANCH   4  10
TORSDOF 2
ENDMDL
MODEL 5
REMARK VINA RESULT:      -4.0     10.824     11.402
REMARK  2 active torsions:
REMARK  status: ('A' for Active; 'I' for Inactive)
REMARK    1  A    between atoms: C4_4  and  C8_8 
REMARK    2  A    between atoms: C5_5  and  C9_9 
ROOT
HETATM    1  C1  UNL     1     -33.536  16.099  -3.556  1.00 20.00     0.032 C 
HETATM    2  C2  UNL     1     -35.796  15.201  -4.142  1.00 20.00     0.043 C 
HETATM    3  C3  UNL     1     -33.101  15.774  -4.978  1.00 20.00     0.169 C 
HETATM    4  C4  UNL     1     -35.041  16.369  -3.496  1.00 20.00     0.004 C 
HETATM    5  C5  UNL     1     -35.263  14.856  -5.546  1.00 20.00     0.057 C 
HETATM    6  C6  UNL     1     -35.654  15.912  -6.591  1.00 20.00     0.046 C 
HETATM    7  O10 UNL     1     -33.839  14.677  -5.511  1.00 20.00    -0.381 OA
ENDROOT
BRANCH   5   8
HETATM    8  C9  UNL     1     -35.845  13.506  -5.988  1.00 20.00     0.033 C 
HETATM    9  C7  UNL     1     -35.172  13.001  -7.217  1.00 20.00     0.008 C 
ENDBRANCH   5   8
BRANCH   4  10
HETATM   10  C8  UNL     1     -35.501  16.591  -2.057  1.00 20.00     0.119 C 
HETATM   11 CL11 UNL     1     -34.171  17.251  -1.088  1.00 20.00    -0.130 Cl
ENDBRANCH   4  10
TORSDOF 2
ENDMDL
MODEL 6
REMARK VINA RESULT:      -4.0     10.653     11.372
REMARK  2 active torsions:
REMARK  status: ('A' for Active; 'I' for Inactive)
REMARK    1  A    between atoms: C4_4  and  C8_8 
REMARK    2  A    between atoms: C5_5  and  C9_9 
ROOT
HETATM    1  C1  UNL     1     -33.586  18.142  -0.399  1.00 20.00     0.032 C 
HETATM    2  C2  UNL     1     -35.378  16.756  -1.460  1.00 20.00     0.043 C 
HETATM    3  C3  UNL     1     -32.973  18.305  -1.783  1.00 20.00     0.169 C 
HETATM    4  C4  UNL     1     -35.096  17.916  -0.498  1.00 20.00     0.004 C 
HETATM    5  C5  UNL     1     -34.668  16.927  -2.816  1.00 20.00     0.057 C 
HETATM    6  C6  UNL     1     -35.313  18.024  -3.676  1.00 20.00     0.046 C 
HETATM    7  O10 UNL     1     -33.270  17.190  -2.619  1.00 20.00    -0.381 OA
ENDROOT
BRANCH   5   8
HETATM    8  C9  UNL     1     -34.740  15.605  -3.593  1.00 20.00     0.033 C 
HETATM    9  C7  UNL     1     -33.418  15.244  -4.177  1.00 20.00     0.008 C 
ENDBRANCH   5   8
BRANCH   4  10
HETATM   10  C8  UNL     1     -35.700  17.646   0.879  1.00 20.00     0.119 C 
HETATM   11 CL11 UNL     1     -34.586  18.183   2.148  1.00 20.00    -0.130 Cl
ENDBRANCH   4  10
TORSDOF 2
ENDMDL
MODEL 7
REMARK VINA RESULT:      -4.0     10.770     11.477
REMARK  2 active torsions:
REMARK  status: ('A' for Active; 'I' for Inactive)
REMARK    1  A    between atoms: C4_4  and  C8_8 
REMARK    2  A    between atoms: C5_5  and  C9_9 
ROOT
HETATM    1  C1  UNL     1     -33.657  16.946  -5.193  1.00 20.00     0.032 C 
HETATM    2  C2  UNL     1     -34.543  15.931  -3.086  1.00 20.00     0.043 C 
HETATM    3  C3  UNL     1     -33.623  18.284  -4.467  1.00 20.00     0.169 C 
HETATM    4  C4  UNL     1     -33.505  15.788  -4.206  1.00 20.00     0.004 C 
HETATM    5  C5  UNL     1     -34.526  17.329  -2.439  1.00 20.00     0.057 C 
HETATM    6  C6  UNL     1     -33.288  17.545  -1.555  1.00 20.00     0.046 C 
HETATM    7  O10 UNL     1     -34.616  18.348  -3.446  1.00 20.00    -0.381 OA
ENDROOT
BRANCH   5   8
HETATM    8  C9  UNL     1     -35.775  17.494  -1.563  1.00 20.00     0.033 C 
HETATM    9  C7  UNL     1     -35.433  17.449  -0.113  1.00 20.00     0.008 C 
ENDBRANCH   5   8
BRANCH   4  10
HETATM   10  C8  UNL     1     -33.645  14.442  -4.914  1.00 20.00     0.119 C 
HETATM   11 CL11 UNL     1     -35.263  13.774  -4.637  1.00 20.00    -0.130 Cl
ENDBRANCH   4  10
TORSDOF 2
ENDMDL
MODEL 8
REMARK VINA RESULT:      -3.9     10.579     11.711
REMARK  2 active torsions:
REMARK  status: ('A' for Active; 'I' for Inactive)
REMARK    1  A    between atoms: C4_4  and  C8_8 
REMARK    2  A    between atoms: C5_5  and  C9_9 
ROOT
HETATM    1  C1  UNL     1     -35.124  15.814  -6.933  1.00 20.00     0.032 C 
HETATM    2  C2  UNL     1     -35.347  15.219  -4.513  1.00 20.00     0.043 C 
HETATM    3  C3  UNL     1     -33.673  16.177  -6.652  1.00 20.00     0.169 C 
HETATM    4  C4  UNL     1     -35.620  14.753  -5.949  1.00 20.00     0.004 C 
HETATM    5  C5  UNL     1     -33.884  15.654  -4.301  1.00 20.00     0.057 C 
HETATM    6  C6  UNL     1     -32.919  14.459  -4.281  1.00 20.00     0.046 C 
HETATM    7  O10 UNL     1     -33.495  16.606  -5.304  1.00 20.00    -0.381 OA
ENDROOT
BRANCH   5   8
HETATM    8  C9  UNL     1     -33.767  16.389  -2.959  1.00 20.00     0.033 C 
HETATM    9  C7  UNL     1     -35.094  16.525  -2.296  1.00 20.00     0.008 C 
ENDBRANCH   5   8
BRANCH   4  10
HETATM   10  C8  UNL     1     -37.104  14.463  -6.157  1.00 20.00     0.119 C 
HETATM   11 CL11 UNL     1     -37.999  14.760  -4.656  1.00 20.00    -0.130 Cl
ENDBRANCH   4  10
TORSDOF 2
ENDMDL
MODEL 9
REMARK VINA RESULT:      -3.9     10.741     11.559
REMARK  2 active torsions:
REMARK  status: ('A' for Active; 'I' for Inactive)
REMARK    1  A    between atoms: C4_4  and  C8_8 
REMARK    2  A    between atoms: C5_5  and  C9_9 
ROOT
HETATM    1  C1  UNL     1     -37.370  15.137  -4.508  1.00 20.00     0.032 C 
HETATM    2  C2  UNL     1     -34.941  15.177  -3.910  1.00 20.00     0.043 C 
HETATM    3  C3  UNL     1     -37.457  16.574  -4.013  1.00 20.00     0.169 C 
HETATM    4  C4  UNL     1     -35.957  14.817  -5.000  1.00 20.00     0.004 C 
HETATM    5  C5  UNL     1     -35.124  16.614  -3.383  1.00 20.00     0.057 C 
HETATM    6  C6  UNL     1     -34.666  17.668  -4.402  1.00 20.00     0.046 C 
HETATM    7  O10 UNL     1     -36.489  16.836  -3.000  1.00 20.00    -0.381 OA
ENDROOT
BRANCH   5   8
HETATM    8  C9  UNL     1     -34.295  16.790  -2.104  1.00 20.00     0.033 C 
HETATM    9  C7  UNL     1     -35.158  17.136  -0.940  1.00 20.00     0.008 C 
ENDBRANCH   5   8
BRANCH   4  10
HETATM   10  C8  UNL     1     -35.837  13.347  -5.397  1.00 20.00     0.119 C 
HETATM   11 CL11 UNL     1     -35.051  13.207  -6.980  1.00 20.00    -0.130 Cl
ENDBRANCH   4  10
TORSDOF 2
ENDMDL
