MODEL 1
REMARK VINA RESULT:      -6.2      0.000      0.000
REMARK  1 active torsions:
REMARK  status: ('A' for Active; 'I' for Inactive)
REMARK    1  A    between atoms: C6_6  and  C10_10 
ROOT
HETATM    1  C1  UNL     1     -33.289   7.838   5.142  1.00 20.00     0.001 C 
HETATM    2  C2  UNL     1     -32.204   8.027   4.082  1.00 20.00     0.005 C 
HETATM    3  C3  UNL     1     -32.936   6.476   2.143  1.00 20.00     0.006 C 
HETATM    4  C4  UNL     1     -33.675   6.391   5.428  1.00 20.00     0.008 C 
HETATM    5  C5  UNL     1     -33.169   5.353   3.154  1.00 20.00     0.009 C 
HETATM    6  C6  UNL     1     -32.745   7.913   2.653  1.00 20.00    -0.001 C 
HETATM    7  C7  UNL     1     -34.233   5.551   4.256  1.00 20.00    -0.048 C 
HETATM    8  C8  UNL     1     -34.564   4.150   4.832  1.00 20.00     0.015 C 
HETATM    9  C9  UNL     1     -35.542   6.138   3.707  1.00 20.00     0.015 C 
ENDROOT
BRANCH   6  10
HETATM   10  C10 UNL     1     -31.832   8.675   1.682  1.00 20.00     0.119 C 
HETATM   11 CL11 UNL     1     -32.665  10.117   1.082  1.00 20.00    -0.130 Cl
ENDBRANCH   6  10
TORSDOF 1
ENDMDL
MODEL 2
REMARK VINA RESULT:      -4.4     11.200     12.174
REMARK  1 active torsions:
REMARK  status: ('A' for Active; 'I' for Inactive)
REMARK    1  A    between atoms: C6_6  and  C10_10 
ROOT
HETATM    1  C1  UNL     1     -33.247  14.818  -4.504  1.00 20.00     0.001 C 
HETATM    2  C2  UNL     1     -33.624  16.044  -3.673  1.00 20.00     0.005 C 
HETATM    3  C3  UNL     1     -36.203  16.169  -3.861  1.00 20.00     0.006 C 
HETATM    4  C4  UNL     1     -33.917  14.726  -5.871  1.00 20.00     0.008 C 
HETATM    5  C5  UNL     1     -36.083  15.977  -5.373  1.00 20.00     0.009 C 
HETATM    6  C6  UNL     1     -34.979  15.893  -2.974  1.00 20.00    -0.001 C 
HETATM    7  C7  UNL     1     -35.462  14.670  -5.912  1.00 20.00    -0.048 C 
HETATM    8  C8  UNL     1     -35.862  14.551  -7.406  1.00 20.00     0.015 C 
HETATM    9  C9  UNL     1     -36.006  13.424  -5.195  1.00 20.00     0.015 C 
ENDROOT
BRANCH   6  10
HETATM   10  C10 UNL     1     -35.037  16.802  -1.738  1.00 20.00     0.119 C 
HETATM   11 CL11 UNL     1     -33.440  17.501  -1.431  1.00 20.00    -0.130 Cl
ENDBRANCH   6  10
TORSDOF 1
ENDMDL
MODEL 3
REMARK VINA RESULT:      -4.4     10.980     11.861
REMARK  1 active torsions:
REMARK  status: ('A' for Active; 'I' for Inactive)
REMARK    1  A    between atoms: C6_6  and  C10_10 
ROOT
HETATM    1  C1  UNL     1     -36.686  16.501  -3.499  1.00 20.00     0.001 C 
HETATM    2  C2  UNL     1     -35.606  16.541  -2.418  1.00 20.00     0.005 C 
HETATM    3  C3  UNL     1     -33.512  15.553  -3.577  1.00 20.00     0.006 C 
HETATM    4  C4  UNL     1     -36.788  15.188  -4.268  1.00 20.00     0.008 C 
HETATM    5  C5  UNL     1     -34.369  14.400  -4.099  1.00 20.00     0.009 C 
HETATM    6  C6  UNL     1     -34.206  16.792  -2.988  1.00 20.00    -0.001 C 
HETATM    7  C7  UNL     1     -35.542  14.715  -5.053  1.00 20.00    -0.048 C 
HETATM    8  C8  UNL     1     -35.936  13.389  -5.753  1.00 20.00     0.015 C 
HETATM    9  C9  UNL     1     -35.150  15.712  -6.154  1.00 20.00     0.015 C 
ENDROOT
BRANCH   6  10
HETATM   10  C10 UNL     1     -33.303  17.411  -1.911  1.00 20.00     0.119 C 
HETATM   11 CL11 UNL     1     -34.242  17.718  -0.443  1.00 20.00    -0.130 Cl
ENDBRANCH   6  10
TORSDOF 1
ENDMDL
MODEL 4
REMARK VINA RESULT:      -4.3     10.803     12.223
REMARK  1 active torsions:
REMARK  status: ('A' for Active; 'I' for Inactive)
REMARK    1  A    between atoms: C6_6  and  C10_10 
ROOT
HETATM    1  C1  UNL     1     -33.513  16.820  -5.202  1.00 20.00     0.001 C 
HETATM    2  C2  UNL     1     -33.565  17.776  -4.012  1.00 20.00     0.005 C 
HETATM    3  C3  UNL     1     -34.885  16.470  -2.207  1.00 20.00     0.006 C 
HETATM    4  C4  UNL     1     -34.836  16.152  -5.560  1.00 20.00     0.008 C 
HETATM    5  C5  UNL     1     -35.936  16.117  -3.260  1.00 20.00     0.009 C 
HETATM    6  C6  UNL     1     -33.536  17.048  -2.664  1.00 20.00    -0.001 C 
HETATM    7  C7  UNL     1     -35.512  15.273  -4.483  1.00 20.00    -0.048 C 
HETATM    8  C8  UNL     1     -36.807  14.706  -5.121  1.00 20.00     0.015 C 
HETATM    9  C9  UNL     1     -34.634  14.075  -4.092  1.00 20.00     0.015 C 
ENDROOT
BRANCH   6  10
HETATM   10  C10 UNL     1     -32.992  17.981  -1.573  1.00 20.00     0.119 C 
HETATM   11 CL11 UNL     1     -34.072  17.958  -0.171  1.00 20.00    -0.130 Cl
ENDBRANCH   6  10
TORSDOF 1
ENDMDL
MODEL 5
REMARK VINA RESULT:      -4.3      2.482      4.509
REMARK  1 active torsions:
REMARK  status: ('A' for Active; 'I' for Inactive)
REMARK    1  A    between atoms: C6_6  and  C10_10 
ROOT
HETATM    1  C1  UNL     1     -34.070   6.429   2.149  1.00 20.00     0.001 C 
HETATM    2  C2  UNL     1     -33.740   6.048   3.592  1.00 20.00     0.005 C 
HETATM    3  C3  UNL     1     -32.482   8.111   4.521  1.00 20.00     0.006 C 
HETATM    4  C4  UNL     1     -32.918   7.039   1.358  1.00 20.00     0.008 C 
HETATM    5  C5  UNL     1     -31.615   8.125   3.262  1.00 20.00     0.009 C 
HETATM    6  C6  UNL     1     -33.755   7.250   4.541  1.00 20.00    -0.001 C 
HETATM    7  C7  UNL     1     -32.293   8.349   1.892  1.00 20.00    -0.048 C 
HETATM    8  C8  UNL     1     -31.181   8.752   0.889  1.00 20.00     0.015 C 
HETATM    9  C9  UNL     1     -33.314   9.496   1.924  1.00 20.00     0.015 C 
ENDROOT
BRANCH   6  10
HETATM   10  C10 UNL     1     -34.025   6.784   5.979  1.00 20.00     0.119 C 
HETATM   11 CL11 UNL     1     -34.616   5.115   5.967  1.00 20.00    -0.130 Cl
ENDBRANCH   6  10
TORSDOF 1
ENDMDL
MODEL 6
REMARK VINA RESULT:      -4.2     11.077     12.427
REMARK  1 active torsions:
REMARK  status: ('A' for Active; 'I' for Inactive)
REMARK    1  A    between atoms: C6_6  and  C10_10 
ROOT
HETATM    1  C1  UNL     1     -36.264  17.328  -4.638  1.00 20.00     0.001 C 
HETATM    2  C2  UNL     1     -35.949  16.084  -5.467  1.00 20.00     0.005 C 
HETATM    3  C3  UNL     1     -34.482  14.635  -3.900  1.00 20.00     0.006 C 
HETATM    4  C4  UNL     1     -35.073  17.951  -3.918  1.00 20.00     0.008 C 
HETATM    5  C5  UNL     1     -33.639  15.869  -3.580  1.00 20.00     0.009 C 
HETATM    6  C6  UNL     1     -35.831  14.817  -4.613  1.00 20.00    -0.001 C 
HETATM    7  C7  UNL     1     -34.315  17.076  -2.893  1.00 20.00    -0.048 C 
HETATM    8  C8  UNL     1     -33.187  17.961  -2.302  1.00 20.00     0.015 C 
HETATM    9  C9  UNL     1     -35.220  16.654  -1.725  1.00 20.00     0.015 C 
ENDROOT
BRANCH   6  10
HETATM   10  C10 UNL     1     -36.120  13.576  -5.470  1.00 20.00     0.119 C 
HETATM   11 CL11 UNL     1     -34.944  13.470  -6.788  1.00 20.00    -0.130 Cl
ENDBRANCH   6  10
TORSDOF 1
ENDMDL
MODEL 7
REMARK VINA RESULT:      -4.2     11.231     12.496
REMARK  1 active torsions:
REMARK  status: ('A' for Active; 'I' for Inactive)
REMARK    1  A    between atoms: C6_6  and  C10_10 
ROOT
HETATM    1  C1  UNL     1     -36.015  18.349  -3.848  1.00 20.00     0.001 C 
HETATM    2  C2  UNL     1     -35.961  17.236  -4.894  1.00 20.00     0.005 C 
HETATM    3  C3  UNL     1     -34.863  15.249  -3.649  1.00 20.00     0.006 C 
HETATM    4  C4  UNL     1     -34.728  18.562  -3.057  1.00 20.00     0.008 C 
HETATM    5  C5  UNL     1     -33.780  16.196  -3.133  1.00 20.00     0.009 C 
HETATM    6  C6  UNL     1     -36.131  15.841  -4.284  1.00 20.00    -0.001 C 
HETATM    7  C7  UNL     1     -34.191  17.376  -2.224  1.00 20.00    -0.048 C 
HETATM    8  C8  UNL     1     -32.908  17.877  -1.512  1.00 20.00     0.015 C 
HETATM    9  C9  UNL     1     -35.183  16.952  -1.130  1.00 20.00     0.015 C 
ENDROOT
BRANCH   6  10
HETATM   10  C10 UNL     1     -36.666  14.865  -5.343  1.00 20.00     0.119 C 
HETATM   11 CL11 UNL     1     -35.914  13.277  -5.131  1.00 20.00    -0.130 Cl
ENDBRANCH   6  10
TORSDOF 1
ENDMDL
MODEL 8
REMARK VINA RESULT:      -4.1     11.341     12.340
REMARK  1 active torsions:
REMARK  status: ('A' for Active; 'I' for Inactive)
REMARK    1  A    between atoms: C6_6  and  C10_10 
ROOT
HETATM    1  C1  UNL     1     -33.999  14.497  -4.938  1.00 20.00     0.001 C 
HETATM    2  C2  UNL     1     -35.422  13.970  -4.755  1.00 20.00     0.005 C 
HETATM    3  C3  UNL     1     -36.730  15.994  -3.808  1.00 20.00     0.006 C 
HETATM    4  C4  UNL     1     -33.438  15.281  -3.757  1.00 20.00     0.008 C 
HETATM    5  C5  UNL     1     -35.605  16.224  -2.798  1.00 20.00     0.009 C 
HETATM    6  C6  UNL     1     -36.488  15.046  -4.993  1.00 20.00    -0.001 C 
HETATM    7  C7  UNL     1     -34.191  16.560  -3.320  1.00 20.00    -0.048 C 
HETATM    8  C8  UNL     1     -33.393  17.161  -2.135  1.00 20.00     0.015 C 
HETATM    9  C9  UNL     1     -34.214  17.616  -4.436  1.00 20.00     0.015 C 
ENDROOT
BRANCH   6  10
HETATM   10  C10 UNL     1     -37.817  14.391  -5.393  1.00 20.00     0.119 C 
HETATM   11 CL11 UNL     1     -39.166  15.279  -4.670  1.00 20.00    -0.130 Cl
ENDBRANCH   6  10
TORSDOF 1
ENDMDL
MODEL 9
REMARK VINA RESULT:      -4.0     11.396     12.534
REMARK  1 active torsions:
REMARK  status: ('A' for Active; 'I' for Inactive)
REMARK    1  A    between atoms: C6_6  and  C10_10 
ROOT
HETATM    1  C1  UNL     1     -35.731  15.092  -3.832  1.00 20.00     0.001 C 
HETATM    2  C2  UNL     1     -34.573  15.902  -3.251  1.00 20.00     0.005 C 
HETATM    3  C3  UNL     1     -33.334  16.818  -5.332  1.00 20.00     0.006 C 
HETATM    4  C4  UNL     1     -35.360  14.152  -4.973  1.00 20.00     0.008 C 
HETATM    5  C5  UNL     1     -33.373  15.419  -5.947  1.00 20.00     0.009 C 
HETATM    6  C6  UNL     1     -34.212  17.120  -4.108  1.00 20.00    -0.001 C 
HETATM    7  C7  UNL     1     -34.745  14.775  -6.248  1.00 20.00    -0.048 C 
HETATM    8  C8  UNL     1     -34.498  13.607  -7.238  1.00 20.00     0.015 C 
HETATM    9  C9  UNL     1     -35.714  15.752  -6.929  1.00 20.00     0.015 C 
ENDROOT
BRANCH   6  10
HETATM   10  C10 UNL     1     -33.523  18.186  -3.244  1.00 20.00     0.119 C 
HETATM   11 CL11 UNL     1     -33.162  17.521  -1.644  1.00 20.00    -0.130 Cl
ENDBRANCH   6  10
TORSDOF 1
ENDMDL
