MODEL 1
REMARK VINA RESULT:      -5.1      0.000      0.000
REMARK  1 active torsions:
REMARK  status: ('A' for Active; 'I' for Inactive)
REMARK    1  A    between atoms: C1_1  and  C7_7 
ROOT
HETATM    1  C2  UNL     1     -33.096   5.163   2.417  1.00 20.00     0.001 C 
HETATM    2  C3  UNL     1     -32.819   6.624   2.075  1.00 20.00     0.011 C 
HETATM    3  C4  UNL     1     -33.347   7.966   4.166  1.00 20.00     0.012 C 
HETATM    4  C5  UNL     1     -33.358   4.787   3.876  1.00 20.00     0.008 C 
HETATM    5  C6  UNL     1     -33.794   6.932   5.197  1.00 20.00     0.009 C 
HETATM    6  C7  UNL     1     -32.259   7.482   3.207  1.00 20.00     0.047 C 
HETATM    7  C8  UNL     1     -34.399   5.608   4.673  1.00 20.00    -0.048 C 
HETATM    8  C9  UNL     1     -34.785   4.771   5.919  1.00 20.00     0.015 C 
HETATM    9  C10 UNL     1     -35.688   5.852   3.870  1.00 20.00     0.015 C 
ENDROOT
BRANCH   6  10
HETATM   10  C1  UNL     1     -31.605   8.687   2.592  1.00 20.00     0.235 C 
HETATM   11  O11 UNL     1     -32.077   9.299   1.640  1.00 20.00    -0.306 OA
ENDBRANCH   6  10
TORSDOF 1
ENDMDL
MODEL 2
REMARK VINA RESULT:      -4.5     11.696     12.499
REMARK  1 active torsions:
REMARK  status: ('A' for Active; 'I' for Inactive)
REMARK    1  A    between atoms: C1_1  and  C7_7 
ROOT
HETATM    1  C2  UNL     1     -36.657  16.691  -3.169  1.00 20.00     0.001 C 
HETATM    2  C3  UNL     1     -36.487  15.861  -4.438  1.00 20.00     0.011 C 
HETATM    3  C4  UNL     1     -34.018  15.288  -4.598  1.00 20.00     0.012 C 
HETATM    4  C5  UNL     1     -35.484  16.791  -2.194  1.00 20.00     0.008 C 
HETATM    5  C6  UNL     1     -33.382  15.933  -3.368  1.00 20.00     0.009 C 
HETATM    6  C7  UNL     1     -35.435  14.757  -4.379  1.00 20.00     0.047 C 
HETATM    7  C8  UNL     1     -34.091  17.163  -2.752  1.00 20.00    -0.048 C 
HETATM    8  C9  UNL     1     -33.223  17.621  -1.552  1.00 20.00     0.015 C 
HETATM    9  C10 UNL     1     -34.154  18.336  -3.745  1.00 20.00     0.015 C 
ENDROOT
BRANCH   6  10
HETATM   10  C1  UNL     1     -35.740  13.770  -5.470  1.00 20.00     0.235 C 
HETATM   11  O11 UNL     1     -35.876  12.567  -5.274  1.00 20.00    -0.306 OA
ENDBRANCH   6  10
TORSDOF 1
ENDMDL
MODEL 3
REMARK VINA RESULT:      -4.5     11.322     12.571
REMARK  1 active torsions:
REMARK  status: ('A' for Active; 'I' for Inactive)
REMARK    1  A    between atoms: C1_1  and  C7_7 
ROOT
HETATM    1  C2  UNL     1     -33.258  15.551  -3.989  1.00 20.00     0.001 C 
HETATM    2  C3  UNL     1     -34.362  14.504  -4.115  1.00 20.00     0.011 C 
HETATM    3  C4  UNL     1     -36.563  15.743  -3.840  1.00 20.00     0.012 C 
HETATM    4  C5  UNL     1     -33.645  17.030  -3.985  1.00 20.00     0.008 C 
HETATM    5  C6  UNL     1     -36.170  17.204  -3.628  1.00 20.00     0.009 C 
HETATM    6  C7  UNL     1     -35.649  14.969  -4.791  1.00 20.00     0.047 C 
HETATM    7  C8  UNL     1     -34.772  17.495  -3.033  1.00 20.00    -0.048 C 
HETATM    8  C9  UNL     1     -34.656  19.035  -2.903  1.00 20.00     0.015 C 
HETATM    9  C10 UNL     1     -34.623  16.904  -1.621  1.00 20.00     0.015 C 
ENDROOT
BRANCH   6  10
HETATM   10  C1  UNL     1     -36.388  13.749  -5.262  1.00 20.00     0.235 C 
HETATM   11  O11 UNL     1     -35.891  12.627  -5.292  1.00 20.00    -0.306 OA
ENDBRANCH   6  10
TORSDOF 1
ENDMDL
MODEL 4
REMARK VINA RESULT:      -4.5      2.281      4.481
REMARK  1 active torsions:
REMARK  status: ('A' for Active; 'I' for Inactive)
REMARK    1  A    between atoms: C1_1  and  C7_7 
ROOT
HETATM    1  C2  UNL     1     -32.410   8.254   4.759  1.00 20.00     0.001 C 
HETATM    2  C3  UNL     1     -33.629   7.352   4.923  1.00 20.00     0.011 C 
HETATM    3  C4  UNL     1     -34.058   6.300   2.651  1.00 20.00     0.012 C 
HETATM    4  C5  UNL     1     -31.599   8.165   3.466  1.00 20.00     0.008 C 
HETATM    5  C6  UNL     1     -32.966   6.862   1.743  1.00 20.00     0.009 C 
HETATM    6  C7  UNL     1     -33.626   6.067   4.099  1.00 20.00     0.047 C 
HETATM    7  C8  UNL     1     -32.353   8.233   2.117  1.00 20.00    -0.048 C 
HETATM    8  C9  UNL     1     -31.307   8.565   1.023  1.00 20.00     0.015 C 
HETATM    9  C10 UNL     1     -33.409   9.351   2.094  1.00 20.00     0.015 C 
ENDROOT
BRANCH   6  10
HETATM   10  C1  UNL     1     -34.599   5.112   4.731  1.00 20.00     0.235 C 
HETATM   11  O11 UNL     1     -34.628   3.912   4.479  1.00 20.00    -0.306 OA
ENDBRANCH   6  10
TORSDOF 1
ENDMDL
MODEL 5
REMARK VINA RESULT:      -4.3     11.661     12.813
REMARK  1 active torsions:
REMARK  status: ('A' for Active; 'I' for Inactive)
REMARK    1  A    between atoms: C1_1  and  C7_7 
ROOT
HETATM    1  C2  UNL     1     -33.469  18.440  -3.998  1.00 20.00     0.001 C 
HETATM    2  C3  UNL     1     -33.097  18.981  -2.621  1.00 20.00     0.011 C 
HETATM    3  C4  UNL     1     -34.346  17.559  -0.927  1.00 20.00     0.012 C 
HETATM    4  C5  UNL     1     -34.233  17.118  -4.086  1.00 20.00     0.008 C 
HETATM    5  C6  UNL     1     -35.126  16.545  -1.761  1.00 20.00     0.009 C 
HETATM    6  C7  UNL     1     -32.984  17.947  -1.504  1.00 20.00     0.047 C 
HETATM    7  C8  UNL     1     -35.496  16.937  -3.211  1.00 20.00    -0.048 C 
HETATM    8  C9  UNL     1     -36.297  15.749  -3.802  1.00 20.00     0.015 C 
HETATM    9  C10 UNL     1     -36.413  18.170  -3.249  1.00 20.00     0.015 C 
ENDROOT
BRANCH   6  10
HETATM   10  C1  UNL     1     -32.161  18.548  -0.400  1.00 20.00     0.235 C 
HETATM   11  O11 UNL     1     -30.984  18.264  -0.204  1.00 20.00    -0.306 OA
ENDBRANCH   6  10
TORSDOF 1
ENDMDL
MODEL 6
REMARK VINA RESULT:      -4.3     11.899     12.653
REMARK  1 active torsions:
REMARK  status: ('A' for Active; 'I' for Inactive)
REMARK    1  A    between atoms: C1_1  and  C7_7 
ROOT
HETATM    1  C2  UNL     1     -36.642  15.931  -4.417  1.00 20.00     0.001 C 
HETATM    2  C3  UNL     1     -36.129  15.302  -5.709  1.00 20.00     0.011 C 
HETATM    3  C4  UNL     1     -33.620  15.019  -5.424  1.00 20.00     0.012 C 
HETATM    4  C5  UNL     1     -35.698  16.023  -3.218  1.00 20.00     0.008 C 
HETATM    5  C6  UNL     1     -33.318  15.557  -4.027  1.00 20.00     0.009 C 
HETATM    6  C7  UNL     1     -34.972  14.317  -5.558  1.00 20.00     0.047 C 
HETATM    7  C8  UNL     1     -34.284  16.612  -3.436  1.00 20.00    -0.048 C 
HETATM    8  C9  UNL     1     -33.726  16.994  -2.042  1.00 20.00     0.015 C 
HETATM    9  C10 UNL     1     -34.311  17.894  -4.285  1.00 20.00     0.015 C 
ENDROOT
BRANCH   6  10
HETATM   10  C1  UNL     1     -34.934  13.459  -6.791  1.00 20.00     0.235 C 
HETATM   11  O11 UNL     1     -35.097  12.243  -6.774  1.00 20.00    -0.306 OA
ENDBRANCH   6  10
TORSDOF 1
ENDMDL
MODEL 7
REMARK VINA RESULT:      -4.2     11.756     12.953
REMARK  1 active torsions:
REMARK  status: ('A' for Active; 'I' for Inactive)
REMARK    1  A    between atoms: C1_1  and  C7_7 
ROOT
HETATM    1  C2  UNL     1     -33.800  16.896  -6.089  1.00 20.00     0.001 C 
HETATM    2  C3  UNL     1     -33.658  15.418  -6.442  1.00 20.00     0.011 C 
HETATM    3  C4  UNL     1     -35.250  14.157  -4.916  1.00 20.00     0.012 C 
HETATM    4  C5  UNL     1     -34.942  17.324  -5.167  1.00 20.00     0.008 C 
HETATM    5  C6  UNL     1     -35.918  15.235  -4.065  1.00 20.00     0.009 C 
HETATM    6  C7  UNL     1     -34.932  14.583  -6.351  1.00 20.00     0.047 C 
HETATM    7  C8  UNL     1     -35.146  16.556  -3.840  1.00 20.00    -0.048 C 
HETATM    8  C9  UNL     1     -36.035  17.442  -2.930  1.00 20.00     0.015 C 
HETATM    9  C10 UNL     1     -33.822  16.320  -3.094  1.00 20.00     0.015 C 
ENDROOT
BRANCH   6  10
HETATM   10  C1  UNL     1     -34.731  13.343  -7.174  1.00 20.00     0.235 C 
HETATM   11  O11 UNL     1     -35.063  12.222  -6.800  1.00 20.00    -0.306 OA
ENDBRANCH   6  10
TORSDOF 1
ENDMDL
MODEL 8
REMARK VINA RESULT:      -4.2     11.725     12.522
REMARK  1 active torsions:
REMARK  status: ('A' for Active; 'I' for Inactive)
REMARK    1  A    between atoms: C1_1  and  C7_7 
ROOT
HETATM    1  C2  UNL     1     -32.607  18.563  -1.120  1.00 20.00     0.001 C 
HETATM    2  C3  UNL     1     -33.246  19.173   0.124  1.00 20.00     0.011 C 
HETATM    3  C4  UNL     1     -35.498  18.033   0.410  1.00 20.00     0.012 C 
HETATM    4  C5  UNL     1     -33.253  17.327  -1.747  1.00 20.00     0.008 C 
HETATM    5  C6  UNL     1     -35.589  17.042  -0.749  1.00 20.00     0.009 C 
HETATM    6  C7  UNL     1     -34.090  18.227   0.975  1.00 20.00     0.047 C 
HETATM    7  C8  UNL     1     -34.774  17.352  -2.027  1.00 20.00    -0.048 C 
HETATM    8  C9  UNL     1     -35.073  16.211  -3.032  1.00 20.00     0.015 C 
HETATM    9  C10 UNL     1     -35.225  18.668  -2.682  1.00 20.00     0.015 C 
ENDROOT
BRANCH   6  10
HETATM   10  C1  UNL     1     -34.213  18.826   2.347  1.00 20.00     0.235 C 
HETATM   11  O11 UNL     1     -33.818  18.269   3.365  1.00 20.00    -0.306 OA
ENDBRANCH   6  10
TORSDOF 1
ENDMDL
MODEL 9
REMARK VINA RESULT:      -4.2     11.299     12.149
REMARK  1 active torsions:
REMARK  status: ('A' for Active; 'I' for Inactive)
REMARK    1  A    between atoms: C1_1  and  C7_7 
ROOT
HETATM    1  C2  UNL     1     -33.320  15.331  -3.815  1.00 20.00     0.001 C 
HETATM    2  C3  UNL     1     -33.711  16.593  -3.052  1.00 20.00     0.011 C 
HETATM    3  C4  UNL     1     -36.248  16.716  -3.115  1.00 20.00     0.012 C 
HETATM    4  C5  UNL     1     -34.416  14.340  -4.207  1.00 20.00     0.008 C 
HETATM    5  C6  UNL     1     -36.683  15.480  -3.901  1.00 20.00     0.009 C 
HETATM    6  C7  UNL     1     -35.005  16.513  -2.246  1.00 20.00     0.047 C 
HETATM    7  C8  UNL     1     -35.681  14.881  -4.915  1.00 20.00    -0.048 C 
HETATM    8  C9  UNL     1     -36.388  13.672  -5.578  1.00 20.00     0.015 C 
HETATM    9  C10 UNL     1     -35.340  15.881  -6.033  1.00 20.00     0.015 C 
ENDROOT
BRANCH   6  10
HETATM   10  C1  UNL     1     -34.973  17.604  -1.213  1.00 20.00     0.235 C 
HETATM   11  O11 UNL     1     -34.103  17.693  -0.353  1.00 20.00    -0.306 OA
ENDBRANCH   6  10
TORSDOF 1
ENDMDL
