MODEL 1
REMARK VINA RESULT:      -5.0      0.000      0.000
REMARK  2 active torsions:
REMARK  status: ('A' for Active; 'I' for Inactive)
REMARK    1  A    between atoms: C1_1  and  C7_7 
REMARK    2  A    between atoms: C8_8  and  C12_12 
ROOT
HETATM    1  C2  UNL     1     -36.978  15.945  -5.082  1.00 20.00     0.001 C 
HETATM    2  C3  UNL     1     -37.027  14.435  -4.865  1.00 20.00     0.011 C 
HETATM    3  C4  UNL     1     -34.582  14.047  -4.055  1.00 20.00     0.012 C 
HETATM    4  C5  UNL     1     -36.571  16.765  -3.861  1.00 20.00     0.005 C 
HETATM    5  C6  UNL     1     -34.320  15.529  -3.778  1.00 20.00     0.006 C 
HETATM    6  C7  UNL     1     -35.692  13.707  -5.050  1.00 20.00     0.047 C 
HETATM    7  C8  UNL     1     -35.450  16.195  -2.979  1.00 20.00    -0.007 C 
ENDROOT
BRANCH   7   8
HETATM    8  C12 UNL     1     -34.892  17.315  -2.093  1.00 20.00    -0.048 C 
HETATM    9  C9  UNL     1     -35.450  17.170  -0.670  1.00 20.00     0.015 C 
HETATM   10  C10 UNL     1     -35.304  18.678  -2.667  1.00 20.00     0.015 C 
HETATM   11  C11 UNL     1     -33.359  17.220  -2.052  1.00 20.00     0.015 C 
ENDBRANCH   7   8
BRANCH   6  12
HETATM   12  C1  UNL     1     -35.200  13.854  -6.463  1.00 20.00     0.235 C 
HETATM   13  O13 UNL     1     -34.349  13.126  -6.962  1.00 20.00    -0.306 OA
ENDBRANCH   6  12
TORSDOF 2
ENDMDL
MODEL 2
REMARK VINA RESULT:      -5.0      0.050      1.202
REMARK  2 active torsions:
REMARK  status: ('A' for Active; 'I' for Inactive)
REMARK    1  A    between atoms: C1_1  and  C7_7 
REMARK    2  A    between atoms: C8_8  and  C12_12 
ROOT
HETATM    1  C2  UNL     1     -36.981  15.920  -5.091  1.00 20.00     0.001 C 
HETATM    2  C3  UNL     1     -37.023  14.410  -4.874  1.00 20.00     0.011 C 
HETATM    3  C4  UNL     1     -34.579  14.033  -4.058  1.00 20.00     0.012 C 
HETATM    4  C5  UNL     1     -36.581  16.742  -3.868  1.00 20.00     0.005 C 
HETATM    5  C6  UNL     1     -34.325  15.517  -3.780  1.00 20.00     0.006 C 
HETATM    6  C7  UNL     1     -35.684  13.689  -5.057  1.00 20.00     0.047 C 
HETATM    7  C8  UNL     1     -35.460  16.176  -2.984  1.00 20.00    -0.007 C 
ENDROOT
BRANCH   7   8
HETATM    8  C12 UNL     1     -34.909  17.298  -2.096  1.00 20.00    -0.048 C 
HETATM    9  C9  UNL     1     -33.378  17.202  -2.038  1.00 20.00     0.015 C 
HETATM   10  C10 UNL     1     -35.483  17.159  -0.678  1.00 20.00     0.015 C 
HETATM   11  C11 UNL     1     -35.314  18.660  -2.679  1.00 20.00     0.015 C 
ENDBRANCH   7   8
BRANCH   6  12
HETATM   12  C1  UNL     1     -35.190  13.839  -6.468  1.00 20.00     0.235 C 
HETATM   13  O13 UNL     1     -34.457  13.024  -7.018  1.00 20.00    -0.306 OA
ENDBRANCH   6  12
TORSDOF 2
ENDMDL
MODEL 3
REMARK VINA RESULT:      -5.0      1.058      1.301
REMARK  2 active torsions:
REMARK  status: ('A' for Active; 'I' for Inactive)
REMARK    1  A    between atoms: C1_1  and  C7_7 
REMARK    2  A    between atoms: C8_8  and  C12_12 
ROOT
HETATM    1  C2  UNL     1     -36.210  15.123  -4.443  1.00 20.00     0.001 C 
HETATM    2  C3  UNL     1     -35.244  13.958  -4.640  1.00 20.00     0.011 C 
HETATM    3  C4  UNL     1     -33.000  15.278  -4.713  1.00 20.00     0.012 C 
HETATM    4  C5  UNL     1     -35.939  15.993  -3.219  1.00 20.00     0.005 C 
HETATM    5  C6  UNL     1     -33.606  16.558  -4.133  1.00 20.00     0.006 C 
HETATM    6  C7  UNL     1     -33.957  14.300  -5.396  1.00 20.00     0.047 C 
HETATM    7  C8  UNL     1     -34.470  16.299  -2.891  1.00 20.00    -0.007 C 
ENDROOT
BRANCH   7   8
HETATM    8  C12 UNL     1     -34.409  17.498  -1.937  1.00 20.00    -0.048 C 
HETATM    9  C9  UNL     1     -35.244  17.198  -0.683  1.00 20.00     0.015 C 
HETATM   10  C10 UNL     1     -34.971  18.742  -2.639  1.00 20.00     0.015 C 
HETATM   11  C11 UNL     1     -32.951  17.755  -1.530  1.00 20.00     0.015 C 
ENDBRANCH   7   8
BRANCH   6  12
HETATM   12  C1  UNL     1     -34.268  14.751  -6.795  1.00 20.00     0.235 C 
HETATM   13  O13 UNL     1     -33.926  14.133  -7.797  1.00 20.00    -0.306 OA
ENDBRANCH   6  12
TORSDOF 2
ENDMDL
MODEL 4
REMARK VINA RESULT:      -4.9      1.063      2.364
REMARK  2 active torsions:
REMARK  status: ('A' for Active; 'I' for Inactive)
REMARK    1  A    between atoms: C1_1  and  C7_7 
REMARK    2  A    between atoms: C8_8  and  C12_12 
ROOT
HETATM    1  C2  UNL     1     -33.439  14.884  -4.350  1.00 20.00     0.001 C 
HETATM    2  C3  UNL     1     -34.189  15.155  -5.652  1.00 20.00     0.011 C 
HETATM    3  C4  UNL     1     -36.491  15.876  -4.669  1.00 20.00     0.012 C 
HETATM    4  C5  UNL     1     -33.379  16.059  -3.377  1.00 20.00     0.005 C 
HETATM    5  C6  UNL     1     -35.945  16.091  -3.255  1.00 20.00     0.006 C 
HETATM    6  C7  UNL     1     -35.704  14.940  -5.586  1.00 20.00     0.047 C 
HETATM    7  C8  UNL     1     -34.648  16.912  -3.235  1.00 20.00    -0.007 C 
ENDROOT
BRANCH   7   8
HETATM    8  C12 UNL     1     -34.556  17.736  -1.945  1.00 20.00    -0.048 C 
HETATM    9  C9  UNL     1     -35.059  19.162  -2.209  1.00 20.00     0.015 C 
HETATM   10  C10 UNL     1     -33.095  17.789  -1.474  1.00 20.00     0.015 C 
HETATM   11  C11 UNL     1     -35.420  17.082  -0.857  1.00 20.00     0.015 C 
ENDBRANCH   7   8
BRANCH   6  12
HETATM   12  C1  UNL     1     -36.022  13.504  -5.277  1.00 20.00     0.235 C 
HETATM   13  O13 UNL     1     -35.563  12.558  -5.908  1.00 20.00    -0.306 OA
ENDBRANCH   6  12
TORSDOF 2
ENDMDL
MODEL 5
REMARK VINA RESULT:      -4.7      2.893      5.316
REMARK  2 active torsions:
REMARK  status: ('A' for Active; 'I' for Inactive)
REMARK    1  A    between atoms: C1_1  and  C7_7 
REMARK    2  A    between atoms: C8_8  and  C12_12 
ROOT
HETATM    1  C2  UNL     1     -35.086  17.441  -0.373  1.00 20.00     0.001 C 
HETATM    2  C3  UNL     1     -34.708  18.915  -0.498  1.00 20.00     0.011 C 
HETATM    3  C4  UNL     1     -32.972  18.742  -2.433  1.00 20.00     0.012 C 
HETATM    4  C5  UNL     1     -35.614  16.794  -1.651  1.00 20.00     0.005 C 
HETATM    5  C6  UNL     1     -33.401  17.330  -2.841  1.00 20.00     0.006 C 
HETATM    6  C7  UNL     1     -33.286  19.181  -1.002  1.00 20.00     0.047 C 
HETATM    7  C8  UNL     1     -34.924  17.184  -2.967  1.00 20.00    -0.007 C 
ENDROOT
BRANCH   7   8
HETATM    8  C12 UNL     1     -35.275  16.147  -4.041  1.00 20.00    -0.048 C 
HETATM    9  C9  UNL     1     -34.381  14.910  -3.872  1.00 20.00     0.015 C 
HETATM   10  C10 UNL     1     -35.048  16.754  -5.433  1.00 20.00     0.015 C 
HETATM   11  C11 UNL     1     -36.748  15.737  -3.897  1.00 20.00     0.015 C 
ENDBRANCH   7   8
BRANCH   6  12
HETATM   12  C1  UNL     1     -32.271  18.627  -0.043  1.00 20.00     0.235 C 
HETATM   13  O13 UNL     1     -31.134  18.305  -0.371  1.00 20.00    -0.306 OA
ENDBRANCH   6  12
TORSDOF 2
ENDMDL
MODEL 6
REMARK VINA RESULT:      -4.7      2.893      5.312
REMARK  2 active torsions:
REMARK  status: ('A' for Active; 'I' for Inactive)
REMARK    1  A    between atoms: C1_1  and  C7_7 
REMARK    2  A    between atoms: C8_8  and  C12_12 
ROOT
HETATM    1  C2  UNL     1     -35.103  17.449  -0.380  1.00 20.00     0.001 C 
HETATM    2  C3  UNL     1     -34.720  18.921  -0.511  1.00 20.00     0.011 C 
HETATM    3  C4  UNL     1     -32.981  18.734  -2.440  1.00 20.00     0.012 C 
HETATM    4  C5  UNL     1     -35.630  16.798  -1.656  1.00 20.00     0.005 C 
HETATM    5  C6  UNL     1     -33.412  17.322  -2.843  1.00 20.00     0.006 C 
HETATM    6  C7  UNL     1     -33.296  19.181  -1.012  1.00 20.00     0.047 C 
HETATM    7  C8  UNL     1     -34.936  17.179  -2.972  1.00 20.00    -0.007 C 
ENDROOT
BRANCH   7   8
HETATM    8  C12 UNL     1     -35.287  16.139  -4.042  1.00 20.00    -0.048 C 
HETATM    9  C9  UNL     1     -35.055  16.739  -5.436  1.00 20.00     0.015 C 
HETATM   10  C10 UNL     1     -36.761  15.733  -3.900  1.00 20.00     0.015 C 
HETATM   11  C11 UNL     1     -34.396  14.900  -3.865  1.00 20.00     0.015 C 
ENDBRANCH   7   8
BRANCH   6  12
HETATM   12  C1  UNL     1     -32.285  18.629  -0.048  1.00 20.00     0.235 C 
HETATM   13  O13 UNL     1     -31.144  18.315  -0.370  1.00 20.00    -0.306 OA
ENDBRANCH   6  12
TORSDOF 2
ENDMDL
MODEL 7
REMARK VINA RESULT:      -4.4      2.965      5.356
REMARK  2 active torsions:
REMARK  status: ('A' for Active; 'I' for Inactive)
REMARK    1  A    between atoms: C1_1  and  C7_7 
REMARK    2  A    between atoms: C8_8  and  C12_12 
ROOT
HETATM    1  C2  UNL     1     -33.257  18.826  -2.669  1.00 20.00     0.001 C 
HETATM    2  C3  UNL     1     -33.080  18.383  -1.219  1.00 20.00     0.011 C 
HETATM    3  C4  UNL     1     -35.168  16.843  -0.991  1.00 20.00     0.012 C 
HETATM    4  C5  UNL     1     -33.332  17.694  -3.691  1.00 20.00     0.005 C 
HETATM    5  C6  UNL     1     -35.405  16.753  -2.500  1.00 20.00     0.006 C 
HETATM    6  C7  UNL     1     -34.377  18.047  -0.478  1.00 20.00     0.047 C 
HETATM    7  C8  UNL     1     -34.124  16.442  -3.288  1.00 20.00    -0.007 C 
ENDROOT
BRANCH   7   8
HETATM    8  C12 UNL     1     -34.454  15.632  -4.547  1.00 20.00    -0.048 C 
HETATM    9  C9  UNL     1     -34.667  14.159  -4.168  1.00 20.00     0.015 C 
HETATM   10  C10 UNL     1     -33.293  15.739  -5.545  1.00 20.00     0.015 C 
HETATM   11  C11 UNL     1     -35.734  16.184  -5.191  1.00 20.00     0.015 C 
ENDBRANCH   7   8
BRANCH   6  12
HETATM   12  C1  UNL     1     -35.261  19.259  -0.381  1.00 20.00     0.235 C 
HETATM   13  O13 UNL     1     -36.440  19.211  -0.046  1.00 20.00    -0.306 OA
ENDBRANCH   6  12
TORSDOF 2
ENDMDL
MODEL 8
REMARK VINA RESULT:      -4.2     10.830     11.994
REMARK  2 active torsions:
REMARK  status: ('A' for Active; 'I' for Inactive)
REMARK    1  A    between atoms: C1_1  and  C7_7 
REMARK    2  A    between atoms: C8_8  and  C12_12 
ROOT
HETATM    1  C2  UNL     1     -34.291   5.495   2.596  1.00 20.00     0.001 C 
HETATM    2  C3  UNL     1     -35.353   5.852   3.633  1.00 20.00     0.011 C 
HETATM    3  C4  UNL     1     -33.880   7.214   5.293  1.00 20.00     0.012 C 
HETATM    4  C5  UNL     1     -33.561   6.684   1.977  1.00 20.00     0.005 C 
HETATM    5  C6  UNL     1     -32.726   7.386   4.303  1.00 20.00     0.006 C 
HETATM    6  C7  UNL     1     -34.832   6.040   5.060  1.00 20.00     0.047 C 
HETATM    7  C8  UNL     1     -33.196   7.844   2.915  1.00 20.00    -0.007 C 
ENDROOT
BRANCH   7   8
HETATM    8  C12 UNL     1     -32.122   8.710   2.245  1.00 20.00    -0.048 C 
HETATM    9  C9  UNL     1     -30.881   8.776   3.147  1.00 20.00     0.015 C 
HETATM   10  C10 UNL     1     -32.669  10.127   2.025  1.00 20.00     0.015 C 
HETATM   11  C11 UNL     1     -31.737   8.094   0.891  1.00 20.00     0.015 C 
ENDBRANCH   7   8
BRANCH   6  12
HETATM   12  C1  UNL     1     -34.234   4.762   5.579  1.00 20.00     0.235 C 
HETATM   13  O13 UNL     1     -34.182   3.726   4.926  1.00 20.00    -0.306 OA
ENDBRANCH   6  12
TORSDOF 2
ENDMDL
MODEL 9
REMARK VINA RESULT:      -4.2      2.395      4.938
REMARK  2 active torsions:
REMARK  status: ('A' for Active; 'I' for Inactive)
REMARK    1  A    between atoms: C1_1  and  C7_7 
REMARK    2  A    between atoms: C8_8  and  C12_12 
ROOT
HETATM    1  C2  UNL     1     -33.631  15.867  -3.319  1.00 20.00     0.001 C 
HETATM    2  C3  UNL     1     -34.188  16.765  -2.216  1.00 20.00     0.011 C 
HETATM    3  C4  UNL     1     -35.982  18.058  -3.591  1.00 20.00     0.012 C 
HETATM    4  C5  UNL     1     -34.659  14.983  -4.019  1.00 20.00     0.005 C 
HETATM    5  C6  UNL     1     -35.953  17.075  -4.764  1.00 20.00     0.006 C 
HETATM    6  C7  UNL     1     -34.747  18.109  -2.691  1.00 20.00     0.047 C 
HETATM    7  C8  UNL     1     -36.031  15.609  -4.315  1.00 20.00    -0.007 C 
ENDROOT
BRANCH   7   8
HETATM    8  C12 UNL     1     -36.749  14.762  -5.373  1.00 20.00    -0.048 C 
HETATM    9  C9  UNL     1     -36.109  13.368  -5.435  1.00 20.00     0.015 C 
HETATM   10  C10 UNL     1     -36.627  15.442  -6.744  1.00 20.00     0.015 C 
HETATM   11  C11 UNL     1     -38.233  14.627  -5.000  1.00 20.00     0.015 C 
ENDBRANCH   7   8
BRANCH   6  12
HETATM   12  C1  UNL     1     -33.665  18.939  -3.322  1.00 20.00     0.235 C 
HETATM   13  O13 UNL     1     -32.635  19.263  -2.742  1.00 20.00    -0.306 OA
ENDBRANCH   6  12
TORSDOF 2
ENDMDL
