MODEL 1
REMARK VINA RESULT:      -5.7      0.000      0.000
REMARK  2 active torsions:
REMARK  status: ('A' for Active; 'I' for Inactive)
REMARK    1  A    between atoms: C1_1  and  C7_7 
REMARK    2  A    between atoms: C8_8  and  C12_12 
ROOT
HETATM    1  C2  UNL     1     -32.495   8.054   4.656  1.00 20.00     0.001 C 
HETATM    2  C3  UNL     1     -33.714   7.152   4.821  1.00 20.00     0.011 C 
HETATM    3  C4  UNL     1     -34.328   6.181   2.557  1.00 20.00     0.012 C 
HETATM    4  C5  UNL     1     -31.953   8.250   3.241  1.00 20.00     0.005 C 
HETATM    5  C6  UNL     1     -33.462   7.008   1.609  1.00 20.00     0.006 C 
HETATM    6  C7  UNL     1     -33.712   5.910   3.931  1.00 20.00     0.047 C 
HETATM    7  C8  UNL     1     -33.016   8.382   2.140  1.00 20.00    -0.007 C 
ENDROOT
BRANCH   7   8
HETATM    8  C12 UNL     1     -32.437   9.195   0.974  1.00 20.00    -0.048 C 
HETATM    9  C9  UNL     1     -31.011   8.713   0.670  1.00 20.00     0.015 C 
HETATM   10  C10 UNL     1     -32.404  10.683   1.353  1.00 20.00     0.015 C 
HETATM   11  C11 UNL     1     -33.316   9.005  -0.271  1.00 20.00     0.015 C 
ENDBRANCH   7   8
BRANCH   6  12
HETATM   12  C1  UNL     1     -34.526   4.846   4.608  1.00 20.00     0.235 C 
HETATM   13  O13 UNL     1     -34.400   3.648   4.375  1.00 20.00    -0.306 OA
ENDBRANCH   6  12
TORSDOF 2
ENDMDL
MODEL 2
REMARK VINA RESULT:      -5.3     10.054     11.079
REMARK  2 active torsions:
REMARK  status: ('A' for Active; 'I' for Inactive)
REMARK    1  A    between atoms: C1_1  and  C7_7 
REMARK    2  A    between atoms: C8_8  and  C12_12 
ROOT
HETATM    1  C2  UNL     1     -33.204  15.204  -3.838  1.00 20.00     0.001 C 
HETATM    2  C3  UNL     1     -34.321  14.224  -4.183  1.00 20.00     0.011 C 
HETATM    3  C4  UNL     1     -36.558  15.361  -3.791  1.00 20.00     0.012 C 
HETATM    4  C5  UNL     1     -33.612  16.569  -3.287  1.00 20.00     0.005 C 
HETATM    5  C6  UNL     1     -36.146  16.627  -3.043  1.00 20.00     0.006 C 
HETATM    6  C7  UNL     1     -35.551  14.862  -4.829  1.00 20.00     0.047 C 
HETATM    7  C8  UNL     1     -34.796  16.557  -2.307  1.00 20.00    -0.007 C 
ENDROOT
BRANCH   7   8
HETATM    8  C12 UNL     1     -34.685  17.766  -1.368  1.00 20.00    -0.048 C 
HETATM    9  C9  UNL     1     -35.285  19.004  -2.051  1.00 20.00     0.015 C 
HETATM   10  C10 UNL     1     -33.207  18.029  -1.041  1.00 20.00     0.015 C 
HETATM   11  C11 UNL     1     -35.452  17.479  -0.069  1.00 20.00     0.015 C 
ENDBRANCH   7   8
BRANCH   6  12
HETATM   12  C1  UNL     1     -36.227  13.826  -5.679  1.00 20.00     0.235 C 
HETATM   13  O13 UNL     1     -35.953  12.631  -5.632  1.00 20.00    -0.306 OA
ENDBRANCH   6  12
TORSDOF 2
ENDMDL
MODEL 3
REMARK VINA RESULT:      -5.3     10.058     11.047
REMARK  2 active torsions:
REMARK  status: ('A' for Active; 'I' for Inactive)
REMARK    1  A    between atoms: C1_1  and  C7_7 
REMARK    2  A    between atoms: C8_8  and  C12_12 
ROOT
HETATM    1  C2  UNL     1     -33.199  15.206  -3.844  1.00 20.00     0.001 C 
HETATM    2  C3  UNL     1     -34.315  14.225  -4.189  1.00 20.00     0.011 C 
HETATM    3  C4  UNL     1     -36.552  15.359  -3.794  1.00 20.00     0.012 C 
HETATM    4  C5  UNL     1     -33.608  16.570  -3.291  1.00 20.00     0.005 C 
HETATM    5  C6  UNL     1     -36.142  16.625  -3.045  1.00 20.00     0.006 C 
HETATM    6  C7  UNL     1     -35.545  14.863  -4.834  1.00 20.00     0.047 C 
HETATM    7  C8  UNL     1     -34.791  16.557  -2.311  1.00 20.00    -0.007 C 
ENDROOT
BRANCH   7   8
HETATM    8  C12 UNL     1     -34.681  17.765  -1.371  1.00 20.00    -0.048 C 
HETATM    9  C9  UNL     1     -33.204  18.033  -1.050  1.00 20.00     0.015 C 
HETATM   10  C10 UNL     1     -35.442  17.472  -0.069  1.00 20.00     0.015 C 
HETATM   11  C11 UNL     1     -35.288  19.001  -2.050  1.00 20.00     0.015 C 
ENDBRANCH   7   8
BRANCH   6  12
HETATM   12  C1  UNL     1     -36.220  13.826  -5.684  1.00 20.00     0.235 C 
HETATM   13  O13 UNL     1     -35.957  12.629  -5.626  1.00 20.00    -0.306 OA
ENDBRANCH   6  12
TORSDOF 2
ENDMDL
MODEL 4
REMARK VINA RESULT:      -5.0     10.353     11.766
REMARK  2 active torsions:
REMARK  status: ('A' for Active; 'I' for Inactive)
REMARK    1  A    between atoms: C1_1  and  C7_7 
REMARK    2  A    between atoms: C8_8  and  C12_12 
ROOT
HETATM    1  C2  UNL     1     -33.774  17.209  -6.114  1.00 20.00     0.001 C 
HETATM    2  C3  UNL     1     -33.483  15.736  -6.386  1.00 20.00     0.011 C 
HETATM    3  C4  UNL     1     -34.447  14.349  -4.490  1.00 20.00     0.012 C 
HETATM    4  C5  UNL     1     -34.479  17.557  -4.804  1.00 20.00     0.005 C 
HETATM    5  C6  UNL     1     -34.805  15.418  -3.461  1.00 20.00     0.006 C 
HETATM    6  C7  UNL     1     -34.592  14.778  -5.952  1.00 20.00     0.047 C 
HETATM    7  C8  UNL     1     -34.032  16.743  -3.580  1.00 20.00    -0.007 C 
ENDROOT
BRANCH   7   8
HETATM    8  C12 UNL     1     -34.275  17.570  -2.309  1.00 20.00    -0.048 C 
HETATM    9  C9  UNL     1     -35.279  16.840  -1.406  1.00 20.00     0.015 C 
HETATM   10  C10 UNL     1     -34.838  18.946  -2.693  1.00 20.00     0.015 C 
HETATM   11  C11 UNL     1     -32.950  17.753  -1.555  1.00 20.00     0.015 C 
ENDBRANCH   7   8
BRANCH   6  12
HETATM   12  C1  UNL     1     -34.515  13.550  -6.812  1.00 20.00     0.235 C 
HETATM   13  O13 UNL     1     -35.083  12.498  -6.539  1.00 20.00    -0.306 OA
ENDBRANCH   6  12
TORSDOF 2
ENDMDL
MODEL 5
REMARK VINA RESULT:      -4.8     10.489     11.539
REMARK  2 active torsions:
REMARK  status: ('A' for Active; 'I' for Inactive)
REMARK    1  A    between atoms: C1_1  and  C7_7 
REMARK    2  A    between atoms: C8_8  and  C12_12 
ROOT
HETATM    1  C2  UNL     1     -36.040  17.599  -0.997  1.00 20.00     0.001 C 
HETATM    2  C3  UNL     1     -34.675  17.613  -0.317  1.00 20.00     0.011 C 
HETATM    3  C4  UNL     1     -32.883  17.203  -2.069  1.00 20.00     0.012 C 
HETATM    4  C5  UNL     1     -36.077  17.288  -2.493  1.00 20.00     0.005 C 
HETATM    5  C6  UNL     1     -33.710  16.773  -3.278  1.00 20.00     0.006 C 
HETATM    6  C7  UNL     1     -33.553  18.229  -1.153  1.00 20.00     0.047 C 
HETATM    7  C8  UNL     1     -35.102  16.198  -2.963  1.00 20.00    -0.007 C 
ENDROOT
BRANCH   7   8
HETATM    8  C12 UNL     1     -35.659  15.537  -4.232  1.00 20.00    -0.048 C 
HETATM    9  C9  UNL     1     -37.183  15.393  -4.110  1.00 20.00     0.015 C 
HETATM   10  C10 UNL     1     -35.026  14.148  -4.407  1.00 20.00     0.015 C 
HETATM   11  C11 UNL     1     -35.325  16.407  -5.453  1.00 20.00     0.015 C 
ENDBRANCH   7   8
BRANCH   6  12
HETATM   12  C1  UNL     1     -32.514  18.772  -0.216  1.00 20.00     0.235 C 
HETATM   13  O13 UNL     1     -31.324  18.486  -0.288  1.00 20.00    -0.306 OA
ENDBRANCH   6  12
TORSDOF 2
ENDMDL
MODEL 6
REMARK VINA RESULT:      -4.7      2.422      4.971
REMARK  2 active torsions:
REMARK  status: ('A' for Active; 'I' for Inactive)
REMARK    1  A    between atoms: C1_1  and  C7_7 
REMARK    2  A    between atoms: C8_8  and  C12_12 
ROOT
HETATM    1  C2  UNL     1     -31.976   8.314   4.474  1.00 20.00     0.001 C 
HETATM    2  C3  UNL     1     -31.399   8.399   3.065  1.00 20.00     0.011 C 
HETATM    3  C4  UNL     1     -33.023   7.303   1.449  1.00 20.00     0.012 C 
HETATM    4  C5  UNL     1     -33.298   7.571   4.650  1.00 20.00     0.005 C 
HETATM    5  C6  UNL     1     -34.000   6.611   2.397  1.00 20.00     0.006 C 
HETATM    6  C7  UNL     1     -32.438   8.619   1.964  1.00 20.00     0.047 C 
HETATM    7  C8  UNL     1     -33.456   6.298   3.803  1.00 20.00    -0.007 C 
ENDROOT
BRANCH   7   8
HETATM    8  C12 UNL     1     -34.431   5.343   4.505  1.00 20.00    -0.048 C 
HETATM    9  C9  UNL     1     -33.975   3.893   4.287  1.00 20.00     0.015 C 
HETATM   10  C10 UNL     1     -35.840   5.528   3.923  1.00 20.00     0.015 C 
HETATM   11  C11 UNL     1     -34.456   5.649   6.009  1.00 20.00     0.015 C 
ENDBRANCH   7   8
BRANCH   6  12
HETATM   12  C1  UNL     1     -31.765   9.315   0.817  1.00 20.00     0.235 C 
HETATM   13  O13 UNL     1     -32.231  10.304   0.260  1.00 20.00    -0.306 OA
ENDBRANCH   6  12
TORSDOF 2
ENDMDL
MODEL 7
REMARK VINA RESULT:      -4.7     10.625     11.464
REMARK  2 active torsions:
REMARK  status: ('A' for Active; 'I' for Inactive)
REMARK    1  A    between atoms: C1_1  and  C7_7 
REMARK    2  A    between atoms: C8_8  and  C12_12 
ROOT
HETATM    1  C2  UNL     1     -36.871  15.803  -4.423  1.00 20.00     0.001 C 
HETATM    2  C3  UNL     1     -36.030  15.360  -5.617  1.00 20.00     0.011 C 
HETATM    3  C4  UNL     1     -33.597  15.227  -4.899  1.00 20.00     0.012 C 
HETATM    4  C5  UNL     1     -36.133  16.133  -3.127  1.00 20.00     0.005 C 
HETATM    5  C6  UNL     1     -33.629  15.908  -3.533  1.00 20.00     0.006 C 
HETATM    6  C7  UNL     1     -34.859  14.442  -5.264  1.00 20.00     0.047 C 
HETATM    7  C8  UNL     1     -34.800  16.879  -3.299  1.00 20.00    -0.007 C 
ENDROOT
BRANCH   7   8
HETATM    8  C12 UNL     1     -34.514  17.698  -2.033  1.00 20.00    -0.048 C 
HETATM    9  C9  UNL     1     -33.012  17.649  -1.718  1.00 20.00     0.015 C 
HETATM   10  C10 UNL     1     -35.303  17.111  -0.853  1.00 20.00     0.015 C 
HETATM   11  C11 UNL     1     -34.941  19.156  -2.257  1.00 20.00     0.015 C 
ENDBRANCH   7   8
BRANCH   6  12
HETATM   12  C1  UNL     1     -34.552  13.592  -6.462  1.00 20.00     0.235 C 
HETATM   13  O13 UNL     1     -35.015  12.468  -6.629  1.00 20.00    -0.306 OA
ENDBRANCH   6  12
TORSDOF 2
ENDMDL
MODEL 8
REMARK VINA RESULT:      -4.6     10.640     11.999
REMARK  2 active torsions:
REMARK  status: ('A' for Active; 'I' for Inactive)
REMARK    1  A    between atoms: C1_1  and  C7_7 
REMARK    2  A    between atoms: C8_8  and  C12_12 
ROOT
HETATM    1  C2  UNL     1     -33.286  18.361  -4.533  1.00 20.00     0.001 C 
HETATM    2  C3  UNL     1     -33.316  18.866  -3.094  1.00 20.00     0.011 C 
HETATM    3  C4  UNL     1     -34.299  17.053  -1.612  1.00 20.00     0.012 C 
HETATM    4  C5  UNL     1     -33.880  16.980  -4.807  1.00 20.00     0.005 C 
HETATM    5  C6  UNL     1     -34.848  16.064  -2.637  1.00 20.00     0.006 C 
HETATM    6  C7  UNL     1     -33.032  17.797  -2.038  1.00 20.00     0.047 C 
HETATM    7  C8  UNL     1     -35.161  16.648  -4.026  1.00 20.00    -0.007 C 
ENDROOT
BRANCH   7   8
HETATM    8  C12 UNL     1     -35.982  15.620  -4.817  1.00 20.00    -0.048 C 
HETATM    9  C9  UNL     1     -35.379  14.221  -4.622  1.00 20.00     0.015 C 
HETATM   10  C10 UNL     1     -35.958  15.984  -6.309  1.00 20.00     0.015 C 
HETATM   11  C11 UNL     1     -37.433  15.625  -4.314  1.00 20.00     0.015 C 
ENDBRANCH   7   8
BRANCH   6  12
HETATM   12  C1  UNL     1     -32.455  18.474  -0.829  1.00 20.00     0.235 C 
HETATM   13  O13 UNL     1     -31.290  18.337  -0.470  1.00 20.00    -0.306 OA
ENDBRANCH   6  12
TORSDOF 2
ENDMDL
MODEL 9
REMARK VINA RESULT:      -4.6     10.644     11.357
REMARK  2 active torsions:
REMARK  status: ('A' for Active; 'I' for Inactive)
REMARK    1  A    between atoms: C1_1  and  C7_7 
REMARK    2  A    between atoms: C8_8  and  C12_12 
ROOT
HETATM    1  C2  UNL     1     -32.611  18.691  -0.872  1.00 20.00     0.001 C 
HETATM    2  C3  UNL     1     -33.534  19.183   0.238  1.00 20.00     0.011 C 
HETATM    3  C4  UNL     1     -35.620  17.735   0.268  1.00 20.00     0.012 C 
HETATM    4  C5  UNL     1     -33.112  17.544  -1.747  1.00 20.00     0.005 C 
HETATM    5  C6  UNL     1     -35.483  16.949  -1.033  1.00 20.00     0.006 C 
HETATM    6  C7  UNL     1     -34.301  18.078   0.964  1.00 20.00     0.047 C 
HETATM    7  C8  UNL     1     -34.603  17.599  -2.115  1.00 20.00    -0.007 C 
ENDROOT
BRANCH   7   8
HETATM    8  C12 UNL     1     -34.823  16.855  -3.439  1.00 20.00    -0.048 C 
HETATM    9  C9  UNL     1     -36.211  16.198  -3.435  1.00 20.00     0.015 C 
HETATM   10  C10 UNL     1     -33.746  15.773  -3.605  1.00 20.00     0.015 C 
HETATM   11  C11 UNL     1     -34.732  17.848  -4.607  1.00 20.00     0.015 C 
ENDBRANCH   7   8
BRANCH   6  12
HETATM   12  C1  UNL     1     -34.613  18.557   2.352  1.00 20.00     0.235 C 
HETATM   13  O13 UNL     1     -33.977  18.216   3.344  1.00 20.00    -0.306 OA
ENDBRANCH   6  12
TORSDOF 2
ENDMDL
