MODEL 1
REMARK VINA RESULT:      -5.0      0.000      0.000
REMARK  2 active torsions:
REMARK  status: ('A' for Active; 'I' for Inactive)
REMARK    1  A    between atoms: C1_1  and  C7_7 
REMARK    2  A    between atoms: C8_8  and  C10_10 
ROOT
HETATM    1  C2  UNL     1     -33.568  15.877  -3.833  1.00 20.00     0.001 C 
HETATM    2  C3  UNL     1     -34.419  14.651  -4.145  1.00 20.00     0.011 C 
HETATM    3  C4  UNL     1     -36.783  15.646  -3.855  1.00 20.00     0.012 C 
HETATM    4  C5  UNL     1     -33.843  16.541  -2.486  1.00 20.00     0.004 C 
HETATM    5  C6  UNL     1     -36.314  16.896  -3.109  1.00 20.00     0.005 C 
HETATM    6  C7  UNL     1     -35.756  15.018  -4.796  1.00 20.00     0.047 C 
HETATM    7  C8  UNL     1     -35.299  16.583  -2.001  1.00 20.00    -0.015 C 
ENDROOT
BRANCH   6   8
HETATM    8  C1  UNL     1     -36.364  13.775  -5.381  1.00 20.00     0.235 C 
HETATM    9  O11 UNL     1     -35.880  12.656  -5.241  1.00 20.00    -0.306 OA
ENDBRANCH   6   8
BRANCH   7  10
HETATM   10  C10 UNL     1     -35.417  17.610  -0.867  1.00 20.00     0.000 C 
HETATM   11  C9  UNL     1     -34.076  18.030  -0.369  1.00 20.00     0.005 C 
ENDBRANCH   7  10
TORSDOF 2
ENDMDL
MODEL 2
REMARK VINA RESULT:      -5.0     10.746     11.391
REMARK  2 active torsions:
REMARK  status: ('A' for Active; 'I' for Inactive)
REMARK    1  A    between atoms: C1_1  and  C7_7 
REMARK    2  A    between atoms: C8_8  and  C10_10 
ROOT
HETATM    1  C2  UNL     1     -32.273   8.062   4.792  1.00 20.00     0.001 C 
HETATM    2  C3  UNL     1     -33.641   7.401   4.918  1.00 20.00     0.011 C 
HETATM    3  C4  UNL     1     -33.677   5.999   2.752  1.00 20.00     0.012 C 
HETATM    4  C5  UNL     1     -32.037   8.840   3.500  1.00 20.00     0.004 C 
HETATM    5  C6  UNL     1     -32.514   6.741   2.091  1.00 20.00     0.005 C 
HETATM    6  C7  UNL     1     -33.679   6.009   4.280  1.00 20.00     0.047 C 
HETATM    7  C8  UNL     1     -32.637   8.266   2.209  1.00 20.00    -0.015 C 
ENDROOT
BRANCH   6   8
HETATM    8  C1  UNL     1     -34.917   5.299   4.745  1.00 20.00     0.235 C 
HETATM    9  O11 UNL     1     -35.050   4.080   4.713  1.00 20.00    -0.306 OA
ENDBRANCH   6   8
BRANCH   7  10
HETATM   10  C10 UNL     1     -31.972   8.947   1.005  1.00 20.00     0.000 C 
HETATM   11  C9  UNL     1     -32.551  10.298   0.754  1.00 20.00     0.005 C 
ENDBRANCH   7  10
TORSDOF 2
ENDMDL
MODEL 3
REMARK VINA RESULT:      -4.9     10.476     11.089
REMARK  2 active torsions:
REMARK  status: ('A' for Active; 'I' for Inactive)
REMARK    1  A    between atoms: C1_1  and  C7_7 
REMARK    2  A    between atoms: C8_8  and  C10_10 
ROOT
HETATM    1  C2  UNL     1     -33.424   6.091   2.098  1.00 20.00     0.001 C 
HETATM    2  C3  UNL     1     -33.337   7.447   1.406  1.00 20.00     0.011 C 
HETATM    3  C4  UNL     1     -31.963   8.766   3.148  1.00 20.00     0.012 C 
HETATM    4  C5  UNL     1     -33.999   6.111   3.512  1.00 20.00     0.004 C 
HETATM    5  C6  UNL     1     -32.180   7.761   4.281  1.00 20.00     0.005 C 
HETATM    6  C7  UNL     1     -32.038   8.189   1.735  1.00 20.00     0.047 C 
HETATM    7  C8  UNL     1     -33.641   7.309   4.404  1.00 20.00    -0.015 C 
ENDROOT
BRANCH   6   8
HETATM    8  C1  UNL     1     -31.872   9.322   0.764  1.00 20.00     0.235 C 
HETATM    9  O11 UNL     1     -32.625  10.290   0.719  1.00 20.00    -0.306 OA
ENDBRANCH   6   8
BRANCH   7  10
HETATM   10  C10 UNL     1     -33.967   6.958   5.862  1.00 20.00     0.000 C 
HETATM   11  C9  UNL     1     -34.562   5.596   5.976  1.00 20.00     0.005 C 
ENDBRANCH   7  10
TORSDOF 2
ENDMDL
MODEL 4
REMARK VINA RESULT:      -4.8      1.640      2.123
REMARK  2 active torsions:
REMARK  status: ('A' for Active; 'I' for Inactive)
REMARK    1  A    between atoms: C1_1  and  C7_7 
REMARK    2  A    between atoms: C8_8  and  C10_10 
ROOT
HETATM    1  C2  UNL     1     -33.844  17.128  -5.895  1.00 20.00     0.001 C 
HETATM    2  C3  UNL     1     -33.553  15.702  -6.349  1.00 20.00     0.011 C 
HETATM    3  C4  UNL     1     -34.953  14.377  -4.632  1.00 20.00     0.012 C 
HETATM    4  C5  UNL     1     -33.541  17.425  -4.428  1.00 20.00     0.004 C 
HETATM    5  C6  UNL     1     -35.133  15.551  -3.669  1.00 20.00     0.005 C 
HETATM    6  C7  UNL     1     -34.731  14.756  -6.096  1.00 20.00     0.047 C 
HETATM    7  C8  UNL     1     -33.827  16.314  -3.407  1.00 20.00    -0.015 C 
ENDROOT
BRANCH   6   8
HETATM    8  C1  UNL     1     -34.507  13.491  -6.872  1.00 20.00     0.235 C 
HETATM    9  O11 UNL     1     -35.095  12.440  -6.635  1.00 20.00    -0.306 OA
ENDBRANCH   6   8
BRANCH   7  10
HETATM   10  C10 UNL     1     -33.840  16.922  -1.999  1.00 20.00     0.000 C 
HETATM   11  C9  UNL     1     -35.211  16.909  -1.412  1.00 20.00     0.005 C 
ENDBRANCH   7  10
TORSDOF 2
ENDMDL
MODEL 5
REMARK VINA RESULT:      -4.7      3.605      6.045
REMARK  2 active torsions:
REMARK  status: ('A' for Active; 'I' for Inactive)
REMARK    1  A    between atoms: C1_1  and  C7_7 
REMARK    2  A    between atoms: C8_8  and  C10_10 
ROOT
HETATM    1  C2  UNL     1     -35.310  18.492   0.295  1.00 20.00     0.001 C 
HETATM    2  C3  UNL     1     -34.012  18.358   1.085  1.00 20.00     0.011 C 
HETATM    3  C4  UNL     1     -32.298  18.338  -0.844  1.00 20.00     0.012 C 
HETATM    4  C5  UNL     1     -35.537  17.430  -0.777  1.00 20.00     0.004 C 
HETATM    5  C6  UNL     1     -33.329  18.058  -1.939  1.00 20.00     0.005 C 
HETATM    6  C7  UNL     1     -32.834  19.053   0.396  1.00 20.00     0.047 C 
HETATM    7  C8  UNL     1     -34.311  16.940  -1.561  1.00 20.00    -0.015 C 
ENDROOT
BRANCH   6   8
HETATM    8  C1  UNL     1     -31.707  19.179   1.380  1.00 20.00     0.235 C 
HETATM    9  O11 UNL     1     -30.554  18.835   1.135  1.00 20.00    -0.306 OA
ENDBRANCH   6   8
BRANCH   7  10
HETATM   10  C10 UNL     1     -34.785  16.203  -2.820  1.00 20.00     0.000 C 
HETATM   11  C9  UNL     1     -33.643  15.860  -3.715  1.00 20.00     0.005 C 
ENDBRANCH   7  10
TORSDOF 2
ENDMDL
MODEL 6
REMARK VINA RESULT:      -4.6     11.083     11.721
REMARK  2 active torsions:
REMARK  status: ('A' for Active; 'I' for Inactive)
REMARK    1  A    between atoms: C1_1  and  C7_7 
REMARK    2  A    between atoms: C8_8  and  C10_10 
ROOT
HETATM    1  C2  UNL     1     -32.878   8.133   4.871  1.00 20.00     0.001 C 
HETATM    2  C3  UNL     1     -31.872   8.137   3.725  1.00 20.00     0.011 C 
HETATM    3  C4  UNL     1     -33.251   6.949   1.896  1.00 20.00     0.012 C 
HETATM    4  C5  UNL     1     -33.434   6.763   5.251  1.00 20.00     0.004 C 
HETATM    5  C6  UNL     1     -34.306   6.398   2.857  1.00 20.00     0.005 C 
HETATM    6  C7  UNL     1     -32.548   8.226   2.354  1.00 20.00     0.047 C 
HETATM    7  C8  UNL     1     -33.693   5.764   4.114  1.00 20.00    -0.015 C 
ENDROOT
BRANCH   6   8
HETATM    8  C1  UNL     1     -31.510   8.576   1.327  1.00 20.00     0.235 C 
HETATM    9  O11 UNL     1     -31.764   9.171   0.285  1.00 20.00    -0.306 OA
ENDBRANCH   6   8
BRANCH   7  10
HETATM   10  C10 UNL     1     -34.597   4.639   4.635  1.00 20.00     0.000 C 
HETATM   11  C9  UNL     1     -34.823   4.757   6.104  1.00 20.00     0.005 C 
ENDBRANCH   7  10
TORSDOF 2
ENDMDL
MODEL 7
REMARK VINA RESULT:      -4.5      3.465      5.982
REMARK  2 active torsions:
REMARK  status: ('A' for Active; 'I' for Inactive)
REMARK    1  A    between atoms: C1_1  and  C7_7 
REMARK    2  A    between atoms: C8_8  and  C10_10 
ROOT
HETATM    1  C2  UNL     1     -36.046  17.820  -0.341  1.00 20.00     0.001 C 
HETATM    2  C3  UNL     1     -35.199  17.738   0.925  1.00 20.00     0.011 C 
HETATM    3  C4  UNL     1     -32.916  18.512   0.002  1.00 20.00     0.012 C 
HETATM    4  C5  UNL     1     -35.517  17.032  -1.536  1.00 20.00     0.004 C 
HETATM    5  C6  UNL     1     -33.293  18.324  -1.469  1.00 20.00     0.005 C 
HETATM    6  C7  UNL     1     -34.083  18.787   0.950  1.00 20.00     0.047 C 
HETATM    7  C8  UNL     1     -33.996  16.986  -1.738  1.00 20.00    -0.015 C 
ENDROOT
BRANCH   6   8
HETATM    8  C1  UNL     1     -33.534  18.873   2.345  1.00 20.00     0.235 C 
HETATM    9  O11 UNL     1     -33.975  18.220   3.286  1.00 20.00    -0.306 OA
ENDBRANCH   6   8
BRANCH   7  10
HETATM   10  C10 UNL     1     -33.696  16.507  -3.164  1.00 20.00     0.000 C 
HETATM   11  C9  UNL     1     -34.650  15.445  -3.594  1.00 20.00     0.005 C 
ENDBRANCH   7  10
TORSDOF 2
ENDMDL
MODEL 8
REMARK VINA RESULT:      -4.3     11.363     11.975
REMARK  2 active torsions:
REMARK  status: ('A' for Active; 'I' for Inactive)
REMARK    1  A    between atoms: C1_1  and  C7_7 
REMARK    2  A    between atoms: C8_8  and  C10_10 
ROOT
HETATM    1  C2  UNL     1     -34.094   5.874   2.210  1.00 20.00     0.001 C 
HETATM    2  C3  UNL     1     -33.979   5.166   3.555  1.00 20.00     0.011 C 
HETATM    3  C4  UNL     1     -33.729   7.197   5.127  1.00 20.00     0.012 C 
HETATM    4  C5  UNL     1     -32.953   6.831   1.873  1.00 20.00     0.004 C 
HETATM    5  C6  UNL     1     -33.395   8.191   4.013  1.00 20.00     0.005 C 
HETATM    6  C7  UNL     1     -34.567   5.992   4.703  1.00 20.00     0.047 C 
HETATM    7  C8  UNL     1     -32.352   7.650   3.025  1.00 20.00    -0.015 C 
ENDROOT
BRANCH   6   8
HETATM    8  C1  UNL     1     -34.734   5.101   5.901  1.00 20.00     0.235 C 
HETATM    9  O11 UNL     1     -33.980   4.169   6.160  1.00 20.00    -0.306 OA
ENDBRANCH   6   8
BRANCH   7  10
HETATM   10  C10 UNL     1     -31.528   8.804   2.440  1.00 20.00     0.000 C 
HETATM   11  C9  UNL     1     -32.247   9.473   1.317  1.00 20.00     0.005 C 
ENDBRANCH   7  10
TORSDOF 2
ENDMDL
MODEL 9
REMARK VINA RESULT:      -4.3      2.291      3.822
REMARK  2 active torsions:
REMARK  status: ('A' for Active; 'I' for Inactive)
REMARK    1  A    between atoms: C1_1  and  C7_7 
REMARK    2  A    between atoms: C8_8  and  C10_10 
ROOT
HETATM    1  C2  UNL     1     -32.910  19.024  -1.102  1.00 20.00     0.001 C 
HETATM    2  C3  UNL     1     -33.043  17.642  -1.733  1.00 20.00     0.011 C 
HETATM    3  C4  UNL     1     -35.413  16.999  -0.939  1.00 20.00     0.012 C 
HETATM    4  C5  UNL     1     -33.138  19.082   0.406  1.00 20.00     0.004 C 
HETATM    5  C6  UNL     1     -35.494  18.082   0.138  1.00 20.00     0.005 C 
HETATM    6  C7  UNL     1     -34.488  17.311  -2.115  1.00 20.00     0.047 C 
HETATM    7  C8  UNL     1     -34.222  18.167   0.994  1.00 20.00    -0.015 C 
ENDROOT
BRANCH   6   8
HETATM    8  C1  UNL     1     -34.484  16.118  -3.027  1.00 20.00     0.235 C 
HETATM    9  O11 UNL     1     -33.516  15.791  -3.707  1.00 20.00    -0.306 OA
ENDBRANCH   6   8
BRANCH   7  10
HETATM   10  C10 UNL     1     -34.566  18.648   2.410  1.00 20.00     0.000 C 
HETATM   11  C9  UNL     1     -33.540  18.211   3.399  1.00 20.00     0.005 C 
ENDBRANCH   7  10
TORSDOF 2
ENDMDL
