MODEL 1
REMARK VINA RESULT:      -4.7      0.000      0.000
REMARK  2 active torsions:
REMARK  status: ('A' for Active; 'I' for Inactive)
REMARK    1  A    between atoms: C5_5  and  C6_6 
REMARK    2  A    between atoms: C6_6  and  S8_8 
ROOT
HETATM    1  C1  UNL     1     -34.957   5.524   4.124  1.00 20.00     0.027 C 
HETATM    2  C2  UNL     1     -33.807   5.925   3.204  1.00 20.00     0.009 C 
HETATM    3  C3  UNL     1     -34.583   5.751   5.582  1.00 20.00     0.167 C 
HETATM    4  C4  UNL     1     -33.036   7.461   5.033  1.00 20.00     0.172 C 
HETATM    5  C5  UNL     1     -33.320   7.340   3.534  1.00 20.00     0.019 C 
HETATM    6  O7  UNL     1     -34.190   7.106   5.798  1.00 20.00    -0.391 OA
ENDROOT
BRANCH   5   7
HETATM    7  C6  UNL     1     -32.091   7.706   2.709  1.00 20.00     0.077 C 
BRANCH   7   8
HETATM    8  S8  UNL     1     -32.480   9.054   1.565  1.00 20.00    -0.182 SA
HETATM    9  H20 UNL     1     -32.935   8.278   0.572  1.00 20.00     0.101 HD
ENDBRANCH   7   8
ENDBRANCH   5   7
TORSDOF 2
ENDMDL
MODEL 2
REMARK VINA RESULT:      -4.4      1.275      1.893
REMARK  2 active torsions:
REMARK  status: ('A' for Active; 'I' for Inactive)
REMARK    1  A    between atoms: C5_5  and  C6_6 
REMARK    2  A    between atoms: C6_6  and  S8_8 
ROOT
HETATM    1  C1  UNL     1     -34.301   6.259   5.442  1.00 20.00     0.027 C 
HETATM    2  C2  UNL     1     -33.449   7.462   5.048  1.00 20.00     0.009 C 
HETATM    3  C3  UNL     1     -35.023   5.690   4.228  1.00 20.00     0.167 C 
HETATM    4  C4  UNL     1     -33.373   6.499   2.731  1.00 20.00     0.172 C 
HETATM    5  C5  UNL     1     -32.544   7.117   3.860  1.00 20.00     0.019 C 
HETATM    6  O7  UNL     1     -34.093   5.356   3.198  1.00 20.00    -0.391 OA
ENDROOT
BRANCH   5   7
HETATM    7  C6  UNL     1     -31.780   8.344   3.375  1.00 20.00     0.077 C 
BRANCH   7   8
HETATM    8  S8  UNL     1     -32.251   8.747   1.674  1.00 20.00    -0.182 SA
HETATM    9  H20 UNL     1     -31.118   8.317   1.102  1.00 20.00     0.101 HD
ENDBRANCH   7   8
ENDBRANCH   5   7
TORSDOF 2
ENDMDL
MODEL 3
REMARK VINA RESULT:      -3.7      2.636      3.719
REMARK  2 active torsions:
REMARK  status: ('A' for Active; 'I' for Inactive)
REMARK    1  A    between atoms: C5_5  and  C6_6 
REMARK    2  A    between atoms: C6_6  and  S8_8 
ROOT
HETATM    1  C1  UNL     1     -32.455   8.316   4.820  1.00 20.00     0.027 C 
HETATM    2  C2  UNL     1     -33.450   7.202   5.129  1.00 20.00     0.009 C 
HETATM    3  C3  UNL     1     -31.634   7.976   3.583  1.00 20.00     0.167 C 
HETATM    4  C4  UNL     1     -33.342   6.591   2.697  1.00 20.00     0.172 C 
HETATM    5  C5  UNL     1     -34.272   6.851   3.884  1.00 20.00     0.019 C 
HETATM    6  O7  UNL     1     -32.487   7.713   2.468  1.00 20.00    -0.391 OA
ENDROOT
BRANCH   5   7
HETATM    7  C6  UNL     1     -35.182   5.655   4.144  1.00 20.00     0.077 C 
BRANCH   7   8
HETATM    8  S8  UNL     1     -34.195   4.175   4.481  1.00 20.00    -0.182 SA
HETATM    9  H20 UNL     1     -34.031   3.813   3.201  1.00 20.00     0.101 HD
ENDBRANCH   7   8
ENDBRANCH   5   7
TORSDOF 2
ENDMDL
MODEL 4
REMARK VINA RESULT:      -3.5      1.254      1.322
REMARK  2 active torsions:
REMARK  status: ('A' for Active; 'I' for Inactive)
REMARK    1  A    between atoms: C5_5  and  C6_6 
REMARK    2  A    between atoms: C6_6  and  S8_8 
ROOT
HETATM    1  C1  UNL     1     -33.985   4.456   3.525  1.00 20.00     0.027 C 
HETATM    2  C2  UNL     1     -33.224   5.733   3.183  1.00 20.00     0.009 C 
HETATM    3  C3  UNL     1     -34.143   4.312   5.033  1.00 20.00     0.167 C 
HETATM    4  C4  UNL     1     -34.015   6.653   5.380  1.00 20.00     0.172 C 
HETATM    5  C5  UNL     1     -33.852   6.941   3.886  1.00 20.00     0.019 C 
HETATM    6  O7  UNL     1     -34.780   5.463   5.586  1.00 20.00    -0.391 OA
ENDROOT
BRANCH   5   7
HETATM    7  C6  UNL     1     -33.028   8.203   3.654  1.00 20.00     0.077 C 
BRANCH   7   8
HETATM    8  S8  UNL     1     -32.194   8.125   2.049  1.00 20.00    -0.182 SA
HETATM    9  H20 UNL     1     -30.987   7.793   2.526  1.00 20.00     0.101 HD
ENDBRANCH   7   8
ENDBRANCH   5   7
TORSDOF 2
ENDMDL
MODEL 5
REMARK VINA RESULT:      -3.3     11.251     11.753
REMARK  2 active torsions:
REMARK  status: ('A' for Active; 'I' for Inactive)
REMARK    1  A    between atoms: C5_5  and  C6_6 
REMARK    2  A    between atoms: C6_6  and  S8_8 
ROOT
HETATM    1  C1  UNL     1     -36.873  14.809  -4.571  1.00 20.00     0.027 C 
HETATM    2  C2  UNL     1     -35.952  15.978  -4.234  1.00 20.00     0.009 C 
HETATM    3  C3  UNL     1     -36.100  13.701  -5.275  1.00 20.00     0.167 C 
HETATM    4  C4  UNL     1     -34.053  14.336  -4.262  1.00 20.00     0.172 C 
HETATM    5  C5  UNL     1     -34.705  15.485  -3.490  1.00 20.00     0.019 C 
HETATM    6  O7  UNL     1     -34.989  13.279  -4.484  1.00 20.00    -0.391 OA
ENDROOT
BRANCH   5   7
HETATM    7  C6  UNL     1     -33.717  16.624  -3.258  1.00 20.00     0.077 C 
BRANCH   7   8
HETATM    8  S8  UNL     1     -33.947  17.330  -1.607  1.00 20.00    -0.182 SA
HETATM    9  H20 UNL     1     -34.283  16.182  -1.002  1.00 20.00     0.101 HD
ENDBRANCH   7   8
ENDBRANCH   5   7
TORSDOF 2
ENDMDL
MODEL 6
REMARK VINA RESULT:      -3.2     11.562     12.080
REMARK  2 active torsions:
REMARK  status: ('A' for Active; 'I' for Inactive)
REMARK    1  A    between atoms: C5_5  and  C6_6 
REMARK    2  A    between atoms: C6_6  and  S8_8 
ROOT
HETATM    1  C1  UNL     1     -37.188  15.713  -4.031  1.00 20.00     0.027 C 
HETATM    2  C2  UNL     1     -35.683  15.755  -4.274  1.00 20.00     0.009 C 
HETATM    3  C3  UNL     1     -37.868  14.778  -5.022  1.00 20.00     0.167 C 
HETATM    4  C4  UNL     1     -35.906  13.478  -5.308  1.00 20.00     0.172 C 
HETATM    5  C5  UNL     1     -35.105  14.336  -4.326  1.00 20.00     0.019 C 
HETATM    6  O7  UNL     1     -37.293  13.473  -4.961  1.00 20.00    -0.391 OA
ENDROOT
BRANCH   5   7
HETATM    7  C6  UNL     1     -33.625  14.358  -4.694  1.00 20.00     0.077 C 
BRANCH   7   8
HETATM    8  S8  UNL     1     -33.235  15.844  -5.650  1.00 20.00    -0.182 SA
HETATM    9  H20 UNL     1     -34.404  15.910  -6.302  1.00 20.00     0.101 HD
ENDBRANCH   7   8
ENDBRANCH   5   7
TORSDOF 2
ENDMDL
MODEL 7
REMARK VINA RESULT:      -3.2     11.868     12.893
REMARK  2 active torsions:
REMARK  status: ('A' for Active; 'I' for Inactive)
REMARK    1  A    between atoms: C5_5  and  C6_6 
REMARK    2  A    between atoms: C6_6  and  S8_8 
ROOT
HETATM    1  C1  UNL     1     -36.245  13.952  -7.907  1.00 20.00     0.027 C 
HETATM    2  C2  UNL     1     -36.941  14.872  -6.908  1.00 20.00     0.009 C 
HETATM    3  C3  UNL     1     -35.001  13.329  -7.289  1.00 20.00     0.167 C 
HETATM    4  C4  UNL     1     -35.869  13.511  -5.091  1.00 20.00     0.172 C 
HETATM    5  C5  UNL     1     -37.174  14.146  -5.578  1.00 20.00     0.019 C 
HETATM    6  O7  UNL     1     -35.329  12.637  -6.084  1.00 20.00    -0.391 OA
ENDROOT
BRANCH   5   7
HETATM    7  C6  UNL     1     -37.753  15.090  -4.529  1.00 20.00     0.077 C 
BRANCH   7   8
HETATM    8  S8  UNL     1     -36.438  16.083  -3.781  1.00 20.00    -0.182 SA
HETATM    9  H20 UNL     1     -35.461  15.676  -4.603  1.00 20.00     0.101 HD
ENDBRANCH   7   8
ENDBRANCH   5   7
TORSDOF 2
ENDMDL
MODEL 8
REMARK VINA RESULT:      -3.2      2.524      3.604
REMARK  2 active torsions:
REMARK  status: ('A' for Active; 'I' for Inactive)
REMARK    1  A    between atoms: C5_5  and  C6_6 
REMARK    2  A    between atoms: C6_6  and  S8_8 
ROOT
HETATM    1  C1  UNL     1     -32.080   7.944   1.874  1.00 20.00     0.027 C 
HETATM    2  C2  UNL     1     -33.390   7.200   2.115  1.00 20.00     0.009 C 
HETATM    3  C3  UNL     1     -31.767   8.874   3.040  1.00 20.00     0.167 C 
HETATM    4  C4  UNL     1     -32.998   7.546   4.570  1.00 20.00     0.172 C 
HETATM    5  C5  UNL     1     -33.384   6.530   3.494  1.00 20.00     0.019 C 
HETATM    6  O7  UNL     1     -31.737   8.149   4.269  1.00 20.00    -0.391 OA
ENDROOT
BRANCH   5   7
HETATM    7  C6  UNL     1     -34.733   5.888   3.800  1.00 20.00     0.077 C 
BRANCH   7   8
HETATM    8  S8  UNL     1     -34.660   4.984   5.366  1.00 20.00    -0.182 SA
HETATM    9  H20 UNL     1     -34.706   3.757   4.830  1.00 20.00     0.101 HD
ENDBRANCH   7   8
ENDBRANCH   5   7
TORSDOF 2
ENDMDL
MODEL 9
REMARK VINA RESULT:      -3.1     11.814     12.161
REMARK  2 active torsions:
REMARK  status: ('A' for Active; 'I' for Inactive)
REMARK    1  A    between atoms: C5_5  and  C6_6 
REMARK    2  A    between atoms: C6_6  and  S8_8 
ROOT
HETATM    1  C1  UNL     1     -34.929  16.840  -1.822  1.00 20.00     0.027 C 
HETATM    2  C2  UNL     1     -33.776  16.501  -2.763  1.00 20.00     0.009 C 
HETATM    3  C3  UNL     1     -36.206  17.101  -2.609  1.00 20.00     0.167 C 
HETATM    4  C4  UNL     1     -35.506  15.731  -4.412  1.00 20.00     0.172 C 
HETATM    5  C5  UNL     1     -34.181  15.382  -3.730  1.00 20.00     0.019 C 
HETATM    6  O7  UNL     1     -36.523  15.986  -3.441  1.00 20.00    -0.391 OA
ENDROOT
BRANCH   5   7
HETATM    7  C6  UNL     1     -33.085  15.120  -4.758  1.00 20.00     0.077 C 
BRANCH   7   8
HETATM    8  S8  UNL     1     -33.498  15.908  -6.334  1.00 20.00    -0.182 SA
HETATM    9  H20 UNL     1     -34.686  15.308  -6.492  1.00 20.00     0.101 HD
ENDBRANCH   7   8
ENDBRANCH   5   7
TORSDOF 2
ENDMDL
