MODEL 1
REMARK VINA RESULT:      -5.6      0.000      0.000
REMARK  2 active torsions:
REMARK  status: ('A' for Active; 'I' for Inactive)
REMARK    1  A    between atoms: C4_4  and  C7_7 
REMARK    2  A    between atoms: C5_5  and  C8_8 
ROOT
HETATM    1  C1  UNL     1     -34.086   5.917   3.270  1.00 20.00     0.005 C 
HETATM    2  C2  UNL     1     -33.331   6.775   2.269  1.00 20.00     0.006 C 
HETATM    3  C3  UNL     1     -32.890   7.641   4.499  1.00 20.00     0.010 C 
HETATM    4  C4  UNL     1     -34.196   6.833   4.488  1.00 20.00    -0.014 C 
HETATM    5  C5  UNL     1     -32.240   7.417   3.124  1.00 20.00    -0.000 C 
ENDROOT
BRANCH   4   6
HETATM    6  C7  UNL     1     -34.445   6.073   5.781  1.00 20.00     0.000 C 
HETATM    7  C6  UNL     1     -34.577   4.601   5.550  1.00 20.00     0.005 C 
ENDBRANCH   4   6
BRANCH   5   8
HETATM    8  C8  UNL     1     -31.677   8.690   2.511  1.00 20.00     0.119 C 
HETATM    9 CL9  UNL     1     -32.526   9.073   1.000  1.00 20.00    -0.130 Cl
ENDBRANCH   5   8
TORSDOF 2
ENDMDL
MODEL 2
REMARK VINA RESULT:      -5.5      2.331      4.172
REMARK  2 active torsions:
REMARK  status: ('A' for Active; 'I' for Inactive)
REMARK    1  A    between atoms: C4_4  and  C7_7 
REMARK    2  A    between atoms: C5_5  and  C8_8 
ROOT
HETATM    1  C1  UNL     1     -33.299   6.756   2.262  1.00 20.00     0.005 C 
HETATM    2  C2  UNL     1     -34.050   5.958   3.316  1.00 20.00     0.006 C 
HETATM    3  C3  UNL     1     -32.836   7.745   4.434  1.00 20.00     0.010 C 
HETATM    4  C4  UNL     1     -32.197   7.436   3.071  1.00 20.00    -0.014 C 
HETATM    5  C5  UNL     1     -34.144   6.939   4.483  1.00 20.00    -0.000 C 
ENDROOT
BRANCH   4   6
HETATM    6  C7  UNL     1     -31.627   8.665   2.382  1.00 20.00     0.000 C 
HETATM    7  C6  UNL     1     -32.419   9.046   1.172  1.00 20.00     0.005 C 
ENDBRANCH   4   6
BRANCH   5   8
HETATM    8  C8  UNL     1     -34.377   6.251   5.819  1.00 20.00     0.119 C 
HETATM    9 CL9  UNL     1     -34.508   4.496   5.593  1.00 20.00    -0.130 Cl
ENDBRANCH   5   8
TORSDOF 2
ENDMDL
MODEL 3
REMARK VINA RESULT:      -5.3      0.913      1.661
REMARK  2 active torsions:
REMARK  status: ('A' for Active; 'I' for Inactive)
REMARK    1  A    between atoms: C4_4  and  C7_7 
REMARK    2  A    between atoms: C5_5  and  C8_8 
ROOT
HETATM    1  C1  UNL     1     -33.080   7.331   4.748  1.00 20.00     0.005 C 
HETATM    2  C2  UNL     1     -32.109   8.156   3.919  1.00 20.00     0.006 C 
HETATM    3  C3  UNL     1     -33.473   6.833   2.401  1.00 20.00     0.010 C 
HETATM    4  C4  UNL     1     -33.457   6.195   3.798  1.00 20.00    -0.014 C 
HETATM    5  C5  UNL     1     -32.782   8.198   2.548  1.00 20.00    -0.000 C 
ENDROOT
BRANCH   4   6
HETATM    6  C7  UNL     1     -34.769   5.524   4.169  1.00 20.00     0.000 C 
HETATM    7  C6  UNL     1     -34.729   4.935   5.543  1.00 20.00     0.005 C 
ENDBRANCH   4   6
BRANCH   5   8
HETATM    8  C8  UNL     1     -31.810   8.505   1.420  1.00 20.00     0.119 C 
HETATM    9 CL9  UNL     1     -32.285   9.998   0.587  1.00 20.00    -0.130 Cl
ENDBRANCH   5   8
TORSDOF 2
ENDMDL
MODEL 4
REMARK VINA RESULT:      -5.2      2.489      4.571
REMARK  2 active torsions:
REMARK  status: ('A' for Active; 'I' for Inactive)
REMARK    1  A    between atoms: C4_4  and  C7_7 
REMARK    2  A    between atoms: C5_5  and  C8_8 
ROOT
HETATM    1  C1  UNL     1     -32.131   8.152   3.843  1.00 20.00     0.005 C 
HETATM    2  C2  UNL     1     -33.118   7.332   4.658  1.00 20.00     0.006 C 
HETATM    3  C3  UNL     1     -33.478   6.839   2.303  1.00 20.00     0.010 C 
HETATM    4  C4  UNL     1     -32.786   8.200   2.464  1.00 20.00    -0.014 C 
HETATM    5  C5  UNL     1     -33.492   6.201   3.702  1.00 20.00    -0.000 C 
ENDROOT
BRANCH   4   6
HETATM    6  C7  UNL     1     -31.799   8.509   1.350  1.00 20.00     0.000 C 
HETATM    7  C6  UNL     1     -32.220   9.695   0.542  1.00 20.00     0.005 C 
ENDBRANCH   4   6
BRANCH   5   8
HETATM    8  C8  UNL     1     -34.819   5.544   4.050  1.00 20.00     0.119 C 
HETATM    9 CL9  UNL     1     -34.792   4.952   5.723  1.00 20.00    -0.130 Cl
ENDBRANCH   5   8
TORSDOF 2
ENDMDL
MODEL 5
REMARK VINA RESULT:      -4.2      2.314      4.540
REMARK  2 active torsions:
REMARK  status: ('A' for Active; 'I' for Inactive)
REMARK    1  A    between atoms: C4_4  and  C7_7 
REMARK    2  A    between atoms: C5_5  and  C8_8 
ROOT
HETATM    1  C1  UNL     1     -31.352   8.639   2.103  1.00 20.00     0.005 C 
HETATM    2  C2  UNL     1     -31.702   7.697   3.244  1.00 20.00     0.006 C 
HETATM    3  C3  UNL     1     -33.773   8.430   2.200  1.00 20.00     0.010 C 
HETATM    4  C4  UNL     1     -32.644   9.430   1.909  1.00 20.00    -0.014 C 
HETATM    5  C5  UNL     1     -33.106   7.221   2.875  1.00 20.00    -0.000 C 
ENDROOT
BRANCH   4   6
HETATM    6  C7  UNL     1     -32.746  10.070   0.533  1.00 20.00     0.000 C 
HETATM    7  C6  UNL     1     -32.884   9.048  -0.551  1.00 20.00     0.005 C 
ENDBRANCH   4   6
BRANCH   5   8
HETATM    8  C8  UNL     1     -33.886   6.692   4.068  1.00 20.00     0.119 C 
HETATM    9 CL9  UNL     1     -33.355   7.498   5.557  1.00 20.00    -0.130 Cl
ENDBRANCH   5   8
TORSDOF 2
ENDMDL
MODEL 6
REMARK VINA RESULT:      -4.0     11.376     11.910
REMARK  2 active torsions:
REMARK  status: ('A' for Active; 'I' for Inactive)
REMARK    1  A    between atoms: C4_4  and  C7_7 
REMARK    2  A    between atoms: C5_5  and  C8_8 
ROOT
HETATM    1  C1  UNL     1     -35.159  17.369  -0.432  1.00 20.00     0.005 C 
HETATM    2  C2  UNL     1     -35.298  16.854  -1.856  1.00 20.00     0.006 C 
HETATM    3  C3  UNL     1     -33.071  17.798  -1.600  1.00 20.00     0.010 C 
HETATM    4  C4  UNL     1     -34.023  18.383  -0.547  1.00 20.00    -0.014 C 
HETATM    5  C5  UNL     1     -33.846  16.666  -2.293  1.00 20.00    -0.000 C 
ENDROOT
BRANCH   4   6
HETATM    6  C7  UNL     1     -33.346  18.668   0.784  1.00 20.00     0.000 C 
HETATM    7  C6  UNL     1     -31.869  18.846   0.635  1.00 20.00     0.005 C 
ENDBRANCH   4   6
BRANCH   5   8
HETATM    8  C8  UNL     1     -33.678  16.659  -3.804  1.00 20.00     0.119 C 
HETATM    9 CL9  UNL     1     -33.195  15.046  -4.363  1.00 20.00    -0.130 Cl
ENDBRANCH   5   8
TORSDOF 2
ENDMDL
MODEL 7
REMARK VINA RESULT:      -4.0     11.486     12.055
REMARK  2 active torsions:
REMARK  status: ('A' for Active; 'I' for Inactive)
REMARK    1  A    between atoms: C4_4  and  C7_7 
REMARK    2  A    between atoms: C5_5  and  C8_8 
ROOT
HETATM    1  C1  UNL     1     -35.250  16.833  -1.813  1.00 20.00     0.005 C 
HETATM    2  C2  UNL     1     -35.097  17.381  -0.403  1.00 20.00     0.006 C 
HETATM    3  C3  UNL     1     -33.051  17.854  -1.631  1.00 20.00     0.010 C 
HETATM    4  C4  UNL     1     -33.803  16.681  -2.277  1.00 20.00    -0.014 C 
HETATM    5  C5  UNL     1     -33.995  18.427  -0.562  1.00 20.00    -0.000 C 
ENDROOT
BRANCH   4   6
HETATM    6  C7  UNL     1     -33.666  16.640  -3.791  1.00 20.00     0.000 C 
HETATM    7  C6  UNL     1     -33.374  15.261  -4.290  1.00 20.00     0.005 C 
ENDBRANCH   4   6
BRANCH   5   8
HETATM    8  C8  UNL     1     -33.294  18.754   0.747  1.00 20.00     0.119 C 
HETATM    9 CL9  UNL     1     -31.534  18.670   0.541  1.00 20.00    -0.130 Cl
ENDBRANCH   5   8
TORSDOF 2
ENDMDL
MODEL 8
REMARK VINA RESULT:      -3.8     11.422     12.077
REMARK  2 active torsions:
REMARK  status: ('A' for Active; 'I' for Inactive)
REMARK    1  A    between atoms: C4_4  and  C7_7 
REMARK    2  A    between atoms: C5_5  and  C8_8 
ROOT
HETATM    1  C1  UNL     1     -33.284  16.181  -5.092  1.00 20.00     0.005 C 
HETATM    2  C2  UNL     1     -33.863  15.095  -5.984  1.00 20.00     0.006 C 
HETATM    3  C3  UNL     1     -35.038  15.039  -3.855  1.00 20.00     0.010 C 
HETATM    4  C4  UNL     1     -33.666  15.709  -3.691  1.00 20.00    -0.014 C 
HETATM    5  C5  UNL     1     -35.238  14.843  -5.367  1.00 20.00    -0.000 C 
ENDROOT
BRANCH   4   6
HETATM    6  C7  UNL     1     -33.663  16.831  -2.666  1.00 20.00     0.000 C 
HETATM    7  C6  UNL     1     -34.870  16.787  -1.784  1.00 20.00     0.005 C 
ENDBRANCH   4   6
BRANCH   5   8
HETATM    8  C8  UNL     1     -35.810  13.481  -5.727  1.00 20.00     0.119 C 
HETATM    9 CL9  UNL     1     -35.127  12.913  -7.263  1.00 20.00    -0.130 Cl
ENDBRANCH   5   8
TORSDOF 2
ENDMDL
MODEL 9
REMARK VINA RESULT:      -3.8     11.237     11.721
REMARK  2 active torsions:
REMARK  status: ('A' for Active; 'I' for Inactive)
REMARK    1  A    between atoms: C4_4  and  C7_7 
REMARK    2  A    between atoms: C5_5  and  C8_8 
ROOT
HETATM    1  C1  UNL     1     -33.313  17.614  -2.171  1.00 20.00     0.005 C 
HETATM    2  C2  UNL     1     -33.587  16.702  -3.356  1.00 20.00     0.006 C 
HETATM    3  C3  UNL     1     -35.559  16.714  -1.932  1.00 20.00     0.010 C 
HETATM    4  C4  UNL     1     -34.317  17.126  -1.128  1.00 20.00    -0.014 C 
HETATM    5  C5  UNL     1     -35.113  16.652  -3.402  1.00 20.00    -0.000 C 
ENDROOT
BRANCH   4   6
HETATM    6  C7  UNL     1     -34.610  18.164  -0.057  1.00 20.00     0.000 C 
HETATM    7  C6  UNL     1     -35.653  17.695   0.907  1.00 20.00     0.005 C 
ENDBRANCH   4   6
BRANCH   5   8
HETATM    8  C8  UNL     1     -35.645  15.434  -4.140  1.00 20.00     0.119 C 
HETATM    9 CL9  UNL     1     -34.470  14.106  -4.064  1.00 20.00    -0.130 Cl
ENDBRANCH   5   8
TORSDOF 2
ENDMDL
