MODEL 1
REMARK VINA RESULT:      -5.4      0.000      0.000
REMARK  3 active torsions:
REMARK  status: ('A' for Active; 'I' for Inactive)
REMARK    1  A    between atoms: C6_6  and  C8_8 
REMARK    2  A    between atoms: C6_6  and  C9_9 
REMARK    3  A    between atoms: C7_7  and  C9_9 
ROOT
HETATM    1  C4  UNL     1     -35.548   6.009   3.372  1.00 20.00     0.015 C 
HETATM    2  C5  UNL     1     -33.286   5.135   2.851  1.00 20.00     0.015 C 
HETATM    3  C9  UNL     1     -34.040   6.209   3.665  1.00 20.00    -0.043 C 
ENDROOT
BRANCH   3   4
HETATM    4  C6  UNL     1     -33.677   7.643   3.143  1.00 20.00     0.029 C 
BRANCH   4   5
HETATM    5  C8  UNL     1     -32.329   7.854   2.426  1.00 20.00     0.079 C 
HETATM    6  C3  UNL     1     -31.273   8.361   3.408  1.00 20.00     0.026 C 
HETATM    7 CL10 UNL     1     -32.455   9.042   1.096  1.00 20.00    -0.125 Cl
ENDBRANCH   4   5
ENDBRANCH   3   4
BRANCH   3   8
HETATM    8  C7  UNL     1     -33.727   6.033   5.199  1.00 20.00    -0.015 C 
HETATM    9  C1  UNL     1     -33.782   7.342   6.001  1.00 20.00     0.010 C 
HETATM   10  C2  UNL     1     -34.622   5.001   5.906  1.00 20.00     0.010 C 
ENDBRANCH   3   8
TORSDOF 3
ENDMDL
MODEL 2
REMARK VINA RESULT:      -5.0      1.480      2.410
REMARK  3 active torsions:
REMARK  status: ('A' for Active; 'I' for Inactive)
REMARK    1  A    between atoms: C6_6  and  C8_8 
REMARK    2  A    between atoms: C6_6  and  C9_9 
REMARK    3  A    between atoms: C7_7  and  C9_9 
ROOT
HETATM    1  C4  UNL     1     -32.633   6.093   2.495  1.00 20.00     0.015 C 
HETATM    2  C5  UNL     1     -31.696   8.012   3.759  1.00 20.00     0.015 C 
HETATM    3  C9  UNL     1     -33.004   7.437   3.171  1.00 20.00    -0.043 C 
ENDROOT
BRANCH   3   4
HETATM    4  C6  UNL     1     -33.544   8.369   2.031  1.00 20.00     0.029 C 
BRANCH   4   5
HETATM    5  C8  UNL     1     -32.534   9.156   1.172  1.00 20.00     0.079 C 
HETATM    6  C3  UNL     1     -32.625  10.651   1.475  1.00 20.00     0.026 C 
HETATM    7 CL10 UNL     1     -32.823   8.933  -0.577  1.00 20.00    -0.125 Cl
ENDBRANCH   4   5
ENDBRANCH   3   4
BRANCH   3   8
HETATM    8  C7  UNL     1     -34.058   7.226   4.322  1.00 20.00    -0.015 C 
HETATM    9  C1  UNL     1     -34.797   5.881   4.252  1.00 20.00     0.010 C 
HETATM   10  C2  UNL     1     -33.479   7.382   5.739  1.00 20.00     0.010 C 
ENDBRANCH   3   8
TORSDOF 3
ENDMDL
MODEL 3
REMARK VINA RESULT:      -4.3      1.518      2.800
REMARK  3 active torsions:
REMARK  status: ('A' for Active; 'I' for Inactive)
REMARK    1  A    between atoms: C6_6  and  C8_8 
REMARK    2  A    between atoms: C6_6  and  C9_9 
REMARK    3  A    between atoms: C7_7  and  C9_9 
ROOT
HETATM    1  C4  UNL     1     -31.581   7.290   2.822  1.00 20.00     0.015 C 
HETATM    2  C5  UNL     1     -33.230   7.811   4.601  1.00 20.00     0.015 C 
HETATM    3  C9  UNL     1     -33.096   7.449   3.106  1.00 20.00    -0.043 C 
ENDROOT
BRANCH   3   4
HETATM    4  C6  UNL     1     -33.589   8.639   2.211  1.00 20.00     0.029 C 
BRANCH   4   5
HETATM    5  C8  UNL     1     -32.589   9.308   1.247  1.00 20.00     0.079 C 
HETATM    6  C3  UNL     1     -32.485  10.805   1.537  1.00 20.00     0.026 C 
HETATM    7 CL10 UNL     1     -33.072   9.114  -0.463  1.00 20.00    -0.125 Cl
ENDBRANCH   4   5
ENDBRANCH   3   4
BRANCH   3   8
HETATM    8  C7  UNL     1     -33.876   6.114   2.808  1.00 20.00    -0.015 C 
HETATM    9  C1  UNL     1     -32.975   4.875   2.700  1.00 20.00     0.010 C 
HETATM   10  C2  UNL     1     -34.996   5.804   3.817  1.00 20.00     0.010 C 
ENDBRANCH   3   8
TORSDOF 3
ENDMDL
MODEL 4
REMARK VINA RESULT:      -4.2      0.867      2.228
REMARK  3 active torsions:
REMARK  status: ('A' for Active; 'I' for Inactive)
REMARK    1  A    between atoms: C6_6  and  C8_8 
REMARK    2  A    between atoms: C6_6  and  C9_9 
REMARK    3  A    between atoms: C7_7  and  C9_9 
ROOT
HETATM    1  C4  UNL     1     -34.039   6.893   5.424  1.00 20.00     0.015 C 
HETATM    2  C5  UNL     1     -35.652   6.172   3.682  1.00 20.00     0.015 C 
HETATM    3  C9  UNL     1     -34.151   6.407   3.956  1.00 20.00    -0.043 C 
ENDROOT
BRANCH   3   4
HETATM    4  C6  UNL     1     -33.611   7.579   3.063  1.00 20.00     0.029 C 
BRANCH   4   5
HETATM    5  C8  UNL     1     -32.101   7.651   2.764  1.00 20.00     0.079 C 
HETATM    6  C3  UNL     1     -31.367   8.383   3.887  1.00 20.00     0.026 C 
HETATM    7 CL10 UNL     1     -31.760   8.511   1.235  1.00 20.00    -0.125 Cl
ENDBRANCH   4   5
ENDBRANCH   3   4
BRANCH   3   8
HETATM    8  C7  UNL     1     -33.351   5.069   3.735  1.00 20.00    -0.015 C 
HETATM    9  C1  UNL     1     -33.977   3.847   4.423  1.00 20.00     0.010 C 
HETATM   10  C2  UNL     1     -33.116   4.717   2.255  1.00 20.00     0.010 C 
ENDBRANCH   3   8
TORSDOF 3
ENDMDL
MODEL 5
REMARK VINA RESULT:      -4.1      2.248      4.492
REMARK  3 active torsions:
REMARK  status: ('A' for Active; 'I' for Inactive)
REMARK    1  A    between atoms: C6_6  and  C8_8 
REMARK    2  A    between atoms: C6_6  and  C9_9 
REMARK    3  A    between atoms: C7_7  and  C9_9 
ROOT
HETATM    1  C4  UNL     1     -31.377   8.376   3.550  1.00 20.00     0.015 C 
HETATM    2  C5  UNL     1     -32.078   6.482   2.109  1.00 20.00     0.015 C 
HETATM    3  C9  UNL     1     -32.502   7.881   2.606  1.00 20.00    -0.043 C 
ENDROOT
BRANCH   3   4
HETATM    4  C6  UNL     1     -33.798   7.777   3.483  1.00 20.00     0.029 C 
BRANCH   4   5
HETATM    5  C8  UNL     1     -33.933   6.605   4.475  1.00 20.00     0.079 C 
HETATM    6  C3  UNL     1     -35.188   5.788   4.171  1.00 20.00     0.026 C 
HETATM    7 CL10 UNL     1     -34.043   7.168   6.168  1.00 20.00    -0.125 Cl
ENDBRANCH   4   5
ENDBRANCH   3   4
BRANCH   3   8
HETATM    8  C7  UNL     1     -32.686   8.851   1.379  1.00 20.00    -0.015 C 
HETATM    9  C1  UNL     1     -32.892  10.321   1.771  1.00 20.00     0.010 C 
HETATM   10  C2  UNL     1     -31.543   8.785   0.351  1.00 20.00     0.010 C 
ENDBRANCH   3   8
TORSDOF 3
ENDMDL
MODEL 6
REMARK VINA RESULT:      -4.1      2.408      4.733
REMARK  3 active torsions:
REMARK  status: ('A' for Active; 'I' for Inactive)
REMARK    1  A    between atoms: C6_6  and  C8_8 
REMARK    2  A    between atoms: C6_6  and  C9_9 
REMARK    3  A    between atoms: C7_7  and  C9_9 
ROOT
HETATM    1  C4  UNL     1     -31.557   8.805   3.057  1.00 20.00     0.015 C 
HETATM    2  C5  UNL     1     -31.194   8.162   0.689  1.00 20.00     0.015 C 
HETATM    3  C9  UNL     1     -32.285   8.538   1.716  1.00 20.00    -0.043 C 
ENDROOT
BRANCH   3   4
HETATM    4  C6  UNL     1     -33.238   7.318   1.968  1.00 20.00     0.029 C 
BRANCH   4   5
HETATM    5  C8  UNL     1     -32.974   6.407   3.183  1.00 20.00     0.079 C 
HETATM    6  C3  UNL     1     -33.127   4.937   2.793  1.00 20.00     0.026 C 
HETATM    7 CL10 UNL     1     -34.104   6.737   4.528  1.00 20.00    -0.125 Cl
ENDBRANCH   4   5
ENDBRANCH   3   4
BRANCH   3   8
HETATM    8  C7  UNL     1     -33.064   9.815   1.225  1.00 20.00    -0.015 C 
HETATM    9  C1  UNL     1     -32.450  11.141   1.697  1.00 20.00     0.010 C 
HETATM   10  C2  UNL     1     -33.248   9.888  -0.301  1.00 20.00     0.010 C 
ENDBRANCH   3   8
TORSDOF 3
ENDMDL
MODEL 7
REMARK VINA RESULT:      -3.8      2.075      3.876
REMARK  3 active torsions:
REMARK  status: ('A' for Active; 'I' for Inactive)
REMARK    1  A    between atoms: C6_6  and  C8_8 
REMARK    2  A    between atoms: C6_6  and  C9_9 
REMARK    3  A    between atoms: C7_7  and  C9_9 
ROOT
HETATM    1  C4  UNL     1     -32.827   5.059   2.830  1.00 20.00     0.015 C 
HETATM    2  C5  UNL     1     -34.305   6.381   1.339  1.00 20.00     0.015 C 
HETATM    3  C9  UNL     1     -33.415   6.474   2.598  1.00 20.00    -0.043 C 
ENDROOT
BRANCH   3   4
HETATM    4  C6  UNL     1     -34.289   6.799   3.859  1.00 20.00     0.029 C 
BRANCH   4   5
HETATM    5  C8  UNL     1     -33.857   6.237   5.228  1.00 20.00     0.079 C 
HETATM    6  C3  UNL     1     -34.800   5.118   5.669  1.00 20.00     0.026 C 
HETATM    7 CL10 UNL     1     -33.864   7.492   6.501  1.00 20.00    -0.125 Cl
ENDBRANCH   4   5
ENDBRANCH   3   4
BRANCH   3   8
HETATM    8  C7  UNL     1     -32.275   7.536   2.370  1.00 20.00    -0.015 C 
HETATM    9  C1  UNL     1     -32.695   8.721   1.487  1.00 20.00     0.010 C 
HETATM   10  C2  UNL     1     -31.672   8.096   3.669  1.00 20.00     0.010 C 
ENDBRANCH   3   8
TORSDOF 3
ENDMDL
MODEL 8
REMARK VINA RESULT:      -3.7     11.469     12.324
REMARK  3 active torsions:
REMARK  status: ('A' for Active; 'I' for Inactive)
REMARK    1  A    between atoms: C6_6  and  C8_8 
REMARK    2  A    between atoms: C6_6  and  C9_9 
REMARK    3  A    between atoms: C7_7  and  C9_9 
ROOT
HETATM    1  C4  UNL     1     -33.550  17.353  -4.440  1.00 20.00     0.015 C 
HETATM    2  C5  UNL     1     -35.940  17.209  -3.790  1.00 20.00     0.015 C 
HETATM    3  C9  UNL     1     -34.549  16.591  -3.532  1.00 20.00    -0.043 C 
ENDROOT
BRANCH   3   4
HETATM    4  C6  UNL     1     -34.520  15.096  -4.006  1.00 20.00     0.029 C 
BRANCH   4   5
HETATM    5  C8  UNL     1     -35.205  14.724  -5.335  1.00 20.00     0.079 C 
HETATM    6  C3  UNL     1     -36.016  13.437  -5.179  1.00 20.00     0.026 C 
HETATM    7 CL10 UNL     1     -34.023  14.469  -6.651  1.00 20.00    -0.125 Cl
ENDBRANCH   4   5
ENDBRANCH   3   4
BRANCH   3   8
HETATM    8  C7  UNL     1     -34.170  16.745  -2.011  1.00 20.00    -0.015 C 
HETATM    9  C1  UNL     1     -33.081  17.794  -1.742  1.00 20.00     0.010 C 
HETATM   10  C2  UNL     1     -35.367  17.051  -1.095  1.00 20.00     0.010 C 
ENDBRANCH   3   8
TORSDOF 3
ENDMDL
MODEL 9
REMARK VINA RESULT:      -3.7     11.330     12.104
REMARK  3 active torsions:
REMARK  status: ('A' for Active; 'I' for Inactive)
REMARK    1  A    between atoms: C6_6  and  C8_8 
REMARK    2  A    between atoms: C6_6  and  C9_9 
REMARK    3  A    between atoms: C7_7  and  C9_9 
ROOT
HETATM    1  C4  UNL     1     -34.035  15.753  -6.111  1.00 20.00     0.015 C 
HETATM    2  C5  UNL     1     -33.055  14.527  -4.190  1.00 20.00     0.015 C 
HETATM    3  C9  UNL     1     -34.294  15.330  -4.643  1.00 20.00    -0.043 C 
ENDROOT
BRANCH   3   4
HETATM    4  C6  UNL     1     -34.413  16.659  -3.817  1.00 20.00     0.029 C 
BRANCH   4   5
HETATM    5  C8  UNL     1     -34.044  16.640  -2.321  1.00 20.00     0.079 C 
HETATM    6  C3  UNL     1     -35.293  16.825  -1.459  1.00 20.00     0.026 C 
HETATM    7 CL10 UNL     1     -32.890  17.938  -1.898  1.00 20.00    -0.125 Cl
ENDBRANCH   4   5
ENDBRANCH   3   4
BRANCH   3   8
HETATM    8  C7  UNL     1     -35.583  14.434  -4.525  1.00 20.00    -0.015 C 
HETATM    9  C1  UNL     1     -36.883  15.232  -4.345  1.00 20.00     0.010 C 
HETATM   10  C2  UNL     1     -35.778  13.458  -5.698  1.00 20.00     0.010 C 
ENDBRANCH   3   8
TORSDOF 3
ENDMDL
