MODEL 1
REMARK VINA RESULT:      -5.8      0.000      0.000
REMARK  4 active torsions:
REMARK  status: ('A' for Active; 'I' for Inactive)
REMARK    1  A    between atoms: C5_5  and  C7_7 
REMARK    2  A    between atoms: C5_5  and  C8_8 
REMARK    3  A    between atoms: C6_6  and  C8_8 
REMARK    4  A    between atoms: C6_6  and  C9_9 
ROOT
HETATM    1  C3  UNL     1     -32.934   4.824   2.496  1.00 20.00     0.010 C 
HETATM    2  C8  UNL     1     -33.283   6.200   3.066  1.00 20.00    -0.017 C 
ENDROOT
BRANCH   2   3
HETATM    3  C5  UNL     1     -34.692   6.211   3.709  1.00 20.00     0.008 C 
BRANCH   3   4
HETATM    4  C7  UNL     1     -34.741   6.186   5.251  1.00 20.00    -0.023 C 
HETATM    5  C1  UNL     1     -33.755   7.166   5.886  1.00 20.00     0.009 C 
HETATM    6  C2  UNL     1     -34.450   4.766   5.750  1.00 20.00     0.009 C 
ENDBRANCH   3   4
ENDBRANCH   2   3
BRANCH   2   7
HETATM    7  C6  UNL     1     -33.235   7.300   1.976  1.00 20.00     0.024 C 
BRANCH   7   8
HETATM    8  C9  UNL     1     -32.000   8.216   1.988  1.00 20.00     0.078 C 
HETATM    9  C4  UNL     1     -32.341   9.595   1.430  1.00 20.00     0.026 C 
HETATM   10 CL10 UNL     1     -31.358   8.410   3.646  1.00 20.00    -0.125 Cl
ENDBRANCH   7   8
ENDBRANCH   2   7
TORSDOF 4
ENDMDL
MODEL 2
REMARK VINA RESULT:      -5.7      1.073      1.248
REMARK  4 active torsions:
REMARK  status: ('A' for Active; 'I' for Inactive)
REMARK    1  A    between atoms: C5_5  and  C7_7 
REMARK    2  A    between atoms: C5_5  and  C8_8 
REMARK    3  A    between atoms: C6_6  and  C8_8 
REMARK    4  A    between atoms: C6_6  and  C9_9 
ROOT
HETATM    1  C3  UNL     1     -32.925   4.694   2.573  1.00 20.00     0.010 C 
HETATM    2  C8  UNL     1     -33.279   6.098   3.067  1.00 20.00    -0.017 C 
ENDROOT
BRANCH   2   3
HETATM    3  C5  UNL     1     -34.689   6.140   3.706  1.00 20.00     0.008 C 
BRANCH   3   4
HETATM    4  C7  UNL     1     -34.742   6.202   5.246  1.00 20.00    -0.023 C 
HETATM    5  C1  UNL     1     -33.729   7.186   5.829  1.00 20.00     0.009 C 
HETATM    6  C2  UNL     1     -34.495   4.805   5.825  1.00 20.00     0.009 C 
ENDBRANCH   3   4
ENDBRANCH   2   3
BRANCH   2   7
HETATM    7  C6  UNL     1     -33.231   7.137   1.919  1.00 20.00     0.024 C 
BRANCH   7   8
HETATM    8  C9  UNL     1     -32.510   8.459   2.227  1.00 20.00     0.078 C 
HETATM    9  C4  UNL     1     -31.426   8.255   3.281  1.00 20.00     0.026 C 
HETATM   10 CL10 UNL     1     -31.758   9.141   0.754  1.00 20.00    -0.125 Cl
ENDBRANCH   7   8
ENDBRANCH   2   7
TORSDOF 4
ENDMDL
MODEL 3
REMARK VINA RESULT:      -5.6      1.619      2.368
REMARK  4 active torsions:
REMARK  status: ('A' for Active; 'I' for Inactive)
REMARK    1  A    between atoms: C5_5  and  C7_7 
REMARK    2  A    between atoms: C5_5  and  C8_8 
REMARK    3  A    between atoms: C6_6  and  C8_8 
REMARK    4  A    between atoms: C6_6  and  C9_9 
ROOT
HETATM    1  C3  UNL     1     -31.160   8.396   3.727  1.00 20.00     0.010 C 
HETATM    2  C8  UNL     1     -32.349   8.216   2.781  1.00 20.00    -0.017 C 
ENDROOT
BRANCH   2   3
HETATM    3  C5  UNL     1     -33.088   6.880   3.037  1.00 20.00     0.008 C 
BRANCH   3   4
HETATM    4  C7  UNL     1     -34.229   6.917   4.074  1.00 20.00    -0.023 C 
HETATM    5  C1  UNL     1     -33.726   7.182   5.492  1.00 20.00     0.009 C 
HETATM    6  C2  UNL     1     -34.997   5.591   4.039  1.00 20.00     0.009 C 
ENDBRANCH   3   4
ENDBRANCH   2   3
BRANCH   2   7
HETATM    7  C6  UNL     1     -31.908   8.254   1.296  1.00 20.00     0.024 C 
BRANCH   7   8
HETATM    8  C9  UNL     1     -32.188   9.560   0.535  1.00 20.00     0.078 C 
HETATM    9  C4  UNL     1     -33.207   9.334  -0.578  1.00 20.00     0.026 C 
HETATM   10 CL10 UNL     1     -32.809  10.826   1.635  1.00 20.00    -0.125 Cl
ENDBRANCH   7   8
ENDBRANCH   2   7
TORSDOF 4
ENDMDL
MODEL 4
REMARK VINA RESULT:      -5.6      1.667      4.687
REMARK  4 active torsions:
REMARK  status: ('A' for Active; 'I' for Inactive)
REMARK    1  A    between atoms: C5_5  and  C7_7 
REMARK    2  A    between atoms: C5_5  and  C8_8 
REMARK    3  A    between atoms: C6_6  and  C8_8 
REMARK    4  A    between atoms: C6_6  and  C9_9 
ROOT
HETATM    1  C3  UNL     1     -31.322   8.336   3.669  1.00 20.00     0.010 C 
HETATM    2  C8  UNL     1     -32.100   7.540   2.619  1.00 20.00    -0.017 C 
ENDROOT
BRANCH   2   3
HETATM    3  C5  UNL     1     -33.078   8.442   1.826  1.00 20.00     0.008 C 
BRANCH   3   4
HETATM    4  C7  UNL     1     -32.440   9.455   0.854  1.00 20.00    -0.023 C 
HETATM    5  C1  UNL     1     -32.525  10.893   1.364  1.00 20.00     0.009 C 
HETATM    6  C2  UNL     1     -33.123   9.353  -0.514  1.00 20.00     0.009 C 
ENDBRANCH   3   4
ENDBRANCH   2   3
BRANCH   2   7
HETATM    7  C6  UNL     1     -32.910   6.386   3.261  1.00 20.00     0.024 C 
BRANCH   7   8
HETATM    8  C9  UNL     1     -34.152   6.794   4.070  1.00 20.00     0.078 C 
HETATM    9  C4  UNL     1     -35.195   5.680   4.064  1.00 20.00     0.026 C 
HETATM   10 CL10 UNL     1     -33.722   7.171   5.765  1.00 20.00    -0.125 Cl
ENDBRANCH   7   8
ENDBRANCH   2   7
TORSDOF 4
ENDMDL
MODEL 5
REMARK VINA RESULT:      -5.5      2.066      4.787
REMARK  4 active torsions:
REMARK  status: ('A' for Active; 'I' for Inactive)
REMARK    1  A    between atoms: C5_5  and  C7_7 
REMARK    2  A    between atoms: C5_5  and  C8_8 
REMARK    3  A    between atoms: C6_6  and  C8_8 
REMARK    4  A    between atoms: C6_6  and  C9_9 
ROOT
HETATM    1  C3  UNL     1     -31.551   8.299   3.995  1.00 20.00     0.010 C 
HETATM    2  C8  UNL     1     -32.122   7.623   2.747  1.00 20.00    -0.017 C 
ENDROOT
BRANCH   2   3
HETATM    3  C5  UNL     1     -31.814   8.436   1.466  1.00 20.00     0.008 C 
BRANCH   3   4
HETATM    4  C7  UNL     1     -32.903   9.426   1.004  1.00 20.00    -0.023 C 
HETATM    5  C1  UNL     1     -33.145   9.371  -0.504  1.00 20.00     0.009 C 
HETATM    6  C2  UNL     1     -32.509  10.850   1.411  1.00 20.00     0.009 C 
ENDBRANCH   3   4
ENDBRANCH   2   3
BRANCH   2   7
HETATM    7  C6  UNL     1     -33.656   7.435   2.849  1.00 20.00     0.024 C 
BRANCH   7   8
HETATM    8  C9  UNL     1     -34.146   6.021   3.202  1.00 20.00     0.078 C 
HETATM    9  C4  UNL     1     -33.109   4.972   2.812  1.00 20.00     0.026 C 
HETATM   10 CL10 UNL     1     -34.482   5.874   4.953  1.00 20.00    -0.125 Cl
ENDBRANCH   7   8
ENDBRANCH   2   7
TORSDOF 4
ENDMDL
MODEL 6
REMARK VINA RESULT:      -5.4      2.103      4.766
REMARK  4 active torsions:
REMARK  status: ('A' for Active; 'I' for Inactive)
REMARK    1  A    between atoms: C5_5  and  C7_7 
REMARK    2  A    between atoms: C5_5  and  C8_8 
REMARK    3  A    between atoms: C6_6  and  C8_8 
REMARK    4  A    between atoms: C6_6  and  C9_9 
ROOT
HETATM    1  C3  UNL     1     -31.432   8.262   3.590  1.00 20.00     0.010 C 
HETATM    2  C8  UNL     1     -32.573   7.514   2.898  1.00 20.00    -0.017 C 
ENDROOT
BRANCH   2   3
HETATM    3  C5  UNL     1     -33.319   8.419   1.887  1.00 20.00     0.008 C 
BRANCH   3   4
HETATM    4  C7  UNL     1     -32.438   9.302   0.979  1.00 20.00    -0.023 C 
HETATM    5  C1  UNL     1     -32.522  10.784   1.342  1.00 20.00     0.009 C 
HETATM    6  C2  UNL     1     -32.851   9.105  -0.484  1.00 20.00     0.009 C 
ENDBRANCH   3   4
ENDBRANCH   2   3
BRANCH   2   7
HETATM    7  C6  UNL     1     -33.603   6.970   3.920  1.00 20.00     0.024 C 
BRANCH   7   8
HETATM    8  C9  UNL     1     -34.197   5.586   3.617  1.00 20.00     0.078 C 
HETATM    9  C4  UNL     1     -33.233   4.752   2.777  1.00 20.00     0.026 C 
HETATM   10 CL10 UNL     1     -34.561   4.696   5.126  1.00 20.00    -0.125 Cl
ENDBRANCH   7   8
ENDBRANCH   2   7
TORSDOF 4
ENDMDL
MODEL 7
REMARK VINA RESULT:      -5.4      1.879      2.379
REMARK  4 active torsions:
REMARK  status: ('A' for Active; 'I' for Inactive)
REMARK    1  A    between atoms: C5_5  and  C7_7 
REMARK    2  A    between atoms: C5_5  and  C8_8 
REMARK    3  A    between atoms: C6_6  and  C8_8 
REMARK    4  A    between atoms: C6_6  and  C9_9 
ROOT
HETATM    1  C3  UNL     1     -31.369   8.148   3.864  1.00 20.00     0.010 C 
HETATM    2  C8  UNL     1     -32.646   7.964   3.040  1.00 20.00    -0.017 C 
ENDROOT
BRANCH   2   3
HETATM    3  C5  UNL     1     -33.206   6.527   3.167  1.00 20.00     0.008 C 
BRANCH   3   4
HETATM    4  C7  UNL     1     -34.320   6.316   4.213  1.00 20.00    -0.023 C 
HETATM    5  C1  UNL     1     -33.968   6.915   5.574  1.00 20.00     0.009 C 
HETATM    6  C2  UNL     1     -34.602   4.817   4.367  1.00 20.00     0.009 C 
ENDBRANCH   3   4
ENDBRANCH   2   3
BRANCH   2   7
HETATM    7  C6  UNL     1     -32.405   8.265   1.539  1.00 20.00     0.024 C 
BRANCH   7   8
HETATM    8  C9  UNL     1     -33.133   9.491   0.965  1.00 20.00     0.078 C 
HETATM    9  C4  UNL     1     -32.396  10.778   1.324  1.00 20.00     0.026 C 
HETATM   10 CL10 UNL     1     -33.271   9.384  -0.815  1.00 20.00    -0.125 Cl
ENDBRANCH   7   8
ENDBRANCH   2   7
TORSDOF 4
ENDMDL
MODEL 8
REMARK VINA RESULT:      -5.1      1.888      4.523
REMARK  4 active torsions:
REMARK  status: ('A' for Active; 'I' for Inactive)
REMARK    1  A    between atoms: C5_5  and  C7_7 
REMARK    2  A    between atoms: C5_5  and  C8_8 
REMARK    3  A    between atoms: C6_6  and  C8_8 
REMARK    4  A    between atoms: C6_6  and  C9_9 
ROOT
HETATM    1  C3  UNL     1     -32.860   5.332   2.520  1.00 20.00     0.010 C 
HETATM    2  C8  UNL     1     -33.548   6.699   2.546  1.00 20.00    -0.017 C 
ENDROOT
BRANCH   2   3
HETATM    3  C5  UNL     1     -32.522   7.856   2.484  1.00 20.00     0.008 C 
BRANCH   3   4
HETATM    4  C7  UNL     1     -32.525   8.706   1.197  1.00 20.00    -0.023 C 
HETATM    5  C1  UNL     1     -31.217   8.594   0.416  1.00 20.00     0.009 C 
HETATM    6  C2  UNL     1     -32.790  10.173   1.551  1.00 20.00     0.009 C 
ENDBRANCH   3   4
ENDBRANCH   2   3
BRANCH   2   7
HETATM    7  C6  UNL     1     -34.413   6.879   3.820  1.00 20.00     0.024 C 
BRANCH   7   8
HETATM    8  C9  UNL     1     -33.813   6.346   5.130  1.00 20.00     0.078 C 
HETATM    9  C4  UNL     1     -33.793   7.432   6.202  1.00 20.00     0.026 C 
HETATM   10 CL10 UNL     1     -34.747   4.950   5.745  1.00 20.00    -0.125 Cl
ENDBRANCH   7   8
ENDBRANCH   2   7
TORSDOF 4
ENDMDL
MODEL 9
REMARK VINA RESULT:      -5.0      1.960      4.126
REMARK  4 active torsions:
REMARK  status: ('A' for Active; 'I' for Inactive)
REMARK    1  A    between atoms: C5_5  and  C7_7 
REMARK    2  A    between atoms: C5_5  and  C8_8 
REMARK    3  A    between atoms: C6_6  and  C8_8 
REMARK    4  A    between atoms: C6_6  and  C9_9 
ROOT
HETATM    1  C3  UNL     1     -32.916   5.171   2.560  1.00 20.00     0.010 C 
HETATM    2  C8  UNL     1     -34.055   6.193   2.564  1.00 20.00    -0.017 C 
ENDROOT
BRANCH   2   3
HETATM    3  C5  UNL     1     -33.530   7.635   2.361  1.00 20.00     0.008 C 
BRANCH   3   4
HETATM    4  C7  UNL     1     -32.000   7.800   2.267  1.00 20.00    -0.023 C 
HETATM    5  C1  UNL     1     -31.390   8.361   3.551  1.00 20.00     0.009 C 
HETATM    6  C2  UNL     1     -31.653   8.715   1.088  1.00 20.00     0.009 C 
ENDBRANCH   3   4
ENDBRANCH   2   3
BRANCH   2   7
HETATM    7  C6  UNL     1     -34.860   6.147   3.888  1.00 20.00     0.024 C 
BRANCH   7   8
HETATM    8  C9  UNL     1     -34.043   5.948   5.174  1.00 20.00     0.078 C 
HETATM    9  C4  UNL     1     -33.897   7.262   5.935  1.00 20.00     0.026 C 
HETATM   10 CL10 UNL     1     -34.815   4.744   6.249  1.00 20.00    -0.125 Cl
ENDBRANCH   7   8
ENDBRANCH   2   7
TORSDOF 4
ENDMDL
