MODEL 1
REMARK VINA RESULT:      -5.9      0.000      0.000
REMARK  4 active torsions:
REMARK  status: ('A' for Active; 'I' for Inactive)
REMARK    1  A    between atoms: C2_2  and  C8_8 
REMARK    2  A    between atoms: C5_5  and  C9_9 
REMARK    3  A    between atoms: C8_8  and  N10_10 
REMARK    4  A    between atoms: C9_9  and  N10_10 
ROOT
HETATM    1  C1  UNL     1     -32.531   9.133   0.859  1.00 20.00    -0.109 C 
HETATM    2  C2  UNL     1     -32.181   8.686   1.918  1.00 20.00    -0.077 C 
HETATM    3  C7  UNL     1     -32.956   9.678  -0.429  1.00 20.00     0.112 C 
ENDROOT
BRANCH   2   4
HETATM    4  C8  UNL     1     -31.756   8.134   3.208  1.00 20.00     0.362 C 
BRANCH   4   5
HETATM    5  N10 UNL     1     -32.685   7.094   3.664  1.00 20.00     0.094 N 
HETATM    6  H25 UNL     1     -32.194   6.190   3.622  1.00 20.00     0.317 HD
BRANCH   5   7
HETATM    7  C9  UNL     1     -33.164   7.347   4.986  1.00 20.00     0.275 C 
BRANCH   7   8
HETATM    8  C5  UNL     1     -34.479   6.621   5.218  1.00 20.00     0.018 C 
HETATM    9  C3  UNL     1     -35.146   6.012   3.962  1.00 20.00     0.041 C 
HETATM   10  C6  UNL     1     -34.774   4.598   4.451  1.00 20.00     0.161 C 
HETATM   11  C4  UNL     1     -34.370   5.197   5.812  1.00 20.00     0.041 C 
HETATM   12  O11 UNL     1     -33.691   4.038   3.749  1.00 20.00    -0.235 OA
ENDBRANCH   7   8
ENDBRANCH   5   7
ENDBRANCH   4   5
ENDBRANCH   2   4
TORSDOF 4
ENDMDL
MODEL 2
REMARK VINA RESULT:      -5.8      1.315      1.701
REMARK  4 active torsions:
REMARK  status: ('A' for Active; 'I' for Inactive)
REMARK    1  A    between atoms: C2_2  and  C8_8 
REMARK    2  A    between atoms: C5_5  and  C9_9 
REMARK    3  A    between atoms: C8_8  and  N10_10 
REMARK    4  A    between atoms: C9_9  and  N10_10 
ROOT
HETATM    1  C1  UNL     1     -32.528   9.129   0.805  1.00 20.00    -0.109 C 
HETATM    2  C2  UNL     1     -32.167   8.763   1.891  1.00 20.00    -0.077 C 
HETATM    3  C7  UNL     1     -32.966   9.574  -0.517  1.00 20.00     0.112 C 
ENDROOT
BRANCH   2   4
HETATM    4  C8  UNL     1     -31.734   8.316   3.218  1.00 20.00     0.362 C 
BRANCH   4   5
HETATM    5  N10 UNL     1     -32.633   7.282   3.742  1.00 20.00     0.094 N 
HETATM    6  H25 UNL     1     -33.574   7.691   3.820  1.00 20.00     0.317 HD
BRANCH   5   7
HETATM    7  C9  UNL     1     -32.654   6.121   2.910  1.00 20.00     0.275 C 
BRANCH   7   8
HETATM    8  C5  UNL     1     -33.993   5.410   3.031  1.00 20.00     0.018 C 
HETATM    9  C3  UNL     1     -34.076   4.305   4.109  1.00 20.00     0.041 C 
HETATM   10  C6  UNL     1     -34.968   5.216   4.974  1.00 20.00     0.161 C 
HETATM   11  C4  UNL     1     -35.103   6.182   3.781  1.00 20.00     0.041 C 
HETATM   12  O11 UNL     1     -34.287   5.780   6.068  1.00 20.00    -0.235 OA
ENDBRANCH   7   8
ENDBRANCH   5   7
ENDBRANCH   4   5
ENDBRANCH   2   4
TORSDOF 4
ENDMDL
MODEL 3
REMARK VINA RESULT:      -5.3      1.575      2.118
REMARK  4 active torsions:
REMARK  status: ('A' for Active; 'I' for Inactive)
REMARK    1  A    between atoms: C2_2  and  C8_8 
REMARK    2  A    between atoms: C5_5  and  C9_9 
REMARK    3  A    between atoms: C8_8  and  N10_10 
REMARK    4  A    between atoms: C9_9  and  N10_10 
ROOT
HETATM    1  C1  UNL     1     -32.470   9.238   1.490  1.00 20.00    -0.109 C 
HETATM    2  C2  UNL     1     -32.385   8.216   2.114  1.00 20.00    -0.077 C 
HETATM    3  C7  UNL     1     -32.572  10.483   0.729  1.00 20.00     0.112 C 
ENDROOT
BRANCH   2   4
HETATM    4  C8  UNL     1     -32.286   6.970   2.882  1.00 20.00     0.362 C 
BRANCH   4   5
HETATM    5  N10 UNL     1     -33.270   5.988   2.416  1.00 20.00     0.094 N 
HETATM    6  H25 UNL     1     -33.101   5.820   1.415  1.00 20.00     0.317 HD
BRANCH   5   7
HETATM    7  C9  UNL     1     -33.195   4.766   3.152  1.00 20.00     0.275 C 
BRANCH   7   8
HETATM    8  C5  UNL     1     -34.412   4.617   4.052  1.00 20.00     0.018 C 
HETATM    9  C3  UNL     1     -34.129   4.591   5.572  1.00 20.00     0.041 C 
HETATM   10  C6  UNL     1     -34.735   6.002   5.709  1.00 20.00     0.161 C 
HETATM   11  C4  UNL     1     -35.257   5.895   4.263  1.00 20.00     0.041 C 
HETATM   12  O11 UNL     1     -33.765   7.007   5.874  1.00 20.00    -0.235 OA
ENDBRANCH   7   8
ENDBRANCH   5   7
ENDBRANCH   4   5
ENDBRANCH   2   4
TORSDOF 4
ENDMDL
MODEL 4
REMARK VINA RESULT:      -4.9      2.339      5.541
REMARK  4 active torsions:
REMARK  status: ('A' for Active; 'I' for Inactive)
REMARK    1  A    between atoms: C2_2  and  C8_8 
REMARK    2  A    between atoms: C5_5  and  C9_9 
REMARK    3  A    between atoms: C8_8  and  N10_10 
REMARK    4  A    between atoms: C9_9  and  N10_10 
ROOT
HETATM    1  C1  UNL     1     -34.418   5.346   4.812  1.00 20.00    -0.109 C 
HETATM    2  C2  UNL     1     -34.078   5.622   3.693  1.00 20.00    -0.077 C 
HETATM    3  C7  UNL     1     -34.833   5.011   6.173  1.00 20.00     0.112 C 
ENDROOT
BRANCH   2   4
HETATM    4  C8  UNL     1     -33.657   5.954   2.328  1.00 20.00     0.362 C 
BRANCH   4   5
HETATM    5  N10 UNL     1     -32.517   6.877   2.341  1.00 20.00     0.094 N 
HETATM    6  H25 UNL     1     -32.100   6.877   1.401  1.00 20.00     0.317 HD
BRANCH   5   7
HETATM    7  C9  UNL     1     -32.905   8.198   2.721  1.00 20.00     0.275 C 
BRANCH   7   8
HETATM    8  C5  UNL     1     -32.053   9.227   1.995  1.00 20.00     0.018 C 
HETATM    9  C3  UNL     1     -31.500   8.795   0.616  1.00 20.00     0.041 C 
HETATM   10  C6  UNL     1     -32.487   9.754  -0.079  1.00 20.00     0.161 C 
HETATM   11  C4  UNL     1     -32.823  10.369   1.293  1.00 20.00     0.041 C 
HETATM   12  O11 UNL     1     -33.577   9.092  -0.671  1.00 20.00    -0.235 OA
ENDBRANCH   7   8
ENDBRANCH   5   7
ENDBRANCH   4   5
ENDBRANCH   2   4
TORSDOF 4
ENDMDL
MODEL 5
REMARK VINA RESULT:      -4.3     11.220     12.067
REMARK  4 active torsions:
REMARK  status: ('A' for Active; 'I' for Inactive)
REMARK    1  A    between atoms: C2_2  and  C8_8 
REMARK    2  A    between atoms: C5_5  and  C9_9 
REMARK    3  A    between atoms: C8_8  and  N10_10 
REMARK    4  A    between atoms: C9_9  and  N10_10 
ROOT
HETATM    1  C1  UNL     1     -34.884  17.211  -0.864  1.00 20.00    -0.109 C 
HETATM    2  C2  UNL     1     -34.295  16.985  -1.886  1.00 20.00    -0.077 C 
HETATM    3  C7  UNL     1     -35.601  17.487   0.380  1.00 20.00     0.112 C 
ENDROOT
BRANCH   2   4
HETATM    4  C8  UNL     1     -33.579  16.702  -3.134  1.00 20.00     0.362 C 
BRANCH   4   5
HETATM    5  N10 UNL     1     -34.019  15.428  -3.714  1.00 20.00     0.094 N 
HETATM    6  H25 UNL     1     -35.028  15.497  -3.901  1.00 20.00     0.317 HD
BRANCH   5   7
HETATM    7  C9  UNL     1     -33.304  15.110  -4.909  1.00 20.00     0.275 C 
BRANCH   7   8
HETATM    8  C5  UNL     1     -34.244  15.124  -6.104  1.00 20.00     0.018 C 
HETATM    9  C3  UNL     1     -34.401  13.782  -6.856  1.00 20.00     0.041 C 
HETATM   10  C6  UNL     1     -35.824  13.628  -6.283  1.00 20.00     0.161 C 
HETATM   11  C4  UNL     1     -35.755  15.081  -5.777  1.00 20.00     0.041 C 
HETATM   12  O11 UNL     1     -35.902  12.683  -5.245  1.00 20.00    -0.235 OA
ENDBRANCH   7   8
ENDBRANCH   5   7
ENDBRANCH   4   5
ENDBRANCH   2   4
TORSDOF 4
ENDMDL
MODEL 6
REMARK VINA RESULT:      -4.3     11.533     12.309
REMARK  4 active torsions:
REMARK  status: ('A' for Active; 'I' for Inactive)
REMARK    1  A    between atoms: C2_2  and  C8_8 
REMARK    2  A    between atoms: C5_5  and  C9_9 
REMARK    3  A    between atoms: C8_8  and  N10_10 
REMARK    4  A    between atoms: C9_9  and  N10_10 
ROOT
HETATM    1  C1  UNL     1     -34.381  16.257  -2.858  1.00 20.00    -0.109 C 
HETATM    2  C2  UNL     1     -33.742  15.853  -3.791  1.00 20.00    -0.077 C 
HETATM    3  C7  UNL     1     -35.158  16.750  -1.722  1.00 20.00     0.112 C 
ENDROOT
BRANCH   2   4
HETATM    4  C8  UNL     1     -32.958  15.357  -4.927  1.00 20.00     0.362 C 
BRANCH   4   5
HETATM    5  N10 UNL     1     -33.495  14.084  -5.418  1.00 20.00     0.094 N 
HETATM    6  H25 UNL     1     -34.135  13.713  -4.703  1.00 20.00     0.317 HD
BRANCH   5   7
HETATM    7  C9  UNL     1     -34.169  14.235  -6.669  1.00 20.00     0.275 C 
BRANCH   7   8
HETATM    8  C5  UNL     1     -35.513  13.525  -6.632  1.00 20.00     0.018 C 
HETATM    9  C3  UNL     1     -36.188  13.426  -5.244  1.00 20.00     0.041 C 
HETATM   10  C6  UNL     1     -37.236  14.469  -5.680  1.00 20.00     0.161 C 
HETATM   11  C4  UNL     1     -36.726  14.346  -7.129  1.00 20.00     0.041 C 
HETATM   12  O11 UNL     1     -37.015  15.741  -5.122  1.00 20.00    -0.235 OA
ENDBRANCH   7   8
ENDBRANCH   5   7
ENDBRANCH   4   5
ENDBRANCH   2   4
TORSDOF 4
ENDMDL
MODEL 7
REMARK VINA RESULT:      -4.3     11.493     12.723
REMARK  4 active torsions:
REMARK  status: ('A' for Active; 'I' for Inactive)
REMARK    1  A    between atoms: C2_2  and  C8_8 
REMARK    2  A    between atoms: C5_5  and  C9_9 
REMARK    3  A    between atoms: C8_8  and  N10_10 
REMARK    4  A    between atoms: C9_9  and  N10_10 
ROOT
HETATM    1  C1  UNL     1     -34.458  16.162  -2.794  1.00 20.00    -0.109 C 
HETATM    2  C2  UNL     1     -33.803  15.554  -3.596  1.00 20.00    -0.077 C 
HETATM    3  C7  UNL     1     -35.255  16.903  -1.817  1.00 20.00     0.112 C 
ENDROOT
BRANCH   2   4
HETATM    4  C8  UNL     1     -33.007  14.805  -4.574  1.00 20.00     0.362 C 
BRANCH   4   5
HETATM    5  N10 UNL     1     -32.974  15.500  -5.865  1.00 20.00     0.094 N 
HETATM    6  H25 UNL     1     -32.634  14.836  -6.574  1.00 20.00     0.317 HD
BRANCH   5   7
HETATM    7  C9  UNL     1     -34.257  16.013  -6.228  1.00 20.00     0.275 C 
BRANCH   7   8
HETATM    8  C5  UNL     1     -34.745  15.353  -7.508  1.00 20.00     0.018 C 
HETATM    9  C3  UNL     1     -34.061  14.018  -7.884  1.00 20.00     0.041 C 
HETATM   10  C6  UNL     1     -35.345  13.254  -7.509  1.00 20.00     0.161 C 
HETATM   11  C4  UNL     1     -36.091  14.599  -7.409  1.00 20.00     0.041 C 
HETATM   12  O11 UNL     1     -35.249  12.583  -6.277  1.00 20.00    -0.235 OA
ENDBRANCH   7   8
ENDBRANCH   5   7
ENDBRANCH   4   5
ENDBRANCH   2   4
TORSDOF 4
ENDMDL
MODEL 8
REMARK VINA RESULT:      -4.0     10.003     11.442
REMARK  4 active torsions:
REMARK  status: ('A' for Active; 'I' for Inactive)
REMARK    1  A    between atoms: C2_2  and  C8_8 
REMARK    2  A    between atoms: C5_5  and  C9_9 
REMARK    3  A    between atoms: C8_8  and  N10_10 
REMARK    4  A    between atoms: C9_9  and  N10_10 
ROOT
HETATM    1  C1  UNL     1     -42.356   0.982  -3.708  1.00 20.00    -0.109 C 
HETATM    2  C2  UNL     1     -42.683   2.097  -3.403  1.00 20.00    -0.077 C 
HETATM    3  C7  UNL     1     -41.957  -0.375  -4.080  1.00 20.00     0.112 C 
ENDROOT
BRANCH   2   4
HETATM    4  C8  UNL     1     -43.077   3.458  -3.026  1.00 20.00     0.362 C 
BRANCH   4   5
HETATM    5  N10 UNL     1     -42.339   3.908  -1.842  1.00 20.00     0.094 N 
HETATM    6  H25 UNL     1     -41.413   4.234  -2.151  1.00 20.00     0.317 HD
BRANCH   5   7
HETATM    7  C9  UNL     1     -43.031   4.943  -1.142  1.00 20.00     0.275 C 
BRANCH   7   8
HETATM    8  C5  UNL     1     -42.166   5.489  -0.017  1.00 20.00     0.018 C 
HETATM    9  C3  UNL     1     -40.800   6.079  -0.439  1.00 20.00     0.041 C 
HETATM   10  C6  UNL     1     -41.324   7.499  -0.147  1.00 20.00     0.161 C 
HETATM   11  C4  UNL     1     -42.563   6.881   0.528  1.00 20.00     0.041 C 
HETATM   12  O11 UNL     1     -41.632   8.225  -1.311  1.00 20.00    -0.235 OA
ENDBRANCH   7   8
ENDBRANCH   5   7
ENDBRANCH   4   5
ENDBRANCH   2   4
TORSDOF 4
ENDMDL
MODEL 9
REMARK VINA RESULT:      -4.0     11.497     12.626
REMARK  4 active torsions:
REMARK  status: ('A' for Active; 'I' for Inactive)
REMARK    1  A    between atoms: C2_2  and  C8_8 
REMARK    2  A    between atoms: C5_5  and  C9_9 
REMARK    3  A    between atoms: C8_8  and  N10_10 
REMARK    4  A    between atoms: C9_9  and  N10_10 
ROOT
HETATM    1  C1  UNL     1     -37.345  14.262  -5.688  1.00 20.00    -0.109 C 
HETATM    2  C2  UNL     1     -36.442  13.814  -6.341  1.00 20.00    -0.077 C 
HETATM    3  C7  UNL     1     -38.444  14.808  -4.893  1.00 20.00     0.112 C 
ENDROOT
BRANCH   2   4
HETATM    4  C8  UNL     1     -35.338  13.273  -7.140  1.00 20.00     0.362 C 
BRANCH   4   5
HETATM    5  N10 UNL     1     -34.043  13.710  -6.607  1.00 20.00     0.094 N 
HETATM    6  H25 UNL     1     -33.305  13.196  -7.108  1.00 20.00     0.317 HD
BRANCH   5   7
HETATM    7  C9  UNL     1     -33.858  15.120  -6.744  1.00 20.00     0.275 C 
BRANCH   7   8
HETATM    8  C5  UNL     1     -32.971  15.645  -5.626  1.00 20.00     0.018 C 
HETATM    9  C3  UNL     1     -33.533  16.840  -4.821  1.00 20.00     0.041 C 
HETATM   10  C6  UNL     1     -33.773  15.914  -3.614  1.00 20.00     0.161 C 
HETATM   11  C4  UNL     1     -32.961  14.813  -4.322  1.00 20.00     0.041 C 
HETATM   12  O11 UNL     1     -35.127  15.576  -3.436  1.00 20.00    -0.235 OA
ENDBRANCH   7   8
ENDBRANCH   5   7
ENDBRANCH   4   5
ENDBRANCH   2   4
TORSDOF 4
ENDMDL
