MODEL 1
REMARK VINA RESULT:      -6.4      0.000      0.000
REMARK  0 active torsions:
REMARK  status: ('A' for Active; 'I' for Inactive)
ROOT
HETATM    1  C1  UNL     1     -33.222   7.114   3.843  1.00 20.00    -0.085 C 
HETATM    2  C2  UNL     1     -32.205   7.724   3.222  1.00 20.00     0.014 C 
HETATM    3  C3  UNL     1     -33.611   7.350   5.279  1.00 20.00     0.034 C 
HETATM    4  C4  UNL     1     -34.208   6.081   5.916  1.00 20.00     0.009 C 
HETATM    5  C5  UNL     1     -33.820   4.661   3.803  1.00 20.00     0.013 C 
HETATM    6  C6  UNL     1     -35.486   5.948   3.654  1.00 20.00     0.013 C 
HETATM    7  C7  UNL     1     -34.012   6.058   3.130  1.00 20.00     0.014 C 
HETATM    8  C8  UNL     1     -34.854   5.177   4.853  1.00 20.00    -0.013 C 
ENDROOT
TORSDOF 0
ENDMDL
MODEL 2
REMARK VINA RESULT:      -5.9      1.030      2.061
REMARK  0 active torsions:
REMARK  status: ('A' for Active; 'I' for Inactive)
ROOT
HETATM    1  C1  UNL     1     -34.041   6.630   5.243  1.00 20.00    -0.085 C 
HETATM    2  C2  UNL     1     -33.656   7.513   6.172  1.00 20.00     0.014 C 
HETATM    3  C3  UNL     1     -34.564   5.249   5.544  1.00 20.00     0.034 C 
HETATM    4  C4  UNL     1     -34.200   4.254   4.425  1.00 20.00     0.009 C 
HETATM    5  C5  UNL     1     -32.858   6.009   3.102  1.00 20.00     0.013 C 
HETATM    6  C6  UNL     1     -34.947   6.219   2.892  1.00 20.00     0.013 C 
HETATM    7  C7  UNL     1     -33.894   6.956   3.788  1.00 20.00     0.014 C 
HETATM    8  C8  UNL     1     -34.026   4.974   3.076  1.00 20.00    -0.013 C 
ENDROOT
TORSDOF 0
ENDMDL
MODEL 3
REMARK VINA RESULT:      -5.5      0.699      2.398
REMARK  0 active torsions:
REMARK  status: ('A' for Active; 'I' for Inactive)
ROOT
HETATM    1  C1  UNL     1     -33.649   6.937   5.101  1.00 20.00    -0.085 C 
HETATM    2  C2  UNL     1     -33.807   7.593   6.257  1.00 20.00     0.014 C 
HETATM    3  C3  UNL     1     -32.718   7.365   3.997  1.00 20.00     0.034 C 
HETATM    4  C4  UNL     1     -33.263   6.963   2.613  1.00 20.00     0.009 C 
HETATM    5  C5  UNL     1     -35.441   5.996   3.590  1.00 20.00     0.013 C 
HETATM    6  C6  UNL     1     -33.775   4.724   3.834  1.00 20.00     0.013 C 
HETATM    7  C7  UNL     1     -34.488   5.731   4.800  1.00 20.00     0.014 C 
HETATM    8  C8  UNL     1     -34.177   5.730   2.713  1.00 20.00    -0.013 C 
ENDROOT
TORSDOF 0
ENDMDL
MODEL 4
REMARK VINA RESULT:      -5.2      0.855      2.044
REMARK  0 active torsions:
REMARK  status: ('A' for Active; 'I' for Inactive)
ROOT
HETATM    1  C1  UNL     1     -33.146   6.740   3.181  1.00 20.00    -0.085 C 
HETATM    2  C2  UNL     1     -32.728   7.757   2.419  1.00 20.00     0.014 C 
HETATM    3  C3  UNL     1     -32.671   5.317   3.040  1.00 20.00     0.034 C 
HETATM    4  C4  UNL     1     -33.775   4.315   3.429  1.00 20.00     0.009 C 
HETATM    5  C5  UNL     1     -35.512   6.168   3.851  1.00 20.00     0.013 C 
HETATM    6  C6  UNL     1     -34.109   5.963   5.415  1.00 20.00     0.013 C 
HETATM    7  C7  UNL     1     -34.214   6.960   4.210  1.00 20.00     0.014 C 
HETATM    8  C8  UNL     1     -34.758   4.933   4.438  1.00 20.00    -0.013 C 
ENDROOT
TORSDOF 0
ENDMDL
MODEL 5
REMARK VINA RESULT:      -5.0      1.042      2.117
REMARK  0 active torsions:
REMARK  status: ('A' for Active; 'I' for Inactive)
ROOT
HETATM    1  C1  UNL     1     -33.322   5.208   3.008  1.00 20.00    -0.085 C 
HETATM    2  C2  UNL     1     -32.710   4.251   2.299  1.00 20.00     0.014 C 
HETATM    3  C3  UNL     1     -32.891   6.651   3.046  1.00 20.00     0.034 C 
HETATM    4  C4  UNL     1     -33.206   7.297   4.408  1.00 20.00     0.009 C 
HETATM    5  C5  UNL     1     -34.111   5.101   5.404  1.00 20.00     0.013 C 
HETATM    6  C6  UNL     1     -35.470   6.052   4.100  1.00 20.00     0.013 C 
HETATM    7  C7  UNL     1     -34.472   4.859   3.904  1.00 20.00     0.014 C 
HETATM    8  C8  UNL     1     -34.398   6.603   5.090  1.00 20.00    -0.013 C 
ENDROOT
TORSDOF 0
ENDMDL
MODEL 6
REMARK VINA RESULT:      -4.9      1.025      2.991
REMARK  0 active torsions:
REMARK  status: ('A' for Active; 'I' for Inactive)
ROOT
HETATM    1  C1  UNL     1     -34.443   5.224   4.842  1.00 20.00    -0.085 C 
HETATM    2  C2  UNL     1     -34.719   5.063   6.142  1.00 20.00     0.014 C 
HETATM    3  C3  UNL     1     -33.962   4.126   3.929  1.00 20.00     0.034 C 
HETATM    4  C4  UNL     1     -33.038   4.676   2.826  1.00 20.00     0.009 C 
HETATM    5  C5  UNL     1     -33.120   7.078   3.752  1.00 20.00     0.013 C 
HETATM    6  C6  UNL     1     -34.858   6.530   2.687  1.00 20.00     0.013 C 
HETATM    7  C7  UNL     1     -34.528   6.584   4.219  1.00 20.00     0.014 C 
HETATM    8  C8  UNL     1     -33.355   6.150   2.519  1.00 20.00    -0.013 C 
ENDROOT
TORSDOF 0
ENDMDL
MODEL 7
REMARK VINA RESULT:      -4.6      0.936      2.657
REMARK  0 active torsions:
REMARK  status: ('A' for Active; 'I' for Inactive)
ROOT
HETATM    1  C1  UNL     1     -34.100   6.045   5.003  1.00 20.00    -0.085 C 
HETATM    2  C2  UNL     1     -34.869   5.742   6.056  1.00 20.00     0.014 C 
HETATM    3  C3  UNL     1     -33.159   7.221   4.944  1.00 20.00     0.034 C 
HETATM    4  C4  UNL     1     -33.028   7.764   3.508  1.00 20.00     0.009 C 
HETATM    5  C5  UNL     1     -34.755   6.102   2.565  1.00 20.00     0.013 C 
HETATM    6  C6  UNL     1     -32.865   5.234   2.921  1.00 20.00     0.013 C 
HETATM    7  C7  UNL     1     -34.199   5.239   3.743  1.00 20.00     0.014 C 
HETATM    8  C8  UNL     1     -33.301   6.662   2.470  1.00 20.00    -0.013 C 
ENDROOT
TORSDOF 0
ENDMDL
MODEL 8
REMARK VINA RESULT:      -4.3      1.080      2.372
REMARK  0 active torsions:
REMARK  status: ('A' for Active; 'I' for Inactive)
ROOT
HETATM    1  C1  UNL     1     -33.391   4.832   3.236  1.00 20.00    -0.085 C 
HETATM    2  C2  UNL     1     -32.961   4.362   2.059  1.00 20.00     0.014 C 
HETATM    3  C3  UNL     1     -33.511   4.008   4.492  1.00 20.00     0.034 C 
HETATM    4  C4  UNL     1     -34.667   4.503   5.381  1.00 20.00     0.009 C 
HETATM    5  C5  UNL     1     -35.396   6.299   3.686  1.00 20.00     0.013 C 
HETATM    6  C6  UNL     1     -33.680   6.837   4.791  1.00 20.00     0.013 C 
HETATM    7  C7  UNL     1     -33.870   6.248   3.351  1.00 20.00     0.014 C 
HETATM    8  C8  UNL     1     -34.945   5.998   5.150  1.00 20.00    -0.013 C 
ENDROOT
TORSDOF 0
ENDMDL
MODEL 9
REMARK VINA RESULT:      -3.7     11.902     12.627
REMARK  0 active torsions:
REMARK  status: ('A' for Active; 'I' for Inactive)
ROOT
HETATM    1  C1  UNL     1     -34.744  16.013  -3.309  1.00 20.00    -0.085 C 
HETATM    2  C2  UNL     1     -34.773  16.576  -2.095  1.00 20.00     0.014 C 
HETATM    3  C3  UNL     1     -35.931  15.376  -3.984  1.00 20.00     0.034 C 
HETATM    4  C4  UNL     1     -35.500  14.213  -4.899  1.00 20.00     0.009 C 
HETATM    5  C5  UNL     1     -33.019  14.424  -4.245  1.00 20.00     0.013 C 
HETATM    6  C6  UNL     1     -33.652  15.899  -5.615  1.00 20.00     0.013 C 
HETATM    7  C7  UNL     1     -33.450  15.915  -4.061  1.00 20.00     0.014 C 
HETATM    8  C8  UNL     1     -34.062  14.408  -5.406  1.00 20.00    -0.013 C 
ENDROOT
TORSDOF 0
ENDMDL
