MODEL 1
REMARK VINA RESULT:      -5.5      0.000      0.000
REMARK  3 active torsions:
REMARK  status: ('A' for Active; 'I' for Inactive)
REMARK    1  A    between atoms: C3_3  and  N7_7 
REMARK    2  A    between atoms: C5_5  and  C6_6 
REMARK    3  A    between atoms: C5_5  and  N7_7 
ROOT
HETATM    1  N7  UNL     1     -31.978   7.912   3.044  1.00 20.00     0.093 N 
HETATM    2  H20 UNL     1     -31.382   7.096   3.179  1.00 20.00     0.316 HD
ENDROOT
BRANCH   1   3
HETATM    3  C3  UNL     1     -33.373   7.504   3.122  1.00 20.00     0.223 C 
HETATM    4  C1  UNL     1     -33.477   5.989   2.839  1.00 20.00     0.055 C 
HETATM    5  C4  UNL     1     -34.463   5.927   4.035  1.00 20.00     0.086 C 
HETATM    6  C2  UNL     1     -33.727   7.175   4.590  1.00 20.00     0.055 C 
HETATM    7 CL10 UNL     1     -34.517   4.448   5.032  1.00 20.00    -0.125 Cl
ENDBRANCH   1   3
BRANCH   1   8
HETATM    8  C5  UNL     1     -31.684   8.512   1.750  1.00 20.00     0.340 C 
BRANCH   8   9
HETATM    9  C6  UNL     1     -32.820   9.411   1.310  1.00 20.00     0.381 C 
HETATM   10  F8  UNL     1     -33.039   9.262  -0.020  1.00 20.00    -0.213 F 
HETATM   11  F9  UNL     1     -32.461  10.707   1.498  1.00 20.00    -0.213 F 
ENDBRANCH   8   9
ENDBRANCH   1   8
TORSDOF 3
ENDMDL
MODEL 2
REMARK VINA RESULT:      -5.3      0.932      1.123
REMARK  3 active torsions:
REMARK  status: ('A' for Active; 'I' for Inactive)
REMARK    1  A    between atoms: C3_3  and  N7_7 
REMARK    2  A    between atoms: C5_5  and  C6_6 
REMARK    3  A    between atoms: C5_5  and  N7_7 
ROOT
HETATM    1  N7  UNL     1     -32.173   7.529   2.596  1.00 20.00     0.093 N 
HETATM    2  H20 UNL     1     -31.804   7.004   1.804  1.00 20.00     0.316 HD
ENDROOT
BRANCH   1   3
HETATM    3  C3  UNL     1     -33.547   7.118   2.845  1.00 20.00     0.223 C 
HETATM    4  C1  UNL     1     -33.606   5.578   2.957  1.00 20.00     0.055 C 
HETATM    5  C4  UNL     1     -34.537   5.795   4.179  1.00 20.00     0.086 C 
HETATM    6  C2  UNL     1     -33.826   7.162   4.364  1.00 20.00     0.055 C 
HETATM    7 CL10 UNL     1     -34.493   4.616   5.516  1.00 20.00    -0.125 Cl
ENDBRANCH   1   3
BRANCH   1   8
HETATM    8  C5  UNL     1     -32.102   8.954   2.304  1.00 20.00     0.340 C 
BRANCH   8   9
HETATM    9  C6  UNL     1     -31.869   9.182   0.825  1.00 20.00     0.381 C 
HETATM   10  F8  UNL     1     -33.010   8.940   0.133  1.00 20.00    -0.213 F 
HETATM   11  F9  UNL     1     -30.949   8.289   0.376  1.00 20.00    -0.213 F 
ENDBRANCH   8   9
ENDBRANCH   1   8
TORSDOF 3
ENDMDL
MODEL 3
REMARK VINA RESULT:      -5.2      1.053      1.699
REMARK  3 active torsions:
REMARK  status: ('A' for Active; 'I' for Inactive)
REMARK    1  A    between atoms: C3_3  and  N7_7 
REMARK    2  A    between atoms: C5_5  and  C6_6 
REMARK    3  A    between atoms: C5_5  and  N7_7 
ROOT
HETATM    1  N7  UNL     1     -32.098   8.859   2.586  1.00 20.00     0.093 N 
HETATM    2  H20 UNL     1     -31.307   9.372   2.974  1.00 20.00     0.316 HD
ENDROOT
BRANCH   1   3
HETATM    3  C3  UNL     1     -32.143   7.530   3.178  1.00 20.00     0.223 C 
HETATM    4  C1  UNL     1     -33.132   7.533   4.365  1.00 20.00     0.055 C 
HETATM    5  C4  UNL     1     -33.655   6.181   3.813  1.00 20.00     0.086 C 
HETATM    6  C2  UNL     1     -33.177   6.668   2.420  1.00 20.00     0.055 C 
HETATM    7 CL10 UNL     1     -35.376   5.768   4.034  1.00 20.00    -0.125 Cl
ENDBRANCH   1   3
BRANCH   1   8
HETATM    8  C5  UNL     1     -31.957   8.779   1.140  1.00 20.00     0.340 C 
BRANCH   8   9
HETATM    9  C6  UNL     1     -32.628   9.962   0.473  1.00 20.00     0.381 C 
HETATM   10  F8  UNL     1     -33.405  10.619   1.369  1.00 20.00    -0.213 F 
HETATM   11  F9  UNL     1     -33.460   9.512  -0.501  1.00 20.00    -0.213 F 
ENDBRANCH   8   9
ENDBRANCH   1   8
TORSDOF 3
ENDMDL
MODEL 4
REMARK VINA RESULT:      -5.1      4.125      5.066
REMARK  3 active torsions:
REMARK  status: ('A' for Active; 'I' for Inactive)
REMARK    1  A    between atoms: C3_3  and  N7_7 
REMARK    2  A    between atoms: C5_5  and  C6_6 
REMARK    3  A    between atoms: C5_5  and  N7_7 
ROOT
HETATM    1  N7  UNL     1     -33.527   6.830   4.377  1.00 20.00     0.093 N 
HETATM    2  H20 UNL     1     -33.851   7.760   4.638  1.00 20.00     0.316 HD
ENDROOT
BRANCH   1   3
HETATM    3  C3  UNL     1     -32.589   6.942   3.269  1.00 20.00     0.223 C 
HETATM    4  C1  UNL     1     -33.320   7.527   2.040  1.00 20.00     0.055 C 
HETATM    5  C4  UNL     1     -32.070   8.424   1.840  1.00 20.00     0.086 C 
HETATM    6  C2  UNL     1     -31.840   8.290   3.369  1.00 20.00     0.055 C 
HETATM    7 CL10 UNL     1     -32.281  10.053   1.144  1.00 20.00    -0.125 Cl
ENDBRANCH   1   3
BRANCH   1   8
HETATM    8  C5  UNL     1     -34.672   6.010   4.007  1.00 20.00     0.340 C 
BRANCH   8   9
HETATM    9  C6  UNL     1     -34.734   4.764   4.865  1.00 20.00     0.381 C 
HETATM   10  F8  UNL     1     -34.177   5.008   6.077  1.00 20.00    -0.213 F 
HETATM   11  F9  UNL     1     -33.987   3.788   4.288  1.00 20.00    -0.213 F 
ENDBRANCH   8   9
ENDBRANCH   1   8
TORSDOF 3
ENDMDL
MODEL 5
REMARK VINA RESULT:      -4.9      4.178      5.036
REMARK  3 active torsions:
REMARK  status: ('A' for Active; 'I' for Inactive)
REMARK    1  A    between atoms: C3_3  and  N7_7 
REMARK    2  A    between atoms: C5_5  and  C6_6 
REMARK    3  A    between atoms: C5_5  and  N7_7 
ROOT
HETATM    1  N7  UNL     1     -33.268   7.124   4.471  1.00 20.00     0.093 N 
HETATM    2  H20 UNL     1     -33.592   8.064   4.693  1.00 20.00     0.316 HD
ENDROOT
BRANCH   1   3
HETATM    3  C3  UNL     1     -32.421   7.176   3.287  1.00 20.00     0.223 C 
HETATM    4  C1  UNL     1     -33.258   7.668   2.085  1.00 20.00     0.055 C 
HETATM    5  C4  UNL     1     -32.045   8.568   1.728  1.00 20.00     0.086 C 
HETATM    6  C2  UNL     1     -31.694   8.538   3.239  1.00 20.00     0.055 C 
HETATM    7 CL10 UNL     1     -32.343  10.143   0.946  1.00 20.00    -0.125 Cl
ENDBRANCH   1   3
BRANCH   1   8
HETATM    8  C5  UNL     1     -34.417   6.259   4.249  1.00 20.00     0.340 C 
BRANCH   8   9
HETATM    9  C6  UNL     1     -34.281   4.978   5.046  1.00 20.00     0.381 C 
HETATM   10  F8  UNL     1     -34.688   3.922   4.299  1.00 20.00    -0.213 F 
HETATM   11  F9  UNL     1     -35.112   5.032   6.120  1.00 20.00    -0.213 F 
ENDBRANCH   8   9
ENDBRANCH   1   8
TORSDOF 3
ENDMDL
MODEL 6
REMARK VINA RESULT:      -4.5      3.484      4.518
REMARK  3 active torsions:
REMARK  status: ('A' for Active; 'I' for Inactive)
REMARK    1  A    between atoms: C3_3  and  N7_7 
REMARK    2  A    between atoms: C5_5  and  C6_6 
REMARK    3  A    between atoms: C5_5  and  N7_7 
ROOT
HETATM    1  N7  UNL     1     -32.119   7.276   3.118  1.00 20.00     0.093 N 
HETATM    2  H20 UNL     1     -31.399   7.073   3.811  1.00 20.00     0.316 HD
ENDROOT
BRANCH   1   3
HETATM    3  C3  UNL     1     -31.868   8.587   2.537  1.00 20.00     0.223 C 
HETATM    4  C1  UNL     1     -31.483   8.420   1.050  1.00 20.00     0.055 C 
HETATM    5  C4  UNL     1     -32.430   9.616   0.767  1.00 20.00     0.086 C 
HETATM    6  C2  UNL     1     -33.202   9.191   2.044  1.00 20.00     0.055 C 
HETATM    7 CL10 UNL     1     -33.306   9.672  -0.787  1.00 20.00    -0.125 Cl
ENDBRANCH   1   3
BRANCH   1   8
HETATM    8  C5  UNL     1     -33.426   7.233   3.758  1.00 20.00     0.340 C 
BRANCH   8   9
HETATM    9  C6  UNL     1     -34.052   5.863   3.599  1.00 20.00     0.381 C 
HETATM   10  F8  UNL     1     -33.541   5.245   2.505  1.00 20.00    -0.213 F 
HETATM   11  F9  UNL     1     -35.384   6.006   3.373  1.00 20.00    -0.213 F 
ENDBRANCH   8   9
ENDBRANCH   1   8
TORSDOF 3
ENDMDL
MODEL 7
REMARK VINA RESULT:      -4.5      3.520      4.512
REMARK  3 active torsions:
REMARK  status: ('A' for Active; 'I' for Inactive)
REMARK    1  A    between atoms: C3_3  and  N7_7 
REMARK    2  A    between atoms: C5_5  and  C6_6 
REMARK    3  A    between atoms: C5_5  and  N7_7 
ROOT
HETATM    1  N7  UNL     1     -32.047   7.528   3.321  1.00 20.00     0.093 N 
HETATM    2  H20 UNL     1     -31.993   7.722   4.320  1.00 20.00     0.316 HD
ENDROOT
BRANCH   1   3
HETATM    3  C3  UNL     1     -31.743   8.744   2.580  1.00 20.00     0.223 C 
HETATM    4  C1  UNL     1     -31.455   8.383   1.105  1.00 20.00     0.055 C 
HETATM    5  C4  UNL     1     -32.335   9.605   0.731  1.00 20.00     0.086 C 
HETATM    6  C2  UNL     1     -33.060   9.384   2.085  1.00 20.00     0.055 C 
HETATM    7 CL10 UNL     1     -33.292   9.549  -0.774  1.00 20.00    -0.125 Cl
ENDBRANCH   1   3
BRANCH   1   8
HETATM    8  C5  UNL     1     -33.381   7.043   2.997  1.00 20.00     0.340 C 
BRANCH   8   9
HETATM    9  C6  UNL     1     -34.030   6.417   4.214  1.00 20.00     0.381 C 
HETATM   10  F8  UNL     1     -35.300   6.041   3.920  1.00 20.00    -0.213 F 
HETATM   11  F9  UNL     1     -34.122   7.348   5.199  1.00 20.00    -0.213 F 
ENDBRANCH   8   9
ENDBRANCH   1   8
TORSDOF 3
ENDMDL
MODEL 8
REMARK VINA RESULT:      -3.9     10.434     11.043
REMARK  3 active torsions:
REMARK  status: ('A' for Active; 'I' for Inactive)
REMARK    1  A    between atoms: C3_3  and  N7_7 
REMARK    2  A    between atoms: C5_5  and  C6_6 
REMARK    3  A    between atoms: C5_5  and  N7_7 
ROOT
HETATM    1  N7  UNL     1     -33.860  13.858  -6.290  1.00 20.00     0.093 N 
HETATM    2  H20 UNL     1     -33.316  13.749  -7.145  1.00 20.00     0.316 HD
ENDROOT
BRANCH   1   3
HETATM    3  C3  UNL     1     -35.270  13.655  -6.592  1.00 20.00     0.223 C 
HETATM    4  C1  UNL     1     -36.014  13.249  -5.300  1.00 20.00     0.055 C 
HETATM    5  C4  UNL     1     -37.123  14.241  -5.737  1.00 20.00     0.086 C 
HETATM    6  C2  UNL     1     -36.011  15.008  -6.501  1.00 20.00     0.055 C 
HETATM    7 CL10 UNL     1     -38.052  15.103  -4.481  1.00 20.00    -0.125 Cl
ENDBRANCH   1   3
BRANCH   1   8
HETATM    8  C5  UNL     1     -33.632  15.187  -5.741  1.00 20.00     0.340 C 
BRANCH   8   9
HETATM    9  C6  UNL     1     -33.059  15.094  -4.342  1.00 20.00     0.381 C 
HETATM   10  F8  UNL     1     -32.518  13.866  -4.144  1.00 20.00    -0.213 F 
HETATM   11  F9  UNL     1     -34.066  15.220  -3.439  1.00 20.00    -0.213 F 
ENDBRANCH   8   9
ENDBRANCH   1   8
TORSDOF 3
ENDMDL
MODEL 9
REMARK VINA RESULT:      -3.8     10.546     11.397
REMARK  3 active torsions:
REMARK  status: ('A' for Active; 'I' for Inactive)
REMARK    1  A    between atoms: C3_3  and  N7_7 
REMARK    2  A    between atoms: C5_5  and  C6_6 
REMARK    3  A    between atoms: C5_5  and  N7_7 
ROOT
HETATM    1  N7  UNL     1     -33.648  14.605  -6.574  1.00 20.00     0.093 N 
HETATM    2  H20 UNL     1     -33.434  13.654  -6.275  1.00 20.00     0.316 HD
ENDROOT
BRANCH   1   3
HETATM    3  C3  UNL     1     -33.096  15.546  -5.610  1.00 20.00     0.223 C 
HETATM    4  C1  UNL     1     -34.210  16.510  -5.144  1.00 20.00     0.055 C 
HETATM    5  C4  UNL     1     -33.660  16.305  -3.708  1.00 20.00     0.086 C 
HETATM    6  C2  UNL     1     -33.153  14.923  -4.197  1.00 20.00     0.055 C 
HETATM    7 CL10 UNL     1     -34.795  16.367  -2.334  1.00 20.00    -0.125 Cl
ENDBRANCH   1   3
BRANCH   1   8
HETATM    8  C5  UNL     1     -35.092  14.760  -6.683  1.00 20.00     0.340 C 
BRANCH   8   9
HETATM    9  C6  UNL     1     -35.787  13.429  -6.487  1.00 20.00     0.381 C 
HETATM   10  F8  UNL     1     -35.794  13.100  -5.171  1.00 20.00    -0.213 F 
HETATM   11  F9  UNL     1     -35.079  12.459  -7.123  1.00 20.00    -0.213 F 
ENDBRANCH   8   9
ENDBRANCH   1   8
TORSDOF 3
ENDMDL
