MODEL 1
REMARK VINA RESULT:      -6.0      0.000      0.000
REMARK  2 active torsions:
REMARK  status: ('A' for Active; 'I' for Inactive)
REMARK    1  A    between atoms: C5_5  and  C6_6 
REMARK    2  A    between atoms: C6_6  and  C7_7 
ROOT
HETATM    1  C1  UNL     1     -32.079   9.084   1.090  1.00 20.00     0.012 C 
HETATM    2  C2  UNL     1     -32.188   8.410   2.076  1.00 20.00    -0.117 C 
HETATM    3  C5  UNL     1     -32.316   7.581   3.288  1.00 20.00     0.098 C 
ENDROOT
BRANCH   3   4
HETATM    4  C6  UNL     1     -33.571   6.683   3.246  1.00 20.00     0.006 C 
HETATM    5  C3  UNL     1     -33.203   5.268   2.772  1.00 20.00     0.012 C 
BRANCH   4   6
HETATM    6  C7  UNL     1     -34.313   6.602   4.599  1.00 20.00     0.058 C 
HETATM    7  C4  UNL     1     -33.645   7.314   5.766  1.00 20.00     0.022 C 
HETATM    8 BR8  UNL     1     -34.580   4.716   5.097  1.00 20.00    -0.091 Br
ENDBRANCH   4   6
ENDBRANCH   3   4
TORSDOF 2
ENDMDL
MODEL 2
REMARK VINA RESULT:      -4.9      1.232      1.755
REMARK  2 active torsions:
REMARK  status: ('A' for Active; 'I' for Inactive)
REMARK    1  A    between atoms: C5_5  and  C6_6 
REMARK    2  A    between atoms: C6_6  and  C7_7 
ROOT
HETATM    1  C1  UNL     1     -32.566  10.221   1.198  1.00 20.00     0.012 C 
HETATM    2  C2  UNL     1     -32.633   9.054   1.469  1.00 20.00    -0.117 C 
HETATM    3  C5  UNL     1     -32.719   7.620   1.797  1.00 20.00     0.098 C 
ENDROOT
BRANCH   3   4
HETATM    4  C6  UNL     1     -32.443   7.350   3.292  1.00 20.00     0.006 C 
HETATM    5  C3  UNL     1     -31.430   8.367   3.843  1.00 20.00     0.012 C 
BRANCH   4   6
HETATM    6  C7  UNL     1     -33.719   7.361   4.164  1.00 20.00     0.058 C 
HETATM    7  C4  UNL     1     -33.492   7.414   5.668  1.00 20.00     0.022 C 
HETATM    8 BR8  UNL     1     -34.815   5.777   3.759  1.00 20.00    -0.091 Br
ENDBRANCH   4   6
ENDBRANCH   3   4
TORSDOF 2
ENDMDL
MODEL 3
REMARK VINA RESULT:      -4.9      2.527      4.134
REMARK  2 active torsions:
REMARK  status: ('A' for Active; 'I' for Inactive)
REMARK    1  A    between atoms: C5_5  and  C6_6 
REMARK    2  A    between atoms: C6_6  and  C7_7 
ROOT
HETATM    1  C1  UNL     1     -34.507   4.252   4.834  1.00 20.00     0.012 C 
HETATM    2  C2  UNL     1     -34.134   4.913   3.904  1.00 20.00    -0.117 C 
HETATM    3  C5  UNL     1     -33.672   5.719   2.761  1.00 20.00     0.098 C 
ENDROOT
BRANCH   3   4
HETATM    4  C6  UNL     1     -33.474   7.202   3.140  1.00 20.00     0.006 C 
HETATM    5  C3  UNL     1     -33.581   7.386   4.663  1.00 20.00     0.012 C 
BRANCH   4   6
HETATM    6  C7  UNL     1     -32.137   7.792   2.638  1.00 20.00     0.058 C 
HETATM    7  C4  UNL     1     -31.223   8.369   3.709  1.00 20.00     0.022 C 
HETATM    8 BR8  UNL     1     -32.490   9.195   1.303  1.00 20.00    -0.091 Br
ENDBRANCH   4   6
ENDBRANCH   3   4
TORSDOF 2
ENDMDL
MODEL 4
REMARK VINA RESULT:      -4.7      2.805      4.465
REMARK  2 active torsions:
REMARK  status: ('A' for Active; 'I' for Inactive)
REMARK    1  A    between atoms: C5_5  and  C6_6 
REMARK    2  A    between atoms: C6_6  and  C7_7 
ROOT
HETATM    1  C1  UNL     1     -35.078   5.722   4.116  1.00 20.00     0.012 C 
HETATM    2  C2  UNL     1     -34.130   6.058   3.462  1.00 20.00    -0.117 C 
HETATM    3  C5  UNL     1     -32.963   6.466   2.662  1.00 20.00     0.098 C 
ENDROOT
BRANCH   3   4
HETATM    4  C6  UNL     1     -32.715   7.988   2.732  1.00 20.00     0.006 C 
HETATM    5  C3  UNL     1     -31.459   8.289   3.566  1.00 20.00     0.012 C 
BRANCH   4   6
HETATM    6  C7  UNL     1     -32.589   8.655   1.344  1.00 20.00     0.058 C 
HETATM    7  C4  UNL     1     -31.255   8.468   0.636  1.00 20.00     0.022 C 
HETATM    8 BR8  UNL     1     -32.940  10.586   1.501  1.00 20.00    -0.091 Br
ENDBRANCH   4   6
ENDBRANCH   3   4
TORSDOF 2
ENDMDL
MODEL 5
REMARK VINA RESULT:      -4.6      1.453      2.122
REMARK  2 active torsions:
REMARK  status: ('A' for Active; 'I' for Inactive)
REMARK    1  A    between atoms: C5_5  and  C6_6 
REMARK    2  A    between atoms: C6_6  and  C7_7 
ROOT
HETATM    1  C1  UNL     1     -31.693   8.399   1.690  1.00 20.00     0.012 C 
HETATM    2  C2  UNL     1     -32.592   8.248   2.470  1.00 20.00    -0.117 C 
HETATM    3  C5  UNL     1     -33.696   8.067   3.428  1.00 20.00     0.098 C 
ENDROOT
BRANCH   3   4
HETATM    4  C6  UNL     1     -33.449   6.879   4.381  1.00 20.00     0.006 C 
HETATM    5  C3  UNL     1     -33.789   7.272   5.828  1.00 20.00     0.012 C 
BRANCH   4   6
HETATM    6  C7  UNL     1     -34.230   5.604   3.991  1.00 20.00     0.058 C 
HETATM    7  C4  UNL     1     -34.595   4.674   5.138  1.00 20.00     0.022 C 
HETATM    8 BR8  UNL     1     -33.202   4.576   2.664  1.00 20.00    -0.091 Br
ENDBRANCH   4   6
ENDBRANCH   3   4
TORSDOF 2
ENDMDL
MODEL 6
REMARK VINA RESULT:      -4.3      2.398      4.004
REMARK  2 active torsions:
REMARK  status: ('A' for Active; 'I' for Inactive)
REMARK    1  A    between atoms: C5_5  and  C6_6 
REMARK    2  A    between atoms: C6_6  and  C7_7 
ROOT
HETATM    1  C1  UNL     1     -34.724   4.998   5.801  1.00 20.00     0.012 C 
HETATM    2  C2  UNL     1     -34.300   5.939   5.188  1.00 20.00    -0.117 C 
HETATM    3  C5  UNL     1     -33.785   7.097   4.437  1.00 20.00     0.098 C 
ENDROOT
BRANCH   3   4
HETATM    4  C6  UNL     1     -32.983   6.669   3.190  1.00 20.00     0.006 C 
HETATM    5  C3  UNL     1     -33.932   6.382   2.014  1.00 20.00     0.012 C 
BRANCH   4   6
HETATM    6  C7  UNL     1     -31.919   7.703   2.759  1.00 20.00     0.058 C 
HETATM    7  C4  UNL     1     -31.329   8.552   3.875  1.00 20.00     0.022 C 
HETATM    8 BR8  UNL     1     -32.676   8.908   1.399  1.00 20.00    -0.091 Br
ENDBRANCH   4   6
ENDBRANCH   3   4
TORSDOF 2
ENDMDL
MODEL 7
REMARK VINA RESULT:      -4.2      1.658      4.029
REMARK  2 active torsions:
REMARK  status: ('A' for Active; 'I' for Inactive)
REMARK    1  A    between atoms: C5_5  and  C6_6 
REMARK    2  A    between atoms: C6_6  and  C7_7 
ROOT
HETATM    1  C1  UNL     1     -34.671   4.354   5.669  1.00 20.00     0.012 C 
HETATM    2  C2  UNL     1     -34.814   5.278   4.916  1.00 20.00    -0.117 C 
HETATM    3  C5  UNL     1     -34.991   6.408   3.988  1.00 20.00     0.098 C 
ENDROOT
BRANCH   3   4
HETATM    4  C6  UNL     1     -33.836   7.427   4.089  1.00 20.00     0.006 C 
HETATM    5  C3  UNL     1     -33.385   7.585   5.550  1.00 20.00     0.012 C 
BRANCH   4   6
HETATM    6  C7  UNL     1     -32.621   7.069   3.204  1.00 20.00     0.058 C 
HETATM    7  C4  UNL     1     -32.246   8.094   2.144  1.00 20.00     0.022 C 
HETATM    8 BR8  UNL     1     -32.935   5.343   2.311  1.00 20.00    -0.091 Br
ENDBRANCH   4   6
ENDBRANCH   3   4
TORSDOF 2
ENDMDL
MODEL 8
REMARK VINA RESULT:      -3.7      1.124      3.349
REMARK  2 active torsions:
REMARK  status: ('A' for Active; 'I' for Inactive)
REMARK    1  A    between atoms: C5_5  and  C6_6 
REMARK    2  A    between atoms: C6_6  and  C7_7 
ROOT
HETATM    1  C1  UNL     1     -33.490   7.499   6.208  1.00 20.00     0.012 C 
HETATM    2  C2  UNL     1     -33.992   7.220   5.155  1.00 20.00    -0.117 C 
HETATM    3  C5  UNL     1     -34.613   6.875   3.864  1.00 20.00     0.098 C 
ENDROOT
BRANCH   3   4
HETATM    4  C6  UNL     1     -33.575   6.382   2.834  1.00 20.00     0.006 C 
HETATM    5  C3  UNL     1     -32.408   7.378   2.730  1.00 20.00     0.012 C 
BRANCH   4   6
HETATM    6  C7  UNL     1     -33.028   4.970   3.140  1.00 20.00     0.058 C 
HETATM    7  C4  UNL     1     -32.830   4.060   1.936  1.00 20.00     0.022 C 
HETATM    8 BR8  UNL     1     -34.220   4.058   4.414  1.00 20.00    -0.091 Br
ENDBRANCH   4   6
ENDBRANCH   3   4
TORSDOF 2
ENDMDL
MODEL 9
REMARK VINA RESULT:      -3.6      2.621      3.148
REMARK  2 active torsions:
REMARK  status: ('A' for Active; 'I' for Inactive)
REMARK    1  A    between atoms: C5_5  and  C6_6 
REMARK    2  A    between atoms: C6_6  and  C7_7 
ROOT
HETATM    1  C1  UNL     1     -32.641   3.994   2.305  1.00 20.00     0.012 C 
HETATM    2  C2  UNL     1     -33.437   4.849   2.583  1.00 20.00    -0.117 C 
HETATM    3  C5  UNL     1     -34.412   5.900   2.919  1.00 20.00     0.098 C 
ENDROOT
BRANCH   3   4
HETATM    4  C6  UNL     1     -34.517   6.129   4.442  1.00 20.00     0.006 C 
HETATM    5  C3  UNL     1     -34.708   4.790   5.173  1.00 20.00     0.012 C 
BRANCH   4   6
HETATM    6  C7  UNL     1     -33.303   6.878   5.036  1.00 20.00     0.058 C 
HETATM    7  C4  UNL     1     -33.606   7.815   6.196  1.00 20.00     0.022 C 
HETATM    8 BR8  UNL     1     -32.404   7.912   3.624  1.00 20.00    -0.091 Br
ENDBRANCH   4   6
ENDBRANCH   3   4
TORSDOF 2
ENDMDL
