MODEL 1
REMARK VINA RESULT:      -5.7      0.000      0.000
REMARK  2 active torsions:
REMARK  status: ('A' for Active; 'I' for Inactive)
REMARK    1  A    between atoms: C8_8  and  C9_9 
REMARK    2  A    between atoms: C9_9  and  O11_11 
ROOT
HETATM    1  C1  UNL     1     -34.192   3.938   4.426  1.00 20.00     0.003 C 
HETATM    2  C2  UNL     1     -34.624   4.721   5.665  1.00 20.00     0.003 C 
HETATM    3  C3  UNL     1     -33.591   4.961   3.464  1.00 20.00     0.038 C 
HETATM    4  C4  UNL     1     -34.289   6.186   5.384  1.00 20.00     0.038 C 
HETATM    5  C9  UNL     1     -34.252   6.279   3.861  1.00 20.00     0.063 C 
ENDROOT
BRANCH   5   6
HETATM    6  C8  UNL     1     -33.509   7.506   3.355  1.00 20.00     0.046 C 
HETATM    7  C5  UNL     1     -32.907   7.341   1.977  1.00 20.00     0.036 C 
HETATM    8  C6  UNL     1     -31.874   8.448   1.959  1.00 20.00     0.168 C 
HETATM    9  O10 UNL     1     -31.416   8.609   3.310  1.00 20.00    -0.391 OA
HETATM   10  C7  UNL     1     -32.284   7.863   4.176  1.00 20.00     0.175 C 
ENDBRANCH   5   6
BRANCH   5  11
HETATM   11  O11 UNL     1     -35.591   6.313   3.370  1.00 20.00    -0.389 OA
HETATM   12  H27 UNL     1     -35.677   5.569   2.755  1.00 20.00     0.210 HD
ENDBRANCH   5  11
TORSDOF 2
ENDMDL
MODEL 2
REMARK VINA RESULT:      -4.7      1.401      4.244
REMARK  2 active torsions:
REMARK  status: ('A' for Active; 'I' for Inactive)
REMARK    1  A    between atoms: C8_8  and  C9_9 
REMARK    2  A    between atoms: C9_9  and  O11_11 
ROOT
HETATM    1  C1  UNL     1     -32.306   8.721   1.576  1.00 20.00     0.003 C 
HETATM    2  C2  UNL     1     -31.332   8.691   2.754  1.00 20.00     0.003 C 
HETATM    3  C3  UNL     1     -33.557   7.976   2.039  1.00 20.00     0.038 C 
HETATM    4  C4  UNL     1     -32.028   7.907   3.865  1.00 20.00     0.038 C 
HETATM    5  C9  UNL     1     -33.049   7.039   3.133  1.00 20.00     0.063 C 
ENDROOT
BRANCH   5   6
HETATM    6  C8  UNL     1     -34.150   6.516   4.041  1.00 20.00     0.046 C 
HETATM    7  C5  UNL     1     -33.923   6.788   5.512  1.00 20.00     0.036 C 
HETATM    8  C6  UNL     1     -34.848   5.777   6.158  1.00 20.00     0.168 C 
HETATM    9  O10 UNL     1     -34.900   4.643   5.279  1.00 20.00    -0.391 OA
HETATM   10  C7  UNL     1     -34.284   5.003   4.034  1.00 20.00     0.175 C 
ENDBRANCH   5   6
BRANCH   5  11
HETATM   11  O11 UNL     1     -32.371   5.932   2.541  1.00 20.00    -0.389 OA
HETATM   12  H27 UNL     1     -32.065   6.230   1.671  1.00 20.00     0.210 HD
ENDBRANCH   5  11
TORSDOF 2
ENDMDL
MODEL 3
REMARK VINA RESULT:      -4.6     11.452     12.461
REMARK  2 active torsions:
REMARK  status: ('A' for Active; 'I' for Inactive)
REMARK    1  A    between atoms: C8_8  and  C9_9 
REMARK    2  A    between atoms: C9_9  and  O11_11 
ROOT
HETATM    1  C1  UNL     1     -36.668  14.354  -7.358  1.00 20.00     0.003 C 
HETATM    2  C2  UNL     1     -35.290  13.799  -7.718  1.00 20.00     0.003 C 
HETATM    3  C3  UNL     1     -36.566  14.848  -5.916  1.00 20.00     0.038 C 
HETATM    4  C4  UNL     1     -34.425  13.959  -6.467  1.00 20.00     0.038 C 
HETATM    5  C9  UNL     1     -35.429  14.021  -5.319  1.00 20.00     0.063 C 
ENDROOT
BRANCH   5   6
HETATM    6  C8  UNL     1     -34.848  14.619  -4.048  1.00 20.00     0.046 C 
HETATM    7  C5  UNL     1     -35.691  15.718  -3.438  1.00 20.00     0.036 C 
HETATM    8  C6  UNL     1     -34.685  16.419  -2.549  1.00 20.00     0.168 C 
HETATM    9  O10 UNL     1     -33.405  16.287  -3.187  1.00 20.00    -0.391 OA
HETATM   10  C7  UNL     1     -33.526  15.337  -4.256  1.00 20.00     0.175 C 
ENDBRANCH   5   6
BRANCH   5  11
HETATM   11  O11 UNL     1     -35.891  12.700  -5.040  1.00 20.00    -0.389 OA
HETATM   12  H27 UNL     1     -35.713  12.540  -4.100  1.00 20.00     0.210 HD
ENDBRANCH   5  11
TORSDOF 2
ENDMDL
MODEL 4
REMARK VINA RESULT:      -4.5     11.589     12.629
REMARK  2 active torsions:
REMARK  status: ('A' for Active; 'I' for Inactive)
REMARK    1  A    between atoms: C8_8  and  C9_9 
REMARK    2  A    between atoms: C9_9  and  O11_11 
ROOT
HETATM    1  C1  UNL     1     -35.766  13.326  -5.563  1.00 20.00     0.003 C 
HETATM    2  C2  UNL     1     -34.981  13.618  -6.841  1.00 20.00     0.003 C 
HETATM    3  C3  UNL     1     -35.261  14.317  -4.516  1.00 20.00     0.038 C 
HETATM    4  C4  UNL     1     -34.018  14.756  -6.501  1.00 20.00     0.038 C 
HETATM    5  C9  UNL     1     -33.851  14.669  -4.986  1.00 20.00     0.063 C 
ENDROOT
BRANCH   5   6
HETATM    6  C8  UNL     1     -33.309  15.948  -4.369  1.00 20.00     0.046 C 
HETATM    7  C5  UNL     1     -33.961  16.329  -3.058  1.00 20.00     0.036 C 
HETATM    8  C6  UNL     1     -33.608  17.799  -2.956  1.00 20.00     0.168 C 
HETATM    9  O10 UNL     1     -33.540  18.303  -4.299  1.00 20.00    -0.391 OA
HETATM   10  C7  UNL     1     -33.568  17.189  -5.204  1.00 20.00     0.175 C 
ENDBRANCH   5   6
BRANCH   5  11
HETATM   11  O11 UNL     1     -32.961  13.595  -4.683  1.00 20.00    -0.389 OA
HETATM   12  H27 UNL     1     -32.805  13.124  -5.516  1.00 20.00     0.210 HD
ENDBRANCH   5  11
TORSDOF 2
ENDMDL
MODEL 5
REMARK VINA RESULT:      -4.5      1.369      4.407
REMARK  2 active torsions:
REMARK  status: ('A' for Active; 'I' for Inactive)
REMARK    1  A    between atoms: C8_8  and  C9_9 
REMARK    2  A    between atoms: C9_9  and  O11_11 
ROOT
HETATM    1  C1  UNL     1     -31.736   9.183   0.486  1.00 20.00     0.003 C 
HETATM    2  C2  UNL     1     -32.756  10.079   1.189  1.00 20.00     0.003 C 
HETATM    3  C3  UNL     1     -31.790   7.834   1.201  1.00 20.00     0.038 C 
HETATM    4  C4  UNL     1     -33.361   9.239   2.313  1.00 20.00     0.038 C 
HETATM    5  C9  UNL     1     -32.305   8.173   2.598  1.00 20.00     0.063 C 
ENDROOT
BRANCH   5   6
HETATM    6  C8  UNL     1     -32.856   6.971   3.349  1.00 20.00     0.046 C 
HETATM    7  C5  UNL     1     -34.023   6.293   2.663  1.00 20.00     0.036 C 
HETATM    8  C6  UNL     1     -34.639   5.514   3.807  1.00 20.00     0.168 C 
HETATM    9  O10 UNL     1     -34.399   6.272   5.002  1.00 20.00    -0.391 OA
HETATM   10  C7  UNL     1     -33.460   7.315   4.698  1.00 20.00     0.175 C 
ENDBRANCH   5   6
BRANCH   5  11
HETATM   11  O11 UNL     1     -31.257   8.759   3.369  1.00 20.00    -0.389 OA
HETATM   12  H27 UNL     1     -31.265   8.311   4.229  1.00 20.00     0.210 HD
ENDBRANCH   5  11
TORSDOF 2
ENDMDL
MODEL 6
REMARK VINA RESULT:      -4.4      1.393      1.695
REMARK  2 active torsions:
REMARK  status: ('A' for Active; 'I' for Inactive)
REMARK    1  A    between atoms: C8_8  and  C9_9 
REMARK    2  A    between atoms: C9_9  and  O11_11 
ROOT
HETATM    1  C1  UNL     1     -34.473   5.498   5.682  1.00 20.00     0.003 C 
HETATM    2  C2  UNL     1     -35.334   5.158   4.465  1.00 20.00     0.003 C 
HETATM    3  C3  UNL     1     -33.611   6.691   5.273  1.00 20.00     0.038 C 
HETATM    4  C4  UNL     1     -34.934   6.144   3.369  1.00 20.00     0.038 C 
HETATM    5  C9  UNL     1     -33.523   6.584   3.752  1.00 20.00     0.063 C 
ENDROOT
BRANCH   5   6
HETATM    6  C8  UNL     1     -33.096   7.877   3.078  1.00 20.00     0.046 C 
HETATM    7  C5  UNL     1     -33.126   7.828   1.566  1.00 20.00     0.036 C 
HETATM    8  C6  UNL     1     -32.225   8.991   1.203  1.00 20.00     0.168 C 
HETATM    9  O10 UNL     1     -31.245   9.097   2.246  1.00 20.00    -0.391 OA
HETATM   10  C7  UNL     1     -31.648   8.254   3.336  1.00 20.00     0.175 C 
ENDBRANCH   5   6
BRANCH   5  11
HETATM   11  O11 UNL     1     -32.606   5.550   3.394  1.00 20.00    -0.389 OA
HETATM   12  H27 UNL     1     -32.377   5.090   4.217  1.00 20.00     0.210 HD
ENDBRANCH   5  11
TORSDOF 2
ENDMDL
MODEL 7
REMARK VINA RESULT:      -4.4      1.274      4.481
REMARK  2 active torsions:
REMARK  status: ('A' for Active; 'I' for Inactive)
REMARK    1  A    between atoms: C8_8  and  C9_9 
REMARK    2  A    between atoms: C9_9  and  O11_11 
ROOT
HETATM    1  C1  UNL     1     -31.449   8.761   0.694  1.00 20.00     0.003 C 
HETATM    2  C2  UNL     1     -32.224   9.979   1.195  1.00 20.00     0.003 C 
HETATM    3  C3  UNL     1     -32.070   7.548   1.385  1.00 20.00     0.038 C 
HETATM    4  C4  UNL     1     -33.261   9.449   2.185  1.00 20.00     0.038 C 
HETATM    5  C9  UNL     1     -32.683   8.119   2.662  1.00 20.00     0.063 C 
ENDROOT
BRANCH   5   6
HETATM    6  C8  UNL     1     -33.722   7.208   3.295  1.00 20.00     0.046 C 
HETATM    7  C5  UNL     1     -33.677   7.174   4.807  1.00 20.00     0.036 C 
HETATM    8  C6  UNL     1     -34.422   5.889   5.107  1.00 20.00     0.168 C 
HETATM    9  O10 UNL     1     -34.165   4.996   4.012  1.00 20.00    -0.391 OA
HETATM   10  C7  UNL     1     -33.537   5.739   2.957  1.00 20.00     0.175 C 
ENDBRANCH   5   6
BRANCH   5  11
HETATM   11  O11 UNL     1     -31.653   8.380   3.615  1.00 20.00    -0.389 OA
HETATM   12  H27 UNL     1     -31.034   7.636   3.560  1.00 20.00     0.210 HD
ENDBRANCH   5  11
TORSDOF 2
ENDMDL
MODEL 8
REMARK VINA RESULT:      -4.3     11.296     12.421
REMARK  2 active torsions:
REMARK  status: ('A' for Active; 'I' for Inactive)
REMARK    1  A    between atoms: C8_8  and  C9_9 
REMARK    2  A    between atoms: C9_9  and  O11_11 
ROOT
HETATM    1  C1  UNL     1     -35.151  17.462  -1.210  1.00 20.00     0.003 C 
HETATM    2  C2  UNL     1     -33.661  17.415  -1.551  1.00 20.00     0.003 C 
HETATM    3  C3  UNL     1     -35.857  16.621  -2.272  1.00 20.00     0.038 C 
HETATM    4  C4  UNL     1     -33.538  16.570  -2.818  1.00 20.00     0.038 C 
HETATM    5  C9  UNL     1     -34.914  16.668  -3.473  1.00 20.00     0.063 C 
ENDROOT
BRANCH   5   6
HETATM    6  C8  UNL     1     -35.172  15.568  -4.490  1.00 20.00     0.046 C 
HETATM    7  C5  UNL     1     -36.611  15.101  -4.546  1.00 20.00     0.036 C 
HETATM    8  C6  UNL     1     -36.469  13.753  -5.222  1.00 20.00     0.168 C 
HETATM    9  O10 UNL     1     -35.192  13.226  -4.833  1.00 20.00    -0.391 OA
HETATM   10  C7  UNL     1     -34.448  14.269  -4.186  1.00 20.00     0.175 C 
ENDBRANCH   5   6
BRANCH   5  11
HETATM   11  O11 UNL     1     -35.024  17.934  -4.122  1.00 20.00    -0.389 OA
HETATM   12  H27 UNL     1     -35.965  18.168  -4.109  1.00 20.00     0.210 HD
ENDBRANCH   5  11
TORSDOF 2
ENDMDL
MODEL 9
REMARK VINA RESULT:      -4.3      1.256      4.203
REMARK  2 active torsions:
REMARK  status: ('A' for Active; 'I' for Inactive)
REMARK    1  A    between atoms: C8_8  and  C9_9 
REMARK    2  A    between atoms: C9_9  and  O11_11 
ROOT
HETATM    1  C1  UNL     1     -31.395   8.542   3.345  1.00 20.00     0.003 C 
HETATM    2  C2  UNL     1     -31.740   8.117   1.918  1.00 20.00     0.003 C 
HETATM    3  C3  UNL     1     -32.304   7.729   4.264  1.00 20.00     0.038 C 
HETATM    4  C4  UNL     1     -32.861   7.085   2.039  1.00 20.00     0.038 C 
HETATM    5  C9  UNL     1     -33.508   7.385   3.388  1.00 20.00     0.063 C 
ENDROOT
BRANCH   5   6
HETATM    6  C8  UNL     1     -34.337   6.230   3.925  1.00 20.00     0.046 C 
HETATM    7  C5  UNL     1     -34.281   6.073   5.429  1.00 20.00     0.036 C 
HETATM    8  C6  UNL     1     -34.748   4.642   5.606  1.00 20.00     0.168 C 
HETATM    9  O10 UNL     1     -34.318   3.920   4.442  1.00 20.00    -0.391 OA
HETATM   10  C7  UNL     1     -33.859   4.865   3.464  1.00 20.00     0.175 C 
ENDBRANCH   5   6
BRANCH   5  11
HETATM   11  O11 UNL     1     -34.346   8.533   3.251  1.00 20.00    -0.389 OA
HETATM   12  H27 UNL     1     -34.672   8.527   2.339  1.00 20.00     0.210 HD
ENDBRANCH   5  11
TORSDOF 2
ENDMDL
