MODEL 1
REMARK VINA RESULT:      -4.2      0.000      0.000
REMARK  3 active torsions:
REMARK  status: ('A' for Active; 'I' for Inactive)
REMARK    1  A    between atoms: C5_5  and  S11_11 
REMARK    2  A    between atoms: C7_7  and  C8_8 
REMARK    3  A    between atoms: C8_8  and  S11_11 
ROOT
HETATM    1  C1  UNL     1     -34.275  16.772  -4.930  1.00 20.00     0.080 C 
HETATM    2  C2  UNL     1     -34.389  14.355  -4.126  1.00 20.00     0.071 C 
HETATM    3  C3  UNL     1     -36.246  15.155  -4.844  1.00 20.00     0.071 C 
HETATM    4  C4  UNL     1     -35.335  13.986  -5.295  1.00 20.00     0.165 C 
HETATM    5  C5  UNL     1     -34.999  15.782  -4.165  1.00 20.00     0.101 C 
HETATM    6  N9  UNL     1     -33.694  17.566  -5.545  1.00 20.00    -0.196 NA
HETATM    7  O10 UNL     1     -35.933  12.726  -5.151  1.00 20.00    -0.235 OA
ENDROOT
BRANCH   5   8
HETATM    8  S11 UNL     1     -35.370  16.419  -2.491  1.00 20.00    -0.144 SA
BRANCH   8   9
HETATM    9  C8  UNL     1     -33.723  17.039  -2.089  1.00 20.00     0.075 C 
BRANCH   9  10
HETATM   10  C7  UNL     1     -33.766  17.882  -0.819  1.00 20.00     0.006 C 
HETATM   11  C6  UNL     1     -32.422  18.543  -0.555  1.00 20.00     0.006 C 
ENDBRANCH   9  10
ENDBRANCH   8   9
ENDBRANCH   5   8
TORSDOF 3
ENDMDL
MODEL 2
REMARK VINA RESULT:      -4.1      2.349      2.798
REMARK  3 active torsions:
REMARK  status: ('A' for Active; 'I' for Inactive)
REMARK    1  A    between atoms: C5_5  and  S11_11 
REMARK    2  A    between atoms: C7_7  and  C8_8 
REMARK    3  A    between atoms: C8_8  and  S11_11 
ROOT
HETATM    1  C1  UNL     1     -37.514  15.147  -4.543  1.00 20.00     0.080 C 
HETATM    2  C2  UNL     1     -35.889  14.901  -6.492  1.00 20.00     0.071 C 
HETATM    3  C3  UNL     1     -35.228  14.021  -4.651  1.00 20.00     0.071 C 
HETATM    4  C4  UNL     1     -35.548  13.454  -6.057  1.00 20.00     0.165 C 
HETATM    5  C5  UNL     1     -36.144  15.226  -4.996  1.00 20.00     0.101 C 
HETATM    6  N9  UNL     1     -38.614  15.083  -4.180  1.00 20.00    -0.196 NA
HETATM    7  O10 UNL     1     -34.428  12.925  -6.712  1.00 20.00    -0.235 OA
ENDROOT
BRANCH   5   8
HETATM    8  S11 UNL     1     -35.401  16.823  -4.501  1.00 20.00    -0.144 SA
BRANCH   8   9
HETATM    9  C8  UNL     1     -36.173  16.963  -2.875  1.00 20.00     0.075 C 
BRANCH   9  10
HETATM   10  C7  UNL     1     -35.159  16.667  -1.776  1.00 20.00     0.006 C 
HETATM   11  C6  UNL     1     -33.745  16.996  -2.232  1.00 20.00     0.006 C 
ENDBRANCH   9  10
ENDBRANCH   8   9
ENDBRANCH   5   8
TORSDOF 3
ENDMDL
MODEL 3
REMARK VINA RESULT:      -4.0      1.708      1.970
REMARK  3 active torsions:
REMARK  status: ('A' for Active; 'I' for Inactive)
REMARK    1  A    between atoms: C5_5  and  S11_11 
REMARK    2  A    between atoms: C7_7  and  C8_8 
REMARK    3  A    between atoms: C8_8  and  S11_11 
ROOT
HETATM    1  C1  UNL     1     -35.773  16.922  -5.680  1.00 20.00     0.080 C 
HETATM    2  C2  UNL     1     -34.931  14.606  -6.334  1.00 20.00     0.071 C 
HETATM    3  C3  UNL     1     -35.604  14.781  -4.304  1.00 20.00     0.071 C 
HETATM    4  C4  UNL     1     -36.065  13.937  -5.519  1.00 20.00     0.165 C 
HETATM    5  C5  UNL     1     -34.972  15.776  -5.314  1.00 20.00     0.101 C 
HETATM    6  N9  UNL     1     -36.417  17.841  -5.973  1.00 20.00    -0.196 NA
HETATM    7  O10 UNL     1     -35.884  12.559  -5.341  1.00 20.00    -0.235 OA
ENDROOT
BRANCH   5   8
HETATM    8  S11 UNL     1     -33.297  16.307  -4.806  1.00 20.00    -0.144 SA
BRANCH   8   9
HETATM    9  C8  UNL     1     -33.787  17.574  -3.618  1.00 20.00     0.075 C 
BRANCH   9  10
HETATM   10  C7  UNL     1     -33.581  17.077  -2.192  1.00 20.00     0.006 C 
HETATM   11  C6  UNL     1     -34.900  17.014  -1.437  1.00 20.00     0.006 C 
ENDBRANCH   9  10
ENDBRANCH   8   9
ENDBRANCH   5   8
TORSDOF 3
ENDMDL
MODEL 4
REMARK VINA RESULT:      -4.0      2.111      2.552
REMARK  3 active torsions:
REMARK  status: ('A' for Active; 'I' for Inactive)
REMARK    1  A    between atoms: C5_5  and  S11_11 
REMARK    2  A    between atoms: C7_7  and  C8_8 
REMARK    3  A    between atoms: C8_8  and  S11_11 
ROOT
HETATM    1  C1  UNL     1     -34.461  14.778  -6.857  1.00 20.00     0.080 C 
HETATM    2  C2  UNL     1     -35.959  13.353  -5.365  1.00 20.00     0.071 C 
HETATM    3  C3  UNL     1     -36.384  15.456  -5.324  1.00 20.00     0.071 C 
HETATM    4  C4  UNL     1     -37.194  14.206  -5.750  1.00 20.00     0.165 C 
HETATM    5  C5  UNL     1     -35.094  14.625  -5.567  1.00 20.00     0.101 C 
HETATM    6  N9  UNL     1     -33.954  14.899  -7.893  1.00 20.00    -0.196 NA
HETATM    7  O10 UNL     1     -38.312  13.964  -4.940  1.00 20.00    -0.235 OA
ENDROOT
BRANCH   5   8
HETATM    8  S11 UNL     1     -33.868  14.845  -4.227  1.00 20.00    -0.144 SA
BRANCH   8   9
HETATM    9  C8  UNL     1     -33.327  16.513  -4.655  1.00 20.00     0.075 C 
BRANCH   9  10
HETATM   10  C7  UNL     1     -33.616  17.477  -3.511  1.00 20.00     0.006 C 
HETATM   11  C6  UNL     1     -34.185  16.743  -2.306  1.00 20.00     0.006 C 
ENDBRANCH   9  10
ENDBRANCH   8   9
ENDBRANCH   5   8
TORSDOF 3
ENDMDL
MODEL 5
REMARK VINA RESULT:      -3.9     11.234     12.121
REMARK  3 active torsions:
REMARK  status: ('A' for Active; 'I' for Inactive)
REMARK    1  A    between atoms: C5_5  and  S11_11 
REMARK    2  A    between atoms: C7_7  and  C8_8 
REMARK    3  A    between atoms: C8_8  and  S11_11 
ROOT
HETATM    1  C1  UNL     1     -32.939   7.656   4.397  1.00 20.00     0.080 C 
HETATM    2  C2  UNL     1     -31.418   7.849   2.360  1.00 20.00     0.071 C 
HETATM    3  C3  UNL     1     -33.467   8.380   2.008  1.00 20.00     0.071 C 
HETATM    4  C4  UNL     1     -32.128   9.155   1.923  1.00 20.00     0.165 C 
HETATM    5  C5  UNL     1     -32.765   7.398   2.985  1.00 20.00     0.101 C 
HETATM    6  N9  UNL     1     -33.079   7.864   5.529  1.00 20.00    -0.196 NA
HETATM    7  O10 UNL     1     -31.799   9.558   0.622  1.00 20.00    -0.235 OA
ENDROOT
BRANCH   5   8
HETATM    8  S11 UNL     1     -33.152   5.652   2.606  1.00 20.00    -0.144 SA
BRANCH   8   9
HETATM    9  C8  UNL     1     -34.662   5.512   3.584  1.00 20.00     0.075 C 
BRANCH   9  10
HETATM   10  C7  UNL     1     -34.549   4.361   4.578  1.00 20.00     0.006 C 
HETATM   11  C6  UNL     1     -34.669   4.861   6.011  1.00 20.00     0.006 C 
ENDBRANCH   9  10
ENDBRANCH   8   9
ENDBRANCH   5   8
TORSDOF 3
ENDMDL
MODEL 6
REMARK VINA RESULT:      -3.9      2.982      4.838
REMARK  3 active torsions:
REMARK  status: ('A' for Active; 'I' for Inactive)
REMARK    1  A    between atoms: C5_5  and  S11_11 
REMARK    2  A    between atoms: C7_7  and  C8_8 
REMARK    3  A    between atoms: C8_8  and  S11_11 
ROOT
HETATM    1  C1  UNL     1     -34.547  14.779  -3.997  1.00 20.00     0.080 C 
HETATM    2  C2  UNL     1     -33.705  16.799  -2.688  1.00 20.00     0.071 C 
HETATM    3  C3  UNL     1     -35.837  16.686  -2.898  1.00 20.00     0.071 C 
HETATM    4  C4  UNL     1     -34.876  16.666  -1.683  1.00 20.00     0.165 C 
HETATM    5  C5  UNL     1     -34.646  16.203  -3.769  1.00 20.00     0.101 C 
HETATM    6  N9  UNL     1     -34.467  13.636  -4.178  1.00 20.00    -0.196 NA
HETATM    7  O10 UNL     1     -35.017  17.779  -0.843  1.00 20.00    -0.235 OA
ENDROOT
BRANCH   5   8
HETATM    8  S11 UNL     1     -34.536  17.109  -5.354  1.00 20.00    -0.144 SA
BRANCH   8   9
HETATM    9  C8  UNL     1     -33.440  15.966  -6.220  1.00 20.00     0.075 C 
BRANCH   9  10
HETATM   10  C7  UNL     1     -33.970  15.674  -7.619  1.00 20.00     0.006 C 
HETATM   11  C6  UNL     1     -34.080  14.176  -7.862  1.00 20.00     0.006 C 
ENDBRANCH   9  10
ENDBRANCH   8   9
ENDBRANCH   5   8
TORSDOF 3
ENDMDL
MODEL 7
REMARK VINA RESULT:      -3.8      2.093      2.519
REMARK  3 active torsions:
REMARK  status: ('A' for Active; 'I' for Inactive)
REMARK    1  A    between atoms: C5_5  and  S11_11 
REMARK    2  A    between atoms: C7_7  and  C8_8 
REMARK    3  A    between atoms: C8_8  and  S11_11 
ROOT
HETATM    1  C1  UNL     1     -34.135  14.466  -4.776  1.00 20.00     0.080 C 
HETATM    2  C2  UNL     1     -36.518  15.178  -4.218  1.00 20.00     0.071 C 
HETATM    3  C3  UNL     1     -36.215  14.558  -6.250  1.00 20.00     0.071 C 
HETATM    4  C4  UNL     1     -37.090  14.030  -5.086  1.00 20.00     0.165 C 
HETATM    5  C5  UNL     1     -35.301  15.217  -5.181  1.00 20.00     0.101 C 
HETATM    6  N9  UNL     1     -33.199  13.862  -4.451  1.00 20.00    -0.196 NA
HETATM    7  O10 UNL     1     -38.466  14.146  -5.327  1.00 20.00    -0.235 OA
ENDROOT
BRANCH   5   8
HETATM    8  S11 UNL     1     -34.832  16.926  -5.631  1.00 20.00    -0.144 SA
BRANCH   8   9
HETATM    9  C8  UNL     1     -33.487  17.137  -4.445  1.00 20.00     0.075 C 
BRANCH   9  10
HETATM   10  C7  UNL     1     -33.981  17.873  -3.205  1.00 20.00     0.006 C 
HETATM   11  C6  UNL     1     -33.963  16.965  -1.985  1.00 20.00     0.006 C 
ENDBRANCH   9  10
ENDBRANCH   8   9
ENDBRANCH   5   8
TORSDOF 3
ENDMDL
MODEL 8
REMARK VINA RESULT:      -3.7     11.194     12.054
REMARK  3 active torsions:
REMARK  status: ('A' for Active; 'I' for Inactive)
REMARK    1  A    between atoms: C5_5  and  S11_11 
REMARK    2  A    between atoms: C7_7  and  C8_8 
REMARK    3  A    between atoms: C8_8  and  S11_11 
ROOT
HETATM    1  C1  UNL     1     -32.800   6.064   2.689  1.00 20.00     0.080 C 
HETATM    2  C2  UNL     1     -33.530   8.446   2.145  1.00 20.00     0.071 C 
HETATM    3  C3  UNL     1     -31.447   8.226   2.610  1.00 20.00     0.071 C 
HETATM    4  C4  UNL     1     -32.223   8.691   1.352  1.00 20.00     0.165 C 
HETATM    5  C5  UNL     1     -32.730   7.464   3.042  1.00 20.00     0.101 C 
HETATM    6  N9  UNL     1     -32.856   4.941   2.404  1.00 20.00    -0.196 NA
HETATM    7  O10 UNL     1     -32.009  10.040   1.034  1.00 20.00    -0.235 OA
ENDROOT
BRANCH   5   8
HETATM    8  S11 UNL     1     -33.104   7.691   4.817  1.00 20.00    -0.144 SA
BRANCH   8   9
HETATM    9  C8  UNL     1     -34.628   6.725   4.877  1.00 20.00     0.075 C 
BRANCH   9  10
HETATM   10  C7  UNL     1     -34.517   5.617   5.918  1.00 20.00     0.006 C 
HETATM   11  C6  UNL     1     -34.507   4.245   5.259  1.00 20.00     0.006 C 
ENDBRANCH   9  10
ENDBRANCH   8   9
ENDBRANCH   5   8
TORSDOF 3
ENDMDL
MODEL 9
REMARK VINA RESULT:      -3.7      3.252      5.107
REMARK  3 active torsions:
REMARK  status: ('A' for Active; 'I' for Inactive)
REMARK    1  A    between atoms: C5_5  and  S11_11 
REMARK    2  A    between atoms: C7_7  and  C8_8 
REMARK    3  A    between atoms: C8_8  and  S11_11 
ROOT
HETATM    1  C1  UNL     1     -35.284  13.860  -5.280  1.00 20.00     0.080 C 
HETATM    2  C2  UNL     1     -33.289  15.099  -4.287  1.00 20.00     0.071 C 
HETATM    3  C3  UNL     1     -35.079  16.269  -4.466  1.00 20.00     0.071 C 
HETATM    4  C4  UNL     1     -34.210  15.813  -3.267  1.00 20.00     0.165 C 
HETATM    5  C5  UNL     1     -34.495  15.071  -5.264  1.00 20.00     0.101 C 
HETATM    6  N9  UNL     1     -35.917  12.888  -5.292  1.00 20.00    -0.196 NA
HETATM    7  O10 UNL     1     -33.584  16.873  -2.598  1.00 20.00    -0.235 OA
ENDROOT
BRANCH   5   8
HETATM    8  S11 UNL     1     -34.016  15.541  -6.965  1.00 20.00    -0.144 SA
BRANCH   8   9
HETATM    9  C8  UNL     1     -35.519  15.001  -7.806  1.00 20.00     0.075 C 
BRANCH   9  10
HETATM   10  C7  UNL     1     -36.511  16.153  -7.918  1.00 20.00     0.006 C 
HETATM   11  C6  UNL     1     -37.847  15.790  -7.287  1.00 20.00     0.006 C 
ENDBRANCH   9  10
ENDBRANCH   8   9
ENDBRANCH   5   8
TORSDOF 3
ENDMDL
