MODEL 1
REMARK VINA RESULT:      -5.0      0.000      0.000
REMARK  5 active torsions:
REMARK  status: ('A' for Active; 'I' for Inactive)
REMARK    1  A    between atoms: C5_5  and  C6_6 
REMARK    2  A    between atoms: C6_6  and  C9_9 
REMARK    3  A    between atoms: C7_7  and  O11_11 
REMARK    4  A    between atoms: C8_8  and  C9_9 
REMARK    5  A    between atoms: C8_8  and  O11_11 
ROOT
HETATM    1  C1  UNL     1     -33.066   7.677   4.468  1.00 20.00     0.091 C 
HETATM    2  C8  UNL     1     -33.309   7.475   3.031  1.00 20.00     0.231 C 
HETATM    3  N10 UNL     1     -32.876   7.838   5.601  1.00 20.00    -0.195 NA
ENDROOT
BRANCH   2   4
HETATM    4  C9  UNL     1     -33.968   6.113   2.711  1.00 20.00     0.024 C 
HETATM    5  C4  UNL     1     -32.939   4.976   2.600  1.00 20.00     0.014 C 
BRANCH   4   6
HETATM    6  C6  UNL     1     -35.078   5.708   3.705  1.00 20.00     0.007 C 
BRANCH   6   7
HETATM    7  C5  UNL     1     -34.722   4.495   4.566  1.00 20.00    -0.004 C 
HETATM    8  C2  UNL     1     -34.629   4.868   6.038  1.00 20.00     0.005 C 
ENDBRANCH   6   7
ENDBRANCH   4   6
ENDBRANCH   2   4
BRANCH   2   9
HETATM    9  O11 UNL     1     -32.073   7.560   2.319  1.00 20.00    -0.372 OA
BRANCH   9  10
HETATM   10  C7  UNL     1     -31.783   8.900   1.952  1.00 20.00     0.165 C 
HETATM   11  C3  UNL     1     -32.528   9.234   0.678  1.00 20.00     0.033 C 
ENDBRANCH   9  10
ENDBRANCH   2   9
TORSDOF 5
ENDMDL
MODEL 2
REMARK VINA RESULT:      -4.8      1.856      4.888
REMARK  5 active torsions:
REMARK  status: ('A' for Active; 'I' for Inactive)
REMARK    1  A    between atoms: C5_5  and  C6_6 
REMARK    2  A    between atoms: C6_6  and  C9_9 
REMARK    3  A    between atoms: C7_7  and  O11_11 
REMARK    4  A    between atoms: C8_8  and  C9_9 
REMARK    5  A    between atoms: C8_8  and  O11_11 
ROOT
HETATM    1  C1  UNL     1     -33.105   5.684   2.613  1.00 20.00     0.091 C 
HETATM    2  C8  UNL     1     -33.659   7.004   2.949  1.00 20.00     0.231 C 
HETATM    3  N10 UNL     1     -32.670   4.642   2.346  1.00 20.00    -0.195 NA
ENDROOT
BRANCH   2   4
HETATM    4  C9  UNL     1     -32.629   8.149   2.810  1.00 20.00     0.024 C 
HETATM    5  C4  UNL     1     -31.515   8.066   3.868  1.00 20.00     0.014 C 
BRANCH   4   6
HETATM    6  C6  UNL     1     -31.997   8.254   1.405  1.00 20.00     0.007 C 
BRANCH   6   7
HETATM    7  C5  UNL     1     -32.250   9.597   0.716  1.00 20.00    -0.004 C 
HETATM    8  C2  UNL     1     -33.186   9.442  -0.473  1.00 20.00     0.005 C 
ENDBRANCH   6   7
ENDBRANCH   4   6
ENDBRANCH   2   4
BRANCH   2   9
HETATM    9  O11 UNL     1     -34.147   6.992   4.291  1.00 20.00    -0.372 OA
BRANCH   9  10
HETATM   10  C7  UNL     1     -34.975   5.864   4.526  1.00 20.00     0.165 C 
HETATM   11  C3  UNL     1     -34.578   5.226   5.840  1.00 20.00     0.033 C 
ENDBRANCH   9  10
ENDBRANCH   2   9
TORSDOF 5
ENDMDL
MODEL 3
REMARK VINA RESULT:      -4.6      1.502      4.456
REMARK  5 active torsions:
REMARK  status: ('A' for Active; 'I' for Inactive)
REMARK    1  A    between atoms: C5_5  and  C6_6 
REMARK    2  A    between atoms: C6_6  and  C9_9 
REMARK    3  A    between atoms: C7_7  and  O11_11 
REMARK    4  A    between atoms: C8_8  and  C9_9 
REMARK    5  A    between atoms: C8_8  and  O11_11 
ROOT
HETATM    1  C1  UNL     1     -33.617   7.225   5.310  1.00 20.00     0.091 C 
HETATM    2  C8  UNL     1     -33.200   6.865   3.946  1.00 20.00     0.231 C 
HETATM    3  N10 UNL     1     -33.944   7.507   6.387  1.00 20.00    -0.195 NA
ENDROOT
BRANCH   2   4
HETATM    4  C9  UNL     1     -32.599   8.053   3.161  1.00 20.00     0.024 C 
HETATM    5  C4  UNL     1     -31.171   8.396   3.619  1.00 20.00     0.014 C 
BRANCH   4   6
HETATM    6  C6  UNL     1     -32.616   7.863   1.629  1.00 20.00     0.007 C 
BRANCH   6   7
HETATM    7  C5  UNL     1     -31.866   8.955   0.864  1.00 20.00    -0.004 C 
HETATM    8  C2  UNL     1     -32.680  10.238   0.789  1.00 20.00     0.005 C 
ENDBRANCH   6   7
ENDBRANCH   4   6
ENDBRANCH   2   4
BRANCH   2   9
HETATM    9  O11 UNL     1     -34.322   6.360   3.220  1.00 20.00    -0.372 OA
BRANCH   9  10
HETATM   10  C7  UNL     1     -35.097   5.480   4.018  1.00 20.00     0.165 C 
HETATM   11  C3  UNL     1     -34.309   4.211   4.261  1.00 20.00     0.033 C 
ENDBRANCH   9  10
ENDBRANCH   2   9
TORSDOF 5
ENDMDL
MODEL 4
REMARK VINA RESULT:      -4.3     11.412     12.249
REMARK  5 active torsions:
REMARK  status: ('A' for Active; 'I' for Inactive)
REMARK    1  A    between atoms: C5_5  and  C6_6 
REMARK    2  A    between atoms: C6_6  and  C9_9 
REMARK    3  A    between atoms: C7_7  and  O11_11 
REMARK    4  A    between atoms: C8_8  and  C9_9 
REMARK    5  A    between atoms: C8_8  and  O11_11 
ROOT
HETATM    1  C1  UNL     1     -36.796  14.093  -5.194  1.00 20.00     0.091 C 
HETATM    2  C8  UNL     1     -35.358  14.289  -5.433  1.00 20.00     0.231 C 
HETATM    3  N10 UNL     1     -37.930  13.936  -5.007  1.00 20.00    -0.195 NA
ENDROOT
BRANCH   2   4
HETATM    4  C9  UNL     1     -34.543  14.454  -4.129  1.00 20.00     0.024 C 
HETATM    5  C4  UNL     1     -33.026  14.469  -4.385  1.00 20.00     0.014 C 
BRANCH   4   6
HETATM    6  C6  UNL     1     -34.937  15.695  -3.298  1.00 20.00     0.007 C 
BRANCH   6   7
HETATM    7  C5  UNL     1     -33.749  16.574  -2.903  1.00 20.00    -0.004 C 
HETATM    8  C2  UNL     1     -33.961  17.212  -1.538  1.00 20.00     0.005 C 
ENDBRANCH   6   7
ENDBRANCH   4   6
ENDBRANCH   2   4
BRANCH   2   9
HETATM    9  O11 UNL     1     -35.161  15.449  -6.243  1.00 20.00    -0.372 OA
BRANCH   9  10
HETATM   10  C7  UNL     1     -35.209  15.126  -7.623  1.00 20.00     0.165 C 
HETATM   11  C3  UNL     1     -34.172  14.064  -7.918  1.00 20.00     0.033 C 
ENDBRANCH   9  10
ENDBRANCH   2   9
TORSDOF 5
ENDMDL
MODEL 5
REMARK VINA RESULT:      -4.2     11.405     12.185
REMARK  5 active torsions:
REMARK  status: ('A' for Active; 'I' for Inactive)
REMARK    1  A    between atoms: C5_5  and  C6_6 
REMARK    2  A    between atoms: C6_6  and  C9_9 
REMARK    3  A    between atoms: C7_7  and  O11_11 
REMARK    4  A    between atoms: C8_8  and  C9_9 
REMARK    5  A    between atoms: C8_8  and  O11_11 
ROOT
HETATM    1  C1  UNL     1     -35.755  13.841  -4.993  1.00 20.00     0.091 C 
HETATM    2  C8  UNL     1     -35.585  15.220  -4.509  1.00 20.00     0.231 C 
HETATM    3  N10 UNL     1     -35.889  12.755  -5.377  1.00 20.00    -0.195 NA
ENDROOT
BRANCH   2   4
HETATM    4  C9  UNL     1     -34.306  15.414  -3.662  1.00 20.00     0.024 C 
HETATM    5  C4  UNL     1     -33.056  14.838  -4.348  1.00 20.00     0.014 C 
BRANCH   4   6
HETATM    6  C6  UNL     1     -34.041  16.880  -3.256  1.00 20.00     0.007 C 
BRANCH   6   7
HETATM    7  C5  UNL     1     -33.872  17.081  -1.749  1.00 20.00    -0.004 C 
HETATM    8  C2  UNL     1     -35.218  17.101  -1.039  1.00 20.00     0.005 C 
ENDBRANCH   6   7
ENDBRANCH   4   6
ENDBRANCH   2   4
BRANCH   2   9
HETATM    9  O11 UNL     1     -36.715  15.593  -3.718  1.00 20.00    -0.372 OA
BRANCH   9  10
HETATM   10  C7  UNL     1     -37.735  16.169  -4.520  1.00 20.00     0.165 C 
HETATM   11  C3  UNL     1     -37.309  17.561  -4.935  1.00 20.00     0.033 C 
ENDBRANCH   9  10
ENDBRANCH   2   9
TORSDOF 5
ENDMDL
MODEL 6
REMARK VINA RESULT:      -4.2      1.692      2.264
REMARK  5 active torsions:
REMARK  status: ('A' for Active; 'I' for Inactive)
REMARK    1  A    between atoms: C5_5  and  C6_6 
REMARK    2  A    between atoms: C6_6  and  C9_9 
REMARK    3  A    between atoms: C7_7  and  O11_11 
REMARK    4  A    between atoms: C8_8  and  C9_9 
REMARK    5  A    between atoms: C8_8  and  O11_11 
ROOT
HETATM    1  C1  UNL     1     -32.820   5.431   2.622  1.00 20.00     0.091 C 
HETATM    2  C8  UNL     1     -32.832   6.847   3.022  1.00 20.00     0.231 C 
HETATM    3  N10 UNL     1     -32.809   4.315   2.306  1.00 20.00    -0.195 NA
ENDROOT
BRANCH   2   4
HETATM    4  C9  UNL     1     -34.049   7.220   3.900  1.00 20.00     0.024 C 
HETATM    5  C4  UNL     1     -35.325   6.469   3.482  1.00 20.00     0.014 C 
BRANCH   4   6
HETATM    6  C6  UNL     1     -33.811   7.027   5.413  1.00 20.00     0.007 C 
BRANCH   6   7
HETATM    7  C5  UNL     1     -34.741   5.996   6.056  1.00 20.00    -0.004 C 
HETATM    8  C2  UNL     1     -34.314   4.576   5.716  1.00 20.00     0.005 C 
ENDBRANCH   6   7
ENDBRANCH   4   6
ENDBRANCH   2   4
BRANCH   2   9
HETATM    9  O11 UNL     1     -32.839   7.675   1.858  1.00 20.00    -0.372 OA
BRANCH   9  10
HETATM   10  C7  UNL     1     -32.044   8.834   2.047  1.00 20.00     0.165 C 
HETATM   11  C3  UNL     1     -32.553   9.934   1.141  1.00 20.00     0.033 C 
ENDBRANCH   9  10
ENDBRANCH   2   9
TORSDOF 5
ENDMDL
MODEL 7
REMARK VINA RESULT:      -4.1     11.153     11.938
REMARK  5 active torsions:
REMARK  status: ('A' for Active; 'I' for Inactive)
REMARK    1  A    between atoms: C5_5  and  C6_6 
REMARK    2  A    between atoms: C6_6  and  C9_9 
REMARK    3  A    between atoms: C7_7  and  O11_11 
REMARK    4  A    between atoms: C8_8  and  C9_9 
REMARK    5  A    between atoms: C8_8  and  O11_11 
ROOT
HETATM    1  C1  UNL     1     -35.215  13.683  -4.747  1.00 20.00     0.091 C 
HETATM    2  C8  UNL     1     -34.247  14.605  -4.132  1.00 20.00     0.231 C 
HETATM    3  N10 UNL     1     -35.978  12.954  -5.229  1.00 20.00    -0.195 NA
ENDROOT
BRANCH   2   4
HETATM    4  C9  UNL     1     -34.869  15.964  -3.736  1.00 20.00     0.024 C 
HETATM    5  C4  UNL     1     -36.405  15.906  -3.663  1.00 20.00     0.014 C 
BRANCH   4   6
HETATM    6  C6  UNL     1     -34.313  16.545  -2.418  1.00 20.00     0.007 C 
BRANCH   6   7
HETATM    7  C5  UNL     1     -35.396  16.920  -1.405  1.00 20.00    -0.004 C 
HETATM    8  C2  UNL     1     -34.815  17.703  -0.237  1.00 20.00     0.005 C 
ENDBRANCH   6   7
ENDBRANCH   4   6
ENDBRANCH   2   4
BRANCH   2   9
HETATM    9  O11 UNL     1     -33.171  14.844  -5.041  1.00 20.00    -0.372 OA
BRANCH   9  10
HETATM   10  C7  UNL     1     -33.458  15.935  -5.901  1.00 20.00     0.165 C 
HETATM   11  C3  UNL     1     -33.646  15.415  -7.310  1.00 20.00     0.033 C 
ENDBRANCH   9  10
ENDBRANCH   2   9
TORSDOF 5
ENDMDL
MODEL 8
REMARK VINA RESULT:      -4.1      1.765      2.762
REMARK  5 active torsions:
REMARK  status: ('A' for Active; 'I' for Inactive)
REMARK    1  A    between atoms: C5_5  and  C6_6 
REMARK    2  A    between atoms: C6_6  and  C9_9 
REMARK    3  A    between atoms: C7_7  and  O11_11 
REMARK    4  A    between atoms: C8_8  and  C9_9 
REMARK    5  A    between atoms: C8_8  and  O11_11 
ROOT
HETATM    1  C1  UNL     1     -32.479   8.123   1.855  1.00 20.00     0.091 C 
HETATM    2  C8  UNL     1     -32.803   7.227   2.976  1.00 20.00     0.231 C 
HETATM    3  N10 UNL     1     -32.221   8.830   0.972  1.00 20.00    -0.195 NA
ENDROOT
BRANCH   2   4
HETATM    4  C9  UNL     1     -33.678   6.023   2.558  1.00 20.00     0.024 C 
HETATM    5  C4  UNL     1     -32.855   4.736   2.375  1.00 20.00     0.014 C 
BRANCH   4   6
HETATM    6  C6  UNL     1     -34.859   5.747   3.513  1.00 20.00     0.007 C 
BRANCH   6   7
HETATM    7  C5  UNL     1     -34.687   4.482   4.356  1.00 20.00    -0.004 C 
HETATM    8  C2  UNL     1     -34.629   4.810   5.841  1.00 20.00     0.005 C 
ENDBRANCH   6   7
ENDBRANCH   4   6
ENDBRANCH   2   4
BRANCH   2   9
HETATM    9  O11 UNL     1     -33.491   7.959   3.992  1.00 20.00    -0.372 OA
BRANCH   9  10
HETATM   10  C7  UNL     1     -32.729   8.020   5.187  1.00 20.00     0.165 C 
HETATM   11  C3  UNL     1     -33.623   7.677   6.359  1.00 20.00     0.033 C 
ENDBRANCH   9  10
ENDBRANCH   2   9
TORSDOF 5
ENDMDL
MODEL 9
REMARK VINA RESULT:      -3.7      1.905      4.118
REMARK  5 active torsions:
REMARK  status: ('A' for Active; 'I' for Inactive)
REMARK    1  A    between atoms: C5_5  and  C6_6 
REMARK    2  A    between atoms: C6_6  and  C9_9 
REMARK    3  A    between atoms: C7_7  and  O11_11 
REMARK    4  A    between atoms: C8_8  and  C9_9 
REMARK    5  A    between atoms: C8_8  and  O11_11 
ROOT
HETATM    1  C1  UNL     1     -34.631   4.899   4.459  1.00 20.00     0.091 C 
HETATM    2  C8  UNL     1     -34.471   6.126   3.663  1.00 20.00     0.231 C 
HETATM    3  N10 UNL     1     -34.759   3.932   5.086  1.00 20.00    -0.195 NA
ENDROOT
BRANCH   2   4
HETATM    4  C9  UNL     1     -33.119   6.194   2.917  1.00 20.00     0.024 C 
HETATM    5  C4  UNL     1     -32.745   4.855   2.259  1.00 20.00     0.014 C 
BRANCH   4   6
HETATM    6  C6  UNL     1     -33.040   7.323   1.866  1.00 20.00     0.007 C 
BRANCH   6   7
HETATM    7  C5  UNL     1     -32.104   8.467   2.260  1.00 20.00    -0.004 C 
HETATM    8  C2  UNL     1     -32.261   9.658   1.326  1.00 20.00     0.005 C 
ENDBRANCH   6   7
ENDBRANCH   4   6
ENDBRANCH   2   4
BRANCH   2   9
HETATM    9  O11 UNL     1     -34.578   7.268   4.516  1.00 20.00    -0.372 OA
BRANCH   9  10
HETATM   10  C7  UNL     1     -33.973   7.027   5.776  1.00 20.00     0.165 C 
HETATM   11  C3  UNL     1     -32.874   8.043   5.999  1.00 20.00     0.033 C 
ENDBRANCH   9  10
ENDBRANCH   2   9
TORSDOF 5
ENDMDL
