MODEL 1
REMARK VINA RESULT:      -5.6      0.000      0.000
REMARK  4 active torsions:
REMARK  status: ('A' for Active; 'I' for Inactive)
REMARK    1  A    between atoms: C2_2  and  C7_7 
REMARK    2  A    between atoms: C2_2  and  C8_8 
REMARK    3  A    between atoms: C3_3  and  C9_9 
REMARK    4  A    between atoms: C8_8  and  C9_9 
ROOT
HETATM    1  C8  UNL     1     -32.911   6.655   3.017  1.00 20.00     0.045 C 
ENDROOT
BRANCH   1   2
HETATM    2  C2  UNL     1     -32.146   7.913   2.654  1.00 20.00    -0.089 C 
HETATM    3  C1  UNL     1     -31.317   8.490   3.541  1.00 20.00     0.014 C 
BRANCH   2   4
HETATM    4  C7  UNL     1     -32.331   8.503   1.275  1.00 20.00     0.029 C 
HETATM    5  C5  UNL     1     -32.647   9.992   1.298  1.00 20.00     0.010 C 
ENDBRANCH   2   4
ENDBRANCH   1   2
BRANCH   1   6
HETATM    6  C9  UNL     1     -34.196   6.907   3.825  1.00 20.00     0.055 C 
HETATM    7  C6  UNL     1     -35.344   6.044   3.304  1.00 20.00     0.018 C 
BRANCH   6   8
HETATM    8  C3  UNL     1     -33.999   6.602   5.308  1.00 20.00     0.127 C 
HETATM    9  C4  UNL     1     -34.531   5.283   5.804  1.00 20.00     0.091 C 
HETATM   10  O10 UNL     1     -33.408   7.374   6.064  1.00 20.00    -0.298 OA
ENDBRANCH   6   8
ENDBRANCH   1   6
TORSDOF 4
ENDMDL
MODEL 2
REMARK VINA RESULT:      -5.6      1.457      1.785
REMARK  4 active torsions:
REMARK  status: ('A' for Active; 'I' for Inactive)
REMARK    1  A    between atoms: C2_2  and  C7_7 
REMARK    2  A    between atoms: C2_2  and  C8_8 
REMARK    3  A    between atoms: C3_3  and  C9_9 
REMARK    4  A    between atoms: C8_8  and  C9_9 
ROOT
HETATM    1  C8  UNL     1     -33.660   7.774   3.226  1.00 20.00     0.045 C 
ENDROOT
BRANCH   1   2
HETATM    2  C2  UNL     1     -32.308   8.231   2.712  1.00 20.00    -0.089 C 
HETATM    3  C1  UNL     1     -31.223   8.188   3.504  1.00 20.00     0.014 C 
BRANCH   2   4
HETATM    4  C7  UNL     1     -32.204   8.730   1.289  1.00 20.00     0.029 C 
HETATM    5  C5  UNL     1     -32.703  10.159   1.118  1.00 20.00     0.010 C 
ENDBRANCH   2   4
ENDBRANCH   1   2
BRANCH   1   6
HETATM    6  C9  UNL     1     -33.589   6.687   4.314  1.00 20.00     0.055 C 
HETATM    7  C6  UNL     1     -33.762   7.298   5.703  1.00 20.00     0.018 C 
BRANCH   6   8
HETATM    8  C3  UNL     1     -34.663   5.621   4.117  1.00 20.00     0.127 C 
HETATM    9  C4  UNL     1     -34.311   4.219   4.542  1.00 20.00     0.091 C 
HETATM   10  O10 UNL     1     -35.778   5.887   3.667  1.00 20.00    -0.298 OA
ENDBRANCH   6   8
ENDBRANCH   1   6
TORSDOF 4
ENDMDL
MODEL 3
REMARK VINA RESULT:      -5.5      2.068      4.613
REMARK  4 active torsions:
REMARK  status: ('A' for Active; 'I' for Inactive)
REMARK    1  A    between atoms: C2_2  and  C7_7 
REMARK    2  A    between atoms: C2_2  and  C8_8 
REMARK    3  A    between atoms: C3_3  and  C9_9 
REMARK    4  A    between atoms: C8_8  and  C9_9 
ROOT
HETATM    1  C8  UNL     1     -32.877   6.715   2.348  1.00 20.00     0.045 C 
ENDROOT
BRANCH   1   2
HETATM    2  C2  UNL     1     -33.733   6.051   3.409  1.00 20.00    -0.089 C 
HETATM    3  C1  UNL     1     -33.806   4.711   3.491  1.00 20.00     0.014 C 
BRANCH   2   4
HETATM    4  C7  UNL     1     -34.498   6.925   4.376  1.00 20.00     0.029 C 
HETATM    5  C5  UNL     1     -34.010   6.798   5.813  1.00 20.00     0.010 C 
ENDBRANCH   2   4
ENDBRANCH   1   2
BRANCH   1   6
HETATM    6  C9  UNL     1     -32.524   8.183   2.647  1.00 20.00     0.055 C 
HETATM    7  C6  UNL     1     -31.363   8.272   3.636  1.00 20.00     0.018 C 
BRANCH   6   8
HETATM    8  C3  UNL     1     -32.138   8.941   1.380  1.00 20.00     0.127 C 
HETATM    9  C4  UNL     1     -32.852  10.243   1.126  1.00 20.00     0.091 C 
HETATM   10  O10 UNL     1     -31.264   8.536   0.612  1.00 20.00    -0.298 OA
ENDBRANCH   6   8
ENDBRANCH   1   6
TORSDOF 4
ENDMDL
MODEL 4
REMARK VINA RESULT:      -5.5      1.982      4.708
REMARK  4 active torsions:
REMARK  status: ('A' for Active; 'I' for Inactive)
REMARK    1  A    between atoms: C2_2  and  C7_7 
REMARK    2  A    between atoms: C2_2  and  C8_8 
REMARK    3  A    between atoms: C3_3  and  C9_9 
REMARK    4  A    between atoms: C8_8  and  C9_9 
ROOT
HETATM    1  C8  UNL     1     -33.086   6.999   2.867  1.00 20.00     0.045 C 
ENDROOT
BRANCH   1   2
HETATM    2  C2  UNL     1     -33.901   6.685   4.107  1.00 20.00    -0.089 C 
HETATM    3  C1  UNL     1     -33.686   7.349   5.256  1.00 20.00     0.014 C 
BRANCH   2   4
HETATM    4  C7  UNL     1     -34.963   5.612   4.025  1.00 20.00     0.029 C 
HETATM    5  C5  UNL     1     -34.492   4.262   4.547  1.00 20.00     0.010 C 
ENDBRANCH   2   4
ENDBRANCH   1   2
BRANCH   1   6
HETATM    6  C9  UNL     1     -32.391   8.372   2.899  1.00 20.00     0.055 C 
HETATM    7  C6  UNL     1     -31.046   8.283   3.617  1.00 20.00     0.018 C 
BRANCH   6   8
HETATM    8  C3  UNL     1     -32.153   8.917   1.494  1.00 20.00     0.127 C 
HETATM    9  C4  UNL     1     -32.948  10.134   1.096  1.00 20.00     0.091 C 
HETATM   10  O10 UNL     1     -31.331   8.416   0.725  1.00 20.00    -0.298 OA
ENDBRANCH   6   8
ENDBRANCH   1   6
TORSDOF 4
ENDMDL
MODEL 5
REMARK VINA RESULT:      -5.5      1.518      1.743
REMARK  4 active torsions:
REMARK  status: ('A' for Active; 'I' for Inactive)
REMARK    1  A    between atoms: C2_2  and  C7_7 
REMARK    2  A    between atoms: C2_2  and  C8_8 
REMARK    3  A    between atoms: C3_3  and  C9_9 
REMARK    4  A    between atoms: C8_8  and  C9_9 
ROOT
HETATM    1  C8  UNL     1     -33.690   7.391   3.730  1.00 20.00     0.045 C 
ENDROOT
BRANCH   1   2
HETATM    2  C2  UNL     1     -32.565   7.997   2.913  1.00 20.00    -0.089 C 
HETATM    3  C1  UNL     1     -31.342   8.159   3.446  1.00 20.00     0.014 C 
BRANCH   2   4
HETATM    4  C7  UNL     1     -32.844   8.410   1.486  1.00 20.00     0.029 C 
HETATM    5  C5  UNL     1     -32.497   9.865   1.205  1.00 20.00     0.010 C 
ENDBRANCH   2   4
ENDBRANCH   1   2
BRANCH   1   6
HETATM    6  C9  UNL     1     -34.092   5.970   3.297  1.00 20.00     0.055 C 
HETATM    7  C6  UNL     1     -32.954   5.292   2.536  1.00 20.00     0.018 C 
BRANCH   6   8
HETATM    8  C3  UNL     1     -34.457   5.098   4.495  1.00 20.00     0.127 C 
HETATM    9  C4  UNL     1     -34.587   5.794   5.825  1.00 20.00     0.091 C 
HETATM   10  O10 UNL     1     -34.671   3.889   4.387  1.00 20.00    -0.298 OA
ENDBRANCH   6   8
ENDBRANCH   1   6
TORSDOF 4
ENDMDL
MODEL 6
REMARK VINA RESULT:      -5.3      1.347      4.256
REMARK  4 active torsions:
REMARK  status: ('A' for Active; 'I' for Inactive)
REMARK    1  A    between atoms: C2_2  and  C7_7 
REMARK    2  A    between atoms: C2_2  and  C8_8 
REMARK    3  A    between atoms: C3_3  and  C9_9 
REMARK    4  A    between atoms: C8_8  and  C9_9 
ROOT
HETATM    1  C8  UNL     1     -34.164   6.988   3.843  1.00 20.00     0.045 C 
ENDROOT
BRANCH   1   2
HETATM    2  C2  UNL     1     -34.122   6.606   5.309  1.00 20.00    -0.089 C 
HETATM    3  C1  UNL     1     -33.609   7.447   6.223  1.00 20.00     0.014 C 
BRANCH   2   4
HETATM    4  C7  UNL     1     -34.672   5.260   5.724  1.00 20.00     0.029 C 
HETATM    5  C5  UNL     1     -34.433   4.170   4.688  1.00 20.00     0.010 C 
ENDBRANCH   2   4
ENDBRANCH   1   2
BRANCH   1   6
HETATM    6  C9  UNL     1     -32.855   6.716   3.080  1.00 20.00     0.055 C 
HETATM    7  C6  UNL     1     -33.136   6.022   1.749  1.00 20.00     0.018 C 
BRANCH   6   8
HETATM    8  C3  UNL     1     -32.087   8.005   2.799  1.00 20.00     0.127 C 
HETATM    9  C4  UNL     1     -32.368   8.688   1.486  1.00 20.00     0.091 C 
HETATM   10  O10 UNL     1     -31.299   8.491   3.612  1.00 20.00    -0.298 OA
ENDBRANCH   6   8
ENDBRANCH   1   6
TORSDOF 4
ENDMDL
MODEL 7
REMARK VINA RESULT:      -5.2      0.939      1.509
REMARK  4 active torsions:
REMARK  status: ('A' for Active; 'I' for Inactive)
REMARK    1  A    between atoms: C2_2  and  C7_7 
REMARK    2  A    between atoms: C2_2  and  C8_8 
REMARK    3  A    between atoms: C3_3  and  C9_9 
REMARK    4  A    between atoms: C8_8  and  C9_9 
ROOT
HETATM    1  C8  UNL     1     -32.143   8.015   3.086  1.00 20.00     0.045 C 
ENDROOT
BRANCH   1   2
HETATM    2  C2  UNL     1     -32.038   8.677   1.726  1.00 20.00    -0.089 C 
HETATM    3  C1  UNL     1     -31.095   8.295   0.848  1.00 20.00     0.014 C 
BRANCH   2   4
HETATM    4  C7  UNL     1     -33.018   9.774   1.376  1.00 20.00     0.029 C 
HETATM    5  C5  UNL     1     -33.239   9.922  -0.123  1.00 20.00     0.010 C 
ENDBRANCH   2   4
ENDBRANCH   1   2
BRANCH   1   6
HETATM    6  C9  UNL     1     -33.430   7.196   3.294  1.00 20.00     0.055 C 
HETATM    7  C6  UNL     1     -33.330   5.841   2.596  1.00 20.00     0.018 C 
BRANCH   6   8
HETATM    8  C3  UNL     1     -33.715   6.957   4.773  1.00 20.00     0.127 C 
HETATM    9  C4  UNL     1     -34.599   5.785   5.112  1.00 20.00     0.091 C 
HETATM   10  O10 UNL     1     -33.226   7.660   5.659  1.00 20.00    -0.298 OA
ENDBRANCH   6   8
ENDBRANCH   1   6
TORSDOF 4
ENDMDL
MODEL 8
REMARK VINA RESULT:      -5.1      1.362      1.881
REMARK  4 active torsions:
REMARK  status: ('A' for Active; 'I' for Inactive)
REMARK    1  A    between atoms: C2_2  and  C7_7 
REMARK    2  A    between atoms: C2_2  and  C8_8 
REMARK    3  A    between atoms: C3_3  and  C9_9 
REMARK    4  A    between atoms: C8_8  and  C9_9 
ROOT
HETATM    1  C8  UNL     1     -32.375   7.826   3.064  1.00 20.00     0.045 C 
ENDROOT
BRANCH   1   2
HETATM    2  C2  UNL     1     -32.169   8.573   1.760  1.00 20.00    -0.089 C 
HETATM    3  C1  UNL     1     -31.106   8.313   0.981  1.00 20.00     0.014 C 
BRANCH   2   4
HETATM    4  C7  UNL     1     -33.187   9.615   1.353  1.00 20.00     0.029 C 
HETATM    5  C5  UNL     1     -33.210   9.873  -0.148  1.00 20.00     0.010 C 
ENDBRANCH   2   4
ENDBRANCH   1   2
BRANCH   1   6
HETATM    6  C9  UNL     1     -33.506   6.782   3.022  1.00 20.00     0.055 C 
HETATM    7  C6  UNL     1     -32.986   5.438   2.517  1.00 20.00     0.018 C 
BRANCH   6   8
HETATM    8  C3  UNL     1     -34.130   6.572   4.399  1.00 20.00     0.127 C 
HETATM    9  C4  UNL     1     -33.585   7.412   5.525  1.00 20.00     0.091 C 
HETATM   10  O10 UNL     1     -35.056   5.782   4.587  1.00 20.00    -0.298 OA
ENDBRANCH   6   8
ENDBRANCH   1   6
TORSDOF 4
ENDMDL
MODEL 9
REMARK VINA RESULT:      -4.8      2.335      4.911
REMARK  4 active torsions:
REMARK  status: ('A' for Active; 'I' for Inactive)
REMARK    1  A    between atoms: C2_2  and  C7_7 
REMARK    2  A    between atoms: C2_2  and  C8_8 
REMARK    3  A    between atoms: C3_3  and  C9_9 
REMARK    4  A    between atoms: C8_8  and  C9_9 
ROOT
HETATM    1  C8  UNL     1     -31.935   8.558   2.871  1.00 20.00     0.045 C 
ENDROOT
BRANCH   1   2
HETATM    2  C2  UNL     1     -32.733   7.453   3.535  1.00 20.00    -0.089 C 
HETATM    3  C1  UNL     1     -33.096   6.359   2.845  1.00 20.00     0.014 C 
BRANCH   2   4
HETATM    4  C7  UNL     1     -33.110   7.604   4.992  1.00 20.00     0.029 C 
HETATM    5  C5  UNL     1     -34.137   6.580   5.454  1.00 20.00     0.010 C 
ENDBRANCH   2   4
ENDBRANCH   1   2
BRANCH   1   6
HETATM    6  C9  UNL     1     -32.696   9.311   1.765  1.00 20.00     0.055 C 
HETATM    7  C6  UNL     1     -32.613  10.821   1.980  1.00 20.00     0.018 C 
BRANCH   6   8
HETATM    8  C3  UNL     1     -32.142   8.989   0.380  1.00 20.00     0.127 C 
HETATM    9  C4  UNL     1     -33.051   9.257  -0.791  1.00 20.00     0.091 C 
HETATM   10  O10 UNL     1     -30.999   8.563   0.212  1.00 20.00    -0.298 OA
ENDBRANCH   6   8
ENDBRANCH   1   6
TORSDOF 4
ENDMDL
