MODEL 1
REMARK VINA RESULT:      -6.0      0.000      0.000
REMARK  5 active torsions:
REMARK  status: ('A' for Active; 'I' for Inactive)
REMARK    1  A    between atoms: C2_2  and  C7_7 
REMARK    2  A    between atoms: C2_2  and  C8_8 
REMARK    3  A    between atoms: C3_3  and  C7_7 
REMARK    4  A    between atoms: C3_3  and  C10_10 
REMARK    5  A    between atoms: C9_9  and  C10_10 
ROOT
HETATM    1  C3  UNL     1     -32.918   6.697   2.848  1.00 20.00     0.134 C 
HETATM    2  O11 UNL     1     -32.592   5.529   2.635  1.00 20.00    -0.297 OA
ENDROOT
BRANCH   1   3
HETATM    3  C7  UNL     1     -34.199   7.068   3.588  1.00 20.00     0.111 C 
BRANCH   3   4
HETATM    4  C2  UNL     1     -34.156   6.631   5.034  1.00 20.00    -0.083 C 
HETATM    5  C1  UNL     1     -33.507   7.379   5.942  1.00 20.00     0.014 C 
BRANCH   4   6
HETATM    6  C8  UNL     1     -34.856   5.321   5.335  1.00 20.00     0.029 C 
HETATM    7  C4  UNL     1     -34.342   4.079   4.617  1.00 20.00     0.010 C 
ENDBRANCH   4   6
ENDBRANCH   3   4
ENDBRANCH   1   3
BRANCH   1   8
HETATM    8  C10 UNL     1     -32.056   7.868   2.376  1.00 20.00     0.051 C 
HETATM    9  C6  UNL     1     -31.260   8.389   3.570  1.00 20.00     0.018 C 
BRANCH   8  10
HETATM   10  C9  UNL     1     -32.900   8.989   1.753  1.00 20.00     0.007 C 
HETATM   11  C5  UNL     1     -32.403   9.393   0.371  1.00 20.00     0.006 C 
ENDBRANCH   8  10
ENDBRANCH   1   8
TORSDOF 5
ENDMDL
MODEL 2
REMARK VINA RESULT:      -6.0      0.945      4.730
REMARK  5 active torsions:
REMARK  status: ('A' for Active; 'I' for Inactive)
REMARK    1  A    between atoms: C2_2  and  C7_7 
REMARK    2  A    between atoms: C2_2  and  C8_8 
REMARK    3  A    between atoms: C3_3  and  C7_7 
REMARK    4  A    between atoms: C3_3  and  C10_10 
REMARK    5  A    between atoms: C9_9  and  C10_10 
ROOT
HETATM    1  C3  UNL     1     -32.879   6.990   3.208  1.00 20.00     0.134 C 
HETATM    2  O11 UNL     1     -32.656   5.946   2.595  1.00 20.00    -0.297 OA
ENDROOT
BRANCH   1   3
HETATM    3  C7  UNL     1     -32.004   8.230   3.058  1.00 20.00     0.111 C 
BRANCH   3   4
HETATM    4  C2  UNL     1     -31.970   8.721   1.630  1.00 20.00    -0.083 C 
HETATM    5  C1  UNL     1     -31.000   8.302   0.799  1.00 20.00     0.014 C 
BRANCH   4   6
HETATM    6  C8  UNL     1     -33.063   9.702   1.256  1.00 20.00     0.029 C 
HETATM    7  C4  UNL     1     -33.356   9.880  -0.229  1.00 20.00     0.010 C 
ENDBRANCH   4   6
ENDBRANCH   3   4
ENDBRANCH   1   3
BRANCH   1   8
HETATM    8  C10 UNL     1     -34.055   7.115   4.176  1.00 20.00     0.051 C 
HETATM    9  C6  UNL     1     -33.501   7.410   5.568  1.00 20.00     0.018 C 
BRANCH   8  10
HETATM   10  C9  UNL     1     -34.923   5.849   4.193  1.00 20.00     0.007 C 
HETATM   11  C5  UNL     1     -34.666   4.983   5.420  1.00 20.00     0.006 C 
ENDBRANCH   8  10
ENDBRANCH   1   8
TORSDOF 5
ENDMDL
MODEL 3
REMARK VINA RESULT:      -5.9      0.826      4.437
REMARK  5 active torsions:
REMARK  status: ('A' for Active; 'I' for Inactive)
REMARK    1  A    between atoms: C2_2  and  C7_7 
REMARK    2  A    between atoms: C2_2  and  C8_8 
REMARK    3  A    between atoms: C3_3  and  C7_7 
REMARK    4  A    between atoms: C3_3  and  C10_10 
REMARK    5  A    between atoms: C9_9  and  C10_10 
ROOT
HETATM    1  C3  UNL     1     -33.289   5.852   2.992  1.00 20.00     0.134 C 
HETATM    2  O11 UNL     1     -32.785   5.000   2.259  1.00 20.00    -0.297 OA
ENDROOT
BRANCH   1   3
HETATM    3  C7  UNL     1     -33.560   7.278   2.523  1.00 20.00     0.111 C 
BRANCH   3   4
HETATM    4  C2  UNL     1     -32.286   8.079   2.402  1.00 20.00    -0.083 C 
HETATM    5  C1  UNL     1     -31.428   8.137   3.434  1.00 20.00     0.014 C 
BRANCH   4   6
HETATM    6  C8  UNL     1     -32.095   8.797   1.081  1.00 20.00     0.029 C 
HETATM    7  C4  UNL     1     -32.647  10.214   0.975  1.00 20.00     0.010 C 
ENDBRANCH   4   6
ENDBRANCH   3   4
ENDBRANCH   1   3
BRANCH   1   8
HETATM    8  C10 UNL     1     -33.674   5.539   4.437  1.00 20.00     0.051 C 
HETATM    9  C6  UNL     1     -34.471   4.237   4.449  1.00 20.00     0.018 C 
BRANCH   8  10
HETATM   10  C9  UNL     1     -34.482   6.677   5.077  1.00 20.00     0.007 C 
HETATM   11  C5  UNL     1     -33.693   7.422   6.145  1.00 20.00     0.006 C 
ENDBRANCH   8  10
ENDBRANCH   1   8
TORSDOF 5
ENDMDL
MODEL 4
REMARK VINA RESULT:      -5.8      1.353      2.259
REMARK  5 active torsions:
REMARK  status: ('A' for Active; 'I' for Inactive)
REMARK    1  A    between atoms: C2_2  and  C7_7 
REMARK    2  A    between atoms: C2_2  and  C8_8 
REMARK    3  A    between atoms: C3_3  and  C7_7 
REMARK    4  A    between atoms: C3_3  and  C10_10 
REMARK    5  A    between atoms: C9_9  and  C10_10 
ROOT
HETATM    1  C3  UNL     1     -32.188   8.397   2.611  1.00 20.00     0.134 C 
HETATM    2  O11 UNL     1     -31.354   8.161   3.486  1.00 20.00    -0.297 OA
ENDROOT
BRANCH   1   3
HETATM    3  C7  UNL     1     -33.550   7.713   2.573  1.00 20.00     0.111 C 
BRANCH   3   4
HETATM    4  C2  UNL     1     -33.558   6.435   3.379  1.00 20.00    -0.083 C 
HETATM    5  C1  UNL     1     -33.153   5.284   2.817  1.00 20.00     0.014 C 
BRANCH   4   6
HETATM    6  C8  UNL     1     -34.067   6.570   4.800  1.00 20.00     0.029 C 
HETATM    7  C4  UNL     1     -34.620   5.312   5.460  1.00 20.00     0.010 C 
ENDBRANCH   4   6
ENDBRANCH   3   4
ENDBRANCH   1   3
BRANCH   1   8
HETATM    8  C10 UNL     1     -31.910   9.398   1.489  1.00 20.00     0.051 C 
HETATM    9  C6  UNL     1     -32.859  10.582   1.657  1.00 20.00     0.018 C 
BRANCH   8  10
HETATM   10  C9  UNL     1     -32.073   8.763   0.100  1.00 20.00     0.007 C 
HETATM   11  C5  UNL     1     -33.214   9.385  -0.694  1.00 20.00     0.006 C 
ENDBRANCH   8  10
ENDBRANCH   1   8
TORSDOF 5
ENDMDL
MODEL 5
REMARK VINA RESULT:      -5.7      0.538      1.705
REMARK  5 active torsions:
REMARK  status: ('A' for Active; 'I' for Inactive)
REMARK    1  A    between atoms: C2_2  and  C7_7 
REMARK    2  A    between atoms: C2_2  and  C8_8 
REMARK    3  A    between atoms: C3_3  and  C7_7 
REMARK    4  A    between atoms: C3_3  and  C10_10 
REMARK    5  A    between atoms: C9_9  and  C10_10 
ROOT
HETATM    1  C3  UNL     1     -32.978   6.372   2.757  1.00 20.00     0.134 C 
HETATM    2  O11 UNL     1     -32.580   5.237   2.494  1.00 20.00    -0.297 OA
ENDROOT
BRANCH   1   3
HETATM    3  C7  UNL     1     -34.282   6.630   3.504  1.00 20.00     0.111 C 
BRANCH   3   4
HETATM    4  C2  UNL     1     -34.454   5.688   4.672  1.00 20.00    -0.083 C 
HETATM    5  C1  UNL     1     -34.683   4.382   4.453  1.00 20.00     0.014 C 
BRANCH   4   6
HETATM    6  C8  UNL     1     -34.376   6.333   6.041  1.00 20.00     0.029 C 
HETATM    7  C4  UNL     1     -33.603   7.642   6.147  1.00 20.00     0.010 C 
ENDBRANCH   4   6
ENDBRANCH   3   4
ENDBRANCH   1   3
BRANCH   1   8
HETATM    8  C10 UNL     1     -32.186   7.614   2.346  1.00 20.00     0.051 C 
HETATM    9  C6  UNL     1     -31.481   8.164   3.583  1.00 20.00     0.018 C 
BRANCH   8  10
HETATM   10  C9  UNL     1     -33.085   8.684   1.711  1.00 20.00     0.007 C 
HETATM   11  C5  UNL     1     -32.322   9.597   0.760  1.00 20.00     0.006 C 
ENDBRANCH   8  10
ENDBRANCH   1   8
TORSDOF 5
ENDMDL
MODEL 6
REMARK VINA RESULT:      -5.5      1.408      2.281
REMARK  5 active torsions:
REMARK  status: ('A' for Active; 'I' for Inactive)
REMARK    1  A    between atoms: C2_2  and  C7_7 
REMARK    2  A    between atoms: C2_2  and  C8_8 
REMARK    3  A    between atoms: C3_3  and  C7_7 
REMARK    4  A    between atoms: C3_3  and  C10_10 
REMARK    5  A    between atoms: C9_9  and  C10_10 
ROOT
HETATM    1  C3  UNL     1     -32.514   8.099   2.551  1.00 20.00     0.134 C 
HETATM    2  O11 UNL     1     -31.493   8.078   3.240  1.00 20.00    -0.297 OA
ENDROOT
BRANCH   1   3
HETATM    3  C7  UNL     1     -33.867   7.637   3.079  1.00 20.00     0.111 C 
BRANCH   3   4
HETATM    4  C2  UNL     1     -33.810   6.221   3.603  1.00 20.00    -0.083 C 
HETATM    5  C1  UNL     1     -33.379   5.228   2.808  1.00 20.00     0.014 C 
BRANCH   4   6
HETATM    6  C8  UNL     1     -34.288   6.038   5.030  1.00 20.00     0.029 C 
HETATM    7  C4  UNL     1     -33.897   7.115   6.035  1.00 20.00     0.010 C 
ENDBRANCH   4   6
ENDBRANCH   3   4
ENDBRANCH   1   3
BRANCH   1   8
HETATM    8  C10 UNL     1     -32.493   8.590   1.104  1.00 20.00     0.051 C 
HETATM    9  C6  UNL     1     -31.038   8.680   0.649  1.00 20.00     0.018 C 
BRANCH   8  10
HETATM   10  C9  UNL     1     -33.197   9.945   0.946  1.00 20.00     0.007 C 
HETATM   11  C5  UNL     1     -32.452  11.073   1.647  1.00 20.00     0.006 C 
ENDBRANCH   8  10
ENDBRANCH   1   8
TORSDOF 5
ENDMDL
MODEL 7
REMARK VINA RESULT:      -5.4      1.532      4.718
REMARK  5 active torsions:
REMARK  status: ('A' for Active; 'I' for Inactive)
REMARK    1  A    between atoms: C2_2  and  C7_7 
REMARK    2  A    between atoms: C2_2  and  C8_8 
REMARK    3  A    between atoms: C3_3  and  C7_7 
REMARK    4  A    between atoms: C3_3  and  C10_10 
REMARK    5  A    between atoms: C9_9  and  C10_10 
ROOT
HETATM    1  C3  UNL     1     -32.093   8.119   3.036  1.00 20.00     0.134 C 
HETATM    2  O11 UNL     1     -31.300   8.423   3.927  1.00 20.00    -0.297 OA
ENDROOT
BRANCH   1   3
HETATM    3  C7  UNL     1     -31.823   8.413   1.564  1.00 20.00     0.111 C 
BRANCH   3   4
HETATM    4  C2  UNL     1     -32.563   9.643   1.094  1.00 20.00    -0.083 C 
HETATM    5  C1  UNL     1     -32.599  10.741   1.866  1.00 20.00     0.014 C 
BRANCH   4   6
HETATM    6  C8  UNL     1     -33.248   9.511  -0.252  1.00 20.00     0.029 C 
HETATM    7  C4  UNL     1     -32.624   8.549  -1.256  1.00 20.00     0.010 C 
ENDBRANCH   4   6
ENDBRANCH   3   4
ENDBRANCH   1   3
BRANCH   1   8
HETATM    8  C10 UNL     1     -33.420   7.426   3.347  1.00 20.00     0.051 C 
HETATM    9  C6  UNL     1     -33.572   7.341   4.863  1.00 20.00     0.018 C 
BRANCH   8  10
HETATM   10  C9  UNL     1     -33.502   6.030   2.713  1.00 20.00     0.007 C 
HETATM   11  C5  UNL     1     -34.053   4.985   3.674  1.00 20.00     0.006 C 
ENDBRANCH   8  10
ENDBRANCH   1   8
TORSDOF 5
ENDMDL
MODEL 8
REMARK VINA RESULT:      -5.4      1.479      4.750
REMARK  5 active torsions:
REMARK  status: ('A' for Active; 'I' for Inactive)
REMARK    1  A    between atoms: C2_2  and  C7_7 
REMARK    2  A    between atoms: C2_2  and  C8_8 
REMARK    3  A    between atoms: C3_3  and  C7_7 
REMARK    4  A    between atoms: C3_3  and  C10_10 
REMARK    5  A    between atoms: C9_9  and  C10_10 
ROOT
HETATM    1  C3  UNL     1     -33.680   6.881   3.350  1.00 20.00     0.134 C 
HETATM    2  O11 UNL     1     -34.320   7.610   4.108  1.00 20.00    -0.297 OA
ENDROOT
BRANCH   1   3
HETATM    3  C7  UNL     1     -33.114   7.374   2.023  1.00 20.00     0.111 C 
BRANCH   3   4
HETATM    4  C2  UNL     1     -32.124   8.498   2.219  1.00 20.00    -0.083 C 
HETATM    5  C1  UNL     1     -31.261   8.460   3.248  1.00 20.00     0.014 C 
BRANCH   4   6
HETATM    6  C8  UNL     1     -32.217   9.626   1.212  1.00 20.00     0.029 C 
HETATM    7  C4  UNL     1     -32.942   9.330  -0.096  1.00 20.00     0.010 C 
ENDBRANCH   4   6
ENDBRANCH   3   4
ENDBRANCH   1   3
BRANCH   1   8
HETATM    8  C10 UNL     1     -33.409   5.414   3.688  1.00 20.00     0.051 C 
HETATM    9  C6  UNL     1     -33.030   4.688   2.400  1.00 20.00     0.018 C 
BRANCH   8  10
HETATM   10  C9  UNL     1     -34.620   4.745   4.354  1.00 20.00     0.007 C 
HETATM   11  C5  UNL     1     -34.610   4.899   5.869  1.00 20.00     0.006 C 
ENDBRANCH   8  10
ENDBRANCH   1   8
TORSDOF 5
ENDMDL
MODEL 9
REMARK VINA RESULT:      -5.3      1.579      4.907
REMARK  5 active torsions:
REMARK  status: ('A' for Active; 'I' for Inactive)
REMARK    1  A    between atoms: C2_2  and  C7_7 
REMARK    2  A    between atoms: C2_2  and  C8_8 
REMARK    3  A    between atoms: C3_3  and  C7_7 
REMARK    4  A    between atoms: C3_3  and  C10_10 
REMARK    5  A    between atoms: C9_9  and  C10_10 
ROOT
HETATM    1  C3  UNL     1     -32.016   8.026   2.762  1.00 20.00     0.134 C 
HETATM    2  O11 UNL     1     -31.372   8.389   3.747  1.00 20.00    -0.297 OA
ENDROOT
BRANCH   1   3
HETATM    3  C7  UNL     1     -31.623   8.412   1.340  1.00 20.00     0.111 C 
BRANCH   3   4
HETATM    4  C2  UNL     1     -32.665   9.293   0.691  1.00 20.00    -0.083 C 
HETATM    5  C1  UNL     1     -33.041   9.064  -0.578  1.00 20.00     0.014 C 
BRANCH   4   6
HETATM    6  C8  UNL     1     -33.194  10.417   1.559  1.00 20.00     0.029 C 
HETATM    7  C4  UNL     1     -32.193  11.472   2.013  1.00 20.00     0.010 C 
ENDBRANCH   4   6
ENDBRANCH   3   4
ENDBRANCH   1   3
BRANCH   1   8
HETATM    8  C10 UNL     1     -33.269   7.161   2.899  1.00 20.00     0.051 C 
HETATM    9  C6  UNL     1     -33.796   7.303   4.325  1.00 20.00     0.018 C 
BRANCH   8  10
HETATM   10  C9  UNL     1     -32.990   5.689   2.566  1.00 20.00     0.007 C 
HETATM   11  C5  UNL     1     -33.768   4.732   3.460  1.00 20.00     0.006 C 
ENDBRANCH   8  10
ENDBRANCH   1   8
TORSDOF 5
ENDMDL
