MODEL 1
REMARK VINA RESULT:      -4.9      0.000      0.000
REMARK  4 active torsions:
REMARK  status: ('A' for Active; 'I' for Inactive)
REMARK    1  A    between atoms: C3_3  and  C6_6 
REMARK    2  A    between atoms: C3_3  and  C7_7 
REMARK    3  A    between atoms: C6_6  and  C9_9 
REMARK    4  A    between atoms: C8_8  and  C9_9 
ROOT
HETATM    1  C1  UNL     1     -34.324   5.422   2.318  1.00 20.00     0.011 A 
HETATM    2  C2  UNL     1     -32.952   5.205   2.890  1.00 20.00     0.011 A 
HETATM    3  C3  UNL     1     -33.809   6.339   3.403  1.00 20.00    -0.027 A 
ENDROOT
BRANCH   3   4
HETATM    4  C6  UNL     1     -33.421   7.758   3.015  1.00 20.00     0.015 C 
BRANCH   4   5
HETATM    5  C9  UNL     1     -31.946   7.906   2.582  1.00 20.00    -0.018 C 
HETATM    6  C5  UNL     1     -31.095   8.538   3.687  1.00 20.00     0.010 C 
BRANCH   5   7
HETATM    7  C8  UNL     1     -31.889   8.730   1.279  1.00 20.00    -0.000 C 
HETATM    8  C4  UNL     1     -32.713  10.009   1.322  1.00 20.00     0.005 C 
ENDBRANCH   5   7
ENDBRANCH   4   5
ENDBRANCH   3   4
BRANCH   3   9
HETATM    9  C7  UNL     1     -34.403   6.207   4.778  1.00 20.00     0.124 C 
HETATM   10 CL10 UNL     1     -33.645   7.356   5.908  1.00 20.00    -0.130 Cl
ENDBRANCH   3   9
TORSDOF 4
ENDMDL
MODEL 2
REMARK VINA RESULT:      -4.8      0.921      3.928
REMARK  4 active torsions:
REMARK  status: ('A' for Active; 'I' for Inactive)
REMARK    1  A    between atoms: C3_3  and  C6_6 
REMARK    2  A    between atoms: C3_3  and  C7_7 
REMARK    3  A    between atoms: C6_6  and  C9_9 
REMARK    4  A    between atoms: C8_8  and  C9_9 
ROOT
HETATM    1  C1  UNL     1     -31.658   8.457   1.090  1.00 20.00     0.011 A 
HETATM    2  C2  UNL     1     -32.488   9.522   1.747  1.00 20.00     0.011 A 
HETATM    3  C3  UNL     1     -32.360   8.164   2.396  1.00 20.00    -0.027 A 
ENDROOT
BRANCH   3   4
HETATM    4  C6  UNL     1     -33.571   7.242   2.366  1.00 20.00     0.015 C 
BRANCH   4   5
HETATM    5  C9  UNL     1     -33.436   6.006   3.281  1.00 20.00    -0.018 C 
HETATM    6  C5  UNL     1     -32.995   4.768   2.495  1.00 20.00     0.010 C 
BRANCH   5   7
HETATM    7  C8  UNL     1     -34.778   5.772   4.004  1.00 20.00    -0.000 C 
HETATM    8  C4  UNL     1     -34.629   5.243   5.424  1.00 20.00     0.005 C 
ENDBRANCH   5   7
ENDBRANCH   4   5
ENDBRANCH   3   4
BRANCH   3   9
HETATM    9  C7  UNL     1     -31.520   8.054   3.639  1.00 20.00     0.124 C 
HETATM   10 CL10 UNL     1     -32.511   8.306   5.097  1.00 20.00    -0.130 Cl
ENDBRANCH   3   9
TORSDOF 4
ENDMDL
MODEL 3
REMARK VINA RESULT:      -4.8      1.453      2.004
REMARK  4 active torsions:
REMARK  status: ('A' for Active; 'I' for Inactive)
REMARK    1  A    between atoms: C3_3  and  C6_6 
REMARK    2  A    between atoms: C3_3  and  C7_7 
REMARK    3  A    between atoms: C6_6  and  C9_9 
REMARK    4  A    between atoms: C8_8  and  C9_9 
ROOT
HETATM    1  C1  UNL     1     -34.187   6.551   4.944  1.00 20.00     0.011 A 
HETATM    2  C2  UNL     1     -35.288   6.159   4.000  1.00 20.00     0.011 A 
HETATM    3  C3  UNL     1     -33.879   6.329   3.482  1.00 20.00    -0.027 A 
ENDROOT
BRANCH   3   4
HETATM    4  C6  UNL     1     -33.577   7.547   2.621  1.00 20.00     0.015 C 
BRANCH   4   5
HETATM    5  C9  UNL     1     -32.070   7.785   2.383  1.00 20.00    -0.018 C 
HETATM    6  C5  UNL     1     -31.388   8.370   3.623  1.00 20.00     0.010 C 
BRANCH   5   7
HETATM    7  C8  UNL     1     -31.898   8.701   1.154  1.00 20.00    -0.000 C 
HETATM    8  C4  UNL     1     -32.645  10.023   1.260  1.00 20.00     0.005 C 
ENDBRANCH   5   7
ENDBRANCH   4   5
ENDBRANCH   3   4
BRANCH   3   9
HETATM    9  C7  UNL     1     -33.113   5.090   3.103  1.00 20.00     0.124 C 
HETATM   10 CL10 UNL     1     -33.860   3.641   3.820  1.00 20.00    -0.130 Cl
ENDBRANCH   3   9
TORSDOF 4
ENDMDL
MODEL 4
REMARK VINA RESULT:      -4.4      2.131      4.303
REMARK  4 active torsions:
REMARK  status: ('A' for Active; 'I' for Inactive)
REMARK    1  A    between atoms: C3_3  and  C6_6 
REMARK    2  A    between atoms: C3_3  and  C7_7 
REMARK    3  A    between atoms: C6_6  and  C9_9 
REMARK    4  A    between atoms: C8_8  and  C9_9 
ROOT
HETATM    1  C1  UNL     1     -31.911   9.260   3.466  1.00 20.00     0.011 A 
HETATM    2  C2  UNL     1     -31.041   8.037   3.419  1.00 20.00     0.011 A 
HETATM    3  C3  UNL     1     -32.102   8.243   2.364  1.00 20.00    -0.027 A 
ENDROOT
BRANCH   3   4
HETATM    4  C6  UNL     1     -33.340   7.359   2.414  1.00 20.00     0.015 C 
BRANCH   4   5
HETATM    5  C9  UNL     1     -33.234   6.193   3.419  1.00 20.00    -0.018 C 
HETATM    6  C5  UNL     1     -33.301   4.834   2.715  1.00 20.00     0.010 C 
BRANCH   5   7
HETATM    7  C8  UNL     1     -34.348   6.341   4.475  1.00 20.00    -0.000 C 
HETATM    8  C4  UNL     1     -33.898   7.038   5.752  1.00 20.00     0.005 C 
ENDBRANCH   5   7
ENDBRANCH   4   5
ENDBRANCH   3   4
BRANCH   3   9
HETATM    9  C7  UNL     1     -31.654   8.614   0.977  1.00 20.00     0.124 C 
HETATM   10 CL10 UNL     1     -32.861   9.650   0.177  1.00 20.00    -0.130 Cl
ENDBRANCH   3   9
TORSDOF 4
ENDMDL
MODEL 5
REMARK VINA RESULT:      -4.3      2.133      4.250
REMARK  4 active torsions:
REMARK  status: ('A' for Active; 'I' for Inactive)
REMARK    1  A    between atoms: C3_3  and  C6_6 
REMARK    2  A    between atoms: C3_3  and  C7_7 
REMARK    3  A    between atoms: C6_6  and  C9_9 
REMARK    4  A    between atoms: C8_8  and  C9_9 
ROOT
HETATM    1  C1  UNL     1     -31.304   8.486   3.245  1.00 20.00     0.011 A 
HETATM    2  C2  UNL     1     -31.338   8.053   1.808  1.00 20.00     0.011 A 
HETATM    3  C3  UNL     1     -32.616   8.085   2.613  1.00 20.00    -0.027 A 
ENDROOT
BRANCH   3   4
HETATM    4  C6  UNL     1     -33.233   6.756   3.026  1.00 20.00     0.015 C 
BRANCH   4   5
HETATM    5  C9  UNL     1     -34.321   6.885   4.113  1.00 20.00    -0.018 C 
HETATM    6  C5  UNL     1     -33.712   7.155   5.492  1.00 20.00     0.010 C 
BRANCH   5   7
HETATM    7  C8  UNL     1     -35.180   5.604   4.112  1.00 20.00    -0.000 C 
HETATM    8  C4  UNL     1     -34.424   4.354   4.541  1.00 20.00     0.005 C 
ENDBRANCH   5   7
ENDBRANCH   4   5
ENDBRANCH   3   4
BRANCH   3   9
HETATM    9  C7  UNL     1     -33.613   9.170   2.309  1.00 20.00     0.124 C 
HETATM   10 CL10 UNL     1     -33.041  10.199   0.973  1.00 20.00    -0.130 Cl
ENDBRANCH   3   9
TORSDOF 4
ENDMDL
MODEL 6
REMARK VINA RESULT:      -3.8      1.696      2.483
REMARK  4 active torsions:
REMARK  status: ('A' for Active; 'I' for Inactive)
REMARK    1  A    between atoms: C3_3  and  C6_6 
REMARK    2  A    between atoms: C3_3  and  C7_7 
REMARK    3  A    between atoms: C6_6  and  C9_9 
REMARK    4  A    between atoms: C8_8  and  C9_9 
ROOT
HETATM    1  C1  UNL     1     -33.341   6.863   5.314  1.00 20.00     0.011 A 
HETATM    2  C2  UNL     1     -34.273   7.883   4.727  1.00 20.00     0.011 A 
HETATM    3  C3  UNL     1     -33.392   7.060   3.817  1.00 20.00    -0.027 A 
ENDROOT
BRANCH   3   4
HETATM    4  C6  UNL     1     -32.214   7.752   3.146  1.00 20.00     0.015 C 
BRANCH   4   5
HETATM    5  C9  UNL     1     -32.521   8.270   1.725  1.00 20.00    -0.018 C 
HETATM    6  C5  UNL     1     -31.252   8.366   0.873  1.00 20.00     0.010 C 
BRANCH   5   7
HETATM    7  C8  UNL     1     -33.237   9.632   1.834  1.00 20.00    -0.000 C 
HETATM    8  C4  UNL     1     -32.486  10.778   1.169  1.00 20.00     0.005 C 
ENDBRANCH   5   7
ENDBRANCH   4   5
ENDBRANCH   3   4
BRANCH   3   9
HETATM    9  C7  UNL     1     -34.043   5.988   2.986  1.00 20.00     0.124 C 
HETATM   10 CL10 UNL     1     -32.866   4.727   2.544  1.00 20.00    -0.130 Cl
ENDBRANCH   3   9
TORSDOF 4
ENDMDL
MODEL 7
REMARK VINA RESULT:      -3.8     10.758     11.377
REMARK  4 active torsions:
REMARK  status: ('A' for Active; 'I' for Inactive)
REMARK    1  A    between atoms: C3_3  and  C6_6 
REMARK    2  A    between atoms: C3_3  and  C7_7 
REMARK    3  A    between atoms: C6_6  and  C9_9 
REMARK    4  A    between atoms: C8_8  and  C9_9 
ROOT
HETATM    1  C1  UNL     1     -33.311  15.479  -5.519  1.00 20.00     0.011 A 
HETATM    2  C2  UNL     1     -32.952  14.817  -4.220  1.00 20.00     0.011 A 
HETATM    3  C3  UNL     1     -34.322  15.429  -4.396  1.00 20.00    -0.027 A 
ENDROOT
BRANCH   3   4
HETATM    4  C6  UNL     1     -34.627  16.720  -3.651  1.00 20.00     0.015 C 
BRANCH   4   5
HETATM    5  C9  UNL     1     -34.215  16.695  -2.164  1.00 20.00    -0.018 C 
HETATM    6  C5  UNL     1     -35.415  16.930  -1.241  1.00 20.00     0.010 C 
BRANCH   5   7
HETATM    7  C8  UNL     1     -33.108  17.745  -1.936  1.00 20.00    -0.000 C 
HETATM    8  C4  UNL     1     -33.154  18.402  -0.562  1.00 20.00     0.005 C 
ENDBRANCH   5   7
ENDBRANCH   4   5
ENDBRANCH   3   4
BRANCH   3   9
HETATM    9  C7  UNL     1     -35.496  14.500  -4.545  1.00 20.00     0.124 C 
HETATM   10 CL10 UNL     1     -37.015  15.328  -4.123  1.00 20.00    -0.130 Cl
ENDBRANCH   3   9
TORSDOF 4
ENDMDL
MODEL 8
REMARK VINA RESULT:      -3.8      1.733      3.903
REMARK  4 active torsions:
REMARK  status: ('A' for Active; 'I' for Inactive)
REMARK    1  A    between atoms: C3_3  and  C6_6 
REMARK    2  A    between atoms: C3_3  and  C7_7 
REMARK    3  A    between atoms: C6_6  and  C9_9 
REMARK    4  A    between atoms: C8_8  and  C9_9 
ROOT
HETATM    1  C1  UNL     1     -33.356   5.424   1.894  1.00 20.00     0.011 A 
HETATM    2  C2  UNL     1     -34.553   6.263   2.241  1.00 20.00     0.011 A 
HETATM    3  C3  UNL     1     -33.200   6.611   2.816  1.00 20.00    -0.027 A 
ENDROOT
BRANCH   3   4
HETATM    4  C6  UNL     1     -32.961   6.341   4.295  1.00 20.00     0.015 C 
BRANCH   4   5
HETATM    5  C9  UNL     1     -34.135   6.765   5.204  1.00 20.00    -0.018 C 
HETATM    6  C5  UNL     1     -33.695   7.793   6.251  1.00 20.00     0.010 C 
BRANCH   5   7
HETATM    7  C8  UNL     1     -34.736   5.506   5.861  1.00 20.00    -0.000 C 
HETATM    8  C4  UNL     1     -34.396   4.210   5.138  1.00 20.00     0.005 C 
ENDBRANCH   5   7
ENDBRANCH   4   5
ENDBRANCH   3   4
BRANCH   3   9
HETATM    9  C7  UNL     1     -32.501   7.832   2.282  1.00 20.00     0.124 C 
HETATM   10 CL10 UNL     1     -31.321   8.452   3.463  1.00 20.00    -0.130 Cl
ENDBRANCH   3   9
TORSDOF 4
ENDMDL
MODEL 9
REMARK VINA RESULT:      -3.8      1.878      4.004
REMARK  4 active torsions:
REMARK  status: ('A' for Active; 'I' for Inactive)
REMARK    1  A    between atoms: C3_3  and  C6_6 
REMARK    2  A    between atoms: C3_3  and  C7_7 
REMARK    3  A    between atoms: C6_6  and  C9_9 
REMARK    4  A    between atoms: C8_8  and  C9_9 
ROOT
HETATM    1  C1  UNL     1     -32.955   8.822   2.084  1.00 20.00     0.011 A 
HETATM    2  C2  UNL     1     -31.645   8.110   1.909  1.00 20.00     0.011 A 
HETATM    3  C3  UNL     1     -32.789   7.415   2.609  1.00 20.00    -0.027 A 
ENDROOT
BRANCH   3   4
HETATM    4  C6  UNL     1     -32.692   7.222   4.115  1.00 20.00     0.015 C 
BRANCH   4   5
HETATM    5  C9  UNL     1     -34.057   7.238   4.836  1.00 20.00    -0.018 C 
HETATM    6  C5  UNL     1     -33.898   7.487   6.339  1.00 20.00     0.010 C 
BRANCH   5   7
HETATM    7  C8  UNL     1     -34.786   5.909   4.554  1.00 20.00    -0.000 C 
HETATM    8  C4  UNL     1     -34.540   4.835   5.605  1.00 20.00     0.005 C 
ENDBRANCH   5   7
ENDBRANCH   4   5
ENDBRANCH   3   4
BRANCH   3   9
HETATM    9  C7  UNL     1     -33.490   6.302   1.879  1.00 20.00     0.124 C 
HETATM   10 CL10 UNL     1     -32.842   4.718   2.369  1.00 20.00    -0.130 Cl
ENDBRANCH   3   9
TORSDOF 4
ENDMDL
