MODEL 1
REMARK VINA RESULT:      -4.4      0.000      0.000
REMARK  2 active torsions:
REMARK  status: ('A' for Active; 'I' for Inactive)
REMARK    1  A    between atoms: C5_5  and  O9_9 
REMARK    2  A    between atoms: C7_7  and  O9_9 
ROOT
HETATM    1  C1  UNL     1     -33.556   7.105   5.089  1.00 20.00     0.098 C 
HETATM    2  C2  UNL     1     -34.721   4.446   4.305  1.00 20.00     0.008 C 
HETATM    3  C3  UNL     1     -33.364   4.946   3.778  1.00 20.00     0.054 C 
HETATM    4  C4  UNL     1     -35.333   5.785   3.857  1.00 20.00     0.054 C 
HETATM    5  C5  UNL     1     -33.905   6.400   3.870  1.00 20.00     0.148 C 
HETATM    6  N8  UNL     1     -33.278   7.668   6.063  1.00 20.00    -0.194 NA
ENDROOT
BRANCH   5   7
HETATM    7  O9  UNL     1     -33.588   7.251   2.750  1.00 20.00    -0.366 OA
BRANCH   7   8
HETATM    8  C7  UNL     1     -32.298   7.809   2.897  1.00 20.00     0.165 C 
HETATM    9  C6  UNL     1     -31.973   8.629   1.666  1.00 20.00     0.033 C 
ENDBRANCH   7   8
ENDBRANCH   5   7
TORSDOF 2
ENDMDL
MODEL 2
REMARK VINA RESULT:      -4.4      1.960      3.848
REMARK  2 active torsions:
REMARK  status: ('A' for Active; 'I' for Inactive)
REMARK    1  A    between atoms: C5_5  and  O9_9 
REMARK    2  A    between atoms: C7_7  and  O9_9 
ROOT
HETATM    1  C1  UNL     1     -32.960   5.822   2.789  1.00 20.00     0.098 C 
HETATM    2  C2  UNL     1     -31.728   8.467   2.068  1.00 20.00     0.008 C 
HETATM    3  C3  UNL     1     -31.723   7.913   3.504  1.00 20.00     0.054 C 
HETATM    4  C4  UNL     1     -33.247   8.222   2.031  1.00 20.00     0.054 C 
HETATM    5  C5  UNL     1     -33.074   7.208   3.198  1.00 20.00     0.148 C 
HETATM    6  N8  UNL     1     -32.869   4.713   2.462  1.00 20.00    -0.194 NA
ENDROOT
BRANCH   5   7
HETATM    7  O9  UNL     1     -34.066   7.292   4.240  1.00 20.00    -0.366 OA
BRANCH   7   8
HETATM    8  C7  UNL     1     -34.736   6.057   4.392  1.00 20.00     0.165 C 
HETATM    9  C6  UNL     1     -34.565   5.576   5.817  1.00 20.00     0.033 C 
ENDBRANCH   7   8
ENDBRANCH   5   7
TORSDOF 2
ENDMDL
MODEL 3
REMARK VINA RESULT:      -4.2      1.784      2.248
REMARK  2 active torsions:
REMARK  status: ('A' for Active; 'I' for Inactive)
REMARK    1  A    between atoms: C5_5  and  O9_9 
REMARK    2  A    between atoms: C7_7  and  O9_9 
ROOT
HETATM    1  C1  UNL     1     -33.204   5.330   2.955  1.00 20.00     0.098 C 
HETATM    2  C2  UNL     1     -34.879   5.544   5.443  1.00 20.00     0.008 C 
HETATM    3  C3  UNL     1     -35.357   6.060   4.074  1.00 20.00     0.054 C 
HETATM    4  C4  UNL     1     -33.585   6.354   5.241  1.00 20.00     0.054 C 
HETATM    5  C5  UNL     1     -33.877   6.367   3.713  1.00 20.00     0.148 C 
HETATM    6  N8  UNL     1     -32.667   4.501   2.349  1.00 20.00    -0.194 NA
ENDROOT
BRANCH   5   7
HETATM    7  O9  UNL     1     -33.650   7.629   3.053  1.00 20.00    -0.366 OA
BRANCH   7   8
HETATM    8  C7  UNL     1     -32.283   7.785   2.732  1.00 20.00     0.165 C 
HETATM    9  C6  UNL     1     -32.153   8.776   1.595  1.00 20.00     0.033 C 
ENDBRANCH   7   8
ENDBRANCH   5   7
TORSDOF 2
ENDMDL
MODEL 4
REMARK VINA RESULT:      -4.0      0.913      3.387
REMARK  2 active torsions:
REMARK  status: ('A' for Active; 'I' for Inactive)
REMARK    1  A    between atoms: C5_5  and  O9_9 
REMARK    2  A    between atoms: C7_7  and  O9_9 
ROOT
HETATM    1  C1  UNL     1     -33.498   7.315   4.851  1.00 20.00     0.098 C 
HETATM    2  C2  UNL     1     -31.966   8.300   2.459  1.00 20.00     0.008 C 
HETATM    3  C3  UNL     1     -33.502   8.359   2.543  1.00 20.00     0.054 C 
HETATM    4  C4  UNL     1     -32.052   6.810   2.834  1.00 20.00     0.054 C 
HETATM    5  C5  UNL     1     -33.467   7.077   3.421  1.00 20.00     0.148 C 
HETATM    6  N8  UNL     1     -33.523   7.506   5.995  1.00 20.00    -0.194 NA
ENDROOT
BRANCH   5   7
HETATM    7  O9  UNL     1     -34.464   6.084   3.107  1.00 20.00    -0.366 OA
BRANCH   7   8
HETATM    8  C7  UNL     1     -34.947   5.472   4.285  1.00 20.00     0.165 C 
HETATM    9  C6  UNL     1     -34.329   4.096   4.415  1.00 20.00     0.033 C 
ENDBRANCH   7   8
ENDBRANCH   5   7
TORSDOF 2
ENDMDL
MODEL 5
REMARK VINA RESULT:      -3.6     11.644     12.556
REMARK  2 active torsions:
REMARK  status: ('A' for Active; 'I' for Inactive)
REMARK    1  A    between atoms: C5_5  and  O9_9 
REMARK    2  A    between atoms: C7_7  and  O9_9 
ROOT
HETATM    1  C1  UNL     1     -34.515  14.798  -3.958  1.00 20.00     0.098 C 
HETATM    2  C2  UNL     1     -35.040  16.689  -1.680  1.00 20.00     0.008 C 
HETATM    3  C3  UNL     1     -35.878  16.691  -2.971  1.00 20.00     0.054 C 
HETATM    4  C4  UNL     1     -33.779  16.776  -2.558  1.00 20.00     0.054 C 
HETATM    5  C5  UNL     1     -34.615  16.229  -3.749  1.00 20.00     0.148 C 
HETATM    6  N8  UNL     1     -34.435  13.653  -4.124  1.00 20.00    -0.194 NA
ENDROOT
BRANCH   5   7
HETATM    7  O9  UNL     1     -34.392  16.887  -5.013  1.00 20.00    -0.366 OA
BRANCH   7   8
HETATM    8  C7  UNL     1     -33.414  16.199  -5.767  1.00 20.00     0.165 C 
HETATM    9  C6  UNL     1     -33.808  16.227  -7.228  1.00 20.00     0.033 C 
ENDBRANCH   7   8
ENDBRANCH   5   7
TORSDOF 2
ENDMDL
MODEL 6
REMARK VINA RESULT:      -3.5     11.922     13.035
REMARK  2 active torsions:
REMARK  status: ('A' for Active; 'I' for Inactive)
REMARK    1  A    between atoms: C5_5  and  O9_9 
REMARK    2  A    between atoms: C7_7  and  O9_9 
ROOT
HETATM    1  C1  UNL     1     -35.450  13.931  -5.520  1.00 20.00     0.098 C 
HETATM    2  C2  UNL     1     -34.068  15.299  -7.813  1.00 20.00     0.008 C 
HETATM    3  C3  UNL     1     -33.511  15.318  -6.378  1.00 20.00     0.054 C 
HETATM    4  C4  UNL     1     -35.413  15.786  -7.244  1.00 20.00     0.054 C 
HETATM    5  C5  UNL     1     -34.971  15.260  -5.849  1.00 20.00     0.148 C 
HETATM    6  N8  UNL     1     -35.832  12.869  -5.256  1.00 20.00    -0.194 NA
ENDROOT
BRANCH   5   7
HETATM    7  O9  UNL     1     -35.263  16.133  -4.739  1.00 20.00    -0.366 OA
BRANCH   7   8
HETATM    8  C7  UNL     1     -34.840  15.552  -3.523  1.00 20.00     0.165 C 
HETATM    9  C6  UNL     1     -33.958  16.537  -2.786  1.00 20.00     0.033 C 
ENDBRANCH   7   8
ENDBRANCH   5   7
TORSDOF 2
ENDMDL
MODEL 7
REMARK VINA RESULT:      -3.5     11.687     12.680
REMARK  2 active torsions:
REMARK  status: ('A' for Active; 'I' for Inactive)
REMARK    1  A    between atoms: C5_5  and  O9_9 
REMARK    2  A    between atoms: C7_7  and  O9_9 
ROOT
HETATM    1  C1  UNL     1     -35.513  13.862  -4.958  1.00 20.00     0.098 C 
HETATM    2  C2  UNL     1     -33.163  15.694  -5.357  1.00 20.00     0.008 C 
HETATM    3  C3  UNL     1     -33.664  15.279  -3.962  1.00 20.00     0.054 C 
HETATM    4  C4  UNL     1     -34.605  16.108  -5.699  1.00 20.00     0.054 C 
HETATM    5  C5  UNL     1     -35.102  15.190  -4.546  1.00 20.00     0.148 C 
HETATM    6  N8  UNL     1     -35.841  12.800  -5.288  1.00 20.00    -0.194 NA
ENDROOT
BRANCH   5   7
HETATM    7  O9  UNL     1     -36.142  15.747  -3.717  1.00 20.00    -0.366 OA
BRANCH   7   8
HETATM    8  C7  UNL     1     -37.417  15.434  -4.238  1.00 20.00     0.165 C 
HETATM    9  C6  UNL     1     -38.162  16.720  -4.527  1.00 20.00     0.033 C 
ENDBRANCH   7   8
ENDBRANCH   5   7
TORSDOF 2
ENDMDL
MODEL 8
REMARK VINA RESULT:      -3.5      1.622      4.267
REMARK  2 active torsions:
REMARK  status: ('A' for Active; 'I' for Inactive)
REMARK    1  A    between atoms: C5_5  and  O9_9 
REMARK    2  A    between atoms: C7_7  and  O9_9 
ROOT
HETATM    1  C1  UNL     1     -31.750   8.472   3.044  1.00 20.00     0.098 C 
HETATM    2  C2  UNL     1     -32.183  10.276   0.678  1.00 20.00     0.008 C 
HETATM    3  C3  UNL     1     -33.338   9.785   1.570  1.00 20.00     0.054 C 
HETATM    4  C4  UNL     1     -31.737   8.810   0.533  1.00 20.00     0.054 C 
HETATM    5  C5  UNL     1     -32.536   8.478   1.825  1.00 20.00     0.148 C 
HETATM    6  N8  UNL     1     -31.121   8.467   4.018  1.00 20.00    -0.194 NA
ENDROOT
BRANCH   5   7
HETATM    7  O9  UNL     1     -33.307   7.260   1.778  1.00 20.00    -0.366 OA
BRANCH   7   8
HETATM    8  C7  UNL     1     -33.115   6.503   2.956  1.00 20.00     0.165 C 
HETATM    9  C6  UNL     1     -34.454   5.977   3.428  1.00 20.00     0.033 C 
ENDBRANCH   7   8
ENDBRANCH   5   7
TORSDOF 2
ENDMDL
MODEL 9
REMARK VINA RESULT:      -3.5     11.755     12.677
REMARK  2 active torsions:
REMARK  status: ('A' for Active; 'I' for Inactive)
REMARK    1  A    between atoms: C5_5  and  O9_9 
REMARK    2  A    between atoms: C7_7  and  O9_9 
ROOT
HETATM    1  C1  UNL     1     -36.668  14.335  -4.951  1.00 20.00     0.098 C 
HETATM    2  C2  UNL     1     -35.200  16.749  -3.924  1.00 20.00     0.008 C 
HETATM    3  C3  UNL     1     -35.126  16.296  -5.393  1.00 20.00     0.054 C 
HETATM    4  C4  UNL     1     -34.826  15.314  -3.514  1.00 20.00     0.054 C 
HETATM    5  C5  UNL     1     -35.306  14.829  -4.911  1.00 20.00     0.148 C 
HETATM    6  N8  UNL     1     -37.758  13.941  -4.982  1.00 20.00    -0.194 NA
ENDROOT
BRANCH   5   7
HETATM    7  O9  UNL     1     -34.455  13.858  -5.554  1.00 20.00    -0.366 OA
BRANCH   7   8
HETATM    8  C7  UNL     1     -35.008  13.449  -6.788  1.00 20.00     0.165 C 
HETATM    9  C6  UNL     1     -34.141  13.970  -7.914  1.00 20.00     0.033 C 
ENDBRANCH   7   8
ENDBRANCH   5   7
TORSDOF 2
ENDMDL
