MODEL 1
REMARK VINA RESULT:      -5.9      0.000      0.000
REMARK  5 active torsions:
REMARK  status: ('A' for Active; 'I' for Inactive)
REMARK    1  A    between atoms: C2_2  and  C7_7 
REMARK    2  A    between atoms: C2_2  and  C8_8 
REMARK    3  A    between atoms: C3_3  and  C10_10 
REMARK    4  A    between atoms: C8_8  and  C10_10 
REMARK    5  A    between atoms: C9_9  and  C10_10 
ROOT
HETATM    1  C10 UNL     1     -33.286   6.417   3.670  1.00 20.00     0.058 C 
ENDROOT
BRANCH   1   2
HETATM    2  C3  UNL     1     -33.476   4.936   3.339  1.00 20.00     0.127 C 
HETATM    3  C4  UNL     1     -34.307   4.125   4.302  1.00 20.00     0.091 C 
HETATM    4  O11 UNL     1     -32.960   4.407   2.354  1.00 20.00    -0.298 OA
ENDBRANCH   1   2
BRANCH   1   5
HETATM    5  C8  UNL     1     -33.313   7.299   2.406  1.00 20.00     0.045 C 
BRANCH   5   6
HETATM    6  C2  UNL     1     -32.139   8.253   2.284  1.00 20.00    -0.089 C 
HETATM    7  C1  UNL     1     -31.284   8.420   3.306  1.00 20.00     0.014 C 
BRANCH   6   8
HETATM    8  C7  UNL     1     -31.954   9.019   0.994  1.00 20.00     0.029 C 
HETATM    9  C5  UNL     1     -32.710  10.340   0.967  1.00 20.00     0.010 C 
ENDBRANCH   6   8
ENDBRANCH   5   6
ENDBRANCH   1   5
BRANCH   1  10
HETATM   10  C9  UNL     1     -34.317   6.864   4.721  1.00 20.00     0.008 C 
HETATM   11  C6  UNL     1     -33.729   7.351   6.040  1.00 20.00     0.006 C 
ENDBRANCH   1  10
TORSDOF 5
ENDMDL
MODEL 2
REMARK VINA RESULT:      -5.3      1.791      2.496
REMARK  5 active torsions:
REMARK  status: ('A' for Active; 'I' for Inactive)
REMARK    1  A    between atoms: C2_2  and  C7_7 
REMARK    2  A    between atoms: C2_2  and  C8_8 
REMARK    3  A    between atoms: C3_3  and  C10_10 
REMARK    4  A    between atoms: C8_8  and  C10_10 
REMARK    5  A    between atoms: C9_9  and  C10_10 
ROOT
HETATM    1  C10 UNL     1     -33.628   7.180   3.622  1.00 20.00     0.058 C 
ENDROOT
BRANCH   1   2
HETATM    2  C3  UNL     1     -33.811   6.890   5.113  1.00 20.00     0.127 C 
HETATM    3  C4  UNL     1     -34.648   5.689   5.474  1.00 20.00     0.091 C 
HETATM    4  O11 UNL     1     -33.328   7.608   5.990  1.00 20.00    -0.298 OA
ENDBRANCH   1   2
BRANCH   1   5
HETATM    5  C8  UNL     1     -32.200   7.662   3.298  1.00 20.00     0.045 C 
BRANCH   5   6
HETATM    6  C2  UNL     1     -32.091   8.482   2.026  1.00 20.00    -0.089 C 
HETATM    7  C1  UNL     1     -31.257   8.111   1.040  1.00 20.00     0.014 C 
BRANCH   6   8
HETATM    8  C7  UNL     1     -32.931   9.732   1.891  1.00 20.00     0.029 C 
HETATM    9  C5  UNL     1     -32.924  10.311   0.483  1.00 20.00     0.010 C 
ENDBRANCH   6   8
ENDBRANCH   5   6
ENDBRANCH   1   5
BRANCH   1  10
HETATM   10  C9  UNL     1     -34.039   5.954   2.788  1.00 20.00     0.008 C 
HETATM   11  C6  UNL     1     -32.949   4.908   2.590  1.00 20.00     0.006 C 
ENDBRANCH   1  10
TORSDOF 5
ENDMDL
MODEL 3
REMARK VINA RESULT:      -5.2      1.825      2.539
REMARK  5 active torsions:
REMARK  status: ('A' for Active; 'I' for Inactive)
REMARK    1  A    between atoms: C2_2  and  C7_7 
REMARK    2  A    between atoms: C2_2  and  C8_8 
REMARK    3  A    between atoms: C3_3  and  C10_10 
REMARK    4  A    between atoms: C8_8  and  C10_10 
REMARK    5  A    between atoms: C9_9  and  C10_10 
ROOT
HETATM    1  C10 UNL     1     -33.542   7.243   3.349  1.00 20.00     0.058 C 
ENDROOT
BRANCH   1   2
HETATM    2  C3  UNL     1     -33.588   7.098   4.872  1.00 20.00     0.127 C 
HETATM    3  C4  UNL     1     -34.521   6.051   5.427  1.00 20.00     0.091 C 
HETATM    4  O11 UNL     1     -32.923   7.811   5.624  1.00 20.00    -0.298 OA
ENDBRANCH   1   2
BRANCH   1   5
HETATM    5  C8  UNL     1     -32.159   7.711   2.855  1.00 20.00     0.045 C 
BRANCH   5   6
HETATM    6  C2  UNL     1     -32.203   8.882   1.891  1.00 20.00    -0.089 C 
HETATM    7  C1  UNL     1     -32.471  10.123   2.332  1.00 20.00     0.014 C 
BRANCH   6   8
HETATM    8  C7  UNL     1     -31.951   8.626   0.423  1.00 20.00     0.029 C 
HETATM    9  C5  UNL     1     -32.999   9.257  -0.485  1.00 20.00     0.010 C 
ENDBRANCH   6   8
ENDBRANCH   5   6
ENDBRANCH   1   5
BRANCH   1  10
HETATM   10  C9  UNL     1     -33.997   5.936   2.676  1.00 20.00     0.008 C 
HETATM   11  C6  UNL     1     -32.911   4.880   2.510  1.00 20.00     0.006 C 
ENDBRANCH   1  10
TORSDOF 5
ENDMDL
MODEL 4
REMARK VINA RESULT:      -5.0      1.723      4.609
REMARK  5 active torsions:
REMARK  status: ('A' for Active; 'I' for Inactive)
REMARK    1  A    between atoms: C2_2  and  C7_7 
REMARK    2  A    between atoms: C2_2  and  C8_8 
REMARK    3  A    between atoms: C3_3  and  C10_10 
REMARK    4  A    between atoms: C8_8  and  C10_10 
REMARK    5  A    between atoms: C9_9  and  C10_10 
ROOT
HETATM    1  C10 UNL     1     -32.842   6.788   3.163  1.00 20.00     0.058 C 
ENDROOT
BRANCH   1   2
HETATM    2  C3  UNL     1     -32.081   8.049   2.752  1.00 20.00     0.127 C 
HETATM    3  C4  UNL     1     -32.429   8.648   1.412  1.00 20.00     0.091 C 
HETATM    4  O11 UNL     1     -31.203   8.551   3.456  1.00 20.00    -0.298 OA
ENDBRANCH   1   2
BRANCH   1   5
HETATM    5  C8  UNL     1     -34.139   7.119   3.928  1.00 20.00     0.045 C 
BRANCH   5   6
HETATM    6  C2  UNL     1     -34.076   6.833   5.417  1.00 20.00    -0.089 C 
HETATM    7  C1  UNL     1     -33.408   7.653   6.245  1.00 20.00     0.014 C 
BRANCH   6   8
HETATM    8  C7  UNL     1     -34.771   5.601   5.952  1.00 20.00     0.029 C 
HETATM    9  C5  UNL     1     -34.541   4.363   5.095  1.00 20.00     0.010 C 
ENDBRANCH   6   8
ENDBRANCH   5   6
ENDBRANCH   1   5
BRANCH   1  10
HETATM   10  C9  UNL     1     -33.094   5.895   1.935  1.00 20.00     0.008 C 
HETATM   11  C6  UNL     1     -32.896   4.402   2.166  1.00 20.00     0.006 C 
ENDBRANCH   1  10
TORSDOF 5
ENDMDL
MODEL 5
REMARK VINA RESULT:      -5.0      1.820      4.419
REMARK  5 active torsions:
REMARK  status: ('A' for Active; 'I' for Inactive)
REMARK    1  A    between atoms: C2_2  and  C7_7 
REMARK    2  A    between atoms: C2_2  and  C8_8 
REMARK    3  A    between atoms: C3_3  and  C10_10 
REMARK    4  A    between atoms: C8_8  and  C10_10 
REMARK    5  A    between atoms: C9_9  and  C10_10 
ROOT
HETATM    1  C10 UNL     1     -32.775   8.136   2.392  1.00 20.00     0.058 C 
ENDROOT
BRANCH   1   2
HETATM    2  C3  UNL     1     -32.161   9.032   1.315  1.00 20.00     0.127 C 
HETATM    3  C4  UNL     1     -32.788  10.390   1.121  1.00 20.00     0.091 C 
HETATM    4  O11 UNL     1     -31.217   8.669   0.612  1.00 20.00    -0.298 OA
ENDBRANCH   1   2
BRANCH   1   5
HETATM    5  C8  UNL     1     -33.304   6.811   1.808  1.00 20.00     0.045 C 
BRANCH   5   6
HETATM    6  C2  UNL     1     -33.684   5.777   2.851  1.00 20.00    -0.089 C 
HETATM    7  C1  UNL     1     -33.039   4.600   2.916  1.00 20.00     0.014 C 
BRANCH   6   8
HETATM    8  C7  UNL     1     -34.810   6.090   3.810  1.00 20.00     0.029 C 
HETATM    9  C5  UNL     1     -34.665   5.390   5.155  1.00 20.00     0.010 C 
ENDBRANCH   6   8
ENDBRANCH   5   6
ENDBRANCH   1   5
BRANCH   1  10
HETATM   10  C9  UNL     1     -31.771   7.916   3.537  1.00 20.00     0.008 C 
HETATM   11  C6  UNL     1     -32.233   8.396   4.907  1.00 20.00     0.006 C 
ENDBRANCH   1  10
TORSDOF 5
ENDMDL
MODEL 6
REMARK VINA RESULT:      -4.9      1.780      4.548
REMARK  5 active torsions:
REMARK  status: ('A' for Active; 'I' for Inactive)
REMARK    1  A    between atoms: C2_2  and  C7_7 
REMARK    2  A    between atoms: C2_2  and  C8_8 
REMARK    3  A    between atoms: C3_3  and  C10_10 
REMARK    4  A    between atoms: C8_8  and  C10_10 
REMARK    5  A    between atoms: C9_9  and  C10_10 
ROOT
HETATM    1  C10 UNL     1     -32.751   7.345   2.825  1.00 20.00     0.058 C 
ENDROOT
BRANCH   1   2
HETATM    2  C3  UNL     1     -32.168   7.974   4.092  1.00 20.00     0.127 C 
HETATM    3  C4  UNL     1     -33.018   7.907   5.337  1.00 20.00     0.091 C 
HETATM    4  O11 UNL     1     -31.072   8.535   4.107  1.00 20.00    -0.298 OA
ENDBRANCH   1   2
BRANCH   1   5
HETATM    5  C8  UNL     1     -33.981   6.467   3.129  1.00 20.00     0.045 C 
BRANCH   5   6
HETATM    6  C2  UNL     1     -33.679   4.983   3.233  1.00 20.00    -0.089 C 
HETATM    7  C1  UNL     1     -32.848   4.390   2.360  1.00 20.00     0.014 C 
BRANCH   6   8
HETATM    8  C7  UNL     1     -34.338   4.182   4.333  1.00 20.00     0.029 C 
HETATM    9  C5  UNL     1     -34.704   5.021   5.550  1.00 20.00     0.010 C 
ENDBRANCH   6   8
ENDBRANCH   5   6
ENDBRANCH   1   5
BRANCH   1  10
HETATM   10  C9  UNL     1     -33.049   8.434   1.780  1.00 20.00     0.008 C 
HETATM   11  C6  UNL     1     -31.864   8.846   0.915  1.00 20.00     0.006 C 
ENDBRANCH   1  10
TORSDOF 5
ENDMDL
MODEL 7
REMARK VINA RESULT:      -4.4     10.807     11.824
REMARK  5 active torsions:
REMARK  status: ('A' for Active; 'I' for Inactive)
REMARK    1  A    between atoms: C2_2  and  C7_7 
REMARK    2  A    between atoms: C2_2  and  C8_8 
REMARK    3  A    between atoms: C3_3  and  C10_10 
REMARK    4  A    between atoms: C8_8  and  C10_10 
REMARK    5  A    between atoms: C9_9  and  C10_10 
ROOT
HETATM    1  C10 UNL     1     -35.137  14.981  -5.087  1.00 20.00     0.058 C 
ENDROOT
BRANCH   1   2
HETATM    2  C3  UNL     1     -36.186  13.873  -5.202  1.00 20.00     0.127 C 
HETATM    3  C4  UNL     1     -37.629  14.307  -5.261  1.00 20.00     0.091 C 
HETATM    4  O11 UNL     1     -35.886  12.679  -5.220  1.00 20.00    -0.298 OA
ENDBRANCH   1   2
BRANCH   1   5
HETATM    5  C8  UNL     1     -34.447  14.982  -3.709  1.00 20.00     0.045 C 
BRANCH   5   6
HETATM    6  C2  UNL     1     -34.706  16.227  -2.881  1.00 20.00    -0.089 C 
HETATM    7  C1  UNL     1     -35.960  16.659  -2.667  1.00 20.00     0.014 C 
BRANCH   6   8
HETATM    8  C7  UNL     1     -33.526  16.980  -2.310  1.00 20.00     0.029 C 
HETATM    9  C5  UNL     1     -33.853  17.715  -1.017  1.00 20.00     0.010 C 
ENDBRANCH   6   8
ENDBRANCH   5   6
ENDBRANCH   1   5
BRANCH   1  10
HETATM   10  C9  UNL     1     -34.133  14.885  -6.249  1.00 20.00     0.008 C 
HETATM   11  C6  UNL     1     -33.603  16.219  -6.761  1.00 20.00     0.006 C 
ENDBRANCH   1  10
TORSDOF 5
ENDMDL
MODEL 8
REMARK VINA RESULT:      -4.4     10.677     11.652
REMARK  5 active torsions:
REMARK  status: ('A' for Active; 'I' for Inactive)
REMARK    1  A    between atoms: C2_2  and  C7_7 
REMARK    2  A    between atoms: C2_2  and  C8_8 
REMARK    3  A    between atoms: C3_3  and  C10_10 
REMARK    4  A    between atoms: C8_8  and  C10_10 
REMARK    5  A    between atoms: C9_9  and  C10_10 
ROOT
HETATM    1  C10 UNL     1     -34.897  15.659  -3.972  1.00 20.00     0.058 C 
ENDROOT
BRANCH   1   2
HETATM    2  C3  UNL     1     -34.728  14.197  -4.390  1.00 20.00     0.127 C 
HETATM    3  C4  UNL     1     -35.902  13.548  -5.081  1.00 20.00     0.091 C 
HETATM    4  O11 UNL     1     -33.702  13.558  -4.158  1.00 20.00    -0.298 OA
ENDBRANCH   1   2
BRANCH   1   5
HETATM    5  C8  UNL     1     -33.663  16.189  -3.215  1.00 20.00     0.045 C 
BRANCH   5   6
HETATM    6  C2  UNL     1     -33.992  17.016  -1.985  1.00 20.00    -0.089 C 
HETATM    7  C1  UNL     1     -33.071  17.825  -1.437  1.00 20.00     0.014 C 
BRANCH   6   8
HETATM    8  C7  UNL     1     -35.374  16.905  -1.382  1.00 20.00     0.029 C 
HETATM    9  C5  UNL     1     -35.461  17.472   0.028  1.00 20.00     0.010 C 
ENDBRANCH   6   8
ENDBRANCH   5   6
ENDBRANCH   1   5
BRANCH   1  10
HETATM   10  C9  UNL     1     -35.255  16.524  -5.193  1.00 20.00     0.008 C 
HETATM   11  C6  UNL     1     -34.080  17.238  -5.850  1.00 20.00     0.006 C 
ENDBRANCH   1  10
TORSDOF 5
ENDMDL
MODEL 9
REMARK VINA RESULT:      -4.3      0.465      1.559
REMARK  5 active torsions:
REMARK  status: ('A' for Active; 'I' for Inactive)
REMARK    1  A    between atoms: C2_2  and  C7_7 
REMARK    2  A    between atoms: C2_2  and  C8_8 
REMARK    3  A    between atoms: C3_3  and  C10_10 
REMARK    4  A    between atoms: C8_8  and  C10_10 
REMARK    5  A    between atoms: C9_9  and  C10_10 
ROOT
HETATM    1  C10 UNL     1     -33.415   6.362   3.626  1.00 20.00     0.058 C 
ENDROOT
BRANCH   1   2
HETATM    2  C3  UNL     1     -33.480   4.864   3.322  1.00 20.00     0.127 C 
HETATM    3  C4  UNL     1     -34.249   4.005   4.294  1.00 20.00     0.091 C 
HETATM    4  O11 UNL     1     -32.915   4.362   2.349  1.00 20.00    -0.298 OA
ENDBRANCH   1   2
BRANCH   1   5
HETATM    5  C8  UNL     1     -33.567   7.217   2.353  1.00 20.00     0.045 C 
BRANCH   5   6
HETATM    6  C2  UNL     1     -32.438   8.205   2.126  1.00 20.00    -0.089 C 
HETATM    7  C1  UNL     1     -32.494   9.090   1.117  1.00 20.00     0.014 C 
BRANCH   6   8
HETATM    8  C7  UNL     1     -31.241   8.168   3.049  1.00 20.00     0.029 C 
HETATM    9  C5  UNL     1     -31.398   9.064   4.270  1.00 20.00     0.010 C 
ENDBRANCH   6   8
ENDBRANCH   5   6
ENDBRANCH   1   5
BRANCH   1  10
HETATM   10  C9  UNL     1     -34.444   6.729   4.709  1.00 20.00     0.008 C 
HETATM   11  C6  UNL     1     -33.854   7.218   6.026  1.00 20.00     0.006 C 
ENDBRANCH   1  10
TORSDOF 5
ENDMDL
