MODEL 1
REMARK VINA RESULT:      -5.2      0.000      0.000
REMARK  3 active torsions:
REMARK  status: ('A' for Active; 'I' for Inactive)
REMARK    1  A    between atoms: C6_6  and  C8_8 
REMARK    2  A    between atoms: C7_7  and  C8_8 
REMARK    3  A    between atoms: C7_7  and  C9_9 
ROOT
HETATM    1  C8  UNL     1     -33.172   7.106   2.126  1.00 20.00     0.042 C 
ENDROOT
BRANCH   1   2
HETATM    2  C6  UNL     1     -32.318   8.364   2.218  1.00 20.00     0.122 C 
HETATM    3  C2  UNL     1     -31.370   8.524   1.040  1.00 20.00     0.034 C 
HETATM    4  C1  UNL     1     -32.174   9.360   0.076  1.00 20.00     0.029 C 
HETATM    5  C5  UNL     1     -32.940  10.265   1.013  1.00 20.00     0.168 C 
HETATM    6  O10 UNL     1     -33.193   9.506   2.203  1.00 20.00    -0.386 OA
ENDBRANCH   1   2
BRANCH   1   7
HETATM    7  C7  UNL     1     -33.629   6.635   3.472  1.00 20.00    -0.025 A 
HETATM    8  C3  UNL     1     -35.028   6.078   3.589  1.00 20.00     0.011 A 
HETATM    9  C4  UNL     1     -33.847   5.153   3.666  1.00 20.00     0.011 A 
BRANCH   7  10
HETATM   10  C9  UNL     1     -33.085   7.426   4.629  1.00 20.00     0.124 C 
HETATM   11 CL11 UNL     1     -33.971   7.048   6.127  1.00 20.00    -0.130 Cl
ENDBRANCH   7  10
ENDBRANCH   1   7
TORSDOF 3
ENDMDL
MODEL 2
REMARK VINA RESULT:      -4.8      2.636      4.750
REMARK  3 active torsions:
REMARK  status: ('A' for Active; 'I' for Inactive)
REMARK    1  A    between atoms: C6_6  and  C8_8 
REMARK    2  A    between atoms: C7_7  and  C8_8 
REMARK    3  A    between atoms: C7_7  and  C9_9 
ROOT
HETATM    1  C8  UNL     1     -32.934   6.678   3.093  1.00 20.00     0.042 C 
ENDROOT
BRANCH   1   2
HETATM    2  C6  UNL     1     -34.219   6.817   3.898  1.00 20.00     0.122 C 
HETATM    3  C2  UNL     1     -35.182   5.659   3.683  1.00 20.00     0.034 C 
HETATM    4  C1  UNL     1     -34.806   4.704   4.788  1.00 20.00     0.029 C 
HETATM    5  C5  UNL     1     -34.445   5.651   5.909  1.00 20.00     0.168 C 
HETATM    6  O10 UNL     1     -33.878   6.817   5.296  1.00 20.00    -0.386 OA
ENDBRANCH   1   2
BRANCH   1   7
HETATM    7  C7  UNL     1     -32.283   8.002   2.838  1.00 20.00    -0.025 A 
HETATM    8  C3  UNL     1     -31.693   8.740   4.017  1.00 20.00     0.011 A 
HETATM    9  C4  UNL     1     -30.785   8.098   3.008  1.00 20.00     0.011 A 
BRANCH   7  10
HETATM   10  C9  UNL     1     -32.923   8.814   1.746  1.00 20.00     0.124 C 
HETATM   11 CL11 UNL     1     -31.760   9.143   0.437  1.00 20.00    -0.130 Cl
ENDBRANCH   7  10
ENDBRANCH   1   7
TORSDOF 3
ENDMDL
MODEL 3
REMARK VINA RESULT:      -4.7      1.883      4.381
REMARK  3 active torsions:
REMARK  status: ('A' for Active; 'I' for Inactive)
REMARK    1  A    between atoms: C6_6  and  C8_8 
REMARK    2  A    between atoms: C7_7  and  C8_8 
REMARK    3  A    between atoms: C7_7  and  C9_9 
ROOT
HETATM    1  C8  UNL     1     -33.320   7.424   2.276  1.00 20.00     0.042 C 
ENDROOT
BRANCH   1   2
HETATM    2  C6  UNL     1     -33.024   6.523   3.467  1.00 20.00     0.122 C 
HETATM    3  C2  UNL     1     -34.029   6.683   4.597  1.00 20.00     0.034 C 
HETATM    4  C1  UNL     1     -35.055   5.624   4.282  1.00 20.00     0.029 C 
HETATM    5  C5  UNL     1     -34.197   4.519   3.712  1.00 20.00     0.168 C 
HETATM    6  O10 UNL     1     -33.107   5.155   3.031  1.00 20.00    -0.386 OA
ENDBRANCH   1   2
BRANCH   1   7
HETATM    7  C7  UNL     1     -32.242   8.439   2.055  1.00 20.00    -0.025 A 
HETATM    8  C3  UNL     1     -31.941   8.855   0.634  1.00 20.00     0.011 A 
HETATM    9  C4  UNL     1     -32.649   9.806   1.555  1.00 20.00     0.011 A 
BRANCH   7  10
HETATM   10  C9  UNL     1     -31.095   8.354   3.023  1.00 20.00     0.124 C 
HETATM   11 CL11 UNL     1     -31.511   9.137   4.568  1.00 20.00    -0.130 Cl
ENDBRANCH   7  10
ENDBRANCH   1   7
TORSDOF 3
ENDMDL
MODEL 4
REMARK VINA RESULT:      -4.7      2.308      4.493
REMARK  3 active torsions:
REMARK  status: ('A' for Active; 'I' for Inactive)
REMARK    1  A    between atoms: C6_6  and  C8_8 
REMARK    2  A    between atoms: C7_7  and  C8_8 
REMARK    3  A    between atoms: C7_7  and  C9_9 
ROOT
HETATM    1  C8  UNL     1     -32.516   7.248   2.799  1.00 20.00     0.042 C 
ENDROOT
BRANCH   1   2
HETATM    2  C6  UNL     1     -33.839   7.369   3.543  1.00 20.00     0.122 C 
HETATM    3  C2  UNL     1     -34.759   6.180   3.314  1.00 20.00     0.034 C 
HETATM    4  C1  UNL     1     -34.408   5.261   4.458  1.00 20.00     0.029 C 
HETATM    5  C5  UNL     1     -34.123   6.244   5.570  1.00 20.00     0.168 C 
HETATM    6  O10 UNL     1     -33.562   7.411   4.954  1.00 20.00    -0.386 OA
ENDBRANCH   1   2
BRANCH   1   7
HETATM    7  C7  UNL     1     -32.225   8.459   1.967  1.00 20.00    -0.025 A 
HETATM    8  C3  UNL     1     -31.351   8.286   0.747  1.00 20.00     0.011 A 
HETATM    9  C4  UNL     1     -32.824   8.527   0.582  1.00 20.00     0.011 A 
BRANCH   7  10
HETATM   10  C9  UNL     1     -32.102   9.738   2.747  1.00 20.00     0.124 C 
HETATM   11 CL11 UNL     1     -32.731  11.115   1.808  1.00 20.00    -0.130 Cl
ENDBRANCH   7  10
ENDBRANCH   1   7
TORSDOF 3
ENDMDL
MODEL 5
REMARK VINA RESULT:      -4.6      2.645      4.715
REMARK  3 active torsions:
REMARK  status: ('A' for Active; 'I' for Inactive)
REMARK    1  A    between atoms: C6_6  and  C8_8 
REMARK    2  A    between atoms: C7_7  and  C8_8 
REMARK    3  A    between atoms: C7_7  and  C9_9 
ROOT
HETATM    1  C8  UNL     1     -33.244   7.403   2.239  1.00 20.00     0.042 C 
ENDROOT
BRANCH   1   2
HETATM    2  C6  UNL     1     -32.973   6.511   3.443  1.00 20.00     0.122 C 
HETATM    3  C2  UNL     1     -33.953   6.741   4.583  1.00 20.00     0.034 C 
HETATM    4  C1  UNL     1     -35.033   5.727   4.304  1.00 20.00     0.029 C 
HETATM    5  C5  UNL     1     -34.238   4.571   3.743  1.00 20.00     0.168 C 
HETATM    6  O10 UNL     1     -33.129   5.140   3.035  1.00 20.00    -0.386 OA
ENDBRANCH   1   2
BRANCH   1   7
HETATM    7  C7  UNL     1     -32.146   8.397   2.016  1.00 20.00    -0.025 A 
HETATM    8  C3  UNL     1     -32.103   9.617   2.906  1.00 20.00     0.011 A 
HETATM    9  C4  UNL     1     -31.083   8.528   3.081  1.00 20.00     0.011 A 
BRANCH   7  10
HETATM   10  C9  UNL     1     -31.729   8.556   0.580  1.00 20.00     0.124 C 
HETATM   11 CL11 UNL     1     -33.044   9.273  -0.384  1.00 20.00    -0.130 Cl
ENDBRANCH   7  10
ENDBRANCH   1   7
TORSDOF 3
ENDMDL
MODEL 6
REMARK VINA RESULT:      -4.5     10.486     11.383
REMARK  3 active torsions:
REMARK  status: ('A' for Active; 'I' for Inactive)
REMARK    1  A    between atoms: C6_6  and  C8_8 
REMARK    2  A    between atoms: C7_7  and  C8_8 
REMARK    3  A    between atoms: C7_7  and  C9_9 
ROOT
HETATM    1  C8  UNL     1     -34.624  14.585  -4.221  1.00 20.00     0.042 C 
ENDROOT
BRANCH   1   2
HETATM    2  C6  UNL     1     -35.635  14.293  -5.322  1.00 20.00     0.122 C 
HETATM    3  C2  UNL     1     -35.337  15.039  -6.614  1.00 20.00     0.034 C 
HETATM    4  C1  UNL     1     -34.491  14.053  -7.380  1.00 20.00     0.029 C 
HETATM    5  C5  UNL     1     -35.111  12.734  -6.979  1.00 20.00     0.168 C 
HETATM    6  O10 UNL     1     -35.574  12.890  -5.632  1.00 20.00    -0.386 OA
ENDBRANCH   1   2
BRANCH   1   7
HETATM    7  C7  UNL     1     -34.821  15.943  -3.621  1.00 20.00    -0.025 A 
HETATM    8  C3  UNL     1     -33.767  16.455  -2.667  1.00 20.00     0.011 A 
HETATM    9  C4  UNL     1     -33.879  17.046  -4.042  1.00 20.00     0.011 A 
BRANCH   7  10
HETATM   10  C9  UNL     1     -36.255  16.304  -3.348  1.00 20.00     0.124 C 
HETATM   11 CL11 UNL     1     -36.773  17.660  -4.381  1.00 20.00    -0.130 Cl
ENDBRANCH   7  10
ENDBRANCH   1   7
TORSDOF 3
ENDMDL
MODEL 7
REMARK VINA RESULT:      -4.5     10.470     11.335
REMARK  3 active torsions:
REMARK  status: ('A' for Active; 'I' for Inactive)
REMARK    1  A    between atoms: C6_6  and  C8_8 
REMARK    2  A    between atoms: C7_7  and  C8_8 
REMARK    3  A    between atoms: C7_7  and  C9_9 
ROOT
HETATM    1  C8  UNL     1     -35.048  16.076  -3.210  1.00 20.00     0.042 C 
ENDROOT
BRANCH   1   2
HETATM    2  C6  UNL     1     -33.678  15.713  -3.766  1.00 20.00     0.122 C 
HETATM    3  C2  UNL     1     -33.631  14.312  -4.357  1.00 20.00     0.034 C 
HETATM    4  C1  UNL     1     -33.956  14.552  -5.810  1.00 20.00     0.029 C 
HETATM    5  C5  UNL     1     -33.288  15.884  -6.062  1.00 20.00     0.168 C 
HETATM    6  O10 UNL     1     -33.368  16.623  -4.836  1.00 20.00    -0.386 OA
ENDBRANCH   1   2
BRANCH   1   7
HETATM    7  C7  UNL     1     -34.996  17.287  -2.330  1.00 20.00    -0.025 A 
HETATM    8  C3  UNL     1     -35.219  17.094  -0.848  1.00 20.00     0.011 A 
HETATM    9  C4  UNL     1     -33.843  17.408  -1.361  1.00 20.00     0.011 A 
BRANCH   7  10
HETATM   10  C9  UNL     1     -35.519  18.545  -2.965  1.00 20.00     0.124 C 
HETATM   11 CL11 UNL     1     -36.401  18.176  -4.468  1.00 20.00    -0.130 Cl
ENDBRANCH   7  10
ENDBRANCH   1   7
TORSDOF 3
ENDMDL
MODEL 8
REMARK VINA RESULT:      -4.4     10.550     11.224
REMARK  3 active torsions:
REMARK  status: ('A' for Active; 'I' for Inactive)
REMARK    1  A    between atoms: C6_6  and  C8_8 
REMARK    2  A    between atoms: C7_7  and  C8_8 
REMARK    3  A    between atoms: C7_7  and  C9_9 
ROOT
HETATM    1  C8  UNL     1     -34.754  15.125  -3.780  1.00 20.00     0.042 C 
ENDROOT
BRANCH   1   2
HETATM    2  C6  UNL     1     -34.744  16.614  -3.458  1.00 20.00     0.122 C 
HETATM    3  C2  UNL     1     -35.878  17.027  -2.532  1.00 20.00     0.034 C 
HETATM    4  C1  UNL     1     -35.250  16.914  -1.166  1.00 20.00     0.029 C 
HETATM    5  C5  UNL     1     -33.828  17.347  -1.440  1.00 20.00     0.168 C 
HETATM    6  O10 UNL     1     -33.517  16.920  -2.773  1.00 20.00    -0.386 OA
ENDBRANCH   1   2
BRANCH   1   7
HETATM    7  C7  UNL     1     -35.500  14.826  -5.043  1.00 20.00    -0.025 A 
HETATM    8  C3  UNL     1     -35.917  13.396  -5.297  1.00 20.00     0.011 A 
HETATM    9  C4  UNL     1     -36.951  14.421  -4.928  1.00 20.00     0.011 A 
BRANCH   7  10
HETATM   10  C9  UNL     1     -35.092  15.663  -6.223  1.00 20.00     0.124 C 
HETATM   11 CL11 UNL     1     -33.332  15.580  -6.480  1.00 20.00    -0.130 Cl
ENDBRANCH   7  10
ENDBRANCH   1   7
TORSDOF 3
ENDMDL
MODEL 9
REMARK VINA RESULT:      -4.4     10.439     11.095
REMARK  3 active torsions:
REMARK  status: ('A' for Active; 'I' for Inactive)
REMARK    1  A    between atoms: C6_6  and  C8_8 
REMARK    2  A    between atoms: C7_7  and  C8_8 
REMARK    3  A    between atoms: C7_7  and  C9_9 
ROOT
HETATM    1  C8  UNL     1     -34.596  16.101  -2.942  1.00 20.00     0.042 C 
ENDROOT
BRANCH   1   2
HETATM    2  C6  UNL     1     -33.575  16.113  -4.071  1.00 20.00     0.122 C 
HETATM    3  C2  UNL     1     -33.101  14.720  -4.457  1.00 20.00     0.034 C 
HETATM    4  C1  UNL     1     -34.052  14.340  -5.565  1.00 20.00     0.029 C 
HETATM    5  C5  UNL     1     -34.272  15.667  -6.255  1.00 20.00     0.168 C 
HETATM    6  O10 UNL     1     -34.199  16.676  -5.239  1.00 20.00    -0.386 OA
ENDBRANCH   1   2
BRANCH   1   7
HETATM    7  C7  UNL     1     -34.484  17.312  -2.068  1.00 20.00    -0.025 A 
HETATM    8  C3  UNL     1     -35.754  18.049  -1.714  1.00 20.00     0.011 A 
HETATM    9  C4  UNL     1     -35.051  17.230  -0.670  1.00 20.00     0.011 A 
BRANCH   7  10
HETATM   10  C9  UNL     1     -33.234  18.120  -2.276  1.00 20.00     0.124 C 
HETATM   11 CL11 UNL     1     -32.290  18.227  -0.769  1.00 20.00    -0.130 Cl
ENDBRANCH   7  10
ENDBRANCH   1   7
TORSDOF 3
ENDMDL
