MODEL 1
REMARK VINA RESULT:      -5.2      0.000      0.000
REMARK  4 active torsions:
REMARK  status: ('A' for Active; 'I' for Inactive)
REMARK    1  A    between atoms: C3_3  and  C6_6 
REMARK    2  A    between atoms: C3_3  and  C7_7 
REMARK    3  A    between atoms: C6_6  and  C8_8 
REMARK    4  A    between atoms: C8_8  and  C9_9 
ROOT
HETATM    1  C1  UNL     1     -34.493   6.110   2.541  1.00 20.00     0.011 A 
HETATM    2  C2  UNL     1     -33.703   5.072   3.285  1.00 20.00     0.011 A 
HETATM    3  C3  UNL     1     -33.380   6.537   3.468  1.00 20.00    -0.028 A 
ENDROOT
BRANCH   3   4
HETATM    4  C6  UNL     1     -32.097   7.068   2.847  1.00 20.00     0.011 C 
BRANCH   4   5
HETATM    5  C8  UNL     1     -32.112   8.597   2.758  1.00 20.00     0.005 C 
BRANCH   5   6
HETATM    6  C9  UNL     1     -32.521   9.127   1.371  1.00 20.00    -0.023 C 
HETATM    7  C4  UNL     1     -31.458   8.749   0.337  1.00 20.00     0.009 C 
HETATM    8  C5  UNL     1     -32.731  10.642   1.365  1.00 20.00     0.009 C 
ENDBRANCH   5   6
ENDBRANCH   4   5
ENDBRANCH   3   4
BRANCH   3   9
HETATM    9  C7  UNL     1     -33.757   7.184   4.772  1.00 20.00     0.124 C 
HETATM   10 CL10 UNL     1     -34.376   5.975   5.923  1.00 20.00    -0.130 Cl
ENDBRANCH   3   9
TORSDOF 4
ENDMDL
MODEL 2
REMARK VINA RESULT:      -5.2      2.472      4.788
REMARK  4 active torsions:
REMARK  status: ('A' for Active; 'I' for Inactive)
REMARK    1  A    between atoms: C3_3  and  C6_6 
REMARK    2  A    between atoms: C3_3  and  C7_7 
REMARK    3  A    between atoms: C6_6  and  C8_8 
REMARK    4  A    between atoms: C8_8  and  C9_9 
ROOT
HETATM    1  C1  UNL     1     -32.159   8.382   4.219  1.00 20.00     0.011 A 
HETATM    2  C2  UNL     1     -31.040   7.952   3.315  1.00 20.00     0.011 A 
HETATM    3  C3  UNL     1     -32.472   7.706   2.904  1.00 20.00    -0.028 A 
ENDROOT
BRANCH   3   4
HETATM    4  C6  UNL     1     -32.991   6.277   2.942  1.00 20.00     0.011 C 
BRANCH   4   5
HETATM    5  C8  UNL     1     -34.493   6.236   3.237  1.00 20.00     0.005 C 
BRANCH   5   6
HETATM    6  C9  UNL     1     -34.854   5.379   4.464  1.00 20.00    -0.023 C 
HETATM    7  C4  UNL     1     -34.421   6.097   5.745  1.00 20.00     0.009 C 
HETATM    8  C5  UNL     1     -34.216   3.989   4.413  1.00 20.00     0.009 C 
ENDBRANCH   5   6
ENDBRANCH   4   5
ENDBRANCH   3   4
BRANCH   3   9
HETATM    9  C7  UNL     1     -33.043   8.549   1.797  1.00 20.00     0.124 C 
HETATM   10 CL10 UNL     1     -31.764   9.062   0.669  1.00 20.00    -0.130 Cl
ENDBRANCH   3   9
TORSDOF 4
ENDMDL
MODEL 3
REMARK VINA RESULT:      -4.9      1.340      2.196
REMARK  4 active torsions:
REMARK  status: ('A' for Active; 'I' for Inactive)
REMARK    1  A    between atoms: C3_3  and  C6_6 
REMARK    2  A    between atoms: C3_3  and  C7_7 
REMARK    3  A    between atoms: C6_6  and  C8_8 
REMARK    4  A    between atoms: C8_8  and  C9_9 
ROOT
HETATM    1  C1  UNL     1     -33.203   7.231   5.017  1.00 20.00     0.011 A 
HETATM    2  C2  UNL     1     -34.327   7.537   4.068  1.00 20.00     0.011 A 
HETATM    3  C3  UNL     1     -32.945   7.252   3.528  1.00 20.00    -0.028 A 
ENDROOT
BRANCH   3   4
HETATM    4  C6  UNL     1     -32.147   8.415   2.959  1.00 20.00     0.011 C 
BRANCH   4   5
HETATM    5  C8  UNL     1     -31.939   8.263   1.450  1.00 20.00     0.005 C 
BRANCH   5   6
HETATM    6  C9  UNL     1     -32.208   9.558   0.660  1.00 20.00    -0.023 C 
HETATM    7  C4  UNL     1     -32.795  10.622   1.592  1.00 20.00     0.009 C 
HETATM    8  C5  UNL     1     -33.150   9.334  -0.523  1.00 20.00     0.009 C 
ENDBRANCH   5   6
ENDBRANCH   4   5
ENDBRANCH   3   4
BRANCH   3   9
HETATM    9  C7  UNL     1     -32.716   5.938   2.833  1.00 20.00     0.124 C 
HETATM   10 CL10 UNL     1     -33.879   4.714   3.397  1.00 20.00    -0.130 Cl
ENDBRANCH   3   9
TORSDOF 4
ENDMDL
MODEL 4
REMARK VINA RESULT:      -4.8      1.293      1.938
REMARK  4 active torsions:
REMARK  status: ('A' for Active; 'I' for Inactive)
REMARK    1  A    between atoms: C3_3  and  C6_6 
REMARK    2  A    between atoms: C3_3  and  C7_7 
REMARK    3  A    between atoms: C6_6  and  C8_8 
REMARK    4  A    between atoms: C8_8  and  C9_9 
ROOT
HETATM    1  C1  UNL     1     -33.250   7.206   5.064  1.00 20.00     0.011 A 
HETATM    2  C2  UNL     1     -34.228   7.704   4.038  1.00 20.00     0.011 A 
HETATM    3  C3  UNL     1     -32.871   7.202   3.602  1.00 20.00    -0.028 A 
ENDROOT
BRANCH   3   4
HETATM    4  C6  UNL     1     -31.851   8.225   3.126  1.00 20.00     0.011 C 
BRANCH   4   5
HETATM    5  C8  UNL     1     -31.872   8.366   1.602  1.00 20.00     0.005 C 
BRANCH   5   6
HETATM    6  C9  UNL     1     -32.907   9.388   1.096  1.00 20.00    -0.023 C 
HETATM    7  C4  UNL     1     -33.015   9.306  -0.429  1.00 20.00     0.009 C 
HETATM    8  C5  UNL     1     -32.566  10.820   1.512  1.00 20.00     0.009 C 
ENDBRANCH   5   6
ENDBRANCH   4   5
ENDBRANCH   3   4
BRANCH   3   9
HETATM    9  C7  UNL     1     -32.804   5.876   2.894  1.00 20.00     0.124 C 
HETATM   10 CL10 UNL     1     -33.988   4.735   3.576  1.00 20.00    -0.130 Cl
ENDBRANCH   3   9
TORSDOF 4
ENDMDL
MODEL 5
REMARK VINA RESULT:      -4.8      1.666      4.428
REMARK  4 active torsions:
REMARK  status: ('A' for Active; 'I' for Inactive)
REMARK    1  A    between atoms: C3_3  and  C6_6 
REMARK    2  A    between atoms: C3_3  and  C7_7 
REMARK    3  A    between atoms: C6_6  and  C8_8 
REMARK    4  A    between atoms: C8_8  and  C9_9 
ROOT
HETATM    1  C1  UNL     1     -31.744   8.699   0.827  1.00 20.00     0.011 A 
HETATM    2  C2  UNL     1     -32.442   9.712   1.689  1.00 20.00     0.011 A 
HETATM    3  C3  UNL     1     -32.260   8.299   2.189  1.00 20.00    -0.028 A 
ENDROOT
BRANCH   3   4
HETATM    4  C6  UNL     1     -33.486   7.400   2.252  1.00 20.00     0.011 C 
BRANCH   4   5
HETATM    5  C8  UNL     1     -33.224   6.160   3.111  1.00 20.00     0.005 C 
BRANCH   5   6
HETATM    6  C9  UNL     1     -34.350   5.863   4.119  1.00 20.00    -0.023 C 
HETATM    7  C4  UNL     1     -34.121   6.662   5.404  1.00 20.00     0.009 C 
HETATM    8  C5  UNL     1     -34.459   4.374   4.451  1.00 20.00     0.009 C 
ENDBRANCH   5   6
ENDBRANCH   4   5
ENDBRANCH   3   4
BRANCH   3   9
HETATM    9  C7  UNL     1     -31.254   8.063   3.283  1.00 20.00     0.124 C 
HETATM   10 CL10 UNL     1     -31.677   8.990   4.742  1.00 20.00    -0.130 Cl
ENDBRANCH   3   9
TORSDOF 4
ENDMDL
MODEL 6
REMARK VINA RESULT:      -4.8      1.411      2.221
REMARK  4 active torsions:
REMARK  status: ('A' for Active; 'I' for Inactive)
REMARK    1  A    between atoms: C3_3  and  C6_6 
REMARK    2  A    between atoms: C3_3  and  C7_7 
REMARK    3  A    between atoms: C6_6  and  C8_8 
REMARK    4  A    between atoms: C8_8  and  C9_9 
ROOT
HETATM    1  C1  UNL     1     -33.502   7.071   5.666  1.00 20.00     0.011 A 
HETATM    2  C2  UNL     1     -34.327   7.930   4.750  1.00 20.00     0.011 A 
HETATM    3  C3  UNL     1     -33.926   6.539   4.317  1.00 20.00    -0.028 A 
ENDROOT
BRANCH   3   4
HETATM    4  C6  UNL     1     -32.864   6.405   3.236  1.00 20.00     0.011 C 
BRANCH   4   5
HETATM    5  C8  UNL     1     -33.124   7.371   2.077  1.00 20.00     0.005 C 
BRANCH   5   6
HETATM    6  C9  UNL     1     -31.969   8.360   1.833  1.00 20.00    -0.023 C 
HETATM    7  C4  UNL     1     -31.166   8.548   3.123  1.00 20.00     0.009 C 
HETATM    8  C5  UNL     1     -32.460   9.718   1.330  1.00 20.00     0.009 C 
ENDBRANCH   5   6
ENDBRANCH   4   5
ENDBRANCH   3   4
BRANCH   3   9
HETATM    9  C7  UNL     1     -34.992   5.478   4.282  1.00 20.00     0.124 C 
HETATM   10 CL10 UNL     1     -34.267   3.852   4.292  1.00 20.00    -0.130 Cl
ENDBRANCH   3   9
TORSDOF 4
ENDMDL
MODEL 7
REMARK VINA RESULT:      -4.7      2.430      4.611
REMARK  4 active torsions:
REMARK  status: ('A' for Active; 'I' for Inactive)
REMARK    1  A    between atoms: C3_3  and  C6_6 
REMARK    2  A    between atoms: C3_3  and  C7_7 
REMARK    3  A    between atoms: C6_6  and  C8_8 
REMARK    4  A    between atoms: C8_8  and  C9_9 
ROOT
HETATM    1  C1  UNL     1     -31.368   8.605   0.350  1.00 20.00     0.011 A 
HETATM    2  C2  UNL     1     -32.768   9.114   0.153  1.00 20.00     0.011 A 
HETATM    3  C3  UNL     1     -32.310   8.690   1.529  1.00 20.00    -0.028 A 
ENDROOT
BRANCH   3   4
HETATM    4  C6  UNL     1     -32.862   7.392   2.097  1.00 20.00     0.011 C 
BRANCH   4   5
HETATM    5  C8  UNL     1     -32.689   7.331   3.617  1.00 20.00     0.005 C 
BRANCH   5   6
HETATM    6  C9  UNL     1     -34.010   7.095   4.375  1.00 20.00    -0.023 C 
HETATM    7  C4  UNL     1     -33.785   7.277   5.878  1.00 20.00     0.009 C 
HETATM    8  C5  UNL     1     -34.597   5.709   4.105  1.00 20.00     0.009 C 
ENDBRANCH   5   6
ENDBRANCH   4   5
ENDBRANCH   3   4
BRANCH   3   9
HETATM    9  C7  UNL     1     -32.064   9.766   2.551  1.00 20.00     0.124 C 
HETATM   10 CL10 UNL     1     -32.602  11.350   1.946  1.00 20.00    -0.130 Cl
ENDBRANCH   3   9
TORSDOF 4
ENDMDL
MODEL 8
REMARK VINA RESULT:      -4.3      2.517      4.823
REMARK  4 active torsions:
REMARK  status: ('A' for Active; 'I' for Inactive)
REMARK    1  A    between atoms: C3_3  and  C6_6 
REMARK    2  A    between atoms: C3_3  and  C7_7 
REMARK    3  A    between atoms: C6_6  and  C8_8 
REMARK    4  A    between atoms: C8_8  and  C9_9 
ROOT
HETATM    1  C1  UNL     1     -33.552  10.197   1.487  1.00 20.00     0.011 A 
HETATM    2  C2  UNL     1     -32.250  10.939   1.590  1.00 20.00     0.011 A 
HETATM    3  C3  UNL     1     -32.257   9.429   1.607  1.00 20.00    -0.028 A 
ENDROOT
BRANCH   3   4
HETATM    4  C6  UNL     1     -31.962   8.728   2.925  1.00 20.00     0.011 C 
BRANCH   4   5
HETATM    5  C8  UNL     1     -32.558   7.318   2.953  1.00 20.00     0.005 C 
BRANCH   5   6
HETATM    6  C9  UNL     1     -33.834   7.209   3.808  1.00 20.00    -0.023 C 
HETATM    7  C4  UNL     1     -33.473   7.300   5.293  1.00 20.00     0.009 C 
HETATM    8  C5  UNL     1     -34.604   5.914   3.544  1.00 20.00     0.009 C 
ENDBRANCH   5   6
ENDBRANCH   4   5
ENDBRANCH   3   4
BRANCH   3   9
HETATM    9  C7  UNL     1     -31.749   8.708   0.389  1.00 20.00     0.124 C 
HETATM   10 CL10 UNL     1     -32.869   8.913  -0.980  1.00 20.00    -0.130 Cl
ENDBRANCH   3   9
TORSDOF 4
ENDMDL
MODEL 9
REMARK VINA RESULT:      -4.3      1.890      4.501
REMARK  4 active torsions:
REMARK  status: ('A' for Active; 'I' for Inactive)
REMARK    1  A    between atoms: C3_3  and  C6_6 
REMARK    2  A    between atoms: C3_3  and  C7_7 
REMARK    3  A    between atoms: C6_6  and  C8_8 
REMARK    4  A    between atoms: C8_8  and  C9_9 
ROOT
HETATM    1  C1  UNL     1     -32.394   8.372   1.994  1.00 20.00     0.011 A 
HETATM    2  C2  UNL     1     -31.716   7.538   3.044  1.00 20.00     0.011 A 
HETATM    3  C3  UNL     1     -33.144   7.237   2.652  1.00 20.00    -0.028 A 
ENDROOT
BRANCH   3   4
HETATM    4  C6  UNL     1     -34.245   7.586   3.641  1.00 20.00     0.011 C 
BRANCH   4   5
HETATM    5  C8  UNL     1     -35.044   6.345   4.048  1.00 20.00     0.005 C 
BRANCH   5   6
HETATM    6  C9  UNL     1     -34.831   5.934   5.517  1.00 20.00    -0.023 C 
HETATM    7  C4  UNL     1     -33.865   6.908   6.194  1.00 20.00     0.009 C 
HETATM    8  C5  UNL     1     -34.301   4.506   5.652  1.00 20.00     0.009 C 
ENDBRANCH   5   6
ENDBRANCH   4   5
ENDBRANCH   3   4
BRANCH   3   9
HETATM    9  C7  UNL     1     -33.405   5.999   1.838  1.00 20.00     0.124 C 
HETATM   10 CL10 UNL     1     -32.689   4.567   2.616  1.00 20.00    -0.130 Cl
ENDBRANCH   3   9
TORSDOF 4
ENDMDL
