MODEL 1
REMARK VINA RESULT:      -5.4      0.000      0.000
REMARK  6 active torsions:
REMARK  status: ('A' for Active; 'I' for Inactive)
REMARK    1  A    between atoms: C4_4  and  C6_6 
REMARK    2  A    between atoms: C4_4  and  C9_9 
REMARK    3  A    between atoms: C5_5  and  O10_10 
REMARK    4  A    between atoms: C6_6  and  O10_10 
REMARK    5  A    between atoms: C7_7  and  C9_9 
REMARK    6  A    between atoms: C8_8  and  C9_9 
ROOT
HETATM    1  C9  UNL     1     -33.355   6.604   3.638  1.00 20.00     0.005 C 
ENDROOT
BRANCH   1   2
HETATM    2  C4  UNL     1     -33.122   8.023   3.061  1.00 20.00     0.032 C 
BRANCH   2   3
HETATM    3  C6  UNL     1     -31.675   8.331   2.688  1.00 20.00     0.168 C 
BRANCH   3   4
HETATM    4  O10 UNL     1     -31.612   8.607   1.294  1.00 20.00    -0.391 OA
BRANCH   4   5
HETATM    5  C5  UNL     1     -32.406   9.732   0.949  1.00 20.00     0.163 C 
HETATM    6  C1  UNL     1     -33.104   9.459  -0.367  1.00 20.00     0.033 C 
ENDBRANCH   4   5
ENDBRANCH   3   4
ENDBRANCH   2   3
ENDBRANCH   1   2
BRANCH   1   7
HETATM    7  C7  UNL     1     -33.873   5.610   2.576  1.00 20.00     0.119 C 
HETATM    8 CL11 UNL     1     -32.818   4.192   2.364  1.00 20.00    -0.130 Cl
ENDBRANCH   1   7
BRANCH   1   9
HETATM    9  C8  UNL     1     -34.264   6.649   4.912  1.00 20.00    -0.017 C 
HETATM   10  C2  UNL     1     -34.620   5.245   5.423  1.00 20.00     0.010 C 
HETATM   11  C3  UNL     1     -33.619   7.429   6.065  1.00 20.00     0.010 C 
ENDBRANCH   1   9
TORSDOF 6
ENDMDL
MODEL 2
REMARK VINA RESULT:      -5.0      1.819      2.525
REMARK  6 active torsions:
REMARK  status: ('A' for Active; 'I' for Inactive)
REMARK    1  A    between atoms: C4_4  and  C6_6 
REMARK    2  A    between atoms: C4_4  and  C9_9 
REMARK    3  A    between atoms: C5_5  and  O10_10 
REMARK    4  A    between atoms: C6_6  and  O10_10 
REMARK    5  A    between atoms: C7_7  and  C9_9 
REMARK    6  A    between atoms: C8_8  and  C9_9 
ROOT
HETATM    1  C9  UNL     1     -33.975   6.740   3.756  1.00 20.00     0.005 C 
ENDROOT
BRANCH   1   2
HETATM    2  C4  UNL     1     -32.637   7.346   3.262  1.00 20.00     0.032 C 
BRANCH   2   3
HETATM    3  C6  UNL     1     -32.724   8.085   1.929  1.00 20.00     0.168 C 
BRANCH   3   4
HETATM    4  O10 UNL     1     -32.118   9.363   2.076  1.00 20.00    -0.391 OA
BRANCH   4   5
HETATM    5  C5  UNL     1     -32.560  10.267   1.073  1.00 20.00     0.163 C 
HETATM    6  C1  UNL     1     -32.985   9.479  -0.148  1.00 20.00     0.033 C 
ENDBRANCH   4   5
ENDBRANCH   3   4
ENDBRANCH   2   3
ENDBRANCH   1   2
BRANCH   1   7
HETATM    7  C7  UNL     1     -34.180   6.916   5.277  1.00 20.00     0.119 C 
HETATM    8 CL11 UNL     1     -32.926   7.919   6.045  1.00 20.00    -0.130 Cl
ENDBRANCH   1   7
BRANCH   1   9
HETATM    9  C8  UNL     1     -34.128   5.251   3.299  1.00 20.00    -0.017 C 
HETATM   10  C2  UNL     1     -32.871   4.727   2.590  1.00 20.00     0.010 C 
HETATM   11  C3  UNL     1     -34.445   4.309   4.469  1.00 20.00     0.010 C 
ENDBRANCH   1   9
TORSDOF 6
ENDMDL
MODEL 3
REMARK VINA RESULT:      -4.6      2.491      5.002
REMARK  6 active torsions:
REMARK  status: ('A' for Active; 'I' for Inactive)
REMARK    1  A    between atoms: C4_4  and  C6_6 
REMARK    2  A    between atoms: C4_4  and  C9_9 
REMARK    3  A    between atoms: C5_5  and  O10_10 
REMARK    4  A    between atoms: C6_6  and  O10_10 
REMARK    5  A    between atoms: C7_7  and  C9_9 
REMARK    6  A    between atoms: C8_8  and  C9_9 
ROOT
HETATM    1  C9  UNL     1     -32.180   7.624   2.535  1.00 20.00     0.005 C 
ENDROOT
BRANCH   1   2
HETATM    2  C4  UNL     1     -33.383   6.675   2.769  1.00 20.00     0.032 C 
BRANCH   2   3
HETATM    3  C6  UNL     1     -33.062   5.190   2.624  1.00 20.00     0.168 C 
BRANCH   3   4
HETATM    4  O10 UNL     1     -33.810   4.465   3.591  1.00 20.00    -0.391 OA
BRANCH   4   5
HETATM    5  C5  UNL     1     -34.754   5.298   4.251  1.00 20.00     0.163 C 
HETATM    6  C1  UNL     1     -34.683   5.039   5.741  1.00 20.00     0.033 C 
ENDBRANCH   4   5
ENDBRANCH   3   4
ENDBRANCH   2   3
ENDBRANCH   1   2
BRANCH   1   7
HETATM    7  C7  UNL     1     -31.734   8.346   3.826  1.00 20.00     0.119 C 
HETATM    8 CL11 UNL     1     -32.771   7.988   5.227  1.00 20.00    -0.130 Cl
ENDBRANCH   1   7
BRANCH   1   9
HETATM    9  C8  UNL     1     -32.460   8.619   1.358  1.00 20.00    -0.017 C 
HETATM   10  C2  UNL     1     -32.696  10.054   1.853  1.00 20.00     0.010 C 
HETATM   11  C3  UNL     1     -31.319   8.648   0.332  1.00 20.00     0.010 C 
ENDBRANCH   1   9
TORSDOF 6
ENDMDL
MODEL 4
REMARK VINA RESULT:      -4.1     10.846     11.797
REMARK  6 active torsions:
REMARK  status: ('A' for Active; 'I' for Inactive)
REMARK    1  A    between atoms: C4_4  and  C6_6 
REMARK    2  A    between atoms: C4_4  and  C9_9 
REMARK    3  A    between atoms: C5_5  and  O10_10 
REMARK    4  A    between atoms: C6_6  and  O10_10 
REMARK    5  A    between atoms: C7_7  and  C9_9 
REMARK    6  A    between atoms: C8_8  and  C9_9 
ROOT
HETATM    1  C9  UNL     1     -34.357  15.687  -4.236  1.00 20.00     0.005 C 
ENDROOT
BRANCH   1   2
HETATM    2  C4  UNL     1     -34.645  14.165  -4.166  1.00 20.00     0.032 C 
BRANCH   2   3
HETATM    3  C6  UNL     1     -35.836  13.702  -5.000  1.00 20.00     0.168 C 
BRANCH   3   4
HETATM    4  O10 UNL     1     -35.402  12.674  -5.882  1.00 20.00    -0.391 OA
BRANCH   4   5
HETATM    5  C5  UNL     1     -34.987  13.201  -7.133  1.00 20.00     0.163 C 
HETATM    6  C1  UNL     1     -36.114  14.026  -7.719  1.00 20.00     0.033 C 
ENDBRANCH   4   5
ENDBRANCH   3   4
ENDBRANCH   2   3
ENDBRANCH   1   2
BRANCH   1   7
HETATM    7  C7  UNL     1     -33.182  16.024  -5.180  1.00 20.00     0.119 C 
HETATM    8 CL11 UNL     1     -33.707  16.634  -6.768  1.00 20.00    -0.130 Cl
ENDBRANCH   1   7
BRANCH   1   9
HETATM    9  C8  UNL     1     -34.171  16.297  -2.806  1.00 20.00    -0.017 C 
HETATM   10  C2  UNL     1     -33.362  17.603  -2.832  1.00 20.00     0.010 C 
HETATM   11  C3  UNL     1     -35.511  16.578  -2.111  1.00 20.00     0.010 C 
ENDBRANCH   1   9
TORSDOF 6
ENDMDL
MODEL 5
REMARK VINA RESULT:      -4.0      1.869      4.617
REMARK  6 active torsions:
REMARK  status: ('A' for Active; 'I' for Inactive)
REMARK    1  A    between atoms: C4_4  and  C6_6 
REMARK    2  A    between atoms: C4_4  and  C9_9 
REMARK    3  A    between atoms: C5_5  and  O10_10 
REMARK    4  A    between atoms: C6_6  and  O10_10 
REMARK    5  A    between atoms: C7_7  and  C9_9 
REMARK    6  A    between atoms: C8_8  and  C9_9 
ROOT
HETATM    1  C9  UNL     1     -32.939   8.096   2.637  1.00 20.00     0.005 C 
ENDROOT
BRANCH   1   2
HETATM    2  C4  UNL     1     -32.210   7.717   3.952  1.00 20.00     0.032 C 
BRANCH   2   3
HETATM    3  C6  UNL     1     -33.077   7.787   5.205  1.00 20.00     0.168 C 
BRANCH   3   4
HETATM    4  O10 UNL     1     -34.270   7.048   4.976  1.00 20.00    -0.391 OA
BRANCH   4   5
HETATM    5  C5  UNL     1     -34.404   5.977   5.899  1.00 20.00     0.163 C 
HETATM    6  C1  UNL     1     -34.705   4.703   5.137  1.00 20.00     0.033 C 
ENDBRANCH   4   5
ENDBRANCH   3   4
ENDBRANCH   2   3
ENDBRANCH   1   2
BRANCH   1   7
HETATM    7  C7  UNL     1     -33.347   6.859   1.807  1.00 20.00     0.119 C 
HETATM    8 CL11 UNL     1     -32.799   5.322   2.518  1.00 20.00    -0.130 Cl
ENDBRANCH   1   7
BRANCH   1   9
HETATM    9  C8  UNL     1     -32.109   9.130   1.804  1.00 20.00    -0.017 C 
HETATM   10  C2  UNL     1     -31.410   8.480   0.601  1.00 20.00     0.010 C 
HETATM   11  C3  UNL     1     -32.970  10.291   1.287  1.00 20.00     0.010 C 
ENDBRANCH   1   9
TORSDOF 6
ENDMDL
MODEL 6
REMARK VINA RESULT:      -3.9     10.939     11.461
REMARK  6 active torsions:
REMARK  status: ('A' for Active; 'I' for Inactive)
REMARK    1  A    between atoms: C4_4  and  C6_6 
REMARK    2  A    between atoms: C4_4  and  C9_9 
REMARK    3  A    between atoms: C5_5  and  O10_10 
REMARK    4  A    between atoms: C6_6  and  O10_10 
REMARK    5  A    between atoms: C7_7  and  C9_9 
REMARK    6  A    between atoms: C8_8  and  C9_9 
ROOT
HETATM    1  C9  UNL     1     -34.717  16.140  -3.076  1.00 20.00     0.005 C 
ENDROOT
BRANCH   1   2
HETATM    2  C4  UNL     1     -33.526  15.579  -3.895  1.00 20.00     0.032 C 
BRANCH   2   3
HETATM    3  C6  UNL     1     -33.906  14.535  -4.941  1.00 20.00     0.168 C 
BRANCH   3   4
HETATM    4  O10 UNL     1     -34.822  13.617  -4.357  1.00 20.00    -0.391 OA
BRANCH   4   5
HETATM    5  C5  UNL     1     -35.934  13.379  -5.207  1.00 20.00     0.163 C 
HETATM    6  C1  UNL     1     -35.665  14.006  -6.559  1.00 20.00     0.033 C 
ENDBRANCH   4   5
ENDBRANCH   3   4
ENDBRANCH   2   3
ENDBRANCH   1   2
BRANCH   1   7
HETATM    7  C7  UNL     1     -35.601  17.103  -3.899  1.00 20.00     0.119 C 
HETATM    8 CL11 UNL     1     -37.289  16.560  -4.045  1.00 20.00    -0.130 Cl
ENDBRANCH   1   7
BRANCH   1   9
HETATM    9  C8  UNL     1     -34.233  16.774  -1.729  1.00 20.00    -0.017 C 
HETATM   10  C2  UNL     1     -33.283  17.959  -1.951  1.00 20.00     0.010 C 
HETATM   11  C3  UNL     1     -35.401  17.254  -0.855  1.00 20.00     0.010 C 
ENDBRANCH   1   9
TORSDOF 6
ENDMDL
MODEL 7
REMARK VINA RESULT:      -3.9     10.622     11.972
REMARK  6 active torsions:
REMARK  status: ('A' for Active; 'I' for Inactive)
REMARK    1  A    between atoms: C4_4  and  C6_6 
REMARK    2  A    between atoms: C4_4  and  C9_9 
REMARK    3  A    between atoms: C5_5  and  O10_10 
REMARK    4  A    between atoms: C6_6  and  O10_10 
REMARK    5  A    between atoms: C7_7  and  C9_9 
REMARK    6  A    between atoms: C8_8  and  C9_9 
ROOT
HETATM    1  C9  UNL     1     -34.006  15.654  -3.723  1.00 20.00     0.005 C 
ENDROOT
BRANCH   1   2
HETATM    2  C4  UNL     1     -34.234  14.211  -4.241  1.00 20.00     0.032 C 
BRANCH   2   3
HETATM    3  C6  UNL     1     -35.659  13.916  -4.701  1.00 20.00     0.168 C 
BRANCH   3   4
HETATM    4  O10 UNL     1     -35.635  12.783  -5.560  1.00 20.00    -0.391 OA
BRANCH   4   5
HETATM    5  C5  UNL     1     -35.364  13.155  -6.904  1.00 20.00     0.163 C 
HETATM    6  C1  UNL     1     -36.329  14.247  -7.318  1.00 20.00     0.033 C 
ENDBRANCH   4   5
ENDBRANCH   3   4
ENDBRANCH   2   3
ENDBRANCH   1   2
BRANCH   1   7
HETATM    7  C7  UNL     1     -35.190  16.176  -2.880  1.00 20.00     0.119 C 
HETATM    8 CL11 UNL     1     -34.685  16.962  -1.366  1.00 20.00    -0.130 Cl
ENDBRANCH   1   7
BRANCH   1   9
HETATM    9  C8  UNL     1     -33.627  16.626  -4.891  1.00 20.00    -0.017 C 
HETATM   10  C2  UNL     1     -33.123  15.875  -6.132  1.00 20.00     0.010 C 
HETATM   11  C3  UNL     1     -34.802  17.518  -5.315  1.00 20.00     0.010 C 
ENDBRANCH   1   9
TORSDOF 6
ENDMDL
MODEL 8
REMARK VINA RESULT:      -3.9     10.738     11.752
REMARK  6 active torsions:
REMARK  status: ('A' for Active; 'I' for Inactive)
REMARK    1  A    between atoms: C4_4  and  C6_6 
REMARK    2  A    between atoms: C4_4  and  C9_9 
REMARK    3  A    between atoms: C5_5  and  O10_10 
REMARK    4  A    between atoms: C6_6  and  O10_10 
REMARK    5  A    between atoms: C7_7  and  C9_9 
REMARK    6  A    between atoms: C8_8  and  C9_9 
ROOT
HETATM    1  C9  UNL     1     -34.961  15.625  -3.443  1.00 20.00     0.005 C 
ENDROOT
BRANCH   1   2
HETATM    2  C4  UNL     1     -36.067  15.867  -4.502  1.00 20.00     0.032 C 
BRANCH   2   3
HETATM    3  C6  UNL     1     -37.149  14.792  -4.551  1.00 20.00     0.168 C 
BRANCH   3   4
HETATM    4  O10 UNL     1     -36.642  13.667  -5.258  1.00 20.00    -0.391 OA
BRANCH   4   5
HETATM    5  C5  UNL     1     -36.343  13.992  -6.608  1.00 20.00     0.163 C 
HETATM    6  C1  UNL     1     -35.146  13.179  -7.057  1.00 20.00     0.033 C 
ENDBRANCH   4   5
ENDBRANCH   3   4
ENDBRANCH   2   3
ENDBRANCH   1   2
BRANCH   1   7
HETATM    7  C7  UNL     1     -35.090  16.566  -2.225  1.00 20.00     0.119 C 
HETATM    8 CL11 UNL     1     -33.535  17.251  -1.696  1.00 20.00    -0.130 Cl
ENDBRANCH   1   7
BRANCH   1   9
HETATM    9  C8  UNL     1     -33.535  15.671  -4.088  1.00 20.00    -0.017 C 
HETATM   10  C2  UNL     1     -32.939  14.270  -4.283  1.00 20.00     0.010 C 
HETATM   11  C3  UNL     1     -33.530  16.387  -5.446  1.00 20.00     0.010 C 
ENDBRANCH   1   9
TORSDOF 6
ENDMDL
MODEL 9
REMARK VINA RESULT:      -3.8     11.261     12.019
REMARK  6 active torsions:
REMARK  status: ('A' for Active; 'I' for Inactive)
REMARK    1  A    between atoms: C4_4  and  C6_6 
REMARK    2  A    between atoms: C4_4  and  C9_9 
REMARK    3  A    between atoms: C5_5  and  O10_10 
REMARK    4  A    between atoms: C6_6  and  O10_10 
REMARK    5  A    between atoms: C7_7  and  C9_9 
REMARK    6  A    between atoms: C8_8  and  C9_9 
ROOT
HETATM    1  C9  UNL     1     -34.421  16.541  -3.530  1.00 20.00     0.005 C 
ENDROOT
BRANCH   1   2
HETATM    2  C4  UNL     1     -34.270  15.063  -3.971  1.00 20.00     0.032 C 
BRANCH   2   3
HETATM    3  C6  UNL     1     -33.900  14.870  -5.439  1.00 20.00     0.168 C 
BRANCH   3   4
HETATM    4  O10 UNL     1     -34.260  13.551  -5.830  1.00 20.00    -0.391 OA
BRANCH   4   5
HETATM    5  C5  UNL     1     -34.553  13.481  -7.218  1.00 20.00     0.163 C 
HETATM    6  C1  UNL     1     -33.913  14.661  -7.918  1.00 20.00     0.033 C 
ENDBRANCH   4   5
ENDBRANCH   3   4
ENDBRANCH   2   3
ENDBRANCH   1   2
BRANCH   1   7
HETATM    7  C7  UNL     1     -33.589  17.508  -4.400  1.00 20.00     0.119 C 
HETATM    8 CL11 UNL     1     -34.569  18.764  -5.193  1.00 20.00    -0.130 Cl
ENDBRANCH   1   7
BRANCH   1   9
HETATM    9  C8  UNL     1     -34.132  16.711  -2.001  1.00 20.00    -0.017 C 
HETATM   10  C2  UNL     1     -33.086  17.801  -1.724  1.00 20.00     0.010 C 
HETATM   11  C3  UNL     1     -35.397  17.047  -1.199  1.00 20.00     0.010 C 
ENDBRANCH   1   9
TORSDOF 6
ENDMDL
