MODEL 1
REMARK VINA RESULT:      -6.2      0.000      0.000
REMARK  5 active torsions:
REMARK  status: ('A' for Active; 'I' for Inactive)
REMARK    1  A    between atoms: C2_2  and  C5_5 
REMARK    2  A    between atoms: C2_2  and  C6_6 
REMARK    3  A    between atoms: C6_6  and  C7_7 
REMARK    4  A    between atoms: C7_7  and  C8_8 
REMARK    5  A    between atoms: C8_8  and  C9_9 
ROOT
HETATM    1  C6  UNL     1     -32.495   7.682   3.796  1.00 20.00     0.033 C 
ENDROOT
BRANCH   1   2
HETATM    2  C2  UNL     1     -33.602   7.030   4.602  1.00 20.00    -0.090 C 
HETATM    3  C1  UNL     1     -33.752   7.336   5.901  1.00 20.00     0.014 C 
BRANCH   2   4
HETATM    4  C5  UNL     1     -34.453   6.025   3.852  1.00 20.00     0.029 C 
HETATM    5  C3  UNL     1     -34.611   4.643   4.478  1.00 20.00     0.010 C 
ENDBRANCH   2   4
ENDBRANCH   1   2
BRANCH   1   6
HETATM    6  C7  UNL     1     -32.848   7.819   2.311  1.00 20.00     0.006 C 
BRANCH   6   7
HETATM    7  C8  UNL     1     -31.693   8.457   1.527  1.00 20.00     0.020 C 
BRANCH   7   8
HETATM    8  C9  UNL     1     -32.123   9.669   0.690  1.00 20.00     0.078 C 
HETATM    9  C4  UNL     1     -32.875  10.685   1.543  1.00 20.00     0.026 C 
HETATM   10 CL10 UNL     1     -33.170   9.171  -0.673  1.00 20.00    -0.125 Cl
ENDBRANCH   7   8
ENDBRANCH   6   7
ENDBRANCH   1   6
TORSDOF 5
ENDMDL
MODEL 2
REMARK VINA RESULT:      -6.1      1.270      1.430
REMARK  5 active torsions:
REMARK  status: ('A' for Active; 'I' for Inactive)
REMARK    1  A    between atoms: C2_2  and  C5_5 
REMARK    2  A    between atoms: C2_2  and  C6_6 
REMARK    3  A    between atoms: C6_6  and  C7_7 
REMARK    4  A    between atoms: C7_7  and  C8_8 
REMARK    5  A    between atoms: C8_8  and  C9_9 
ROOT
HETATM    1  C6  UNL     1     -33.167   6.832   3.198  1.00 20.00     0.033 C 
ENDROOT
BRANCH   1   2
HETATM    2  C2  UNL     1     -33.851   6.694   4.544  1.00 20.00    -0.090 C 
HETATM    3  C1  UNL     1     -33.523   7.522   5.548  1.00 20.00     0.014 C 
BRANCH   2   4
HETATM    4  C5  UNL     1     -34.860   5.568   4.654  1.00 20.00     0.029 C 
HETATM    5  C3  UNL     1     -34.346   4.150   4.429  1.00 20.00     0.010 C 
ENDBRANCH   2   4
ENDBRANCH   1   2
BRANCH   1   6
HETATM    6  C7  UNL     1     -32.116   7.947   3.181  1.00 20.00     0.006 C 
BRANCH   6   7
HETATM    7  C8  UNL     1     -31.829   8.412   1.747  1.00 20.00     0.020 C 
BRANCH   7   8
HETATM    8  C9  UNL     1     -32.888   9.376   1.197  1.00 20.00     0.078 C 
HETATM    9  C4  UNL     1     -32.969   9.293  -0.323  1.00 20.00     0.026 C 
HETATM   10 CL10 UNL     1     -32.526  11.065   1.665  1.00 20.00    -0.125 Cl
ENDBRANCH   7   8
ENDBRANCH   6   7
ENDBRANCH   1   6
TORSDOF 5
ENDMDL
MODEL 3
REMARK VINA RESULT:      -6.0      1.553      1.985
REMARK  5 active torsions:
REMARK  status: ('A' for Active; 'I' for Inactive)
REMARK    1  A    between atoms: C2_2  and  C5_5 
REMARK    2  A    between atoms: C2_2  and  C6_6 
REMARK    3  A    between atoms: C6_6  and  C7_7 
REMARK    4  A    between atoms: C7_7  and  C8_8 
REMARK    5  A    between atoms: C8_8  and  C9_9 
ROOT
HETATM    1  C6  UNL     1     -33.563   7.444   3.118  1.00 20.00     0.033 C 
ENDROOT
BRANCH   1   2
HETATM    2  C2  UNL     1     -33.825   5.965   3.326  1.00 20.00    -0.090 C 
HETATM    3  C1  UNL     1     -33.080   5.057   2.676  1.00 20.00     0.014 C 
BRANCH   2   4
HETATM    4  C5  UNL     1     -34.970   5.627   4.260  1.00 20.00     0.029 C 
HETATM    5  C3  UNL     1     -34.608   5.047   5.623  1.00 20.00     0.010 C 
ENDBRANCH   2   4
ENDBRANCH   1   2
BRANCH   1   6
HETATM    6  C7  UNL     1     -32.069   7.771   3.018  1.00 20.00     0.006 C 
BRANCH   6   7
HETATM    7  C8  UNL     1     -31.740   8.442   1.678  1.00 20.00     0.020 C 
BRANCH   7   8
HETATM    8  C9  UNL     1     -32.861   9.354   1.163  1.00 20.00     0.078 C 
HETATM    9  C4  UNL     1     -32.972   9.282  -0.356  1.00 20.00     0.026 C 
HETATM   10 CL10 UNL     1     -32.577  11.054   1.641  1.00 20.00    -0.125 Cl
ENDBRANCH   7   8
ENDBRANCH   6   7
ENDBRANCH   1   6
TORSDOF 5
ENDMDL
MODEL 4
REMARK VINA RESULT:      -5.7      0.604      1.675
REMARK  5 active torsions:
REMARK  status: ('A' for Active; 'I' for Inactive)
REMARK    1  A    between atoms: C2_2  and  C5_5 
REMARK    2  A    between atoms: C2_2  and  C6_6 
REMARK    3  A    between atoms: C6_6  and  C7_7 
REMARK    4  A    between atoms: C7_7  and  C8_8 
REMARK    5  A    between atoms: C8_8  and  C9_9 
ROOT
HETATM    1  C6  UNL     1     -32.925   6.441   2.637  1.00 20.00     0.033 C 
ENDROOT
BRANCH   1   2
HETATM    2  C2  UNL     1     -33.840   6.002   3.763  1.00 20.00    -0.090 C 
HETATM    3  C1  UNL     1     -34.163   4.706   3.896  1.00 20.00     0.014 C 
BRANCH   2   4
HETATM    4  C5  UNL     1     -34.358   7.111   4.657  1.00 20.00     0.029 C 
HETATM    5  C3  UNL     1     -33.695   7.272   6.020  1.00 20.00     0.010 C 
ENDBRANCH   2   4
ENDBRANCH   1   2
BRANCH   1   6
HETATM    6  C7  UNL     1     -32.813   7.966   2.526  1.00 20.00     0.006 C 
BRANCH   6   7
HETATM    7  C8  UNL     1     -31.713   8.367   1.534  1.00 20.00     0.020 C 
BRANCH   7   8
HETATM    8  C9  UNL     1     -32.082   9.585   0.677  1.00 20.00     0.078 C 
HETATM    9  C4  UNL     1     -32.782  10.651   1.511  1.00 20.00     0.026 C 
HETATM   10 CL10 UNL     1     -33.151   9.117  -0.679  1.00 20.00    -0.125 Cl
ENDBRANCH   7   8
ENDBRANCH   6   7
ENDBRANCH   1   6
TORSDOF 5
ENDMDL
MODEL 5
REMARK VINA RESULT:      -5.7      2.703      5.040
REMARK  5 active torsions:
REMARK  status: ('A' for Active; 'I' for Inactive)
REMARK    1  A    between atoms: C2_2  and  C5_5 
REMARK    2  A    between atoms: C2_2  and  C6_6 
REMARK    3  A    between atoms: C6_6  and  C7_7 
REMARK    4  A    between atoms: C7_7  and  C8_8 
REMARK    5  A    between atoms: C8_8  and  C9_9 
ROOT
HETATM    1  C6  UNL     1     -33.121   7.333   1.867  1.00 20.00     0.033 C 
ENDROOT
BRANCH   1   2
HETATM    2  C2  UNL     1     -32.168   8.473   2.169  1.00 20.00    -0.090 C 
HETATM    3  C1  UNL     1     -31.396   8.426   3.267  1.00 20.00     0.014 C 
BRANCH   2   4
HETATM    4  C5  UNL     1     -32.192   9.625   1.185  1.00 20.00     0.029 C 
HETATM    5  C3  UNL     1     -32.966   9.416  -0.112  1.00 20.00     0.010 C 
ENDBRANCH   2   4
ENDBRANCH   1   2
BRANCH   1   6
HETATM    6  C7  UNL     1     -33.180   6.297   2.996  1.00 20.00     0.006 C 
BRANCH   6   7
HETATM    7  C8  UNL     1     -34.623   6.080   3.470  1.00 20.00     0.020 C 
BRANCH   7   8
HETATM    8  C9  UNL     1     -34.765   6.064   4.998  1.00 20.00     0.078 C 
HETATM    9  C4  UNL     1     -33.825   7.072   5.647  1.00 20.00     0.026 C 
HETATM   10 CL10 UNL     1     -34.416   4.439   5.659  1.00 20.00    -0.125 Cl
ENDBRANCH   7   8
ENDBRANCH   6   7
ENDBRANCH   1   6
TORSDOF 5
ENDMDL
MODEL 6
REMARK VINA RESULT:      -5.6      1.874      2.940
REMARK  5 active torsions:
REMARK  status: ('A' for Active; 'I' for Inactive)
REMARK    1  A    between atoms: C2_2  and  C5_5 
REMARK    2  A    between atoms: C2_2  and  C6_6 
REMARK    3  A    between atoms: C6_6  and  C7_7 
REMARK    4  A    between atoms: C7_7  and  C8_8 
REMARK    5  A    between atoms: C8_8  and  C9_9 
ROOT
HETATM    1  C6  UNL     1     -34.849   6.173   3.483  1.00 20.00     0.033 C 
ENDROOT
BRANCH   1   2
HETATM    2  C2  UNL     1     -34.536   5.309   4.689  1.00 20.00    -0.090 C 
HETATM    3  C1  UNL     1     -34.346   3.989   4.533  1.00 20.00     0.014 C 
BRANCH   2   4
HETATM    4  C5  UNL     1     -34.497   6.031   6.021  1.00 20.00     0.029 C 
HETATM    5  C3  UNL     1     -33.734   7.350   6.074  1.00 20.00     0.010 C 
ENDBRANCH   2   4
ENDBRANCH   1   2
BRANCH   1   6
HETATM    6  C7  UNL     1     -33.929   5.882   2.292  1.00 20.00     0.006 C 
BRANCH   6   7
HETATM    7  C8  UNL     1     -32.536   6.486   2.511  1.00 20.00     0.020 C 
BRANCH   7   8
HETATM    8  C9  UNL     1     -32.553   8.011   2.676  1.00 20.00     0.078 C 
HETATM    9  C4  UNL     1     -32.309   8.710   1.344  1.00 20.00     0.026 C 
HETATM   10 CL10 UNL     1     -31.309   8.545   3.845  1.00 20.00    -0.125 Cl
ENDBRANCH   7   8
ENDBRANCH   6   7
ENDBRANCH   1   6
TORSDOF 5
ENDMDL
MODEL 7
REMARK VINA RESULT:      -5.4      2.127      4.977
REMARK  5 active torsions:
REMARK  status: ('A' for Active; 'I' for Inactive)
REMARK    1  A    between atoms: C2_2  and  C5_5 
REMARK    2  A    between atoms: C2_2  and  C6_6 
REMARK    3  A    between atoms: C6_6  and  C7_7 
REMARK    4  A    between atoms: C7_7  and  C8_8 
REMARK    5  A    between atoms: C8_8  and  C9_9 
ROOT
HETATM    1  C6  UNL     1     -31.870   8.644   2.723  1.00 20.00     0.033 C 
ENDROOT
BRANCH   1   2
HETATM    2  C2  UNL     1     -32.252   9.577   1.590  1.00 20.00    -0.090 C 
HETATM    3  C1  UNL     1     -32.711  10.809   1.865  1.00 20.00     0.014 C 
BRANCH   2   4
HETATM    4  C5  UNL     1     -32.109   9.006   0.193  1.00 20.00     0.029 C 
HETATM    5  C3  UNL     1     -33.217   9.326  -0.805  1.00 20.00     0.010 C 
ENDBRANCH   2   4
ENDBRANCH   1   2
BRANCH   1   6
HETATM    6  C7  UNL     1     -32.625   7.311   2.670  1.00 20.00     0.006 C 
BRANCH   6   7
HETATM    7  C8  UNL     1     -33.717   7.254   3.746  1.00 20.00     0.020 C 
BRANCH   7   8
HETATM    8  C9  UNL     1     -34.408   5.886   3.840  1.00 20.00     0.078 C 
HETATM    9  C4  UNL     1     -34.611   5.472   5.293  1.00 20.00     0.026 C 
HETATM   10 CL10 UNL     1     -33.450   4.625   3.008  1.00 20.00    -0.125 Cl
ENDBRANCH   7   8
ENDBRANCH   6   7
ENDBRANCH   1   6
TORSDOF 5
ENDMDL
MODEL 8
REMARK VINA RESULT:      -5.3      2.484      5.135
REMARK  5 active torsions:
REMARK  status: ('A' for Active; 'I' for Inactive)
REMARK    1  A    between atoms: C2_2  and  C5_5 
REMARK    2  A    between atoms: C2_2  and  C6_6 
REMARK    3  A    between atoms: C6_6  and  C7_7 
REMARK    4  A    between atoms: C7_7  and  C8_8 
REMARK    5  A    between atoms: C8_8  and  C9_9 
ROOT
HETATM    1  C6  UNL     1     -33.423   7.553   2.031  1.00 20.00     0.033 C 
ENDROOT
BRANCH   1   2
HETATM    2  C2  UNL     1     -32.121   8.327   2.099  1.00 20.00    -0.090 C 
HETATM    3  C1  UNL     1     -31.395   8.317   3.229  1.00 20.00     0.014 C 
BRANCH   2   4
HETATM    4  C5  UNL     1     -31.753   9.103   0.850  1.00 20.00     0.029 C 
HETATM    5  C3  UNL     1     -32.882   9.437  -0.119  1.00 20.00     0.010 C 
ENDBRANCH   2   4
ENDBRANCH   1   2
BRANCH   1   6
HETATM    6  C7  UNL     1     -33.312   6.155   2.651  1.00 20.00     0.006 C 
BRANCH   6   7
HETATM    7  C8  UNL     1     -34.418   5.923   3.688  1.00 20.00     0.020 C 
BRANCH   7   8
HETATM    8  C9  UNL     1     -33.890   5.810   5.125  1.00 20.00     0.078 C 
HETATM    9  C4  UNL     1     -34.764   4.881   5.959  1.00 20.00     0.026 C 
HETATM   10 CL10 UNL     1     -33.832   7.413   5.916  1.00 20.00    -0.125 Cl
ENDBRANCH   7   8
ENDBRANCH   6   7
ENDBRANCH   1   6
TORSDOF 5
ENDMDL
MODEL 9
REMARK VINA RESULT:      -5.0      2.607      5.271
REMARK  5 active torsions:
REMARK  status: ('A' for Active; 'I' for Inactive)
REMARK    1  A    between atoms: C2_2  and  C5_5 
REMARK    2  A    between atoms: C2_2  and  C6_6 
REMARK    3  A    between atoms: C6_6  and  C7_7 
REMARK    4  A    between atoms: C7_7  and  C8_8 
REMARK    5  A    between atoms: C8_8  and  C9_9 
ROOT
HETATM    1  C6  UNL     1     -31.998   7.894   2.526  1.00 20.00     0.033 C 
ENDROOT
BRANCH   1   2
HETATM    2  C2  UNL     1     -31.987   8.763   1.283  1.00 20.00    -0.090 C 
HETATM    3  C1  UNL     1     -31.097   8.522   0.307  1.00 20.00     0.014 C 
BRANCH   2   4
HETATM    4  C5  UNL     1     -32.998   9.892   1.263  1.00 20.00     0.029 C 
HETATM    5  C3  UNL     1     -32.555  11.231   1.845  1.00 20.00     0.010 C 
ENDBRANCH   2   4
ENDBRANCH   1   2
BRANCH   1   6
HETATM    6  C7  UNL     1     -33.394   7.768   3.146  1.00 20.00     0.006 C 
BRANCH   6   7
HETATM    7  C8  UNL     1     -33.754   6.298   3.399  1.00 20.00     0.020 C 
BRANCH   7   8
HETATM    8  C9  UNL     1     -34.528   6.077   4.706  1.00 20.00     0.078 C 
HETATM    9  C4  UNL     1     -33.962   6.936   5.830  1.00 20.00     0.026 C 
HETATM   10 CL10 UNL     1     -34.470   4.360   5.205  1.00 20.00    -0.125 Cl
ENDBRANCH   7   8
ENDBRANCH   6   7
ENDBRANCH   1   6
TORSDOF 5
ENDMDL
