MODEL 1
REMARK VINA RESULT:      -4.9      0.000      0.000
REMARK  4 active torsions:
REMARK  status: ('A' for Active; 'I' for Inactive)
REMARK    1  A    between atoms: C6_6  and  C8_8 
REMARK    2  A    between atoms: C6_6  and  C9_9 
REMARK    3  A    between atoms: C7_7  and  O11_11 
REMARK    4  A    between atoms: C9_9  and  O11_11 
ROOT
HETATM    1  C1  UNL     1     -32.953   5.913   2.848  1.00 20.00     0.097 C 
HETATM    2  C5  UNL     1     -31.759   7.796   3.883  1.00 20.00     0.062 C 
HETATM    3  C9  UNL     1     -33.052   7.343   3.190  1.00 20.00     0.145 C 
HETATM    4  N10 UNL     1     -32.873   4.788   2.577  1.00 20.00    -0.194 NA
ENDROOT
BRANCH   3   5
HETATM    5  C6  UNL     1     -33.295   8.212   1.937  1.00 20.00     0.057 C 
BRANCH   5   6
HETATM    6  C8  UNL     1     -32.201   9.243   1.562  1.00 20.00    -0.019 C 
HETATM    7  C3  UNL     1     -31.400   8.716   0.365  1.00 20.00     0.009 C 
HETATM    8  C4  UNL     1     -32.750  10.631   1.232  1.00 20.00     0.009 C 
ENDBRANCH   5   6
ENDBRANCH   3   5
BRANCH   3   9
HETATM    9  O11 UNL     1     -34.119   7.547   4.115  1.00 20.00    -0.366 OA
BRANCH   9  10
HETATM   10  C7  UNL     1     -33.734   7.195   5.434  1.00 20.00     0.165 C 
HETATM   11  C2  UNL     1     -34.505   5.965   5.862  1.00 20.00     0.033 C 
ENDBRANCH   9  10
ENDBRANCH   3   9
TORSDOF 4
ENDMDL
MODEL 2
REMARK VINA RESULT:      -4.1     10.695     11.753
REMARK  4 active torsions:
REMARK  status: ('A' for Active; 'I' for Inactive)
REMARK    1  A    between atoms: C6_6  and  C8_8 
REMARK    2  A    between atoms: C6_6  and  C9_9 
REMARK    3  A    between atoms: C7_7  and  O11_11 
REMARK    4  A    between atoms: C9_9  and  O11_11 
ROOT
HETATM    1  C1  UNL     1     -35.764  13.949  -4.928  1.00 20.00     0.097 C 
HETATM    2  C5  UNL     1     -37.072  15.910  -4.234  1.00 20.00     0.062 C 
HETATM    3  C9  UNL     1     -35.672  15.371  -4.554  1.00 20.00     0.145 C 
HETATM    4  N10 UNL     1     -35.837  12.828  -5.220  1.00 20.00    -0.194 NA
ENDROOT
BRANCH   3   5
HETATM    5  C6  UNL     1     -34.749  15.580  -3.333  1.00 20.00     0.057 C 
BRANCH   5   6
HETATM    6  C8  UNL     1     -34.746  16.982  -2.674  1.00 20.00    -0.019 C 
HETATM    7  C3  UNL     1     -35.281  16.869  -1.242  1.00 20.00     0.009 C 
HETATM    8  C4  UNL     1     -33.369  17.646  -2.649  1.00 20.00     0.009 C 
ENDBRANCH   5   6
ENDBRANCH   3   5
BRANCH   3   9
HETATM    9  O11 UNL     1     -35.169  16.129  -5.654  1.00 20.00    -0.366 OA
BRANCH   9  10
HETATM   10  C7  UNL     1     -33.867  15.702  -6.023  1.00 20.00     0.165 C 
HETATM   11  C2  UNL     1     -33.828  15.477  -7.520  1.00 20.00     0.033 C 
ENDBRANCH   9  10
ENDBRANCH   3   9
TORSDOF 4
ENDMDL
MODEL 3
REMARK VINA RESULT:      -4.1      1.694      4.584
REMARK  4 active torsions:
REMARK  status: ('A' for Active; 'I' for Inactive)
REMARK    1  A    between atoms: C6_6  and  C8_8 
REMARK    2  A    between atoms: C6_6  and  C9_9 
REMARK    3  A    between atoms: C7_7  and  O11_11 
REMARK    4  A    between atoms: C9_9  and  O11_11 
ROOT
HETATM    1  C1  UNL     1     -31.799   7.884   3.417  1.00 20.00     0.097 C 
HETATM    2  C5  UNL     1     -32.656   5.930   2.197  1.00 20.00     0.062 C 
HETATM    3  C9  UNL     1     -32.999   7.305   2.787  1.00 20.00     0.145 C 
HETATM    4  N10 UNL     1     -30.855   8.339   3.915  1.00 20.00    -0.194 NA
ENDROOT
BRANCH   3   5
HETATM    5  C6  UNL     1     -34.157   7.156   3.797  1.00 20.00     0.057 C 
BRANCH   5   6
HETATM    6  C8  UNL     1     -33.869   6.369   5.100  1.00 20.00    -0.019 C 
HETATM    7  C3  UNL     1     -33.910   7.332   6.292  1.00 20.00     0.009 C 
HETATM    8  C4  UNL     1     -34.840   5.214   5.348  1.00 20.00     0.009 C 
ENDBRANCH   5   6
ENDBRANCH   3   5
BRANCH   3   9
HETATM    9  O11 UNL     1     -33.425   8.133   1.705  1.00 20.00    -0.366 OA
BRANCH   9  10
HETATM   10  C7  UNL     1     -32.328   8.807   1.108  1.00 20.00     0.165 C 
HETATM   11  C2  UNL     1     -32.739  10.228   0.785  1.00 20.00     0.033 C 
ENDBRANCH   9  10
ENDBRANCH   3   9
TORSDOF 4
ENDMDL
MODEL 4
REMARK VINA RESULT:      -4.1     10.253     11.283
REMARK  4 active torsions:
REMARK  status: ('A' for Active; 'I' for Inactive)
REMARK    1  A    between atoms: C6_6  and  C8_8 
REMARK    2  A    between atoms: C6_6  and  C9_9 
REMARK    3  A    between atoms: C7_7  and  O11_11 
REMARK    4  A    between atoms: C9_9  and  O11_11 
ROOT
HETATM    1  C1  UNL     1     -37.131  14.729  -4.682  1.00 20.00     0.097 C 
HETATM    2  C5  UNL     1     -35.361  16.058  -5.751  1.00 20.00     0.062 C 
HETATM    3  C9  UNL     1     -35.846  15.411  -4.446  1.00 20.00     0.145 C 
HETATM    4  N10 UNL     1     -38.144  14.195  -4.867  1.00 20.00    -0.194 NA
ENDROOT
BRANCH   3   5
HETATM    5  C6  UNL     1     -35.968  16.493  -3.351  1.00 20.00     0.057 C 
BRANCH   5   6
HETATM    6  C8  UNL     1     -34.873  16.524  -2.256  1.00 20.00    -0.019 C 
HETATM    7  C3  UNL     1     -33.705  17.394  -2.734  1.00 20.00     0.009 C 
HETATM    8  C4  UNL     1     -35.369  17.040  -0.905  1.00 20.00     0.009 C 
ENDBRANCH   5   6
ENDBRANCH   3   5
BRANCH   3   9
HETATM    9  O11 UNL     1     -34.857  14.459  -4.055  1.00 20.00    -0.366 OA
BRANCH   9  10
HETATM   10  C7  UNL     1     -33.805  14.389  -5.004  1.00 20.00     0.165 C 
HETATM   11  C2  UNL     1     -32.492  14.204  -4.272  1.00 20.00     0.033 C 
ENDBRANCH   9  10
ENDBRANCH   3   9
TORSDOF 4
ENDMDL
MODEL 5
REMARK VINA RESULT:      -4.0     10.912     11.679
REMARK  4 active torsions:
REMARK  status: ('A' for Active; 'I' for Inactive)
REMARK    1  A    between atoms: C6_6  and  C8_8 
REMARK    2  A    between atoms: C6_6  and  C9_9 
REMARK    3  A    between atoms: C7_7  and  O11_11 
REMARK    4  A    between atoms: C9_9  and  O11_11 
ROOT
HETATM    1  C1  UNL     1     -33.883  16.534  -6.055  1.00 20.00     0.097 C 
HETATM    2  C5  UNL     1     -32.972  15.057  -4.315  1.00 20.00     0.062 C 
HETATM    3  C9  UNL     1     -34.065  16.075  -4.667  1.00 20.00     0.145 C 
HETATM    4  N10 UNL     1     -33.738  16.897  -7.148  1.00 20.00    -0.194 NA
ENDROOT
BRANCH   3   5
HETATM    5  C6  UNL     1     -34.012  17.251  -3.667  1.00 20.00     0.057 C 
BRANCH   5   6
HETATM    6  C8  UNL     1     -33.856  16.904  -2.166  1.00 20.00    -0.019 C 
HETATM    7  C3  UNL     1     -32.896  17.905  -1.512  1.00 20.00     0.009 C 
HETATM    8  C4  UNL     1     -35.177  16.893  -1.396  1.00 20.00     0.009 C 
ENDBRANCH   5   6
ENDBRANCH   3   5
BRANCH   3   9
HETATM    9  O11 UNL     1     -35.320  15.408  -4.537  1.00 20.00    -0.366 OA
BRANCH   9  10
HETATM   10  C7  UNL     1     -35.155  13.999  -4.512  1.00 20.00     0.165 C 
HETATM   11  C2  UNL     1     -36.018  13.382  -5.593  1.00 20.00     0.033 C 
ENDBRANCH   9  10
ENDBRANCH   3   9
TORSDOF 4
ENDMDL
MODEL 6
REMARK VINA RESULT:      -4.0      1.867      2.613
REMARK  4 active torsions:
REMARK  status: ('A' for Active; 'I' for Inactive)
REMARK    1  A    between atoms: C6_6  and  C8_8 
REMARK    2  A    between atoms: C6_6  and  C9_9 
REMARK    3  A    between atoms: C7_7  and  O11_11 
REMARK    4  A    between atoms: C9_9  and  O11_11 
ROOT
HETATM    1  C1  UNL     1     -33.400   7.288   4.856  1.00 20.00     0.097 C 
HETATM    2  C5  UNL     1     -34.431   7.142   2.630  1.00 20.00     0.062 C 
HETATM    3  C9  UNL     1     -33.121   7.064   3.426  1.00 20.00     0.145 C 
HETATM    4  N10 UNL     1     -33.619   7.466   5.981  1.00 20.00    -0.194 NA
ENDROOT
BRANCH   3   5
HETATM    5  C6  UNL     1     -32.121   8.102   2.873  1.00 20.00     0.057 C 
BRANCH   5   6
HETATM    6  C8  UNL     1     -32.427   8.717   1.484  1.00 20.00    -0.019 C 
HETATM    7  C3  UNL     1     -32.720  10.213   1.647  1.00 20.00     0.009 C 
HETATM    8  C4  UNL     1     -31.302   8.530   0.466  1.00 20.00     0.009 C 
ENDBRANCH   5   6
ENDBRANCH   3   5
BRANCH   3   9
HETATM    9  O11 UNL     1     -32.589   5.754   3.235  1.00 20.00    -0.366 OA
BRANCH   9  10
HETATM   10  C7  UNL     1     -33.611   4.823   2.915  1.00 20.00     0.165 C 
HETATM   11  C2  UNL     1     -33.994   4.061   4.166  1.00 20.00     0.033 C 
ENDBRANCH   9  10
ENDBRANCH   3   9
TORSDOF 4
ENDMDL
MODEL 7
REMARK VINA RESULT:      -4.0     10.471     11.489
REMARK  4 active torsions:
REMARK  status: ('A' for Active; 'I' for Inactive)
REMARK    1  A    between atoms: C6_6  and  C8_8 
REMARK    2  A    between atoms: C6_6  and  C9_9 
REMARK    3  A    between atoms: C7_7  and  O11_11 
REMARK    4  A    between atoms: C9_9  and  O11_11 
ROOT
HETATM    1  C1  UNL     1     -35.428  13.879  -4.912  1.00 20.00     0.097 C 
HETATM    2  C5  UNL     1     -33.335  15.027  -4.328  1.00 20.00     0.062 C 
HETATM    3  C9  UNL     1     -34.852  15.174  -4.507  1.00 20.00     0.145 C 
HETATM    4  N10 UNL     1     -35.881  12.860  -5.232  1.00 20.00    -0.194 NA
ENDROOT
BRANCH   3   5
HETATM    5  C6  UNL     1     -35.142  16.276  -5.549  1.00 20.00     0.057 C 
BRANCH   5   6
HETATM    6  C8  UNL     1     -33.928  17.037  -6.138  1.00 20.00    -0.019 C 
HETATM    7  C3  UNL     1     -33.963  16.937  -7.668  1.00 20.00     0.009 C 
HETATM    8  C4  UNL     1     -33.866  18.508  -5.728  1.00 20.00     0.009 C 
ENDBRANCH   5   6
ENDBRANCH   3   5
BRANCH   3   9
HETATM    9  O11 UNL     1     -35.390  15.570  -3.246  1.00 20.00    -0.366 OA
BRANCH   9  10
HETATM   10  C7  UNL     1     -34.510  16.451  -2.564  1.00 20.00     0.165 C 
HETATM   11  C2  UNL     1     -35.191  16.954  -1.309  1.00 20.00     0.033 C 
ENDBRANCH   9  10
ENDBRANCH   3   9
TORSDOF 4
ENDMDL
MODEL 8
REMARK VINA RESULT:      -3.9     11.034     11.836
REMARK  4 active torsions:
REMARK  status: ('A' for Active; 'I' for Inactive)
REMARK    1  A    between atoms: C6_6  and  C8_8 
REMARK    2  A    between atoms: C6_6  and  C9_9 
REMARK    3  A    between atoms: C7_7  and  O11_11 
REMARK    4  A    between atoms: C9_9  and  O11_11 
ROOT
HETATM    1  C1  UNL     1     -34.167  17.669  -4.984  1.00 20.00     0.097 C 
HETATM    2  C5  UNL     1     -32.946  15.564  -5.332  1.00 20.00     0.062 C 
HETATM    3  C9  UNL     1     -34.016  16.285  -4.501  1.00 20.00     0.145 C 
HETATM    4  N10 UNL     1     -34.283  18.759  -5.364  1.00 20.00    -0.194 NA
ENDROOT
BRANCH   3   5
HETATM    5  C6  UNL     1     -33.621  16.244  -3.008  1.00 20.00     0.057 C 
BRANCH   5   6
HETATM    6  C8  UNL     1     -34.097  17.415  -2.113  1.00 20.00    -0.019 C 
HETATM    7  C3  UNL     1     -35.259  16.939  -1.234  1.00 20.00     0.009 C 
HETATM    8  C4  UNL     1     -32.997  17.997  -1.226  1.00 20.00     0.009 C 
ENDBRANCH   5   6
ENDBRANCH   3   5
BRANCH   3   9
HETATM    9  O11 UNL     1     -35.240  15.573  -4.680  1.00 20.00    -0.366 OA
BRANCH   9  10
HETATM   10  C7  UNL     1     -35.063  14.181  -4.467  1.00 20.00     0.165 C 
HETATM   11  C2  UNL     1     -36.052  13.421  -5.326  1.00 20.00     0.033 C 
ENDBRANCH   9  10
ENDBRANCH   3   9
TORSDOF 4
ENDMDL
MODEL 9
REMARK VINA RESULT:      -3.8     10.321     11.528
REMARK  4 active torsions:
REMARK  status: ('A' for Active; 'I' for Inactive)
REMARK    1  A    between atoms: C6_6  and  C8_8 
REMARK    2  A    between atoms: C6_6  and  C9_9 
REMARK    3  A    between atoms: C7_7  and  O11_11 
REMARK    4  A    between atoms: C9_9  and  O11_11 
ROOT
HETATM    1  C1  UNL     1     -35.287  13.802  -4.929  1.00 20.00     0.097 C 
HETATM    2  C5  UNL     1     -33.003  14.505  -4.356  1.00 20.00     0.062 C 
HETATM    3  C9  UNL     1     -34.459  14.956  -4.537  1.00 20.00     0.145 C 
HETATM    4  N10 UNL     1     -35.939  12.894  -5.240  1.00 20.00    -0.194 NA
ENDROOT
BRANCH   3   5
HETATM    5  C6  UNL     1     -34.520  16.084  -5.590  1.00 20.00     0.057 C 
BRANCH   5   6
HETATM    6  C8  UNL     1     -35.916  16.471  -6.139  1.00 20.00    -0.019 C 
HETATM    7  C3  UNL     1     -36.214  17.931  -5.778  1.00 20.00     0.009 C 
HETATM    8  C4  UNL     1     -36.058  16.284  -7.649  1.00 20.00     0.009 C 
ENDBRANCH   5   6
ENDBRANCH   3   5
BRANCH   3   9
HETATM    9  O11 UNL     1     -34.902  15.466  -3.280  1.00 20.00    -0.366 OA
BRANCH   9  10
HETATM   10  C7  UNL     1     -34.085  16.540  -2.842  1.00 20.00     0.165 C 
HETATM   11  C2  UNL     1     -34.586  17.024  -1.498  1.00 20.00     0.033 C 
ENDBRANCH   9  10
ENDBRANCH   3   9
TORSDOF 4
ENDMDL
