MODEL 1
REMARK VINA RESULT:      -5.4      0.000      0.000
REMARK  5 active torsions:
REMARK  status: ('A' for Active; 'I' for Inactive)
REMARK    1  A    between atoms: C3_3  and  C6_6 
REMARK    2  A    between atoms: C3_3  and  C7_7 
REMARK    3  A    between atoms: C6_6  and  C10_10 
REMARK    4  A    between atoms: C8_8  and  C9_9 
REMARK    5  A    between atoms: C9_9  and  C10_10 
ROOT
HETATM    1  C6  UNL     1     -33.405   7.762   3.088  1.00 20.00     0.015 C 
ENDROOT
BRANCH   1   2
HETATM    2  C3  UNL     1     -33.839   6.340   3.408  1.00 20.00    -0.027 A 
HETATM    3  C1  UNL     1     -34.358   5.485   2.274  1.00 20.00     0.011 A 
HETATM    4  C2  UNL     1     -33.005   5.204   2.862  1.00 20.00     0.011 A 
BRANCH   2   5
HETATM    5  C7  UNL     1     -34.464   6.166   4.765  1.00 20.00     0.124 C 
HETATM    6 CL11 UNL     1     -33.730   7.276   5.947  1.00 20.00    -0.130 Cl
ENDBRANCH   2   5
ENDBRANCH   1   2
BRANCH   1   7
HETATM    7  C10 UNL     1     -31.917   7.886   2.712  1.00 20.00    -0.018 C 
HETATM    8  C5  UNL     1     -31.142   8.525   3.870  1.00 20.00     0.010 C 
BRANCH   7   9
HETATM    9  C9  UNL     1     -31.650   8.622   1.383  1.00 20.00     0.004 C 
BRANCH   9  10
HETATM   10  C8  UNL     1     -32.685   9.688   1.009  1.00 20.00    -0.004 C 
HETATM   11  C4  UNL     1     -33.185   9.493  -0.415  1.00 20.00     0.005 C 
ENDBRANCH   9  10
ENDBRANCH   7   9
ENDBRANCH   1   7
TORSDOF 5
ENDMDL
MODEL 2
REMARK VINA RESULT:      -5.2      1.388      1.903
REMARK  5 active torsions:
REMARK  status: ('A' for Active; 'I' for Inactive)
REMARK    1  A    between atoms: C3_3  and  C6_6 
REMARK    2  A    between atoms: C3_3  and  C7_7 
REMARK    3  A    between atoms: C6_6  and  C10_10 
REMARK    4  A    between atoms: C8_8  and  C9_9 
REMARK    5  A    between atoms: C9_9  and  C10_10 
ROOT
HETATM    1  C6  UNL     1     -33.553   7.472   2.648  1.00 20.00     0.015 C 
ENDROOT
BRANCH   1   2
HETATM    2  C3  UNL     1     -33.900   6.240   3.471  1.00 20.00    -0.027 A 
HETATM    3  C1  UNL     1     -34.273   6.439   4.922  1.00 20.00     0.011 A 
HETATM    4  C2  UNL     1     -35.332   6.071   3.924  1.00 20.00     0.011 A 
BRANCH   2   5
HETATM    5  C7  UNL     1     -33.126   5.004   3.105  1.00 20.00     0.124 C 
HETATM    6 CL11 UNL     1     -33.833   3.562   3.875  1.00 20.00    -0.130 Cl
ENDBRANCH   2   5
ENDBRANCH   1   2
BRANCH   1   7
HETATM    7  C10 UNL     1     -32.039   7.702   2.487  1.00 20.00    -0.018 C 
HETATM    8  C5  UNL     1     -31.471   8.318   3.770  1.00 20.00     0.010 C 
BRANCH   7   9
HETATM    9  C9  UNL     1     -31.644   8.527   1.245  1.00 20.00     0.004 C 
BRANCH   9  10
HETATM   10  C8  UNL     1     -32.569   9.706   0.924  1.00 20.00    -0.004 C 
HETATM   11  C4  UNL     1     -33.205   9.548  -0.450  1.00 20.00     0.005 C 
ENDBRANCH   9  10
ENDBRANCH   7   9
ENDBRANCH   1   7
TORSDOF 5
ENDMDL
MODEL 3
REMARK VINA RESULT:      -5.1      2.247      4.696
REMARK  5 active torsions:
REMARK  status: ('A' for Active; 'I' for Inactive)
REMARK    1  A    between atoms: C3_3  and  C6_6 
REMARK    2  A    between atoms: C3_3  and  C7_7 
REMARK    3  A    between atoms: C6_6  and  C10_10 
REMARK    4  A    between atoms: C8_8  and  C9_9 
REMARK    5  A    between atoms: C9_9  and  C10_10 
ROOT
HETATM    1  C6  UNL     1     -33.440   7.332   2.173  1.00 20.00     0.015 C 
ENDROOT
BRANCH   1   2
HETATM    2  C3  UNL     1     -32.197   8.208   2.182  1.00 20.00    -0.027 A 
HETATM    3  C1  UNL     1     -32.077   9.258   3.263  1.00 20.00     0.011 A 
HETATM    4  C2  UNL     1     -31.212   8.031   3.315  1.00 20.00     0.011 A 
BRANCH   2   5
HETATM    5  C7  UNL     1     -31.651   8.535   0.819  1.00 20.00     0.124 C 
HETATM    6 CL11 UNL     1     -32.886   9.335  -0.183  1.00 20.00    -0.130 Cl
ENDBRANCH   2   5
ENDBRANCH   1   2
BRANCH   1   7
HETATM    7  C10 UNL     1     -33.390   6.176   3.189  1.00 20.00    -0.018 C 
HETATM    8  C5  UNL     1     -33.000   4.877   2.476  1.00 20.00     0.010 C 
BRANCH   7   9
HETATM    9  C9  UNL     1     -34.677   5.997   4.020  1.00 20.00     0.004 C 
BRANCH   9  10
HETATM   10  C8  UNL     1     -34.481   6.018   5.539  1.00 20.00    -0.004 C 
HETATM   11  C4  UNL     1     -33.744   7.274   5.981  1.00 20.00     0.005 C 
ENDBRANCH   9  10
ENDBRANCH   7   9
ENDBRANCH   1   7
TORSDOF 5
ENDMDL
MODEL 4
REMARK VINA RESULT:      -5.0      1.351      4.342
REMARK  5 active torsions:
REMARK  status: ('A' for Active; 'I' for Inactive)
REMARK    1  A    between atoms: C3_3  and  C6_6 
REMARK    2  A    between atoms: C3_3  and  C7_7 
REMARK    3  A    between atoms: C6_6  and  C10_10 
REMARK    4  A    between atoms: C8_8  and  C9_9 
REMARK    5  A    between atoms: C9_9  and  C10_10 
ROOT
HETATM    1  C6  UNL     1     -33.465   7.288   2.055  1.00 20.00     0.015 C 
ENDROOT
BRANCH   1   2
HETATM    2  C3  UNL     1     -32.251   8.203   2.102  1.00 20.00    -0.027 A 
HETATM    3  C1  UNL     1     -31.659   8.665   0.790  1.00 20.00     0.011 A 
HETATM    4  C2  UNL     1     -32.424   9.633   1.645  1.00 20.00     0.011 A 
BRANCH   2   5
HETATM    5  C7  UNL     1     -31.310   7.937   3.244  1.00 20.00     0.124 C 
HETATM    6 CL11 UNL     1     -31.666   9.008   4.622  1.00 20.00    -0.130 Cl
ENDBRANCH   2   5
ENDBRANCH   1   2
BRANCH   1   7
HETATM    7  C10 UNL     1     -33.433   6.163   3.106  1.00 20.00    -0.018 C 
HETATM    8  C5  UNL     1     -32.952   4.861   2.457  1.00 20.00     0.010 C 
BRANCH   7   9
HETATM    9  C9  UNL     1     -34.761   5.956   3.864  1.00 20.00     0.004 C 
BRANCH   9  10
HETATM   10  C8  UNL     1     -34.628   5.800   5.382  1.00 20.00    -0.004 C 
HETATM   11  C4  UNL     1     -33.937   7.007   6.001  1.00 20.00     0.005 C 
ENDBRANCH   9  10
ENDBRANCH   7   9
ENDBRANCH   1   7
TORSDOF 5
ENDMDL
MODEL 5
REMARK VINA RESULT:      -4.5      2.130      4.554
REMARK  5 active torsions:
REMARK  status: ('A' for Active; 'I' for Inactive)
REMARK    1  A    between atoms: C3_3  and  C6_6 
REMARK    2  A    between atoms: C3_3  and  C7_7 
REMARK    3  A    between atoms: C6_6  and  C10_10 
REMARK    4  A    between atoms: C8_8  and  C9_9 
REMARK    5  A    between atoms: C9_9  and  C10_10 
ROOT
HETATM    1  C6  UNL     1     -32.350   7.352   2.747  1.00 20.00     0.015 C 
ENDROOT
BRANCH   1   2
HETATM    2  C3  UNL     1     -32.146   8.598   1.899  1.00 20.00    -0.027 A 
HETATM    3  C1  UNL     1     -31.341   8.467   0.626  1.00 20.00     0.011 A 
HETATM    4  C2  UNL     1     -32.828   8.659   0.552  1.00 20.00     0.011 A 
BRANCH   2   5
HETATM    5  C7  UNL     1     -32.021   9.875   2.684  1.00 20.00     0.124 C 
HETATM    6 CL11 UNL     1     -32.788  11.229   1.818  1.00 20.00    -0.130 Cl
ENDBRANCH   2   5
ENDBRANCH   1   2
BRANCH   1   7
HETATM    7  C10 UNL     1     -33.617   7.397   3.620  1.00 20.00    -0.018 C 
HETATM    8  C5  UNL     1     -33.223   7.491   5.098  1.00 20.00     0.010 C 
BRANCH   7   9
HETATM    9  C9  UNL     1     -34.607   6.240   3.375  1.00 20.00     0.004 C 
BRANCH   9  10
HETATM   10  C8  UNL     1     -34.902   5.364   4.597  1.00 20.00    -0.004 C 
HETATM   11  C4  UNL     1     -34.211   4.013   4.485  1.00 20.00     0.005 C 
ENDBRANCH   9  10
ENDBRANCH   7   9
ENDBRANCH   1   7
TORSDOF 5
ENDMDL
MODEL 6
REMARK VINA RESULT:      -4.2      2.293      4.684
REMARK  5 active torsions:
REMARK  status: ('A' for Active; 'I' for Inactive)
REMARK    1  A    between atoms: C3_3  and  C6_6 
REMARK    2  A    between atoms: C3_3  and  C7_7 
REMARK    3  A    between atoms: C6_6  and  C10_10 
REMARK    4  A    between atoms: C8_8  and  C9_9 
REMARK    5  A    between atoms: C9_9  and  C10_10 
ROOT
HETATM    1  C6  UNL     1     -33.094   6.919   2.837  1.00 20.00     0.015 C 
ENDROOT
BRANCH   1   2
HETATM    2  C3  UNL     1     -32.508   8.228   2.329  1.00 20.00    -0.027 A 
HETATM    3  C1  UNL     1     -31.191   8.688   2.910  1.00 20.00     0.011 A 
HETATM    4  C2  UNL     1     -31.244   8.166   1.503  1.00 20.00     0.011 A 
BRANCH   2   5
HETATM    5  C7  UNL     1     -33.528   9.276   1.978  1.00 20.00     0.124 C 
HETATM    6 CL11 UNL     1     -33.032  10.184   0.530  1.00 20.00    -0.130 Cl
ENDBRANCH   2   5
ENDBRANCH   1   2
BRANCH   1   7
HETATM    7  C10 UNL     1     -34.166   7.102   3.927  1.00 20.00    -0.018 C 
HETATM    8  C5  UNL     1     -33.490   7.363   5.278  1.00 20.00     0.010 C 
BRANCH   7   9
HETATM    9  C9  UNL     1     -35.187   5.950   4.023  1.00 20.00     0.004 C 
BRANCH   9  10
HETATM   10  C8  UNL     1     -34.826   4.839   5.015  1.00 20.00    -0.004 C 
HETATM   11  C4  UNL     1     -33.980   3.762   4.352  1.00 20.00     0.005 C 
ENDBRANCH   9  10
ENDBRANCH   7   9
ENDBRANCH   1   7
TORSDOF 5
ENDMDL
MODEL 7
REMARK VINA RESULT:      -4.0     10.509     11.251
REMARK  5 active torsions:
REMARK  status: ('A' for Active; 'I' for Inactive)
REMARK    1  A    between atoms: C3_3  and  C6_6 
REMARK    2  A    between atoms: C3_3  and  C7_7 
REMARK    3  A    between atoms: C6_6  and  C10_10 
REMARK    4  A    between atoms: C8_8  and  C9_9 
REMARK    5  A    between atoms: C9_9  and  C10_10 
ROOT
HETATM    1  C6  UNL     1     -34.677  16.701  -3.698  1.00 20.00     0.015 C 
ENDROOT
BRANCH   1   2
HETATM    2  C3  UNL     1     -34.380  15.406  -4.439  1.00 20.00    -0.027 A 
HETATM    3  C1  UNL     1     -33.391  15.453  -5.581  1.00 20.00     0.011 A 
HETATM    4  C2  UNL     1     -33.003  14.802  -4.285  1.00 20.00     0.011 A 
BRANCH   2   5
HETATM    5  C7  UNL     1     -35.550  14.469  -4.559  1.00 20.00     0.124 C 
HETATM    6 CL11 UNL     1     -37.071  15.301  -4.151  1.00 20.00    -0.130 Cl
ENDBRANCH   2   5
ENDBRANCH   1   2
BRANCH   1   7
HETATM    7  C10 UNL     1     -34.215  16.694  -2.230  1.00 20.00    -0.018 C 
HETATM    8  C5  UNL     1     -35.424  16.886  -1.307  1.00 20.00     0.010 C 
BRANCH   7   9
HETATM    9  C9  UNL     1     -33.095  17.704  -1.905  1.00 20.00     0.004 C 
BRANCH   9  10
HETATM   10  C8  UNL     1     -33.200  18.376  -0.532  1.00 20.00    -0.004 C 
HETATM   11  C4  UNL     1     -31.823  18.614   0.070  1.00 20.00     0.005 C 
ENDBRANCH   9  10
ENDBRANCH   7   9
ENDBRANCH   1   7
TORSDOF 5
ENDMDL
MODEL 8
REMARK VINA RESULT:      -4.0     10.512     11.355
REMARK  5 active torsions:
REMARK  status: ('A' for Active; 'I' for Inactive)
REMARK    1  A    between atoms: C3_3  and  C6_6 
REMARK    2  A    between atoms: C3_3  and  C7_7 
REMARK    3  A    between atoms: C6_6  and  C10_10 
REMARK    4  A    between atoms: C8_8  and  C9_9 
REMARK    5  A    between atoms: C9_9  and  C10_10 
ROOT
HETATM    1  C6  UNL     1     -35.065  14.137  -4.299  1.00 20.00     0.015 C 
ENDROOT
BRANCH   1   2
HETATM    2  C3  UNL     1     -35.916  14.117  -5.560  1.00 20.00    -0.027 A 
HETATM    3  C1  UNL     1     -37.400  14.367  -5.418  1.00 20.00     0.011 A 
HETATM    4  C2  UNL     1     -36.521  15.420  -6.027  1.00 20.00     0.011 A 
BRANCH   2   5
HETATM    5  C7  UNL     1     -35.463  13.135  -6.605  1.00 20.00     0.124 C 
HETATM    6 CL11 UNL     1     -34.231  13.861  -7.665  1.00 20.00    -0.130 Cl
ENDBRANCH   2   5
ENDBRANCH   1   2
BRANCH   1   7
HETATM    7  C10 UNL     1     -33.959  15.209  -4.315  1.00 20.00    -0.018 C 
HETATM    8  C5  UNL     1     -32.589  14.537  -4.452  1.00 20.00     0.010 C 
BRANCH   7   9
HETATM    9  C9  UNL     1     -33.991  16.181  -3.118  1.00 20.00     0.004 C 
BRANCH   9  10
HETATM   10  C8  UNL     1     -35.381  16.443  -2.528  1.00 20.00    -0.004 C 
HETATM   11  C4  UNL     1     -35.282  17.000  -1.115  1.00 20.00     0.005 C 
ENDBRANCH   9  10
ENDBRANCH   7   9
ENDBRANCH   1   7
TORSDOF 5
ENDMDL
MODEL 9
REMARK VINA RESULT:      -3.9     10.359     11.587
REMARK  5 active torsions:
REMARK  status: ('A' for Active; 'I' for Inactive)
REMARK    1  A    between atoms: C3_3  and  C6_6 
REMARK    2  A    between atoms: C3_3  and  C7_7 
REMARK    3  A    between atoms: C6_6  and  C10_10 
REMARK    4  A    between atoms: C8_8  and  C9_9 
REMARK    5  A    between atoms: C9_9  and  C10_10 
ROOT
HETATM    1  C6  UNL     1     -33.801  16.507  -3.229  1.00 20.00     0.015 C 
ENDROOT
BRANCH   1   2
HETATM    2  C3  UNL     1     -33.633  15.530  -4.383  1.00 20.00    -0.027 A 
HETATM    3  C1  UNL     1     -32.924  14.224  -4.110  1.00 20.00     0.011 A 
HETATM    4  C2  UNL     1     -34.409  14.234  -4.334  1.00 20.00     0.011 A 
BRANCH   2   5
HETATM    5  C7  UNL     1     -33.427  16.177  -5.726  1.00 20.00     0.124 C 
HETATM    6 CL11 UNL     1     -34.889  16.029  -6.731  1.00 20.00    -0.130 Cl
ENDBRANCH   2   5
ENDBRANCH   1   2
BRANCH   1   7
HETATM    7  C10 UNL     1     -35.214  16.506  -2.618  1.00 20.00    -0.018 C 
HETATM    8  C5  UNL     1     -36.158  17.334  -3.496  1.00 20.00     0.010 C 
BRANCH   7   9
HETATM    9  C9  UNL     1     -35.276  16.959  -1.145  1.00 20.00     0.004 C 
BRANCH   9  10
HETATM   10  C8  UNL     1     -34.064  17.759  -0.657  1.00 20.00    -0.004 C 
HETATM   11  C4  UNL     1     -34.315  18.353   0.722  1.00 20.00     0.005 C 
ENDBRANCH   9  10
ENDBRANCH   7   9
ENDBRANCH   1   7
TORSDOF 5
ENDMDL
