MODEL 1
REMARK VINA RESULT:      -4.6      0.000      0.000
REMARK  3 active torsions:
REMARK  status: ('A' for Active; 'I' for Inactive)
REMARK    1  A    between atoms: C5_5  and  C6_6 
REMARK    2  A    between atoms: C5_5  and  C7_7 
REMARK    3  A    between atoms: C6_6  and  O9_9 
ROOT
HETATM    1  C1  UNL     1     -33.130   6.108   3.017  1.00 20.00     0.091 C 
HETATM    2  C6  UNL     1     -33.124   7.508   3.459  1.00 20.00     0.227 C 
HETATM    3  N8  UNL     1     -33.136   5.002   2.666  1.00 20.00    -0.195 NA
ENDROOT
BRANCH   2   4
HETATM    4  C5  UNL     1     -32.050   8.342   2.748  1.00 20.00     0.050 C 
BRANCH   4   5
HETATM    5  C7  UNL     1     -32.423   8.841   1.338  1.00 20.00    -0.019 C 
HETATM    6  C2  UNL     1     -32.773  10.331   1.393  1.00 20.00     0.009 C 
HETATM    7  C3  UNL     1     -31.303   8.613   0.322  1.00 20.00     0.009 C 
ENDBRANCH   4   5
ENDBRANCH   2   4
BRANCH   2   8
HETATM    8  O9  UNL     1     -32.874   7.557   4.866  1.00 20.00    -0.376 OA
HETATM    9  C4  UNL     1     -33.941   6.975   5.597  1.00 20.00     0.203 C 
ENDBRANCH   2   8
TORSDOF 3
ENDMDL
MODEL 2
REMARK VINA RESULT:      -4.5      1.333      1.945
REMARK  3 active torsions:
REMARK  status: ('A' for Active; 'I' for Inactive)
REMARK    1  A    between atoms: C5_5  and  C6_6 
REMARK    2  A    between atoms: C5_5  and  C7_7 
REMARK    3  A    between atoms: C6_6  and  O9_9 
ROOT
HETATM    1  C1  UNL     1     -34.316   4.988   4.029  1.00 20.00     0.091 C 
HETATM    2  C6  UNL     1     -34.233   6.345   3.475  1.00 20.00     0.227 C 
HETATM    3  N8  UNL     1     -34.382   3.915   4.466  1.00 20.00    -0.195 NA
ENDROOT
BRANCH   2   4
HETATM    4  C5  UNL     1     -32.889   6.616   2.786  1.00 20.00     0.050 C 
BRANCH   4   5
HETATM    5  C7  UNL     1     -32.459   8.095   2.727  1.00 20.00    -0.019 C 
HETATM    6  C2  UNL     1     -31.276   8.327   3.673  1.00 20.00     0.009 C 
HETATM    7  C3  UNL     1     -32.082   8.538   1.313  1.00 20.00     0.009 C 
ENDBRANCH   4   5
ENDBRANCH   2   4
BRANCH   2   8
HETATM    8  O9  UNL     1     -34.398   7.296   4.529  1.00 20.00    -0.376 OA
HETATM    9  C4  UNL     1     -33.978   6.760   5.774  1.00 20.00     0.203 C 
ENDBRANCH   2   8
TORSDOF 3
ENDMDL
MODEL 3
REMARK VINA RESULT:      -4.5      1.934      3.836
REMARK  3 active torsions:
REMARK  status: ('A' for Active; 'I' for Inactive)
REMARK    1  A    between atoms: C5_5  and  C6_6 
REMARK    2  A    between atoms: C5_5  and  C7_7 
REMARK    3  A    between atoms: C6_6  and  O9_9 
ROOT
HETATM    1  C1  UNL     1     -32.544   8.203   2.378  1.00 20.00     0.091 C 
HETATM    2  C6  UNL     1     -32.723   7.258   3.487  1.00 20.00     0.227 C 
HETATM    3  N8  UNL     1     -32.402   8.949   1.501  1.00 20.00    -0.195 NA
ENDROOT
BRANCH   2   4
HETATM    4  C5  UNL     1     -34.142   6.675   3.537  1.00 20.00     0.050 C 
BRANCH   4   5
HETATM    5  C7  UNL     1     -34.244   5.156   3.291  1.00 20.00    -0.019 C 
HETATM    6  C2  UNL     1     -32.955   4.652   2.635  1.00 20.00     0.009 C 
HETATM    7  C3  UNL     1     -34.506   4.373   4.578  1.00 20.00     0.009 C 
ENDBRANCH   4   5
ENDBRANCH   2   4
BRANCH   2   8
HETATM    8  O9  UNL     1     -32.468   7.928   4.724  1.00 20.00    -0.376 OA
HETATM    9  C4  UNL     1     -33.405   7.546   5.718  1.00 20.00     0.203 C 
ENDBRANCH   2   8
TORSDOF 3
ENDMDL
MODEL 4
REMARK VINA RESULT:      -4.4      1.689      2.072
REMARK  3 active torsions:
REMARK  status: ('A' for Active; 'I' for Inactive)
REMARK    1  A    between atoms: C5_5  and  C6_6 
REMARK    2  A    between atoms: C5_5  and  C7_7 
REMARK    3  A    between atoms: C6_6  and  O9_9 
ROOT
HETATM    1  C1  UNL     1     -33.146   7.397   4.727  1.00 20.00     0.091 C 
HETATM    2  C6  UNL     1     -32.464   7.300   3.430  1.00 20.00     0.227 C 
HETATM    3  N8  UNL     1     -33.684   7.473   5.753  1.00 20.00    -0.195 NA
ENDROOT
BRANCH   2   4
HETATM    4  C5  UNL     1     -32.054   8.673   2.880  1.00 20.00     0.050 C 
BRANCH   4   5
HETATM    5  C7  UNL     1     -32.424   8.935   1.407  1.00 20.00    -0.019 C 
HETATM    6  C2  UNL     1     -32.828  10.402   1.229  1.00 20.00     0.009 C 
HETATM    7  C3  UNL     1     -31.282   8.596   0.448  1.00 20.00     0.009 C 
ENDBRANCH   4   5
ENDBRANCH   2   4
BRANCH   2   8
HETATM    8  O9  UNL     1     -33.337   6.678   2.484  1.00 20.00    -0.376 OA
HETATM    9  C4  UNL     1     -33.540   5.310   2.796  1.00 20.00     0.203 C 
ENDBRANCH   2   8
TORSDOF 3
ENDMDL
MODEL 5
REMARK VINA RESULT:      -4.2      2.066      2.578
REMARK  3 active torsions:
REMARK  status: ('A' for Active; 'I' for Inactive)
REMARK    1  A    between atoms: C5_5  and  C6_6 
REMARK    2  A    between atoms: C5_5  and  C7_7 
REMARK    3  A    between atoms: C6_6  and  O9_9 
ROOT
HETATM    1  C1  UNL     1     -33.815   6.933   5.184  1.00 20.00     0.091 C 
HETATM    2  C6  UNL     1     -33.542   6.407   3.841  1.00 20.00     0.227 C 
HETATM    3  N8  UNL     1     -34.030   7.348   6.247  1.00 20.00    -0.195 NA
ENDROOT
BRANCH   2   4
HETATM    4  C5  UNL     1     -33.597   7.498   2.763  1.00 20.00     0.050 C 
BRANCH   4   5
HETATM    5  C7  UNL     1     -32.232   7.965   2.222  1.00 20.00    -0.019 C 
HETATM    6  C2  UNL     1     -32.436   9.109   1.223  1.00 20.00     0.009 C 
HETATM    7  C3  UNL     1     -31.286   8.417   3.336  1.00 20.00     0.009 C 
ENDBRANCH   4   5
ENDBRANCH   2   4
BRANCH   2   8
HETATM    8  O9  UNL     1     -34.512   5.407   3.520  1.00 20.00    -0.376 OA
HETATM    9  C4  UNL     1     -34.429   4.307   4.412  1.00 20.00     0.203 C 
ENDBRANCH   2   8
TORSDOF 3
ENDMDL
MODEL 6
REMARK VINA RESULT:      -4.2      1.669      4.138
REMARK  3 active torsions:
REMARK  status: ('A' for Active; 'I' for Inactive)
REMARK    1  A    between atoms: C5_5  and  C6_6 
REMARK    2  A    between atoms: C5_5  and  C7_7 
REMARK    3  A    between atoms: C6_6  and  O9_9 
ROOT
HETATM    1  C1  UNL     1     -32.948   5.057   2.536  1.00 20.00     0.091 C 
HETATM    2  C6  UNL     1     -33.161   6.348   3.201  1.00 20.00     0.227 C 
HETATM    3  N8  UNL     1     -32.779   4.035   2.011  1.00 20.00    -0.195 NA
ENDROOT
BRANCH   2   4
HETATM    4  C5  UNL     1     -34.569   6.476   3.796  1.00 20.00     0.050 C 
BRANCH   4   5
HETATM    5  C7  UNL     1     -34.650   6.398   5.333  1.00 20.00    -0.019 C 
HETATM    6  C2  UNL     1     -34.487   4.944   5.786  1.00 20.00     0.009 C 
HETATM    7  C3  UNL     1     -33.597   7.271   6.018  1.00 20.00     0.009 C 
ENDBRANCH   4   5
ENDBRANCH   2   4
BRANCH   2   8
HETATM    8  O9  UNL     1     -32.974   7.403   2.254  1.00 20.00    -0.376 OA
HETATM    9  C4  UNL     1     -31.932   8.276   2.657  1.00 20.00     0.203 C 
ENDBRANCH   2   8
TORSDOF 3
ENDMDL
MODEL 7
REMARK VINA RESULT:      -4.2      1.249      1.864
REMARK  3 active torsions:
REMARK  status: ('A' for Active; 'I' for Inactive)
REMARK    1  A    between atoms: C5_5  and  C6_6 
REMARK    2  A    between atoms: C5_5  and  C7_7 
REMARK    3  A    between atoms: C6_6  and  O9_9 
ROOT
HETATM    1  C1  UNL     1     -33.535   5.222   3.035  1.00 20.00     0.091 C 
HETATM    2  C6  UNL     1     -34.350   6.248   3.698  1.00 20.00     0.227 C 
HETATM    3  N8  UNL     1     -32.892   4.411   2.511  1.00 20.00    -0.195 NA
ENDROOT
BRANCH   2   4
HETATM    4  C5  UNL     1     -33.734   7.649   3.585  1.00 20.00     0.050 C 
BRANCH   4   5
HETATM    5  C7  UNL     1     -32.418   7.732   2.786  1.00 20.00    -0.019 C 
HETATM    6  C2  UNL     1     -32.616   8.624   1.556  1.00 20.00     0.009 C 
HETATM    7  C3  UNL     1     -31.257   8.265   3.627  1.00 20.00     0.009 C 
ENDBRANCH   4   5
ENDBRANCH   2   4
BRANCH   2   8
HETATM    8  O9  UNL     1     -34.481   5.924   5.084  1.00 20.00    -0.376 OA
HETATM    9  C4  UNL     1     -33.986   6.970   5.904  1.00 20.00     0.203 C 
ENDBRANCH   2   8
TORSDOF 3
ENDMDL
MODEL 8
REMARK VINA RESULT:      -4.1      2.198      4.274
REMARK  3 active torsions:
REMARK  status: ('A' for Active; 'I' for Inactive)
REMARK    1  A    between atoms: C5_5  and  C6_6 
REMARK    2  A    between atoms: C5_5  and  C7_7 
REMARK    3  A    between atoms: C6_6  and  O9_9 
ROOT
HETATM    1  C1  UNL     1     -32.558   7.812   2.398  1.00 20.00     0.091 C 
HETATM    2  C6  UNL     1     -33.367   6.604   2.603  1.00 20.00     0.227 C 
HETATM    3  N8  UNL     1     -31.920   8.767   2.234  1.00 20.00    -0.195 NA
ENDROOT
BRANCH   2   4
HETATM    4  C5  UNL     1     -34.354   6.751   3.768  1.00 20.00     0.050 C 
BRANCH   4   5
HETATM    5  C7  UNL     1     -33.839   6.269   5.139  1.00 20.00    -0.019 C 
HETATM    6  C2  UNL     1     -33.792   7.448   6.116  1.00 20.00     0.009 C 
HETATM    7  C3  UNL     1     -34.698   5.148   5.725  1.00 20.00     0.009 C 
ENDBRANCH   4   5
ENDBRANCH   2   4
BRANCH   2   8
HETATM    8  O9  UNL     1     -32.503   5.500   2.881  1.00 20.00    -0.376 OA
HETATM    9  C4  UNL     1     -33.010   4.298   2.325  1.00 20.00     0.203 C 
ENDBRANCH   2   8
TORSDOF 3
ENDMDL
MODEL 9
REMARK VINA RESULT:      -4.1      2.132      3.871
REMARK  3 active torsions:
REMARK  status: ('A' for Active; 'I' for Inactive)
REMARK    1  A    between atoms: C5_5  and  C6_6 
REMARK    2  A    between atoms: C5_5  and  C7_7 
REMARK    3  A    between atoms: C6_6  and  O9_9 
ROOT
HETATM    1  C1  UNL     1     -32.514   8.735   1.646  1.00 20.00     0.091 C 
HETATM    2  C6  UNL     1     -32.408   7.659   2.639  1.00 20.00     0.227 C 
HETATM    3  N8  UNL     1     -32.598   9.585   0.860  1.00 20.00    -0.195 NA
ENDROOT
BRANCH   2   4
HETATM    4  C5  UNL     1     -33.751   7.351   3.315  1.00 20.00     0.050 C 
BRANCH   4   5
HETATM    5  C7  UNL     1     -34.218   5.885   3.224  1.00 20.00    -0.019 C 
HETATM    6  C2  UNL     1     -33.068   5.007   2.723  1.00 20.00     0.009 C 
HETATM    7  C3  UNL     1     -34.728   5.351   4.563  1.00 20.00     0.009 C 
ENDBRANCH   4   5
ENDBRANCH   2   4
BRANCH   2   8
HETATM    8  O9  UNL     1     -31.472   8.040   3.650  1.00 20.00    -0.376 OA
HETATM    9  C4  UNL     1     -32.134   8.428   4.843  1.00 20.00     0.203 C 
ENDBRANCH   2   8
TORSDOF 3
ENDMDL
