MODEL 1
REMARK VINA RESULT:      -4.3      0.000      0.000
REMARK  2 active torsions:
REMARK  status: ('A' for Active; 'I' for Inactive)
REMARK    1  A    between atoms: C6_6  and  O10_10 
REMARK    2  A    between atoms: C8_8  and  O10_10 
ROOT
HETATM    1  C1  UNL     1     -33.417   7.187   4.916  1.00 20.00     0.098 C 
HETATM    2  C2  UNL     1     -33.834   4.218   4.125  1.00 20.00     0.004 C 
HETATM    3  C3  UNL     1     -35.250   4.761   4.322  1.00 20.00     0.004 C 
HETATM    4  C4  UNL     1     -33.075   5.289   3.343  1.00 20.00     0.053 C 
HETATM    5  C5  UNL     1     -35.277   6.132   3.651  1.00 20.00     0.053 C 
HETATM    6  C6  UNL     1     -33.821   6.590   3.633  1.00 20.00     0.148 C 
HETATM    7  N9  UNL     1     -33.100   7.658   5.928  1.00 20.00    -0.194 NA
ENDROOT
BRANCH   6   8
HETATM    8  O10 UNL     1     -33.622   7.529   2.587  1.00 20.00    -0.366 OA
BRANCH   8   9
HETATM    9  C8  UNL     1     -32.250   7.875   2.447  1.00 20.00     0.165 C 
HETATM   10  C7  UNL     1     -32.113   8.913   1.354  1.00 20.00     0.033 C 
ENDBRANCH   8   9
ENDBRANCH   6   8
TORSDOF 2
ENDMDL
MODEL 2
REMARK VINA RESULT:      -4.3      2.006      3.956
REMARK  2 active torsions:
REMARK  status: ('A' for Active; 'I' for Inactive)
REMARK    1  A    between atoms: C6_6  and  O10_10 
REMARK    2  A    between atoms: C8_8  and  O10_10 
ROOT
HETATM    1  C1  UNL     1     -33.041   5.861   2.882  1.00 20.00     0.098 C 
HETATM    2  C2  UNL     1     -31.194   8.351   2.886  1.00 20.00     0.004 C 
HETATM    3  C3  UNL     1     -32.145   8.586   1.711  1.00 20.00     0.004 C 
HETATM    4  C4  UNL     1     -32.059   7.836   4.034  1.00 20.00     0.053 C 
HETATM    5  C5  UNL     1     -33.536   8.201   2.208  1.00 20.00     0.053 C 
HETATM    6  C6  UNL     1     -33.289   7.230   3.360  1.00 20.00     0.148 C 
HETATM    7  N9  UNL     1     -32.847   4.781   2.503  1.00 20.00    -0.194 NA
ENDROOT
BRANCH   6   8
HETATM    8  O10 UNL     1     -34.400   7.234   4.243  1.00 20.00    -0.366 OA
BRANCH   8   9
HETATM    9  C8  UNL     1     -34.032   6.813   5.551  1.00 20.00     0.165 C 
HETATM   10  C7  UNL     1     -34.622   5.444   5.812  1.00 20.00     0.033 C 
ENDBRANCH   8   9
ENDBRANCH   6   8
TORSDOF 2
ENDMDL
MODEL 3
REMARK VINA RESULT:      -4.1     11.546     12.491
REMARK  2 active torsions:
REMARK  status: ('A' for Active; 'I' for Inactive)
REMARK    1  A    between atoms: C6_6  and  O10_10 
REMARK    2  A    between atoms: C8_8  and  O10_10 
ROOT
HETATM    1  C1  UNL     1     -35.561  13.931  -4.880  1.00 20.00     0.098 C 
HETATM    2  C2  UNL     1     -32.921  15.491  -5.337  1.00 20.00     0.004 C 
HETATM    3  C3  UNL     1     -33.922  16.154  -6.284  1.00 20.00     0.004 C 
HETATM    4  C4  UNL     1     -33.660  15.285  -4.016  1.00 20.00     0.053 C 
HETATM    5  C5  UNL     1     -35.216  16.315  -5.490  1.00 20.00     0.053 C 
HETATM    6  C6  UNL     1     -35.140  15.254  -4.394  1.00 20.00     0.148 C 
HETATM    7  N9  UNL     1     -35.894  12.888  -5.264  1.00 20.00    -0.194 NA
ENDROOT
BRANCH   6   8
HETATM    8  O10 UNL     1     -35.949  15.639  -3.293  1.00 20.00    -0.366 OA
BRANCH   8   9
HETATM    9  C8  UNL     1     -35.630  16.949  -2.841  1.00 20.00     0.165 C 
HETATM   10  C7  UNL     1     -35.375  16.907  -1.349  1.00 20.00     0.033 C 
ENDBRANCH   8   9
ENDBRANCH   6   8
TORSDOF 2
ENDMDL
MODEL 4
REMARK VINA RESULT:      -4.0      1.716      2.340
REMARK  2 active torsions:
REMARK  status: ('A' for Active; 'I' for Inactive)
REMARK    1  A    between atoms: C6_6  and  O10_10 
REMARK    2  A    between atoms: C8_8  and  O10_10 
ROOT
HETATM    1  C1  UNL     1     -33.022   5.294   2.833  1.00 20.00     0.098 C 
HETATM    2  C2  UNL     1     -35.122   5.763   5.066  1.00 20.00     0.004 C 
HETATM    3  C3  UNL     1     -33.815   6.293   5.657  1.00 20.00     0.004 C 
HETATM    4  C4  UNL     1     -35.171   6.268   3.625  1.00 20.00     0.053 C 
HETATM    5  C5  UNL     1     -33.139   7.092   4.545  1.00 20.00     0.053 C 
HETATM    6  C6  UNL     1     -33.713   6.525   3.248  1.00 20.00     0.148 C 
HETATM    7  N9  UNL     1     -32.476   4.324   2.506  1.00 20.00    -0.194 NA
ENDROOT
BRANCH   6   8
HETATM    8  O10 UNL     1     -33.623   7.495   2.216  1.00 20.00    -0.366 OA
BRANCH   8   9
HETATM    9  C8  UNL     1     -32.356   8.141   2.214  1.00 20.00     0.165 C 
HETATM   10  C7  UNL     1     -32.360   9.232   1.164  1.00 20.00     0.033 C 
ENDBRANCH   8   9
ENDBRANCH   6   8
TORSDOF 2
ENDMDL
MODEL 5
REMARK VINA RESULT:      -3.8     11.634     12.691
REMARK  2 active torsions:
REMARK  status: ('A' for Active; 'I' for Inactive)
REMARK    1  A    between atoms: C6_6  and  O10_10 
REMARK    2  A    between atoms: C8_8  and  O10_10 
ROOT
HETATM    1  C1  UNL     1     -34.538  14.836  -4.041  1.00 20.00     0.098 C 
HETATM    2  C2  UNL     1     -35.253  16.719  -1.683  1.00 20.00     0.004 C 
HETATM    3  C3  UNL     1     -33.774  16.996  -1.955  1.00 20.00     0.004 C 
HETATM    4  C4  UNL     1     -35.928  16.648  -3.051  1.00 20.00     0.053 C 
HETATM    5  C5  UNL     1     -33.628  17.077  -3.472  1.00 20.00     0.053 C 
HETATM    6  C6  UNL     1     -34.809  16.282  -4.025  1.00 20.00     0.148 C 
HETATM    7  N9  UNL     1     -34.323  13.696  -4.054  1.00 20.00    -0.194 NA
ENDROOT
BRANCH   6   8
HETATM    8  O10 UNL     1     -35.118  16.725  -5.337  1.00 20.00    -0.366 OA
BRANCH   8   9
HETATM    9  C8  UNL     1     -33.943  17.042  -6.073  1.00 20.00     0.165 C 
HETATM   10  C7  UNL     1     -33.999  16.346  -7.416  1.00 20.00     0.033 C 
ENDBRANCH   8   9
ENDBRANCH   6   8
TORSDOF 2
ENDMDL
MODEL 6
REMARK VINA RESULT:      -3.7     11.532     12.334
REMARK  2 active torsions:
REMARK  status: ('A' for Active; 'I' for Inactive)
REMARK    1  A    between atoms: C6_6  and  O10_10 
REMARK    2  A    between atoms: C8_8  and  O10_10 
ROOT
HETATM    1  C1  UNL     1     -34.015  16.223  -5.411  1.00 20.00     0.098 C 
HETATM    2  C2  UNL     1     -36.675  14.878  -4.556  1.00 20.00     0.004 C 
HETATM    3  C3  UNL     1     -35.739  13.708  -4.861  1.00 20.00     0.004 C 
HETATM    4  C4  UNL     1     -35.847  15.886  -3.761  1.00 20.00     0.053 C 
HETATM    5  C5  UNL     1     -34.393  14.066  -4.236  1.00 20.00     0.053 C 
HETATM    6  C6  UNL     1     -34.397  15.590  -4.139  1.00 20.00     0.148 C 
HETATM    7  N9  UNL     1     -33.712  16.721  -6.414  1.00 20.00    -0.194 NA
ENDROOT
BRANCH   6   8
HETATM    8  O10 UNL     1     -33.512  16.011  -3.111  1.00 20.00    -0.366 OA
BRANCH   8   9
HETATM    9  C8  UNL     1     -34.163  16.862  -2.176  1.00 20.00     0.165 C 
HETATM   10  C7  UNL     1     -33.135  17.771  -1.538  1.00 20.00     0.033 C 
ENDBRANCH   8   9
ENDBRANCH   6   8
TORSDOF 2
ENDMDL
MODEL 7
REMARK VINA RESULT:      -3.7     11.562     12.569
REMARK  2 active torsions:
REMARK  status: ('A' for Active; 'I' for Inactive)
REMARK    1  A    between atoms: C6_6  and  O10_10 
REMARK    2  A    between atoms: C8_8  and  O10_10 
ROOT
HETATM    1  C1  UNL     1     -34.630  18.379  -3.239  1.00 20.00     0.098 C 
HETATM    2  C2  UNL     1     -33.727  18.305  -0.274  1.00 20.00     0.004 C 
HETATM    3  C3  UNL     1     -35.137  17.713  -0.256  1.00 20.00     0.004 C 
HETATM    4  C4  UNL     1     -33.020  17.680  -1.475  1.00 20.00     0.053 C 
HETATM    5  C5  UNL     1     -35.212  16.760  -1.447  1.00 20.00     0.053 C 
HETATM    6  C6  UNL     1     -34.145  17.259  -2.419  1.00 20.00     0.148 C 
HETATM    7  N9  UNL     1     -35.013  19.263  -3.887  1.00 20.00    -0.194 NA
ENDROOT
BRANCH   6   8
HETATM    8  O10 UNL     1     -33.725  16.196  -3.261  1.00 20.00    -0.366 OA
BRANCH   8   9
HETATM    9  C8  UNL     1     -34.828  15.577  -3.912  1.00 20.00     0.165 C 
HETATM   10  C7  UNL     1     -34.488  14.126  -4.183  1.00 20.00     0.033 C 
ENDBRANCH   8   9
ENDBRANCH   6   8
TORSDOF 2
ENDMDL
MODEL 8
REMARK VINA RESULT:      -3.7     11.864     13.065
REMARK  2 active torsions:
REMARK  status: ('A' for Active; 'I' for Inactive)
REMARK    1  A    between atoms: C6_6  and  O10_10 
REMARK    2  A    between atoms: C8_8  and  O10_10 
ROOT
HETATM    1  C1  UNL     1     -35.727  13.926  -5.160  1.00 20.00     0.098 C 
HETATM    2  C2  UNL     1     -33.549  15.616  -3.742  1.00 20.00     0.004 C 
HETATM    3  C3  UNL     1     -33.202  15.720  -5.228  1.00 20.00     0.004 C 
HETATM    4  C4  UNL     1     -35.064  15.787  -3.648  1.00 20.00     0.053 C 
HETATM    5  C5  UNL     1     -34.524  15.948  -5.958  1.00 20.00     0.053 C 
HETATM    6  C6  UNL     1     -35.592  15.384  -5.023  1.00 20.00     0.148 C 
HETATM    7  N9  UNL     1     -35.834  12.775  -5.270  1.00 20.00    -0.194 NA
ENDROOT
BRANCH   6   8
HETATM    8  O10 UNL     1     -36.841  16.006  -5.286  1.00 20.00    -0.366 OA
BRANCH   8   9
HETATM    9  C8  UNL     1     -36.927  16.459  -6.631  1.00 20.00     0.165 C 
HETATM   10  C7  UNL     1     -38.119  15.805  -7.296  1.00 20.00     0.033 C 
ENDBRANCH   8   9
ENDBRANCH   6   8
TORSDOF 2
ENDMDL
MODEL 9
REMARK VINA RESULT:      -3.7     11.432     12.084
REMARK  2 active torsions:
REMARK  status: ('A' for Active; 'I' for Inactive)
REMARK    1  A    between atoms: C6_6  and  O10_10 
REMARK    2  A    between atoms: C8_8  and  O10_10 
ROOT
HETATM    1  C1  UNL     1     -33.254  14.340  -4.428  1.00 20.00     0.098 C 
HETATM    2  C2  UNL     1     -35.099  14.035  -6.901  1.00 20.00     0.004 C 
HETATM    3  C3  UNL     1     -35.907  13.437  -5.750  1.00 20.00     0.004 C 
HETATM    4  C4  UNL     1     -34.478  15.321  -6.360  1.00 20.00     0.053 C 
HETATM    5  C5  UNL     1     -35.734  14.390  -4.569  1.00 20.00     0.053 C 
HETATM    6  C6  UNL     1     -34.425  15.126  -4.846  1.00 20.00     0.148 C 
HETATM    7  N9  UNL     1     -32.331  13.719  -4.098  1.00 20.00    -0.194 NA
ENDROOT
BRANCH   6   8
HETATM    8  O10 UNL     1     -34.424  16.377  -4.176  1.00 20.00    -0.366 OA
BRANCH   8   9
HETATM    9  C8  UNL     1     -34.874  16.253  -2.832  1.00 20.00     0.165 C 
HETATM   10  C7  UNL     1     -33.933  17.014  -1.924  1.00 20.00     0.033 C 
ENDBRANCH   8   9
ENDBRANCH   6   8
TORSDOF 2
ENDMDL
