MODEL 1
REMARK VINA RESULT:      -4.0      0.000      0.000
REMARK  2 active torsions:
REMARK  status: ('A' for Active; 'I' for Inactive)
REMARK    1  A    between atoms: C5_5  and  O9_9 
REMARK    2  A    between atoms: C7_7  and  O9_9 
ROOT
HETATM    1  C1  UNL     1     -35.560  13.977  -4.859  1.00 20.00     0.098 C 
HETATM    2  C2  UNL     1     -33.693  15.393  -4.030  1.00 20.00     0.065 C 
HETATM    3  C3  UNL     1     -32.903  15.425  -5.330  1.00 20.00     0.078 C 
HETATM    4  C4  UNL     1     -35.416  16.385  -5.457  1.00 20.00     0.127 C 
HETATM    5  C5  UNL     1     -35.181  15.319  -4.386  1.00 20.00     0.157 C 
HETATM    6  N8  UNL     1     -35.860  12.919  -5.231  1.00 20.00    -0.194 NA
HETATM    7  S10 UNL     1     -33.894  16.448  -6.453  1.00 20.00    -0.165 SA
ENDROOT
BRANCH   5   8
HETATM    8  O9  UNL     1     -35.959  15.618  -3.231  1.00 20.00    -0.365 OA
BRANCH   8   9
HETATM    9  C7  UNL     1     -35.736  16.947  -2.788  1.00 20.00     0.165 C 
HETATM   10  C6  UNL     1     -35.376  16.923  -1.318  1.00 20.00     0.033 C 
ENDBRANCH   8   9
ENDBRANCH   5   8
TORSDOF 2
ENDMDL
MODEL 2
REMARK VINA RESULT:      -4.0      1.068      1.220
REMARK  2 active torsions:
REMARK  status: ('A' for Active; 'I' for Inactive)
REMARK    1  A    between atoms: C5_5  and  O9_9 
REMARK    2  A    between atoms: C7_7  and  O9_9 
ROOT
HETATM    1  C1  UNL     1     -35.391  13.911  -5.007  1.00 20.00     0.098 C 
HETATM    2  C2  UNL     1     -33.438  15.396  -5.407  1.00 20.00     0.065 C 
HETATM    3  C3  UNL     1     -33.656  15.579  -6.901  1.00 20.00     0.078 C 
HETATM    4  C4  UNL     1     -35.685  16.360  -5.312  1.00 20.00     0.127 C 
HETATM    5  C5  UNL     1     -34.811  15.240  -4.747  1.00 20.00     0.157 C 
HETATM    6  N8  UNL     1     -35.848  12.864  -5.211  1.00 20.00    -0.194 NA
HETATM    7  S10 UNL     1     -35.145  16.606  -7.033  1.00 20.00    -0.165 SA
ENDROOT
BRANCH   5   8
HETATM    8  O9  UNL     1     -34.680  15.397  -3.338  1.00 20.00    -0.365 OA
BRANCH   8   9
HETATM    9  C7  UNL     1     -33.767  16.435  -3.016  1.00 20.00     0.165 C 
HETATM   10  C6  UNL     1     -34.169  17.055  -1.695  1.00 20.00     0.033 C 
ENDBRANCH   8   9
ENDBRANCH   5   8
TORSDOF 2
ENDMDL
MODEL 3
REMARK VINA RESULT:      -3.8      1.531      1.887
REMARK  2 active torsions:
REMARK  status: ('A' for Active; 'I' for Inactive)
REMARK    1  A    between atoms: C5_5  and  O9_9 
REMARK    2  A    between atoms: C7_7  and  O9_9 
ROOT
HETATM    1  C1  UNL     1     -35.747  13.848  -4.988  1.00 20.00     0.098 C 
HETATM    2  C2  UNL     1     -34.349  15.434  -3.682  1.00 20.00     0.065 C 
HETATM    3  C3  UNL     1     -33.138  15.403  -4.602  1.00 20.00     0.078 C 
HETATM    4  C4  UNL     1     -35.450  16.202  -5.728  1.00 20.00     0.127 C 
HETATM    5  C5  UNL     1     -35.600  15.244  -4.545  1.00 20.00     0.157 C 
HETATM    6  N8  UNL     1     -35.864  12.747  -5.337  1.00 20.00    -0.194 NA
HETATM    7  S10 UNL     1     -33.670  16.270  -6.103  1.00 20.00    -0.165 SA
ENDROOT
BRANCH   5   8
HETATM    8  O9  UNL     1     -36.754  15.593  -3.787  1.00 20.00    -0.365 OA
BRANCH   8   9
HETATM    9  C7  UNL     1     -37.707  16.279  -4.584  1.00 20.00     0.165 C 
HETATM   10  C6  UNL     1     -39.035  15.559  -4.495  1.00 20.00     0.033 C 
ENDBRANCH   8   9
ENDBRANCH   5   8
TORSDOF 2
ENDMDL
MODEL 4
REMARK VINA RESULT:      -3.4      1.939      2.281
REMARK  2 active torsions:
REMARK  status: ('A' for Active; 'I' for Inactive)
REMARK    1  A    between atoms: C5_5  and  O9_9 
REMARK    2  A    between atoms: C7_7  and  O9_9 
ROOT
HETATM    1  C1  UNL     1     -33.658  14.231  -4.496  1.00 20.00     0.098 C 
HETATM    2  C2  UNL     1     -34.851  15.733  -6.078  1.00 20.00     0.065 C 
HETATM    3  C3  UNL     1     -34.418  15.028  -7.354  1.00 20.00     0.078 C 
HETATM    4  C4  UNL     1     -35.778  13.524  -5.583  1.00 20.00     0.127 C 
HETATM    5  C5  UNL     1     -34.977  14.676  -4.976  1.00 20.00     0.157 C 
HETATM    6  N8  UNL     1     -32.619  13.880  -4.117  1.00 20.00    -0.194 NA
HETATM    7  S10 UNL     1     -35.310  13.449  -7.340  1.00 20.00    -0.165 SA
ENDROOT
BRANCH   5   8
HETATM    8  O9  UNL     1     -35.687  15.227  -3.872  1.00 20.00    -0.365 OA
BRANCH   8   9
HETATM    9  C7  UNL     1     -35.248  16.545  -3.580  1.00 20.00     0.165 C 
HETATM   10  C6  UNL     1     -35.035  16.674  -2.087  1.00 20.00     0.033 C 
ENDBRANCH   8   9
ENDBRANCH   5   8
TORSDOF 2
ENDMDL
MODEL 5
REMARK VINA RESULT:      -3.4     11.421     11.842
REMARK  2 active torsions:
REMARK  status: ('A' for Active; 'I' for Inactive)
REMARK    1  A    between atoms: C5_5  and  O9_9 
REMARK    2  A    between atoms: C7_7  and  O9_9 
ROOT
HETATM    1  C1  UNL     1     -33.070   5.822   2.893  1.00 20.00     0.098 C 
HETATM    2  C2  UNL     1     -32.209   7.817   4.100  1.00 20.00     0.065 C 
HETATM    3  C3  UNL     1     -31.184   8.230   3.055  1.00 20.00     0.078 C 
HETATM    4  C4  UNL     1     -33.741   8.118   2.217  1.00 20.00     0.127 C 
HETATM    5  C5  UNL     1     -33.394   7.177   3.371  1.00 20.00     0.157 C 
HETATM    6  N8  UNL     1     -32.816   4.755   2.516  1.00 20.00    -0.194 NA
HETATM    7  S10 UNL     1     -32.165   8.834   1.654  1.00 20.00    -0.165 SA
ENDROOT
BRANCH   5   8
HETATM    8  O9  UNL     1     -34.501   7.080   4.261  1.00 20.00    -0.365 OA
BRANCH   8   9
HETATM    9  C7  UNL     1     -34.090   6.660   5.554  1.00 20.00     0.165 C 
HETATM   10  C6  UNL     1     -34.633   5.273   5.818  1.00 20.00     0.033 C 
ENDBRANCH   8   9
ENDBRANCH   5   8
TORSDOF 2
ENDMDL
MODEL 6
REMARK VINA RESULT:      -3.4      3.374      4.635
REMARK  2 active torsions:
REMARK  status: ('A' for Active; 'I' for Inactive)
REMARK    1  A    between atoms: C5_5  and  O9_9 
REMARK    2  A    between atoms: C7_7  and  O9_9 
ROOT
HETATM    1  C1  UNL     1     -32.932  17.902  -1.574  1.00 20.00     0.098 C 
HETATM    2  C2  UNL     1     -35.176  16.842  -1.425  1.00 20.00     0.065 C 
HETATM    3  C3  UNL     1     -35.932  18.085  -0.983  1.00 20.00     0.078 C 
HETATM    4  C4  UNL     1     -34.643  18.269  -3.340  1.00 20.00     0.127 C 
HETATM    5  C5  UNL     1     -34.030  17.288  -2.339  1.00 20.00     0.157 C 
HETATM    6  N8  UNL     1     -32.067  18.386  -0.972  1.00 20.00    -0.194 NA
HETATM    7  S10 UNL     1     -35.946  19.165  -2.439  1.00 20.00    -0.165 SA
ENDROOT
BRANCH   5   8
HETATM    8  O9  UNL     1     -33.510  16.158  -3.031  1.00 20.00    -0.365 OA
BRANCH   8   9
HETATM    9  C7  UNL     1     -34.358  15.770  -4.101  1.00 20.00     0.165 C 
HETATM   10  C6  UNL     1     -34.429  14.260  -4.152  1.00 20.00     0.033 C 
ENDBRANCH   8   9
ENDBRANCH   5   8
TORSDOF 2
ENDMDL
MODEL 7
REMARK VINA RESULT:      -3.4      2.154      2.648
REMARK  2 active torsions:
REMARK  status: ('A' for Active; 'I' for Inactive)
REMARK    1  A    between atoms: C5_5  and  O9_9 
REMARK    2  A    between atoms: C7_7  and  O9_9 
ROOT
HETATM    1  C1  UNL     1     -35.749  16.451  -5.520  1.00 20.00     0.098 C 
HETATM    2  C2  UNL     1     -35.241  14.226  -4.535  1.00 20.00     0.065 C 
HETATM    3  C3  UNL     1     -35.867  13.393  -5.642  1.00 20.00     0.078 C 
HETATM    4  C4  UNL     1     -33.888  15.057  -6.396  1.00 20.00     0.127 C 
HETATM    5  C5  UNL     1     -34.679  15.503  -5.166  1.00 20.00     0.157 C 
HETATM    6  N8  UNL     1     -36.593  17.198  -5.799  1.00 20.00    -0.194 NA
HETATM    7  S10 UNL     1     -34.767  13.611  -7.068  1.00 20.00    -0.165 SA
ENDROOT
BRANCH   5   8
HETATM    8  O9  UNL     1     -33.808  16.145  -4.241  1.00 20.00    -0.365 OA
BRANCH   8   9
HETATM    9  C7  UNL     1     -34.396  16.234  -2.953  1.00 20.00     0.165 C 
HETATM   10  C6  UNL     1     -33.539  17.125  -2.080  1.00 20.00     0.033 C 
ENDBRANCH   8   9
ENDBRANCH   5   8
TORSDOF 2
ENDMDL
MODEL 8
REMARK VINA RESULT:      -3.4      2.235      3.606
REMARK  2 active torsions:
REMARK  status: ('A' for Active; 'I' for Inactive)
REMARK    1  A    between atoms: C5_5  and  O9_9 
REMARK    2  A    between atoms: C7_7  and  O9_9 
ROOT
HETATM    1  C1  UNL     1     -33.281  14.488  -4.468  1.00 20.00     0.098 C 
HETATM    2  C2  UNL     1     -35.386  15.665  -3.866  1.00 20.00     0.065 C 
HETATM    3  C3  UNL     1     -34.866  16.323  -2.597  1.00 20.00     0.078 C 
HETATM    4  C4  UNL     1     -33.544  16.928  -4.864  1.00 20.00     0.127 C 
HETATM    5  C5  UNL     1     -34.220  15.556  -4.852  1.00 20.00     0.157 C 
HETATM    6  N8  UNL     1     -32.542  13.646  -4.166  1.00 20.00    -0.194 NA
HETATM    7  S10 UNL     1     -33.695  17.583  -3.172  1.00 20.00    -0.165 SA
ENDROOT
BRANCH   5   8
HETATM    8  O9  UNL     1     -34.724  15.257  -6.150  1.00 20.00    -0.365 OA
BRANCH   8   9
HETATM    9  C7  UNL     1     -35.539  14.095  -6.133  1.00 20.00     0.165 C 
HETATM   10  C6  UNL     1     -35.172  13.218  -7.311  1.00 20.00     0.033 C 
ENDBRANCH   8   9
ENDBRANCH   5   8
TORSDOF 2
ENDMDL
MODEL 9
REMARK VINA RESULT:      -3.3      2.298      3.772
REMARK  2 active torsions:
REMARK  status: ('A' for Active; 'I' for Inactive)
REMARK    1  A    between atoms: C5_5  and  O9_9 
REMARK    2  A    between atoms: C7_7  and  O9_9 
ROOT
HETATM    1  C1  UNL     1     -37.048  14.840  -4.871  1.00 20.00     0.098 C 
HETATM    2  C2  UNL     1     -36.279  17.204  -4.831  1.00 20.00     0.065 C 
HETATM    3  C3  UNL     1     -36.622  17.478  -3.375  1.00 20.00     0.078 C 
HETATM    4  C4  UNL     1     -34.887  15.467  -3.815  1.00 20.00     0.127 C 
HETATM    5  C5  UNL     1     -35.878  15.730  -4.950  1.00 20.00     0.157 C 
HETATM    6  N8  UNL     1     -37.970  14.138  -4.810  1.00 20.00    -0.194 NA
HETATM    7  S10 UNL     1     -35.422  16.509  -2.422  1.00 20.00    -0.165 SA
ENDROOT
BRANCH   5   8
HETATM    8  O9  UNL     1     -35.240  15.514  -6.205  1.00 20.00    -0.365 OA
BRANCH   8   9
HETATM    9  C7  UNL     1     -34.292  14.460  -6.128  1.00 20.00     0.165 C 
HETATM   10  C6  UNL     1     -34.411  13.598  -7.366  1.00 20.00     0.033 C 
ENDBRANCH   8   9
ENDBRANCH   5   8
TORSDOF 2
ENDMDL
