MODEL 1
REMARK VINA RESULT:      -4.1      0.000      0.000
REMARK  1 active torsions:
REMARK  status: ('A' for Active; 'I' for Inactive)
REMARK    1  A    between atoms: C6_6  and  O9_9 
ROOT
HETATM    1  C1  UNL     1     -36.765  14.053  -5.186  1.00 20.00     0.098 C 
HETATM    2  C2  UNL     1     -34.876  16.474  -4.751  1.00 20.00     0.004 C 
HETATM    3  C3  UNL     1     -34.601  15.558  -3.557  1.00 20.00     0.004 C 
HETATM    4  C4  UNL     1     -34.949  15.562  -5.975  1.00 20.00     0.053 C 
HETATM    5  C5  UNL     1     -34.523  14.140  -4.117  1.00 20.00     0.053 C 
HETATM    6  C6  UNL     1     -35.319  14.188  -5.421  1.00 20.00     0.148 C 
HETATM    7  N8  UNL     1     -37.905  13.946  -4.999  1.00 20.00    -0.194 NA
ENDROOT
BRANCH   6   8
HETATM    8  O9  UNL     1     -34.879  13.158  -6.292  1.00 20.00    -0.370 OA
HETATM    9  C7  UNL     1     -34.416  13.682  -7.531  1.00 20.00     0.204 C 
ENDBRANCH   6   8
TORSDOF 1
ENDMDL
MODEL 2
REMARK VINA RESULT:      -3.9      1.959      3.061
REMARK  1 active torsions:
REMARK  status: ('A' for Active; 'I' for Inactive)
REMARK    1  A    between atoms: C6_6  and  O9_9 
ROOT
HETATM    1  C1  UNL     1     -35.631  13.895  -4.951  1.00 20.00     0.098 C 
HETATM    2  C2  UNL     1     -32.949  15.450  -5.043  1.00 20.00     0.004 C 
HETATM    3  C3  UNL     1     -33.743  15.992  -6.232  1.00 20.00     0.004 C 
HETATM    4  C4  UNL     1     -33.934  15.367  -3.878  1.00 20.00     0.053 C 
HETATM    5  C5  UNL     1     -35.168  16.209  -5.728  1.00 20.00     0.053 C 
HETATM    6  C6  UNL     1     -35.310  15.269  -4.533  1.00 20.00     0.148 C 
HETATM    7  N8  UNL     1     -35.883  12.812  -5.281  1.00 20.00    -0.194 NA
ENDROOT
BRANCH   6   8
HETATM    8  O9  UNL     1     -36.319  15.749  -3.658  1.00 20.00    -0.370 OA
HETATM    9  C7  UNL     1     -35.785  16.617  -2.667  1.00 20.00     0.204 C 
ENDBRANCH   6   8
TORSDOF 1
ENDMDL
MODEL 3
REMARK VINA RESULT:      -3.8     11.662     12.784
REMARK  1 active torsions:
REMARK  status: ('A' for Active; 'I' for Inactive)
REMARK    1  A    between atoms: C6_6  and  O9_9 
ROOT
HETATM    1  C1  UNL     1     -33.446   7.173   4.968  1.00 20.00     0.098 C 
HETATM    2  C2  UNL     1     -33.831   4.212   4.133  1.00 20.00     0.004 C 
HETATM    3  C3  UNL     1     -35.253   4.736   4.340  1.00 20.00     0.004 C 
HETATM    4  C4  UNL     1     -33.086   5.303   3.366  1.00 20.00     0.053 C 
HETATM    5  C5  UNL     1     -35.296   6.117   3.690  1.00 20.00     0.053 C 
HETATM    6  C6  UNL     1     -33.844   6.591   3.677  1.00 20.00     0.148 C 
HETATM    7  N8  UNL     1     -33.132   7.632   5.987  1.00 20.00    -0.194 NA
ENDROOT
BRANCH   6   8
HETATM    8  O9  UNL     1     -33.658   7.547   2.645  1.00 20.00    -0.370 OA
HETATM    9  C7  UNL     1     -32.286   7.891   2.490  1.00 20.00     0.204 C 
ENDBRANCH   6   8
TORSDOF 1
ENDMDL
MODEL 4
REMARK VINA RESULT:      -3.7     10.753     11.907
REMARK  1 active torsions:
REMARK  status: ('A' for Active; 'I' for Inactive)
REMARK    1  A    between atoms: C6_6  and  O9_9 
ROOT
HETATM    1  C1  UNL     1     -33.070   5.899   2.998  1.00 20.00     0.098 C 
HETATM    2  C2  UNL     1     -31.221   8.381   2.805  1.00 20.00     0.004 C 
HETATM    3  C3  UNL     1     -32.260   8.595   1.704  1.00 20.00     0.004 C 
HETATM    4  C4  UNL     1     -31.995   7.894   4.028  1.00 20.00     0.053 C 
HETATM    5  C5  UNL     1     -33.610   8.226   2.316  1.00 20.00     0.053 C 
HETATM    6  C6  UNL     1     -33.274   7.279   3.466  1.00 20.00     0.148 C 
HETATM    7  N8  UNL     1     -32.909   4.812   2.629  1.00 20.00    -0.194 NA
ENDROOT
BRANCH   6   8
HETATM    8  O9  UNL     1     -34.313   7.306   4.432  1.00 20.00    -0.370 OA
HETATM    9  C7  UNL     1     -33.808   7.139   5.751  1.00 20.00     0.204 C 
ENDBRANCH   6   8
TORSDOF 1
ENDMDL
MODEL 5
REMARK VINA RESULT:      -3.7      1.153      2.517
REMARK  1 active torsions:
REMARK  status: ('A' for Active; 'I' for Inactive)
REMARK    1  A    between atoms: C6_6  and  O9_9 
ROOT
HETATM    1  C1  UNL     1     -36.764  14.032  -5.173  1.00 20.00     0.098 C 
HETATM    2  C2  UNL     1     -35.334  14.267  -7.914  1.00 20.00     0.004 C 
HETATM    3  C3  UNL     1     -35.290  15.684  -7.341  1.00 20.00     0.004 C 
HETATM    4  C4  UNL     1     -34.978  13.333  -6.759  1.00 20.00     0.053 C 
HETATM    5  C5  UNL     1     -34.912  15.536  -5.869  1.00 20.00     0.053 C 
HETATM    6  C6  UNL     1     -35.331  14.115  -5.497  1.00 20.00     0.148 C 
HETATM    7  N8  UNL     1     -37.893  13.968  -4.918  1.00 20.00    -0.194 NA
ENDROOT
BRANCH   6   8
HETATM    8  O9  UNL     1     -34.565  13.660  -4.392  1.00 20.00    -0.370 OA
HETATM    9  C7  UNL     1     -33.358  14.399  -4.251  1.00 20.00     0.204 C 
ENDBRANCH   6   8
TORSDOF 1
ENDMDL
MODEL 6
REMARK VINA RESULT:      -3.7      2.417      3.118
REMARK  1 active torsions:
REMARK  status: ('A' for Active; 'I' for Inactive)
REMARK    1  A    between atoms: C6_6  and  O9_9 
ROOT
HETATM    1  C1  UNL     1     -34.554  14.839  -4.058  1.00 20.00     0.098 C 
HETATM    2  C2  UNL     1     -35.234  16.721  -1.688  1.00 20.00     0.004 C 
HETATM    3  C3  UNL     1     -33.759  16.997  -1.981  1.00 20.00     0.004 C 
HETATM    4  C4  UNL     1     -35.930  16.651  -3.047  1.00 20.00     0.053 C 
HETATM    5  C5  UNL     1     -33.636  17.080  -3.501  1.00 20.00     0.053 C 
HETATM    6  C6  UNL     1     -34.826  16.285  -4.036  1.00 20.00     0.148 C 
HETATM    7  N8  UNL     1     -34.339  13.700  -4.074  1.00 20.00    -0.194 NA
ENDROOT
BRANCH   6   8
HETATM    8  O9  UNL     1     -35.154  16.729  -5.343  1.00 20.00    -0.370 OA
HETATM    9  C7  UNL     1     -34.011  16.758  -6.189  1.00 20.00     0.204 C 
ENDBRANCH   6   8
TORSDOF 1
ENDMDL
MODEL 7
REMARK VINA RESULT:      -3.7      1.453      1.652
REMARK  1 active torsions:
REMARK  status: ('A' for Active; 'I' for Inactive)
REMARK    1  A    between atoms: C6_6  and  O9_9 
ROOT
HETATM    1  C1  UNL     1     -35.426  13.862  -5.464  1.00 20.00     0.098 C 
HETATM    2  C2  UNL     1     -34.974  16.230  -3.514  1.00 20.00     0.004 C 
HETATM    3  C3  UNL     1     -33.585  15.616  -3.693  1.00 20.00     0.004 C 
HETATM    4  C4  UNL     1     -35.597  16.282  -4.908  1.00 20.00     0.053 C 
HETATM    5  C5  UNL     1     -33.439  15.327  -5.186  1.00 20.00     0.053 C 
HETATM    6  C6  UNL     1     -34.870  15.202  -5.705  1.00 20.00     0.148 C 
HETATM    7  N8  UNL     1     -35.864  12.805  -5.274  1.00 20.00    -0.194 NA
ENDROOT
BRANCH   6   8
HETATM    8  O9  UNL     1     -34.906  15.491  -7.094  1.00 20.00    -0.370 OA
HETATM    9  C7  UNL     1     -33.991  14.682  -7.822  1.00 20.00     0.204 C 
ENDBRANCH   6   8
TORSDOF 1
ENDMDL
MODEL 8
REMARK VINA RESULT:      -3.6      2.053      2.483
REMARK  1 active torsions:
REMARK  status: ('A' for Active; 'I' for Inactive)
REMARK    1  A    between atoms: C6_6  and  O9_9 
ROOT
HETATM    1  C1  UNL     1     -34.041  15.724  -6.564  1.00 20.00     0.098 C 
HETATM    2  C2  UNL     1     -33.671  15.756  -3.485  1.00 20.00     0.004 C 
HETATM    3  C3  UNL     1     -35.187  15.758  -3.686  1.00 20.00     0.004 C 
HETATM    4  C4  UNL     1     -33.115  14.734  -4.476  1.00 20.00     0.053 C 
HETATM    5  C5  UNL     1     -35.472  14.740  -4.787  1.00 20.00     0.053 C 
HETATM    6  C6  UNL     1     -34.168  14.640  -5.577  1.00 20.00     0.148 C 
HETATM    7  N8  UNL     1     -33.940  16.578  -7.342  1.00 20.00    -0.194 NA
ENDROOT
BRANCH   6   8
HETATM    8  O9  UNL     1     -34.098  13.385  -6.235  1.00 20.00    -0.370 OA
HETATM    9  C7  UNL     1     -35.209  13.182  -7.099  1.00 20.00     0.204 C 
ENDBRANCH   6   8
TORSDOF 1
ENDMDL
MODEL 9
REMARK VINA RESULT:      -3.5      1.207      1.270
REMARK  1 active torsions:
REMARK  status: ('A' for Active; 'I' for Inactive)
REMARK    1  A    between atoms: C6_6  and  O9_9 
ROOT
HETATM    1  C1  UNL     1     -35.868  15.247  -5.904  1.00 20.00     0.098 C 
HETATM    2  C2  UNL     1     -33.408  16.611  -4.599  1.00 20.00     0.004 C 
HETATM    3  C3  UNL     1     -34.013  15.766  -3.477  1.00 20.00     0.004 C 
HETATM    4  C4  UNL     1     -33.427  15.732  -5.848  1.00 20.00     0.053 C 
HETATM    5  C5  UNL     1     -34.368  14.420  -4.104  1.00 20.00     0.053 C 
HETATM    6  C6  UNL     1     -34.533  14.711  -5.594  1.00 20.00     0.148 C 
HETATM    7  N8  UNL     1     -36.920  15.669  -6.147  1.00 20.00    -0.194 NA
ENDROOT
BRANCH   6   8
HETATM    8  O9  UNL     1     -34.308  13.528  -6.344  1.00 20.00    -0.370 OA
HETATM    9  C7  UNL     1     -34.287  13.789  -7.742  1.00 20.00     0.204 C 
ENDBRANCH   6   8
TORSDOF 1
ENDMDL
