MODEL 1
REMARK VINA RESULT:      -6.0      0.000      0.000
REMARK  4 active torsions:
REMARK  status: ('A' for Active; 'I' for Inactive)
REMARK    1  A    between atoms: C2_2  and  C9_9 
REMARK    2  A    between atoms: C2_2  and  C10_10 
REMARK    3  A    between atoms: C3_3  and  C5_5 
REMARK    4  A    between atoms: C3_3  and  C9_9 
ROOT
HETATM    1  C3  UNL     1     -32.232   8.182   2.785  1.00 20.00     0.135 C 
HETATM    2  O11 UNL     1     -31.343   8.065   3.618  1.00 20.00    -0.297 OA
ENDROOT
BRANCH   1   3
HETATM    3  C5  UNL     1     -31.958   8.889   1.500  1.00 20.00     0.060 A 
HETATM    4  C4  UNL     1     -32.309  10.338   1.396  1.00 20.00     0.017 A 
HETATM    5  C6  UNL     1     -33.131   9.314   0.659  1.00 20.00    -0.007 A 
HETATM    6  C7  UNL     1     -33.044   9.208  -0.825  1.00 20.00     0.011 C 
ENDBRANCH   1   3
BRANCH   1   7
HETATM    7  C9  UNL     1     -33.657   7.687   2.961  1.00 20.00     0.111 C 
BRANCH   7   8
HETATM    8  C2  UNL     1     -33.686   6.264   3.456  1.00 20.00    -0.083 C 
HETATM    9  C1  UNL     1     -33.165   5.265   2.726  1.00 20.00     0.014 C 
BRANCH   8  10
HETATM   10  C10 UNL     1     -34.326   5.998   4.799  1.00 20.00     0.029 C 
HETATM   11  C8  UNL     1     -33.923   7.018   5.854  1.00 20.00     0.010 C 
ENDBRANCH   8  10
ENDBRANCH   7   8
ENDBRANCH   1   7
TORSDOF 4
ENDMDL
MODEL 2
REMARK VINA RESULT:      -5.9      1.495      2.179
REMARK  4 active torsions:
REMARK  status: ('A' for Active; 'I' for Inactive)
REMARK    1  A    between atoms: C2_2  and  C9_9 
REMARK    2  A    between atoms: C2_2  and  C10_10 
REMARK    3  A    between atoms: C3_3  and  C5_5 
REMARK    4  A    between atoms: C3_3  and  C9_9 
ROOT
HETATM    1  C3  UNL     1     -33.026   6.016   2.708  1.00 20.00     0.135 C 
HETATM    2  O11 UNL     1     -32.742   4.851   2.457  1.00 20.00    -0.297 OA
ENDROOT
BRANCH   1   3
HETATM    3  C5  UNL     1     -32.105   7.113   2.288  1.00 20.00     0.060 A 
HETATM    4  C4  UNL     1     -31.755   8.167   3.286  1.00 20.00     0.017 A 
HETATM    5  C6  UNL     1     -32.672   8.497   2.139  1.00 20.00    -0.007 A 
HETATM    6  C7  UNL     1     -32.199   9.366   1.025  1.00 20.00     0.011 C 
ENDBRANCH   1   3
BRANCH   1   7
HETATM    7  C9  UNL     1     -34.262   6.462   3.470  1.00 20.00     0.111 C 
BRANCH   7   8
HETATM    8  C2  UNL     1     -34.478   5.623   4.703  1.00 20.00    -0.083 C 
HETATM    9  C1  UNL     1     -34.680   4.299   4.614  1.00 20.00     0.014 C 
BRANCH   8  10
HETATM   10  C10 UNL     1     -34.466   6.323   6.042  1.00 20.00     0.029 C 
HETATM   11  C8  UNL     1     -33.565   7.550   6.055  1.00 20.00     0.010 C 
ENDBRANCH   8  10
ENDBRANCH   7   8
ENDBRANCH   1   7
TORSDOF 4
ENDMDL
MODEL 3
REMARK VINA RESULT:      -5.9      1.023      1.945
REMARK  4 active torsions:
REMARK  status: ('A' for Active; 'I' for Inactive)
REMARK    1  A    between atoms: C2_2  and  C9_9 
REMARK    2  A    between atoms: C2_2  and  C10_10 
REMARK    3  A    between atoms: C3_3  and  C5_5 
REMARK    4  A    between atoms: C3_3  and  C9_9 
ROOT
HETATM    1  C3  UNL     1     -32.746   7.609   3.242  1.00 20.00     0.135 C 
HETATM    2  O11 UNL     1     -31.858   7.897   4.035  1.00 20.00    -0.297 OA
ENDROOT
BRANCH   1   3
HETATM    3  C5  UNL     1     -32.612   7.988   1.805  1.00 20.00     0.060 A 
HETATM    4  C4  UNL     1     -31.296   8.506   1.327  1.00 20.00     0.017 A 
HETATM    5  C6  UNL     1     -32.464   9.446   1.467  1.00 20.00    -0.007 A 
HETATM    6  C7  UNL     1     -33.140   9.989   0.256  1.00 20.00     0.011 C 
ENDBRANCH   1   3
BRANCH   1   7
HETATM    7  C9  UNL     1     -34.041   6.905   3.609  1.00 20.00     0.111 C 
BRANCH   7   8
HETATM    8  C2  UNL     1     -34.088   6.574   5.078  1.00 20.00    -0.083 C 
HETATM    9  C1  UNL     1     -33.738   7.480   6.005  1.00 20.00     0.014 C 
BRANCH   8  10
HETATM   10  C10 UNL     1     -34.538   5.187   5.473  1.00 20.00     0.029 C 
HETATM   11  C8  UNL     1     -34.295   4.157   4.379  1.00 20.00     0.010 C 
ENDBRANCH   8  10
ENDBRANCH   7   8
ENDBRANCH   1   7
TORSDOF 4
ENDMDL
MODEL 4
REMARK VINA RESULT:      -5.4      1.449      4.750
REMARK  4 active torsions:
REMARK  status: ('A' for Active; 'I' for Inactive)
REMARK    1  A    between atoms: C2_2  and  C9_9 
REMARK    2  A    between atoms: C2_2  and  C10_10 
REMARK    3  A    between atoms: C3_3  and  C5_5 
REMARK    4  A    between atoms: C3_3  and  C9_9 
ROOT
HETATM    1  C3  UNL     1     -33.226   5.874   2.798  1.00 20.00     0.135 C 
HETATM    2  O11 UNL     1     -32.792   4.923   2.160  1.00 20.00    -0.297 OA
ENDROOT
BRANCH   1   3
HETATM    3  C5  UNL     1     -33.581   5.704   4.237  1.00 20.00     0.060 A 
HETATM    4  C4  UNL     1     -35.018   5.524   4.599  1.00 20.00     0.017 A 
HETATM    5  C6  UNL     1     -34.321   6.820   4.922  1.00 20.00    -0.007 A 
HETATM    6  C7  UNL     1     -33.989   7.162   6.333  1.00 20.00     0.011 C 
ENDBRANCH   1   3
BRANCH   1   7
HETATM    7  C9  UNL     1     -33.483   7.257   2.225  1.00 20.00     0.111 C 
BRANCH   7   8
HETATM    8  C2  UNL     1     -32.232   8.096   2.236  1.00 20.00    -0.083 C 
HETATM    9  C1  UNL     1     -31.450   8.163   3.326  1.00 20.00     0.014 C 
BRANCH   8  10
HETATM   10  C10 UNL     1     -31.887   8.864   0.981  1.00 20.00     0.029 C 
HETATM   11  C8  UNL     1     -32.622  10.193   0.884  1.00 20.00     0.010 C 
ENDBRANCH   8  10
ENDBRANCH   7   8
ENDBRANCH   1   7
TORSDOF 4
ENDMDL
MODEL 5
REMARK VINA RESULT:      -5.3      1.302      4.909
REMARK  4 active torsions:
REMARK  status: ('A' for Active; 'I' for Inactive)
REMARK    1  A    between atoms: C2_2  and  C9_9 
REMARK    2  A    between atoms: C2_2  and  C10_10 
REMARK    3  A    between atoms: C3_3  and  C5_5 
REMARK    4  A    between atoms: C3_3  and  C9_9 
ROOT
HETATM    1  C3  UNL     1     -33.445   6.448   2.917  1.00 20.00     0.135 C 
HETATM    2  O11 UNL     1     -32.785   5.463   2.614  1.00 20.00    -0.297 OA
ENDROOT
BRANCH   1   3
HETATM    3  C5  UNL     1     -34.338   6.406   4.112  1.00 20.00     0.060 A 
HETATM    4  C4  UNL     1     -33.922   7.151   5.338  1.00 20.00     0.017 A 
HETATM    5  C6  UNL     1     -33.869   5.646   5.322  1.00 20.00    -0.007 A 
HETATM    6  C7  UNL     1     -34.850   4.852   6.114  1.00 20.00     0.011 C 
ENDBRANCH   1   3
BRANCH   1   7
HETATM    7  C9  UNL     1     -33.469   7.750   2.136  1.00 20.00     0.111 C 
BRANCH   7   8
HETATM    8  C2  UNL     1     -32.106   8.391   2.095  1.00 20.00    -0.083 C 
HETATM    9  C1  UNL     1     -31.312   8.402   3.178  1.00 20.00     0.014 C 
BRANCH   8  10
HETATM   10  C10 UNL     1     -31.664   9.025   0.797  1.00 20.00     0.029 C 
HETATM   11  C8  UNL     1     -32.835   9.453  -0.076  1.00 20.00     0.010 C 
ENDBRANCH   8  10
ENDBRANCH   7   8
ENDBRANCH   1   7
TORSDOF 4
ENDMDL
MODEL 6
REMARK VINA RESULT:      -5.2      1.252      4.625
REMARK  4 active torsions:
REMARK  status: ('A' for Active; 'I' for Inactive)
REMARK    1  A    between atoms: C2_2  and  C9_9 
REMARK    2  A    between atoms: C2_2  and  C10_10 
REMARK    3  A    between atoms: C3_3  and  C5_5 
REMARK    4  A    between atoms: C3_3  and  C9_9 
ROOT
HETATM    1  C3  UNL     1     -32.666   7.697   3.578  1.00 20.00     0.135 C 
HETATM    2  O11 UNL     1     -31.699   8.207   4.129  1.00 20.00    -0.297 OA
ENDROOT
BRANCH   1   3
HETATM    3  C5  UNL     1     -33.831   7.241   4.392  1.00 20.00     0.060 A 
HETATM    4  C4  UNL     1     -33.748   7.355   5.879  1.00 20.00     0.017 A 
HETATM    5  C6  UNL     1     -33.671   6.000   5.227  1.00 20.00    -0.007 A 
HETATM    6  C7  UNL     1     -34.808   5.045   5.345  1.00 20.00     0.011 C 
ENDBRANCH   1   3
BRANCH   1   7
HETATM    7  C9  UNL     1     -32.779   7.441   2.085  1.00 20.00     0.111 C 
BRANCH   7   8
HETATM    8  C2  UNL     1     -32.333   8.639   1.288  1.00 20.00    -0.083 C 
HETATM    9  C1  UNL     1     -31.166   8.635   0.624  1.00 20.00     0.014 C 
BRANCH   8  10
HETATM   10  C10 UNL     1     -33.240   9.847   1.265  1.00 20.00     0.029 C 
HETATM   11  C8  UNL     1     -32.547  11.112   1.751  1.00 20.00     0.010 C 
ENDBRANCH   8  10
ENDBRANCH   7   8
ENDBRANCH   1   7
TORSDOF 4
ENDMDL
MODEL 7
REMARK VINA RESULT:      -4.9      1.094      4.699
REMARK  4 active torsions:
REMARK  status: ('A' for Active; 'I' for Inactive)
REMARK    1  A    between atoms: C2_2  and  C9_9 
REMARK    2  A    between atoms: C2_2  and  C10_10 
REMARK    3  A    between atoms: C3_3  and  C5_5 
REMARK    4  A    between atoms: C3_3  and  C9_9 
ROOT
HETATM    1  C3  UNL     1     -32.497   7.506   3.530  1.00 20.00     0.135 C 
HETATM    2  O11 UNL     1     -32.623   7.999   4.644  1.00 20.00    -0.297 OA
ENDROOT
BRANCH   1   3
HETATM    3  C5  UNL     1     -33.222   6.247   3.189  1.00 20.00     0.060 A 
HETATM    4  C4  UNL     1     -34.678   6.330   2.868  1.00 20.00     0.017 A 
HETATM    5  C6  UNL     1     -34.232   5.721   4.171  1.00 20.00    -0.007 A 
HETATM    6  C7  UNL     1     -34.344   4.252   4.391  1.00 20.00     0.011 C 
ENDBRANCH   1   3
BRANCH   1   7
HETATM    7  C9  UNL     1     -31.605   8.059   2.433  1.00 20.00     0.111 C 
BRANCH   7   8
HETATM    8  C2  UNL     1     -32.351   9.031   1.557  1.00 20.00    -0.083 C 
HETATM    9  C1  UNL     1     -32.552  10.301   1.945  1.00 20.00     0.014 C 
BRANCH   8  10
HETATM   10  C10 UNL     1     -32.871   8.529   0.230  1.00 20.00     0.029 C 
HETATM   11  C8  UNL     1     -33.257   9.659  -0.715  1.00 20.00     0.010 C 
ENDBRANCH   8  10
ENDBRANCH   7   8
ENDBRANCH   1   7
TORSDOF 4
ENDMDL
MODEL 8
REMARK VINA RESULT:      -4.6      1.367      4.981
REMARK  4 active torsions:
REMARK  status: ('A' for Active; 'I' for Inactive)
REMARK    1  A    between atoms: C2_2  and  C9_9 
REMARK    2  A    between atoms: C2_2  and  C10_10 
REMARK    3  A    between atoms: C3_3  and  C5_5 
REMARK    4  A    between atoms: C3_3  and  C9_9 
ROOT
HETATM    1  C3  UNL     1     -33.194   6.881   2.662  1.00 20.00     0.135 C 
HETATM    2  O11 UNL     1     -33.880   6.654   1.673  1.00 20.00    -0.297 OA
ENDROOT
BRANCH   1   3
HETATM    3  C5  UNL     1     -33.257   5.961   3.836  1.00 20.00     0.060 A 
HETATM    4  C4  UNL     1     -33.910   4.629   3.662  1.00 20.00     0.017 A 
HETATM    5  C6  UNL     1     -34.599   5.702   4.463  1.00 20.00    -0.007 A 
HETATM    6  C7  UNL     1     -34.705   5.582   5.944  1.00 20.00     0.011 C 
ENDBRANCH   1   3
BRANCH   1   7
HETATM    7  C9  UNL     1     -32.278   8.080   2.826  1.00 20.00     0.111 C 
BRANCH   7   8
HETATM    8  C2  UNL     1     -32.040   8.773   1.510  1.00 20.00    -0.083 C 
HETATM    9  C1  UNL     1     -31.045   8.389   0.694  1.00 20.00     0.014 C 
BRANCH   8  10
HETATM   10  C10 UNL     1     -32.955   9.917   1.140  1.00 20.00     0.029 C 
HETATM   11  C8  UNL     1     -33.361   9.895  -0.326  1.00 20.00     0.010 C 
ENDBRANCH   8  10
ENDBRANCH   7   8
ENDBRANCH   1   7
TORSDOF 4
ENDMDL
MODEL 9
REMARK VINA RESULT:      -4.5      9.808     11.057
REMARK  4 active torsions:
REMARK  status: ('A' for Active; 'I' for Inactive)
REMARK    1  A    between atoms: C2_2  and  C9_9 
REMARK    2  A    between atoms: C2_2  and  C10_10 
REMARK    3  A    between atoms: C3_3  and  C5_5 
REMARK    4  A    between atoms: C3_3  and  C9_9 
ROOT
HETATM    1  C3  UNL     1     -35.217  13.773  -5.258  1.00 20.00     0.135 C 
HETATM    2  O11 UNL     1     -35.960  12.802  -5.190  1.00 20.00    -0.297 OA
ENDROOT
BRANCH   1   3
HETATM    3  C5  UNL     1     -35.138  14.561  -6.523  1.00 20.00     0.060 A 
HETATM    4  C4  UNL     1     -34.297  14.033  -7.638  1.00 20.00     0.017 A 
HETATM    5  C6  UNL     1     -33.837  15.236  -6.858  1.00 20.00    -0.007 A 
HETATM    6  C7  UNL     1     -33.853  16.588  -7.484  1.00 20.00     0.011 C 
ENDBRANCH   1   3
BRANCH   1   7
HETATM    7  C9  UNL     1     -34.304  14.247  -4.141  1.00 20.00     0.111 C 
BRANCH   7   8
HETATM    8  C2  UNL     1     -34.781  15.552  -3.559  1.00 20.00    -0.083 C 
HETATM    9  C1  UNL     1     -36.091  15.829  -3.455  1.00 20.00     0.014 C 
BRANCH   8  10
HETATM   10  C10 UNL     1     -33.735  16.543  -3.101  1.00 20.00     0.029 C 
HETATM   11  C8  UNL     1     -34.009  17.082  -1.705  1.00 20.00     0.010 C 
ENDBRANCH   8  10
ENDBRANCH   7   8
ENDBRANCH   1   7
TORSDOF 4
ENDMDL
