MODEL 1
REMARK VINA RESULT:      -5.2      0.000      0.000
REMARK  5 active torsions:
REMARK  status: ('A' for Active; 'I' for Inactive)
REMARK    1  A    between atoms: C4_4  and  C5_5 
REMARK    2  A    between atoms: C4_4  and  C8_8 
REMARK    3  A    between atoms: C5_5  and  O9_9 
REMARK    4  A    between atoms: C6_6  and  C8_8 
REMARK    5  A    between atoms: C7_7  and  C8_8 
ROOT
HETATM    1  C8  UNL     1     -33.989   6.970   3.525  1.00 20.00     0.005 C 
ENDROOT
BRANCH   1   2
HETATM    2  C4  UNL     1     -32.534   7.488   3.390  1.00 20.00     0.032 C 
BRANCH   2   3
HETATM    3  C5  UNL     1     -32.190   8.078   2.025  1.00 20.00     0.167 C 
BRANCH   3   4
HETATM    4  O9  UNL     1     -32.163   9.496   2.136  1.00 20.00    -0.396 OA
HETATM    5  C3  UNL     1     -32.609  10.120   0.941  1.00 20.00     0.201 C 
ENDBRANCH   3   4
ENDBRANCH   2   3
ENDBRANCH   1   2
BRANCH   1   6
HETATM    6  C6  UNL     1     -34.238   5.693   2.695  1.00 20.00     0.119 C 
HETATM    7 CL10 UNL     1     -32.800   4.655   2.553  1.00 20.00    -0.130 Cl
ENDBRANCH   1   6
BRANCH   1   8
HETATM    8  C7  UNL     1     -34.400   6.817   5.027  1.00 20.00    -0.017 C 
HETATM    9  C1  UNL     1     -34.587   5.348   5.432  1.00 20.00     0.010 C 
HETATM   10  C2  UNL     1     -33.379   7.451   5.981  1.00 20.00     0.010 C 
ENDBRANCH   1   8
TORSDOF 5
ENDMDL
MODEL 2
REMARK VINA RESULT:      -5.1      0.380      1.170
REMARK  5 active torsions:
REMARK  status: ('A' for Active; 'I' for Inactive)
REMARK    1  A    between atoms: C4_4  and  C5_5 
REMARK    2  A    between atoms: C4_4  and  C8_8 
REMARK    3  A    between atoms: C5_5  and  O9_9 
REMARK    4  A    between atoms: C6_6  and  C8_8 
REMARK    5  A    between atoms: C7_7  and  C8_8 
ROOT
HETATM    1  C8  UNL     1     -33.659   6.979   3.686  1.00 20.00     0.005 C 
ENDROOT
BRANCH   1   2
HETATM    2  C4  UNL     1     -32.317   7.671   3.336  1.00 20.00     0.032 C 
BRANCH   2   3
HETATM    3  C5  UNL     1     -32.218   8.188   1.904  1.00 20.00     0.167 C 
BRANCH   3   4
HETATM    4  O9  UNL     1     -32.165   9.609   1.935  1.00 20.00    -0.396 OA
HETATM    5  C3  UNL     1     -32.640  10.174   0.722  1.00 20.00     0.201 C 
ENDBRANCH   3   4
ENDBRANCH   2   3
ENDBRANCH   1   2
BRANCH   1   6
HETATM    6  C6  UNL     1     -34.062   5.916   2.642  1.00 20.00     0.119 C 
HETATM    7 CL10 UNL     1     -32.881   4.592   2.495  1.00 20.00    -0.130 Cl
ENDBRANCH   1   6
BRANCH   1   8
HETATM    8  C7  UNL     1     -33.650   6.429   5.152  1.00 20.00    -0.017 C 
HETATM    9  C1  UNL     1     -33.800   7.548   6.193  1.00 20.00     0.010 C 
HETATM   10  C2  UNL     1     -34.757   5.396   5.396  1.00 20.00     0.010 C 
ENDBRANCH   1   8
TORSDOF 5
ENDMDL
MODEL 3
REMARK VINA RESULT:      -4.7      1.792      2.525
REMARK  5 active torsions:
REMARK  status: ('A' for Active; 'I' for Inactive)
REMARK    1  A    between atoms: C4_4  and  C5_5 
REMARK    2  A    between atoms: C4_4  and  C8_8 
REMARK    3  A    between atoms: C5_5  and  O9_9 
REMARK    4  A    between atoms: C6_6  and  C8_8 
REMARK    5  A    between atoms: C7_7  and  C8_8 
ROOT
HETATM    1  C8  UNL     1     -33.361   6.632   3.556  1.00 20.00     0.005 C 
ENDROOT
BRANCH   1   2
HETATM    2  C4  UNL     1     -33.090   7.488   2.293  1.00 20.00     0.032 C 
BRANCH   2   3
HETATM    3  C5  UNL     1     -31.863   8.391   2.385  1.00 20.00     0.167 C 
BRANCH   3   4
HETATM    4  O9  UNL     1     -31.667   9.023   1.125  1.00 20.00    -0.396 OA
HETATM    5  C3  UNL     1     -32.616  10.057   0.908  1.00 20.00     0.201 C 
ENDBRANCH   3   4
ENDBRANCH   2   3
ENDBRANCH   1   2
BRANCH   1   6
HETATM    6  C6  UNL     1     -34.250   7.365   4.584  1.00 20.00     0.119 C 
HETATM    7 CL10 UNL     1     -33.511   7.473   6.200  1.00 20.00    -0.130 Cl
ENDBRANCH   1   6
BRANCH   1   8
HETATM    8  C7  UNL     1     -33.904   5.214   3.175  1.00 20.00    -0.017 C 
HETATM    9  C1  UNL     1     -32.849   4.361   2.455  1.00 20.00     0.010 C 
HETATM   10  C2  UNL     1     -34.402   4.430   4.396  1.00 20.00     0.010 C 
ENDBRANCH   1   8
TORSDOF 5
ENDMDL
MODEL 4
REMARK VINA RESULT:      -4.2      2.469      4.599
REMARK  5 active torsions:
REMARK  status: ('A' for Active; 'I' for Inactive)
REMARK    1  A    between atoms: C4_4  and  C5_5 
REMARK    2  A    between atoms: C4_4  and  C8_8 
REMARK    3  A    between atoms: C5_5  and  O9_9 
REMARK    4  A    between atoms: C6_6  and  C8_8 
REMARK    5  A    between atoms: C7_7  and  C8_8 
ROOT
HETATM    1  C8  UNL     1     -32.779   8.136   2.846  1.00 20.00     0.005 C 
ENDROOT
BRANCH   1   2
HETATM    2  C4  UNL     1     -32.924   6.729   2.211  1.00 20.00     0.032 C 
BRANCH   2   3
HETATM    3  C5  UNL     1     -34.110   5.917   2.722  1.00 20.00     0.167 C 
BRANCH   3   4
HETATM    4  O9  UNL     1     -33.618   4.770   3.403  1.00 20.00    -0.396 OA
HETATM    5  C3  UNL     1     -34.456   4.410   4.491  1.00 20.00     0.201 C 
ENDBRANCH   3   4
ENDBRANCH   2   3
ENDBRANCH   1   2
BRANCH   1   6
HETATM    6  C6  UNL     1     -32.132   8.085   4.246  1.00 20.00     0.119 C 
HETATM    7 CL10 UNL     1     -33.278   7.647   5.535  1.00 20.00    -0.130 Cl
ENDBRANCH   1   6
BRANCH   1   8
HETATM    8  C7  UNL     1     -32.060   9.127   1.872  1.00 20.00    -0.017 C 
HETATM    9  C1  UNL     1     -31.463   8.413   0.651  1.00 20.00     0.010 C 
HETATM   10  C2  UNL     1     -32.994  10.235   1.369  1.00 20.00     0.010 C 
ENDBRANCH   1   8
TORSDOF 5
ENDMDL
MODEL 5
REMARK VINA RESULT:      -4.0     11.078     11.888
REMARK  5 active torsions:
REMARK  status: ('A' for Active; 'I' for Inactive)
REMARK    1  A    between atoms: C4_4  and  C5_5 
REMARK    2  A    between atoms: C4_4  and  C8_8 
REMARK    3  A    between atoms: C5_5  and  O9_9 
REMARK    4  A    between atoms: C6_6  and  C8_8 
REMARK    5  A    between atoms: C7_7  and  C8_8 
ROOT
HETATM    1  C8  UNL     1     -34.171  15.700  -3.980  1.00 20.00     0.005 C 
ENDROOT
BRANCH   1   2
HETATM    2  C4  UNL     1     -34.454  14.187  -4.157  1.00 20.00     0.032 C 
BRANCH   2   3
HETATM    3  C5  UNL     1     -35.738  13.861  -4.914  1.00 20.00     0.167 C 
BRANCH   3   4
HETATM    4  O9  UNL     1     -35.503  12.732  -5.747  1.00 20.00    -0.396 OA
HETATM    5  C3  UNL     1     -35.151  13.123  -7.066  1.00 20.00     0.201 C 
ENDBRANCH   3   4
ENDBRANCH   2   3
ENDBRANCH   1   2
BRANCH   1   6
HETATM    6  C6  UNL     1     -34.657  16.535  -5.184  1.00 20.00     0.119 C 
HETATM    7 CL10 UNL     1     -33.580  16.422  -6.597  1.00 20.00    -0.130 Cl
ENDBRANCH   1   6
BRANCH   1   8
HETATM    8  C7  UNL     1     -34.716  16.223  -2.609  1.00 20.00    -0.017 C 
HETATM    9  C1  UNL     1     -33.721  17.158  -1.906  1.00 20.00     0.010 C 
HETATM   10  C2  UNL     1     -36.050  16.967  -2.756  1.00 20.00     0.010 C 
ENDBRANCH   1   8
TORSDOF 5
ENDMDL
MODEL 6
REMARK VINA RESULT:      -3.9      1.868      4.205
REMARK  5 active torsions:
REMARK  status: ('A' for Active; 'I' for Inactive)
REMARK    1  A    between atoms: C4_4  and  C5_5 
REMARK    2  A    between atoms: C4_4  and  C8_8 
REMARK    3  A    between atoms: C5_5  and  O9_9 
REMARK    4  A    between atoms: C6_6  and  C8_8 
REMARK    5  A    between atoms: C7_7  and  C8_8 
ROOT
HETATM    1  C8  UNL     1     -32.269   7.480   2.989  1.00 20.00     0.005 C 
ENDROOT
BRANCH   1   2
HETATM    2  C4  UNL     1     -32.661   7.863   4.438  1.00 20.00     0.032 C 
BRANCH   2   3
HETATM    3  C5  UNL     1     -34.038   7.373   4.880  1.00 20.00     0.167 C 
BRANCH   3   4
HETATM    4  O9  UNL     1     -33.868   6.412   5.915  1.00 20.00    -0.396 OA
HETATM    5  C3  UNL     1     -34.621   5.235   5.661  1.00 20.00     0.201 C 
ENDBRANCH   3   4
ENDBRANCH   2   3
ENDBRANCH   1   2
BRANCH   1   6
HETATM    6  C6  UNL     1     -33.304   6.543   2.328  1.00 20.00     0.119 C 
HETATM    7 CL10 UNL     1     -32.932   4.817   2.550  1.00 20.00    -0.130 Cl
ENDBRANCH   1   6
BRANCH   1   8
HETATM    8  C7  UNL     1     -31.954   8.750   2.131  1.00 20.00    -0.017 C 
HETATM    9  C1  UNL     1     -31.326   8.395   0.775  1.00 20.00     0.010 C 
HETATM   10  C2  UNL     1     -33.200   9.606   1.872  1.00 20.00     0.010 C 
ENDBRANCH   1   8
TORSDOF 5
ENDMDL
MODEL 7
REMARK VINA RESULT:      -3.8     10.958     12.149
REMARK  5 active torsions:
REMARK  status: ('A' for Active; 'I' for Inactive)
REMARK    1  A    between atoms: C4_4  and  C5_5 
REMARK    2  A    between atoms: C4_4  and  C8_8 
REMARK    3  A    between atoms: C5_5  and  O9_9 
REMARK    4  A    between atoms: C6_6  and  C8_8 
REMARK    5  A    between atoms: C7_7  and  C8_8 
ROOT
HETATM    1  C8  UNL     1     -34.938  15.744  -4.126  1.00 20.00     0.005 C 
ENDROOT
BRANCH   1   2
HETATM    2  C4  UNL     1     -34.959  14.197  -4.215  1.00 20.00     0.032 C 
BRANCH   2   3
HETATM    3  C5  UNL     1     -36.002  13.626  -5.171  1.00 20.00     0.167 C 
BRANCH   3   4
HETATM    4  O9  UNL     1     -35.375  12.655  -6.002  1.00 20.00    -0.396 OA
HETATM    5  C3  UNL     1     -35.047  13.193  -7.275  1.00 20.00     0.201 C 
ENDBRANCH   3   4
ENDBRANCH   2   3
ENDBRANCH   1   2
BRANCH   1   6
HETATM    6  C6  UNL     1     -35.033  16.252  -2.671  1.00 20.00     0.119 C 
HETATM    7 CL10 UNL     1     -33.538  17.030  -2.099  1.00 20.00    -0.130 Cl
ENDBRANCH   1   6
BRANCH   1   8
HETATM    8  C7  UNL     1     -33.720  16.342  -4.907  1.00 20.00    -0.017 C 
HETATM    9  C1  UNL     1     -32.689  15.269  -5.286  1.00 20.00     0.010 C 
HETATM   10  C2  UNL     1     -34.146  17.071  -6.188  1.00 20.00     0.010 C 
ENDBRANCH   1   8
TORSDOF 5
ENDMDL
MODEL 8
REMARK VINA RESULT:      -3.8     11.327     11.768
REMARK  5 active torsions:
REMARK  status: ('A' for Active; 'I' for Inactive)
REMARK    1  A    between atoms: C4_4  and  C5_5 
REMARK    2  A    between atoms: C4_4  and  C8_8 
REMARK    3  A    between atoms: C5_5  and  O9_9 
REMARK    4  A    between atoms: C6_6  and  C8_8 
REMARK    5  A    between atoms: C7_7  and  C8_8 
ROOT
HETATM    1  C8  UNL     1     -34.629  15.533  -3.384  1.00 20.00     0.005 C 
ENDROOT
BRANCH   1   2
HETATM    2  C4  UNL     1     -35.939  15.357  -4.192  1.00 20.00     0.032 C 
BRANCH   2   3
HETATM    3  C5  UNL     1     -36.081  14.009  -4.893  1.00 20.00     0.167 C 
BRANCH   3   4
HETATM    4  O9  UNL     1     -37.464  13.694  -5.000  1.00 20.00    -0.396 OA
HETATM    5  C3  UNL     1     -38.277  14.837  -4.774  1.00 20.00     0.201 C 
ENDBRANCH   3   4
ENDBRANCH   2   3
ENDBRANCH   1   2
BRANCH   1   6
HETATM    6  C6  UNL     1     -33.369  15.314  -4.249  1.00 20.00     0.119 C 
HETATM    7 CL10 UNL     1     -33.298  16.383  -5.670  1.00 20.00    -0.130 Cl
ENDBRANCH   1   6
BRANCH   1   8
HETATM    8  C7  UNL     1     -34.616  16.896  -2.613  1.00 20.00    -0.017 C 
HETATM    9  C1  UNL     1     -35.532  16.877  -1.381  1.00 20.00     0.010 C 
HETATM   10  C2  UNL     1     -33.207  17.297  -2.157  1.00 20.00     0.010 C 
ENDBRANCH   1   8
TORSDOF 5
ENDMDL
MODEL 9
REMARK VINA RESULT:      -3.8     11.207     11.938
REMARK  5 active torsions:
REMARK  status: ('A' for Active; 'I' for Inactive)
REMARK    1  A    between atoms: C4_4  and  C5_5 
REMARK    2  A    between atoms: C4_4  and  C8_8 
REMARK    3  A    between atoms: C5_5  and  O9_9 
REMARK    4  A    between atoms: C6_6  and  C8_8 
REMARK    5  A    between atoms: C7_7  and  C8_8 
ROOT
HETATM    1  C8  UNL     1     -33.614  16.581  -3.271  1.00 20.00     0.005 C 
ENDROOT
BRANCH   1   2
HETATM    2  C4  UNL     1     -34.637  15.466  -3.605  1.00 20.00     0.032 C 
BRANCH   2   3
HETATM    3  C5  UNL     1     -34.062  14.280  -4.375  1.00 20.00     0.167 C 
BRANCH   3   4
HETATM    4  O9  UNL     1     -35.065  13.279  -4.487  1.00 20.00    -0.396 OA
HETATM    5  C3  UNL     1     -36.174  13.736  -5.248  1.00 20.00     0.201 C 
ENDBRANCH   3   4
ENDBRANCH   2   3
ENDBRANCH   1   2
BRANCH   1   6
HETATM    6  C6  UNL     1     -33.694  17.767  -4.255  1.00 20.00     0.119 C 
HETATM    7 CL10 UNL     1     -35.353  18.122  -4.795  1.00 20.00    -0.130 Cl
ENDBRANCH   1   6
BRANCH   1   8
HETATM    8  C7  UNL     1     -33.722  17.019  -1.771  1.00 20.00    -0.017 C 
HETATM    9  C1  UNL     1     -33.101  18.401  -1.523  1.00 20.00     0.010 C 
HETATM   10  C2  UNL     1     -35.172  17.048  -1.272  1.00 20.00     0.010 C 
ENDBRANCH   1   8
TORSDOF 5
ENDMDL
