MODEL 1
REMARK VINA RESULT:      -6.2      0.000      0.000
REMARK  5 active torsions:
REMARK  status: ('A' for Active; 'I' for Inactive)
REMARK    1  A    between atoms: C2_2  and  C8_8 
REMARK    2  A    between atoms: C2_2  and  C9_9 
REMARK    3  A    between atoms: C6_6  and  C10_10 
REMARK    4  A    between atoms: C9_9  and  C10_10 
REMARK    5  A    between atoms: C10_10  and  O11_11 
ROOT
HETATM    1  C10 UNL     1     -32.499   8.248   3.083  1.00 20.00     0.126 C 
ENDROOT
BRANCH   1   2
HETATM    2  C6  UNL     1     -32.787   8.722   1.675  1.00 20.00     0.015 C 
HETATM    3  C4  UNL     1     -31.572   8.836   0.716  1.00 20.00     0.007 C 
HETATM    4  C3  UNL     1     -32.248  10.092   0.128  1.00 20.00     0.001 C 
HETATM    5  C5  UNL     1     -32.973  10.249   1.481  1.00 20.00     0.007 C 
ENDBRANCH   1   2
BRANCH   1   6
HETATM    6  C9  UNL     1     -33.039   6.826   3.276  1.00 20.00     0.065 C 
BRANCH   6   7
HETATM    7  C2  UNL     1     -33.845   6.658   4.551  1.00 20.00    -0.087 C 
HETATM    8  C1  UNL     1     -33.617   7.468   5.599  1.00 20.00     0.014 C 
BRANCH   7   9
HETATM    9  C8  UNL     1     -34.905   5.575   4.519  1.00 20.00     0.029 C 
HETATM   10  C7  UNL     1     -34.419   4.129   4.521  1.00 20.00     0.010 C 
ENDBRANCH   7   9
ENDBRANCH   6   7
ENDBRANCH   1   6
BRANCH   1  11
HETATM   11  O11 UNL     1     -31.086   8.238   3.273  1.00 20.00    -0.395 OA
HETATM   12  H29 UNL     1     -30.709   7.764   2.517  1.00 20.00     0.210 HD
ENDBRANCH   1  11
TORSDOF 5
ENDMDL
MODEL 2
REMARK VINA RESULT:      -6.0      1.330      5.107
REMARK  5 active torsions:
REMARK  status: ('A' for Active; 'I' for Inactive)
REMARK    1  A    between atoms: C2_2  and  C8_8 
REMARK    2  A    between atoms: C2_2  and  C9_9 
REMARK    3  A    between atoms: C6_6  and  C10_10 
REMARK    4  A    between atoms: C9_9  and  C10_10 
REMARK    5  A    between atoms: C10_10  and  O11_11 
ROOT
HETATM    1  C10 UNL     1     -33.934   6.339   2.841  1.00 20.00     0.126 C 
ENDROOT
BRANCH   1   2
HETATM    2  C6  UNL     1     -34.747   5.696   3.945  1.00 20.00     0.015 C 
HETATM    3  C4  UNL     1     -34.437   6.155   5.394  1.00 20.00     0.007 C 
HETATM    4  C3  UNL     1     -34.685   4.696   5.830  1.00 20.00     0.001 C 
HETATM    5  C5  UNL     1     -34.310   4.278   4.393  1.00 20.00     0.007 C 
ENDBRANCH   1   2
BRANCH   1   6
HETATM    6  C9  UNL     1     -33.565   7.774   3.233  1.00 20.00     0.065 C 
BRANCH   6   7
HETATM    7  C2  UNL     1     -32.267   8.252   2.606  1.00 20.00    -0.087 C 
HETATM    8  C1  UNL     1     -31.128   8.224   3.320  1.00 20.00     0.014 C 
BRANCH   7   9
HETATM    9  C8  UNL     1     -32.363   8.702   1.162  1.00 20.00     0.029 C 
HETATM   10  C7  UNL     1     -32.673  10.175   0.913  1.00 20.00     0.010 C 
ENDBRANCH   7   9
ENDBRANCH   6   7
ENDBRANCH   1   6
BRANCH   1  11
HETATM   11  O11 UNL     1     -32.738   5.583   2.666  1.00 20.00    -0.395 OA
HETATM   12  H29 UNL     1     -32.148   6.121   2.117  1.00 20.00     0.210 HD
ENDBRANCH   1  11
TORSDOF 5
ENDMDL
MODEL 3
REMARK VINA RESULT:      -5.8      1.220      5.050
REMARK  5 active torsions:
REMARK  status: ('A' for Active; 'I' for Inactive)
REMARK    1  A    between atoms: C2_2  and  C8_8 
REMARK    2  A    between atoms: C2_2  and  C9_9 
REMARK    3  A    between atoms: C6_6  and  C10_10 
REMARK    4  A    between atoms: C9_9  and  C10_10 
REMARK    5  A    between atoms: C10_10  and  O11_11 
ROOT
HETATM    1  C10 UNL     1     -33.350   6.864   2.736  1.00 20.00     0.126 C 
ENDROOT
BRANCH   1   2
HETATM    2  C6  UNL     1     -34.260   6.816   3.945  1.00 20.00     0.015 C 
HETATM    3  C4  UNL     1     -33.616   7.158   5.315  1.00 20.00     0.007 C 
HETATM    4  C3  UNL     1     -34.522   6.071   5.929  1.00 20.00     0.001 C 
HETATM    5  C5  UNL     1     -34.559   5.413   4.534  1.00 20.00     0.007 C 
ENDBRANCH   1   2
BRANCH   1   6
HETATM    6  C9  UNL     1     -32.340   8.007   2.888  1.00 20.00     0.065 C 
BRANCH   6   7
HETATM    7  C2  UNL     1     -32.042   8.721   1.582  1.00 20.00    -0.087 C 
HETATM    8  C1  UNL     1     -30.975   8.360   0.849  1.00 20.00     0.014 C 
BRANCH   7   9
HETATM    9  C8  UNL     1     -33.032   9.797   1.182  1.00 20.00     0.029 C 
HETATM   10  C7  UNL     1     -33.382   9.903  -0.299  1.00 20.00     0.010 C 
ENDBRANCH   7   9
ENDBRANCH   6   7
ENDBRANCH   1   6
BRANCH   1  11
HETATM   11  O11 UNL     1     -32.645   5.628   2.656  1.00 20.00    -0.395 OA
HETATM   12  H29 UNL     1     -32.931   5.096   3.414  1.00 20.00     0.210 HD
ENDBRANCH   1  11
TORSDOF 5
ENDMDL
MODEL 4
REMARK VINA RESULT:      -5.7      0.855      1.849
REMARK  5 active torsions:
REMARK  status: ('A' for Active; 'I' for Inactive)
REMARK    1  A    between atoms: C2_2  and  C8_8 
REMARK    2  A    between atoms: C2_2  and  C9_9 
REMARK    3  A    between atoms: C6_6  and  C10_10 
REMARK    4  A    between atoms: C9_9  and  C10_10 
REMARK    5  A    between atoms: C10_10  and  O11_11 
ROOT
HETATM    1  C10 UNL     1     -32.381   8.247   2.728  1.00 20.00     0.126 C 
ENDROOT
BRANCH   1   2
HETATM    2  C6  UNL     1     -32.092   8.942   1.415  1.00 20.00     0.015 C 
HETATM    3  C4  UNL     1     -32.703  10.356   1.227  1.00 20.00     0.007 C 
HETATM    4  C3  UNL     1     -32.925   9.982  -0.253  1.00 20.00     0.001 C 
HETATM    5  C5  UNL     1     -32.945   8.506   0.196  1.00 20.00     0.007 C 
ENDBRANCH   1   2
BRANCH   1   6
HETATM    6  C9  UNL     1     -32.732   6.776   2.474  1.00 20.00     0.065 C 
BRANCH   6   7
HETATM    7  C2  UNL     1     -33.688   6.202   3.503  1.00 20.00    -0.087 C 
HETATM    8  C1  UNL     1     -33.931   4.880   3.528  1.00 20.00     0.014 C 
BRANCH   7   9
HETATM    9  C8  UNL     1     -34.283   7.201   4.476  1.00 20.00     0.029 C 
HETATM   10  C7  UNL     1     -33.793   7.141   5.919  1.00 20.00     0.010 C 
ENDBRANCH   7   9
ENDBRANCH   6   7
ENDBRANCH   1   6
BRANCH   1  11
HETATM   11  O11 UNL     1     -31.210   8.313   3.538  1.00 20.00    -0.395 OA
HETATM   12  H29 UNL     1     -31.429   7.878   4.376  1.00 20.00     0.210 HD
ENDBRANCH   1  11
TORSDOF 5
ENDMDL
MODEL 5
REMARK VINA RESULT:      -5.7      1.223      4.897
REMARK  5 active torsions:
REMARK  status: ('A' for Active; 'I' for Inactive)
REMARK    1  A    between atoms: C2_2  and  C8_8 
REMARK    2  A    between atoms: C2_2  and  C9_9 
REMARK    3  A    between atoms: C6_6  and  C10_10 
REMARK    4  A    between atoms: C9_9  and  C10_10 
REMARK    5  A    between atoms: C10_10  and  O11_11 
ROOT
HETATM    1  C10 UNL     1     -33.192   7.082   2.713  1.00 20.00     0.126 C 
ENDROOT
BRANCH   1   2
HETATM    2  C6  UNL     1     -34.048   7.162   3.959  1.00 20.00     0.015 C 
HETATM    3  C4  UNL     1     -33.304   7.399   5.300  1.00 20.00     0.007 C 
HETATM    4  C3  UNL     1     -34.334   6.454   5.953  1.00 20.00     0.001 C 
HETATM    5  C5  UNL     1     -34.524   5.815   4.562  1.00 20.00     0.007 C 
ENDBRANCH   1   2
BRANCH   1   6
HETATM    6  C9  UNL     1     -32.088   8.144   2.769  1.00 20.00     0.065 C 
BRANCH   6   7
HETATM    7  C2  UNL     1     -32.259   9.241   1.733  1.00 20.00    -0.087 C 
HETATM    8  C1  UNL     1     -32.575  10.488   2.123  1.00 20.00     0.014 C 
BRANCH   7   9
HETATM    9  C8  UNL     1     -32.014   8.829   0.295  1.00 20.00     0.029 C 
HETATM   10  C7  UNL     1     -33.058   9.247  -0.735  1.00 20.00     0.010 C 
ENDBRANCH   7   9
ENDBRANCH   6   7
ENDBRANCH   1   6
BRANCH   1  11
HETATM   11  O11 UNL     1     -32.591   5.790   2.663  1.00 20.00    -0.395 OA
HETATM   12  H29 UNL     1     -32.366   5.625   1.735  1.00 20.00     0.210 HD
ENDBRANCH   1  11
TORSDOF 5
ENDMDL
MODEL 6
REMARK VINA RESULT:      -5.4      1.140      5.088
REMARK  5 active torsions:
REMARK  status: ('A' for Active; 'I' for Inactive)
REMARK    1  A    between atoms: C2_2  and  C8_8 
REMARK    2  A    between atoms: C2_2  and  C9_9 
REMARK    3  A    between atoms: C6_6  and  C10_10 
REMARK    4  A    between atoms: C9_9  and  C10_10 
REMARK    5  A    between atoms: C10_10  and  O11_11 
ROOT
HETATM    1  C10 UNL     1     -32.951   7.322   3.658  1.00 20.00     0.126 C 
ENDROOT
BRANCH   1   2
HETATM    2  C6  UNL     1     -34.095   6.355   3.872  1.00 20.00     0.015 C 
HETATM    3  C4  UNL     1     -34.382   5.929   5.336  1.00 20.00     0.007 C 
HETATM    4  C3  UNL     1     -34.716   4.528   4.785  1.00 20.00     0.001 C 
HETATM    5  C5  UNL     1     -33.804   4.859   3.586  1.00 20.00     0.007 C 
ENDBRANCH   1   2
BRANCH   1   6
HETATM    6  C9  UNL     1     -33.419   8.505   2.803  1.00 20.00     0.065 C 
BRANCH   6   7
HETATM    7  C2  UNL     1     -32.408   8.921   1.750  1.00 20.00    -0.087 C 
HETATM    8  C1  UNL     1     -31.220   8.297   1.678  1.00 20.00     0.014 C 
BRANCH   7   9
HETATM    9  C8  UNL     1     -32.857  10.023   0.810  1.00 20.00     0.029 C 
HETATM   10  C7  UNL     1     -33.231   9.613  -0.611  1.00 20.00     0.010 C 
ENDBRANCH   7   9
ENDBRANCH   6   7
ENDBRANCH   1   6
BRANCH   1  11
HETATM   11  O11 UNL     1     -32.528   7.806   4.930  1.00 20.00    -0.395 OA
HETATM   12  H29 UNL     1     -33.180   7.493   5.576  1.00 20.00     0.210 HD
ENDBRANCH   1  11
TORSDOF 5
ENDMDL
MODEL 7
REMARK VINA RESULT:      -5.0      0.917      4.890
REMARK  5 active torsions:
REMARK  status: ('A' for Active; 'I' for Inactive)
REMARK    1  A    between atoms: C2_2  and  C8_8 
REMARK    2  A    between atoms: C2_2  and  C9_9 
REMARK    3  A    between atoms: C6_6  and  C10_10 
REMARK    4  A    between atoms: C9_9  and  C10_10 
REMARK    5  A    between atoms: C10_10  and  O11_11 
ROOT
HETATM    1  C10 UNL     1     -32.198   7.415   3.141  1.00 20.00     0.126 C 
ENDROOT
BRANCH   1   2
HETATM    2  C6  UNL     1     -33.043   6.321   3.759  1.00 20.00     0.015 C 
HETATM    3  C4  UNL     1     -34.329   5.916   2.990  1.00 20.00     0.007 C 
HETATM    4  C3  UNL     1     -35.004   5.734   4.365  1.00 20.00     0.001 C 
HETATM    5  C5  UNL     1     -33.976   6.738   4.925  1.00 20.00     0.007 C 
ENDBRANCH   1   2
BRANCH   1   6
HETATM    6  C9  UNL     1     -33.057   8.269   2.201  1.00 20.00     0.065 C 
BRANCH   6   7
HETATM    7  C2  UNL     1     -32.245   8.998   1.145  1.00 20.00    -0.087 C 
HETATM    8  C1  UNL     1     -31.274   8.350   0.480  1.00 20.00     0.014 C 
BRANCH   7   9
HETATM    9  C8  UNL     1     -32.640  10.440   0.896  1.00 20.00     0.029 C 
HETATM   10  C7  UNL     1     -32.525  11.405   2.072  1.00 20.00     0.010 C 
ENDBRANCH   7   9
ENDBRANCH   6   7
ENDBRANCH   1   6
BRANCH   1  11
HETATM   11  O11 UNL     1     -31.696   8.240   4.189  1.00 20.00    -0.395 OA
HETATM   12  H29 UNL     1     -32.145   7.960   5.001  1.00 20.00     0.210 HD
ENDBRANCH   1  11
TORSDOF 5
ENDMDL
MODEL 8
REMARK VINA RESULT:      -5.0      1.630      2.570
REMARK  5 active torsions:
REMARK  status: ('A' for Active; 'I' for Inactive)
REMARK    1  A    between atoms: C2_2  and  C8_8 
REMARK    2  A    between atoms: C2_2  and  C9_9 
REMARK    3  A    between atoms: C6_6  and  C10_10 
REMARK    4  A    between atoms: C9_9  and  C10_10 
REMARK    5  A    between atoms: C10_10  and  O11_11 
ROOT
HETATM    1  C10 UNL     1     -32.802   5.980   3.031  1.00 20.00     0.126 C 
ENDROOT
BRANCH   1   2
HETATM    2  C6  UNL     1     -32.325   7.152   2.200  1.00 20.00     0.015 C 
HETATM    3  C4  UNL     1     -31.486   8.231   2.935  1.00 20.00     0.007 C 
HETATM    4  C3  UNL     1     -32.198   9.278   2.055  1.00 20.00     0.001 C 
HETATM    5  C5  UNL     1     -33.360   8.273   1.920  1.00 20.00     0.007 C 
ENDBRANCH   1   2
BRANCH   1   6
HETATM    6  C9  UNL     1     -34.219   6.252   3.550  1.00 20.00     0.065 C 
BRANCH   6   7
HETATM    7  C2  UNL     1     -34.491   5.623   4.905  1.00 20.00    -0.087 C 
HETATM    8  C1  UNL     1     -34.744   4.306   4.995  1.00 20.00     0.014 C 
BRANCH   7   9
HETATM    9  C8  UNL     1     -34.416   6.564   6.091  1.00 20.00     0.029 C 
HETATM   10  C7  UNL     1     -33.387   7.689   6.021  1.00 20.00     0.010 C 
ENDBRANCH   7   9
ENDBRANCH   6   7
ENDBRANCH   1   6
BRANCH   1  11
HETATM   11  O11 UNL     1     -32.825   4.821   2.201  1.00 20.00    -0.395 OA
HETATM   12  H29 UNL     1     -33.429   4.191   2.623  1.00 20.00     0.210 HD
ENDBRANCH   1  11
TORSDOF 5
ENDMDL
MODEL 9
REMARK VINA RESULT:      -4.8      1.518      2.237
REMARK  5 active torsions:
REMARK  status: ('A' for Active; 'I' for Inactive)
REMARK    1  A    between atoms: C2_2  and  C8_8 
REMARK    2  A    between atoms: C2_2  and  C9_9 
REMARK    3  A    between atoms: C6_6  and  C10_10 
REMARK    4  A    between atoms: C9_9  and  C10_10 
REMARK    5  A    between atoms: C10_10  and  O11_11 
ROOT
HETATM    1  C10 UNL     1     -33.734   7.544   4.192  1.00 20.00     0.126 C 
ENDROOT
BRANCH   1   2
HETATM    2  C6  UNL     1     -32.697   7.487   3.091  1.00 20.00     0.015 C 
HETATM    3  C4  UNL     1     -31.439   8.376   3.274  1.00 20.00     0.007 C 
HETATM    4  C3  UNL     1     -31.480   8.620   1.752  1.00 20.00     0.001 C 
HETATM    5  C5  UNL     1     -32.992   8.318   1.816  1.00 20.00     0.007 C 
ENDBRANCH   1   2
BRANCH   1   6
HETATM    6  C9  UNL     1     -34.782   6.445   3.979  1.00 20.00     0.065 C 
BRANCH   6   7
HETATM    7  C2  UNL     1     -34.454   5.154   4.708  1.00 20.00    -0.087 C 
HETATM    8  C1  UNL     1     -34.679   5.054   6.029  1.00 20.00     0.014 C 
BRANCH   7   9
HETATM    9  C8  UNL     1     -33.914   4.033   3.843  1.00 20.00     0.029 C 
HETATM   10  C7  UNL     1     -33.088   4.432   2.624  1.00 20.00     0.010 C 
ENDBRANCH   7   9
ENDBRANCH   6   7
ENDBRANCH   1   6
BRANCH   1  11
HETATM   11  O11 UNL     1     -33.078   7.326   5.439  1.00 20.00    -0.395 OA
HETATM   12  H29 UNL     1     -32.252   6.860   5.239  1.00 20.00     0.210 HD
ENDBRANCH   1  11
TORSDOF 5
ENDMDL
