MODEL 1
REMARK VINA RESULT:      -4.7      0.000      0.000
REMARK  3 active torsions:
REMARK  status: ('A' for Active; 'I' for Inactive)
REMARK    1  A    between atoms: C6_6  and  C8_8 
REMARK    2  A    between atoms: C7_7  and  C8_8 
REMARK    3  A    between atoms: C7_7  and  C9_9 
ROOT
HETATM    1  C8  UNL     1     -33.336   7.337   2.107  1.00 20.00     0.042 C 
ENDROOT
BRANCH   1   2
HETATM    2  C6  UNL     1     -33.304   6.371   3.275  1.00 20.00     0.122 C 
HETATM    3  C2  UNL     1     -33.452   4.916   2.863  1.00 20.00     0.034 C 
HETATM    4  C1  UNL     1     -34.027   4.306   4.116  1.00 20.00     0.029 C 
HETATM    5  C5  UNL     1     -34.960   5.398   4.596  1.00 20.00     0.168 C 
HETATM    6  O10 UNL     1     -34.397   6.647   4.168  1.00 20.00    -0.386 OA
ENDBRANCH   1   2
BRANCH   1   7
HETATM    7  C7  UNL     1     -32.176   8.285   2.130  1.00 20.00    -0.025 A 
HETATM    8  C3  UNL     1     -31.592   8.721   0.807  1.00 20.00     0.011 A 
HETATM    9  C4  UNL     1     -32.399   9.690   1.621  1.00 20.00     0.011 A 
BRANCH   7  10
HETATM   10  C9  UNL     1     -31.236   8.095   3.288  1.00 20.00     0.124 C 
HETATM   11 CL11 UNL     1     -31.882   8.861   4.760  1.00 20.00    -0.130 Cl
ENDBRANCH   7  10
ENDBRANCH   1   7
TORSDOF 3
ENDMDL
MODEL 2
REMARK VINA RESULT:      -4.6      2.192      4.480
REMARK  3 active torsions:
REMARK  status: ('A' for Active; 'I' for Inactive)
REMARK    1  A    between atoms: C6_6  and  C8_8 
REMARK    2  A    between atoms: C7_7  and  C8_8 
REMARK    3  A    between atoms: C7_7  and  C9_9 
ROOT
HETATM    1  C8  UNL     1     -32.297   7.663   3.388  1.00 20.00     0.042 C 
ENDROOT
BRANCH   1   2
HETATM    2  C6  UNL     1     -32.663   8.219   2.026  1.00 20.00     0.122 C 
HETATM    3  C2  UNL     1     -31.465   8.446   1.121  1.00 20.00     0.034 C 
HETATM    4  C1  UNL     1     -31.980   9.531   0.209  1.00 20.00     0.029 C 
HETATM    5  C5  UNL     1     -32.798  10.378   1.160  1.00 20.00     0.168 C 
HETATM    6  O10 UNL     1     -33.301   9.499   2.176  1.00 20.00    -0.386 OA
ENDBRANCH   1   2
BRANCH   1   7
HETATM    7  C7  UNL     1     -33.444   6.946   4.031  1.00 20.00    -0.025 A 
HETATM    8  C3  UNL     1     -33.356   6.651   5.510  1.00 20.00     0.011 A 
HETATM    9  C4  UNL     1     -34.296   7.713   5.016  1.00 20.00     0.011 A 
BRANCH   7  10
HETATM   10  C9  UNL     1     -34.123   5.935   3.149  1.00 20.00     0.124 C 
HETATM   11 CL11 UNL     1     -32.967   4.696   2.602  1.00 20.00    -0.130 Cl
ENDBRANCH   7  10
ENDBRANCH   1   7
TORSDOF 3
ENDMDL
MODEL 3
REMARK VINA RESULT:      -4.6      1.950      4.420
REMARK  3 active torsions:
REMARK  status: ('A' for Active; 'I' for Inactive)
REMARK    1  A    between atoms: C6_6  and  C8_8 
REMARK    2  A    between atoms: C7_7  and  C8_8 
REMARK    3  A    between atoms: C7_7  and  C9_9 
ROOT
HETATM    1  C8  UNL     1     -32.814   6.674   2.492  1.00 20.00     0.042 C 
ENDROOT
BRANCH   1   2
HETATM    2  C6  UNL     1     -32.420   8.124   2.293  1.00 20.00     0.122 C 
HETATM    3  C2  UNL     1     -33.556   8.997   1.787  1.00 20.00     0.034 C 
HETATM    4  C1  UNL     1     -32.799  10.098   1.087  1.00 20.00     0.029 C 
HETATM    5  C5  UNL     1     -31.651   9.337   0.457  1.00 20.00     0.168 C 
HETATM    6  O10 UNL     1     -31.376   8.215   1.309  1.00 20.00    -0.386 OA
ENDBRANCH   1   2
BRANCH   1   7
HETATM    7  C7  UNL     1     -33.707   6.492   3.682  1.00 20.00    -0.025 A 
HETATM    8  C3  UNL     1     -35.139   6.078   3.435  1.00 20.00     0.011 A 
HETATM    9  C4  UNL     1     -34.166   5.092   4.015  1.00 20.00     0.011 A 
BRANCH   7  10
HETATM   10  C9  UNL     1     -33.431   7.434   4.821  1.00 20.00     0.124 C 
HETATM   11 CL11 UNL     1     -34.154   6.829   6.331  1.00 20.00    -0.130 Cl
ENDBRANCH   7  10
ENDBRANCH   1   7
TORSDOF 3
ENDMDL
MODEL 4
REMARK VINA RESULT:      -4.4      1.609      2.036
REMARK  3 active torsions:
REMARK  status: ('A' for Active; 'I' for Inactive)
REMARK    1  A    between atoms: C6_6  and  C8_8 
REMARK    2  A    between atoms: C7_7  and  C8_8 
REMARK    3  A    between atoms: C7_7  and  C9_9 
ROOT
HETATM    1  C8  UNL     1     -33.400   7.455   2.317  1.00 20.00     0.042 C 
ENDROOT
BRANCH   1   2
HETATM    2  C6  UNL     1     -33.280   6.384   3.384  1.00 20.00     0.122 C 
HETATM    3  C2  UNL     1     -33.650   4.995   2.894  1.00 20.00     0.034 C 
HETATM    4  C1  UNL     1     -34.074   4.327   4.177  1.00 20.00     0.029 C 
HETATM    5  C5  UNL     1     -34.791   5.452   4.894  1.00 20.00     0.168 C 
HETATM    6  O10 UNL     1     -34.174   6.677   4.471  1.00 20.00    -0.386 OA
ENDBRANCH   1   2
BRANCH   1   7
HETATM    7  C7  UNL     1     -32.158   8.286   2.213  1.00 20.00    -0.025 A 
HETATM    8  C3  UNL     1     -31.979   9.417   3.199  1.00 20.00     0.011 A 
HETATM    9  C4  UNL     1     -31.139   8.179   3.324  1.00 20.00     0.011 A 
BRANCH   7  10
HETATM   10  C9  UNL     1     -31.654   8.486   0.811  1.00 20.00     0.124 C 
HETATM   11 CL11 UNL     1     -32.865   9.334  -0.182  1.00 20.00    -0.130 Cl
ENDBRANCH   7  10
ENDBRANCH   1   7
TORSDOF 3
ENDMDL
MODEL 5
REMARK VINA RESULT:      -4.3      1.592      1.948
REMARK  3 active torsions:
REMARK  status: ('A' for Active; 'I' for Inactive)
REMARK    1  A    between atoms: C6_6  and  C8_8 
REMARK    2  A    between atoms: C7_7  and  C8_8 
REMARK    3  A    between atoms: C7_7  and  C9_9 
ROOT
HETATM    1  C8  UNL     1     -32.166   7.330   2.620  1.00 20.00     0.042 C 
ENDROOT
BRANCH   1   2
HETATM    2  C6  UNL     1     -33.465   7.187   3.388  1.00 20.00     0.122 C 
HETATM    3  C2  UNL     1     -33.280   7.183   4.896  1.00 20.00     0.034 C 
HETATM    4  C1  UNL     1     -34.495   6.411   5.345  1.00 20.00     0.029 C 
HETATM    5  C5  UNL     1     -34.615   5.358   4.264  1.00 20.00     0.168 C 
HETATM    6  O10 UNL     1     -34.091   5.935   3.059  1.00 20.00    -0.386 OA
ENDBRANCH   1   2
BRANCH   1   7
HETATM    7  C7  UNL     1     -32.109   8.612   1.846  1.00 20.00    -0.025 A 
HETATM    8  C3  UNL     1     -31.349   8.617   0.540  1.00 20.00     0.011 A 
HETATM    9  C4  UNL     1     -32.849   8.677   0.530  1.00 20.00     0.011 A 
BRANCH   7  10
HETATM   10  C9  UNL     1     -32.065   9.853   2.693  1.00 20.00     0.124 C 
HETATM   11 CL11 UNL     1     -32.802  11.229   1.838  1.00 20.00    -0.130 Cl
ENDBRANCH   7  10
ENDBRANCH   1   7
TORSDOF 3
ENDMDL
MODEL 6
REMARK VINA RESULT:      -4.1      1.539      4.280
REMARK  3 active torsions:
REMARK  status: ('A' for Active; 'I' for Inactive)
REMARK    1  A    between atoms: C6_6  and  C8_8 
REMARK    2  A    between atoms: C7_7  and  C8_8 
REMARK    3  A    between atoms: C7_7  and  C9_9 
ROOT
HETATM    1  C8  UNL     1     -34.257   7.127   3.721  1.00 20.00     0.042 C 
ENDROOT
BRANCH   1   2
HETATM    2  C6  UNL     1     -32.977   7.254   2.917  1.00 20.00     0.122 C 
HETATM    3  C2  UNL     1     -31.899   8.064   3.615  1.00 20.00     0.034 C 
HETATM    4  C1  UNL     1     -31.096   8.568   2.443  1.00 20.00     0.029 C 
HETATM    5  C5  UNL     1     -32.177   8.851   1.421  1.00 20.00     0.168 C 
HETATM    6  O10 UNL     1     -33.246   7.929   1.676  1.00 20.00    -0.386 OA
ENDBRANCH   1   2
BRANCH   1   7
HETATM    7  C7  UNL     1     -34.307   5.849   4.501  1.00 20.00    -0.025 A 
HETATM    8  C3  UNL     1     -35.277   4.783   4.050  1.00 20.00     0.011 A 
HETATM    9  C4  UNL     1     -33.804   4.592   3.832  1.00 20.00     0.011 A 
BRANCH   7  10
HETATM   10  C9  UNL     1     -34.067   6.007   5.977  1.00 20.00     0.124 C 
HETATM   11 CL11 UNL     1     -33.753   7.711   6.389  1.00 20.00    -0.130 Cl
ENDBRANCH   7  10
ENDBRANCH   1   7
TORSDOF 3
ENDMDL
MODEL 7
REMARK VINA RESULT:      -4.1     11.250     11.920
REMARK  3 active torsions:
REMARK  status: ('A' for Active; 'I' for Inactive)
REMARK    1  A    between atoms: C6_6  and  C8_8 
REMARK    2  A    between atoms: C7_7  and  C8_8 
REMARK    3  A    between atoms: C7_7  and  C9_9 
ROOT
HETATM    1  C8  UNL     1     -34.275  15.212  -3.659  1.00 20.00     0.042 C 
ENDROOT
BRANCH   1   2
HETATM    2  C6  UNL     1     -34.949  14.990  -4.999  1.00 20.00     0.122 C 
HETATM    3  C2  UNL     1     -35.779  13.719  -5.058  1.00 20.00     0.034 C 
HETATM    4  C1  UNL     1     -35.760  13.417  -6.534  1.00 20.00     0.029 C 
HETATM    5  C5  UNL     1     -34.349  13.811  -6.917  1.00 20.00     0.168 C 
HETATM    6  O10 UNL     1     -33.955  14.868  -6.030  1.00 20.00    -0.386 OA
ENDBRANCH   1   2
BRANCH   1   7
HETATM    7  C7  UNL     1     -34.520  16.592  -3.128  1.00 20.00    -0.025 A 
HETATM    8  C3  UNL     1     -35.072  16.724  -1.728  1.00 20.00     0.011 A 
HETATM    9  C4  UNL     1     -33.641  17.084  -2.003  1.00 20.00     0.011 A 
BRANCH   7  10
HETATM   10  C9  UNL     1     -34.969  17.589  -4.161  1.00 20.00     0.124 C 
HETATM   11 CL11 UNL     1     -33.570  18.386  -4.920  1.00 20.00    -0.130 Cl
ENDBRANCH   7  10
ENDBRANCH   1   7
TORSDOF 3
ENDMDL
MODEL 8
REMARK VINA RESULT:      -4.1     11.021     11.794
REMARK  3 active torsions:
REMARK  status: ('A' for Active; 'I' for Inactive)
REMARK    1  A    between atoms: C6_6  and  C8_8 
REMARK    2  A    between atoms: C7_7  and  C8_8 
REMARK    3  A    between atoms: C7_7  and  C9_9 
ROOT
HETATM    1  C8  UNL     1     -34.594  15.030  -3.701  1.00 20.00     0.042 C 
ENDROOT
BRANCH   1   2
HETATM    2  C6  UNL     1     -34.738  16.410  -3.089  1.00 20.00     0.122 C 
HETATM    3  C2  UNL     1     -33.471  16.912  -2.418  1.00 20.00     0.034 C 
HETATM    4  C1  UNL     1     -34.030  17.878  -1.405  1.00 20.00     0.029 C 
HETATM    5  C5  UNL     1     -35.288  17.166  -0.954  1.00 20.00     0.168 C 
HETATM    6  O10 UNL     1     -35.750  16.388  -2.067  1.00 20.00    -0.386 OA
ENDBRANCH   1   2
BRANCH   1   7
HETATM    7  C7  UNL     1     -35.403  14.884  -4.953  1.00 20.00    -0.025 A 
HETATM    8  C3  UNL     1     -35.922  13.509  -5.303  1.00 20.00     0.011 A 
HETATM    9  C4  UNL     1     -36.873  14.562  -4.813  1.00 20.00     0.011 A 
BRANCH   7  10
HETATM   10  C9  UNL     1     -34.983  15.787  -6.079  1.00 20.00     0.124 C 
HETATM   11 CL11 UNL     1     -33.216  15.746  -6.298  1.00 20.00    -0.130 Cl
ENDBRANCH   7  10
ENDBRANCH   1   7
TORSDOF 3
ENDMDL
MODEL 9
REMARK VINA RESULT:      -4.0     10.742     11.602
REMARK  3 active torsions:
REMARK  status: ('A' for Active; 'I' for Inactive)
REMARK    1  A    between atoms: C6_6  and  C8_8 
REMARK    2  A    between atoms: C7_7  and  C8_8 
REMARK    3  A    between atoms: C7_7  and  C9_9 
ROOT
HETATM    1  C8  UNL     1     -33.686  16.287  -3.203  1.00 20.00     0.042 C 
ENDROOT
BRANCH   1   2
HETATM    2  C6  UNL     1     -34.893  15.486  -3.653  1.00 20.00     0.122 C 
HETATM    3  C2  UNL     1     -34.549  14.084  -4.125  1.00 20.00     0.034 C 
HETATM    4  C1  UNL     1     -35.693  13.795  -5.064  1.00 20.00     0.029 C 
HETATM    5  C5  UNL     1     -35.905  15.141  -5.724  1.00 20.00     0.168 C 
HETATM    6  O10 UNL     1     -35.525  16.140  -4.767  1.00 20.00    -0.386 OA
ENDBRANCH   1   2
BRANCH   1   7
HETATM    7  C7  UNL     1     -34.026  17.246  -2.104  1.00 20.00    -0.025 A 
HETATM    8  C3  UNL     1     -32.887  17.902  -1.360  1.00 20.00     0.011 A 
HETATM    9  C4  UNL     1     -33.714  18.708  -2.319  1.00 20.00     0.011 A 
BRANCH   7  10
HETATM   10  C9  UNL     1     -35.267  16.896  -1.329  1.00 20.00     0.124 C 
HETATM   11 CL11 UNL     1     -36.580  18.044  -1.685  1.00 20.00    -0.130 Cl
ENDBRANCH   7  10
ENDBRANCH   1   7
TORSDOF 3
ENDMDL
