MODEL 1
REMARK VINA RESULT:      -5.4      0.000      0.000
REMARK  5 active torsions:
REMARK  status: ('A' for Active; 'I' for Inactive)
REMARK    1  A    between atoms: C2_2  and  C7_7 
REMARK    2  A    between atoms: C2_2  and  C8_8 
REMARK    3  A    between atoms: C3_3  and  C10_10 
REMARK    4  A    between atoms: C8_8  and  C10_10 
REMARK    5  A    between atoms: C9_9  and  C10_10 
ROOT
HETATM    1  C10 UNL     1     -33.372   6.408   3.889  1.00 20.00     0.058 C 
ENDROOT
BRANCH   1   2
HETATM    2  C3  UNL     1     -33.963   6.580   5.289  1.00 20.00     0.127 C 
HETATM    3  C4  UNL     1     -34.721   5.406   5.855  1.00 20.00     0.091 C 
HETATM    4  O11 UNL     1     -33.857   7.628   5.925  1.00 20.00    -0.298 OA
ENDBRANCH   1   2
BRANCH   1   5
HETATM    5  C8  UNL     1     -33.626   7.641   3.000  1.00 20.00     0.045 C 
BRANCH   5   6
HETATM    6  C2  UNL     1     -32.364   8.313   2.490  1.00 20.00    -0.089 C 
HETATM    7  C1  UNL     1     -31.265   8.378   3.257  1.00 20.00     0.014 C 
BRANCH   6   8
HETATM    8  C7  UNL     1     -32.371   8.919   1.104  1.00 20.00     0.029 C 
HETATM    9  C5  UNL     1     -32.694  10.407   1.101  1.00 20.00     0.010 C 
ENDBRANCH   6   8
ENDBRANCH   5   6
ENDBRANCH   1   5
BRANCH   1  10
HETATM   10  C9  UNL     1     -33.885   5.102   3.254  1.00 20.00     0.008 C 
HETATM   11  C6  UNL     1     -32.898   4.398   2.331  1.00 20.00     0.006 C 
ENDBRANCH   1  10
TORSDOF 5
ENDMDL
MODEL 2
REMARK VINA RESULT:      -5.3      2.079      4.762
REMARK  5 active torsions:
REMARK  status: ('A' for Active; 'I' for Inactive)
REMARK    1  A    between atoms: C2_2  and  C7_7 
REMARK    2  A    between atoms: C2_2  and  C8_8 
REMARK    3  A    between atoms: C3_3  and  C10_10 
REMARK    4  A    between atoms: C8_8  and  C10_10 
REMARK    5  A    between atoms: C9_9  and  C10_10 
ROOT
HETATM    1  C10 UNL     1     -32.156   7.723   2.477  1.00 20.00     0.058 C 
ENDROOT
BRANCH   1   2
HETATM    2  C3  UNL     1     -31.963   8.738   1.349  1.00 20.00     0.127 C 
HETATM    3  C4  UNL     1     -32.858   9.951   1.366  1.00 20.00     0.091 C 
HETATM    4  O11 UNL     1     -31.140   8.574   0.448  1.00 20.00    -0.298 OA
ENDBRANCH   1   2
BRANCH   1   5
HETATM    5  C8  UNL     1     -33.641   7.353   2.671  1.00 20.00     0.045 C 
BRANCH   5   6
HETATM    6  C2  UNL     1     -33.874   5.917   3.102  1.00 20.00    -0.089 C 
HETATM    7  C1  UNL     1     -33.079   4.931   2.657  1.00 20.00     0.014 C 
BRANCH   6   8
HETATM    8  C7  UNL     1     -35.027   5.614   4.032  1.00 20.00     0.029 C 
HETATM    9  C5  UNL     1     -34.586   5.320   5.459  1.00 20.00     0.010 C 
ENDBRANCH   6   8
ENDBRANCH   5   6
ENDBRANCH   1   5
BRANCH   1  10
HETATM   10  C9  UNL     1     -31.498   8.237   3.770  1.00 20.00     0.008 C 
HETATM   11  C6  UNL     1     -32.421   8.313   4.982  1.00 20.00     0.006 C 
ENDBRANCH   1  10
TORSDOF 5
ENDMDL
MODEL 3
REMARK VINA RESULT:      -5.1      1.527      2.265
REMARK  5 active torsions:
REMARK  status: ('A' for Active; 'I' for Inactive)
REMARK    1  A    between atoms: C2_2  and  C7_7 
REMARK    2  A    between atoms: C2_2  and  C8_8 
REMARK    3  A    between atoms: C3_3  and  C10_10 
REMARK    4  A    between atoms: C8_8  and  C10_10 
REMARK    5  A    between atoms: C9_9  and  C10_10 
ROOT
HETATM    1  C10 UNL     1     -33.871   7.009   3.716  1.00 20.00     0.058 C 
ENDROOT
BRANCH   1   2
HETATM    2  C3  UNL     1     -34.799   5.799   3.820  1.00 20.00     0.127 C 
HETATM    3  C4  UNL     1     -34.148   4.463   4.080  1.00 20.00     0.091 C 
HETATM    4  O11 UNL     1     -36.018   5.887   3.674  1.00 20.00    -0.298 OA
ENDBRANCH   1   2
BRANCH   1   5
HETATM    5  C8  UNL     1     -32.891   6.885   2.532  1.00 20.00     0.045 C 
BRANCH   5   6
HETATM    6  C2  UNL     1     -32.119   8.155   2.226  1.00 20.00    -0.089 C 
HETATM    7  C1  UNL     1     -31.204   8.626   3.088  1.00 20.00     0.014 C 
BRANCH   6   8
HETATM    8  C7  UNL     1     -32.408   8.889   0.935  1.00 20.00     0.029 C 
HETATM    9  C5  UNL     1     -32.756  10.356   1.144  1.00 20.00     0.010 C 
ENDBRANCH   6   8
ENDBRANCH   5   6
ENDBRANCH   1   5
BRANCH   1  10
HETATM   10  C9  UNL     1     -33.154   7.245   5.058  1.00 20.00     0.008 C 
HETATM   11  C6  UNL     1     -34.060   7.259   6.284  1.00 20.00     0.006 C 
ENDBRANCH   1  10
TORSDOF 5
ENDMDL
MODEL 4
REMARK VINA RESULT:      -4.8      1.585      4.347
REMARK  5 active torsions:
REMARK  status: ('A' for Active; 'I' for Inactive)
REMARK    1  A    between atoms: C2_2  and  C7_7 
REMARK    2  A    between atoms: C2_2  and  C8_8 
REMARK    3  A    between atoms: C3_3  and  C10_10 
REMARK    4  A    between atoms: C8_8  and  C10_10 
REMARK    5  A    between atoms: C9_9  and  C10_10 
ROOT
HETATM    1  C10 UNL     1     -32.983   7.629   2.752  1.00 20.00     0.058 C 
ENDROOT
BRANCH   1   2
HETATM    2  C3  UNL     1     -32.176   7.973   4.004  1.00 20.00     0.127 C 
HETATM    3  C4  UNL     1     -32.904   7.897   5.323  1.00 20.00     0.091 C 
HETATM    4  O11 UNL     1     -30.997   8.322   3.954  1.00 20.00    -0.298 OA
ENDBRANCH   1   2
BRANCH   1   5
HETATM    5  C8  UNL     1     -33.249   6.114   2.634  1.00 20.00     0.045 C 
BRANCH   5   6
HETATM    6  C2  UNL     1     -34.426   5.623   3.457  1.00 20.00    -0.089 C 
HETATM    7  C1  UNL     1     -35.605   6.266   3.418  1.00 20.00     0.014 C 
BRANCH   6   8
HETATM    8  C7  UNL     1     -34.245   4.401   4.330  1.00 20.00     0.029 C 
HETATM    9  C5  UNL     1     -34.583   4.654   5.793  1.00 20.00     0.010 C 
ENDBRANCH   6   8
ENDBRANCH   5   6
ENDBRANCH   1   5
BRANCH   1  10
HETATM   10  C9  UNL     1     -32.296   8.209   1.502  1.00 20.00     0.008 C 
HETATM   11  C6  UNL     1     -32.609   9.672   1.209  1.00 20.00     0.006 C 
ENDBRANCH   1  10
TORSDOF 5
ENDMDL
MODEL 5
REMARK VINA RESULT:      -4.7      1.502      4.202
REMARK  5 active torsions:
REMARK  status: ('A' for Active; 'I' for Inactive)
REMARK    1  A    between atoms: C2_2  and  C7_7 
REMARK    2  A    between atoms: C2_2  and  C8_8 
REMARK    3  A    between atoms: C3_3  and  C10_10 
REMARK    4  A    between atoms: C8_8  and  C10_10 
REMARK    5  A    between atoms: C9_9  and  C10_10 
ROOT
HETATM    1  C10 UNL     1     -33.085   7.155   2.546  1.00 20.00     0.058 C 
ENDROOT
BRANCH   1   2
HETATM    2  C3  UNL     1     -31.981   8.206   2.433  1.00 20.00     0.127 C 
HETATM    3  C4  UNL     1     -31.926   8.999   1.151  1.00 20.00     0.091 C 
HETATM    4  O11 UNL     1     -31.152   8.392   3.324  1.00 20.00    -0.298 OA
ENDBRANCH   1   2
BRANCH   1   5
HETATM    5  C8  UNL     1     -34.218   7.607   3.490  1.00 20.00     0.045 C 
BRANCH   5   6
HETATM    6  C2  UNL     1     -34.258   6.867   4.814  1.00 20.00    -0.089 C 
HETATM    7  C1  UNL     1     -33.581   7.328   5.878  1.00 20.00     0.014 C 
BRANCH   6   8
HETATM    8  C7  UNL     1     -35.066   5.592   4.912  1.00 20.00     0.029 C 
HETATM    9  C5  UNL     1     -34.378   4.506   5.727  1.00 20.00     0.010 C 
ENDBRANCH   6   8
ENDBRANCH   5   6
ENDBRANCH   1   5
BRANCH   1  10
HETATM   10  C9  UNL     1     -32.484   5.796   2.949  1.00 20.00     0.008 C 
HETATM   11  C6  UNL     1     -33.025   4.594   2.184  1.00 20.00     0.006 C 
ENDBRANCH   1  10
TORSDOF 5
ENDMDL
MODEL 6
REMARK VINA RESULT:      -4.5     10.938     11.564
REMARK  5 active torsions:
REMARK  status: ('A' for Active; 'I' for Inactive)
REMARK    1  A    between atoms: C2_2  and  C7_7 
REMARK    2  A    between atoms: C2_2  and  C8_8 
REMARK    3  A    between atoms: C3_3  and  C10_10 
REMARK    4  A    between atoms: C8_8  and  C10_10 
REMARK    5  A    between atoms: C9_9  and  C10_10 
ROOT
HETATM    1  C10 UNL     1     -34.731  14.742  -3.902  1.00 20.00     0.058 C 
ENDROOT
BRANCH   1   2
HETATM    2  C3  UNL     1     -35.768  13.963  -4.711  1.00 20.00     0.127 C 
HETATM    3  C4  UNL     1     -37.122  14.607  -4.879  1.00 20.00     0.091 C 
HETATM    4  O11 UNL     1     -35.536  12.851  -5.185  1.00 20.00    -0.298 OA
ENDBRANCH   1   2
BRANCH   1   5
HETATM    5  C8  UNL     1     -35.144  16.214  -3.699  1.00 20.00     0.045 C 
BRANCH   5   6
HETATM    6  C2  UNL     1     -34.649  16.827  -2.401  1.00 20.00    -0.089 C 
HETATM    7  C1  UNL     1     -35.428  16.835  -1.307  1.00 20.00     0.014 C 
BRANCH   6   8
HETATM    8  C7  UNL     1     -33.267  17.439  -2.366  1.00 20.00     0.029 C 
HETATM    9  C5  UNL     1     -32.936  18.098  -1.034  1.00 20.00     0.010 C 
ENDBRANCH   6   8
ENDBRANCH   5   6
ENDBRANCH   1   5
BRANCH   1  10
HETATM   10  C9  UNL     1     -33.340  14.600  -4.547  1.00 20.00     0.008 C 
HETATM   11  C6  UNL     1     -33.015  15.631  -5.622  1.00 20.00     0.006 C 
ENDBRANCH   1  10
TORSDOF 5
ENDMDL
MODEL 7
REMARK VINA RESULT:      -4.3     11.020     11.986
REMARK  5 active torsions:
REMARK  status: ('A' for Active; 'I' for Inactive)
REMARK    1  A    between atoms: C2_2  and  C7_7 
REMARK    2  A    between atoms: C2_2  and  C8_8 
REMARK    3  A    between atoms: C3_3  and  C10_10 
REMARK    4  A    between atoms: C8_8  and  C10_10 
REMARK    5  A    between atoms: C9_9  and  C10_10 
ROOT
HETATM    1  C10 UNL     1     -35.459  15.051  -4.801  1.00 20.00     0.058 C 
ENDROOT
BRANCH   1   2
HETATM    2  C3  UNL     1     -35.378  13.744  -5.591  1.00 20.00     0.127 C 
HETATM    3  C4  UNL     1     -34.610  13.780  -6.888  1.00 20.00     0.091 C 
HETATM    4  O11 UNL     1     -35.929  12.710  -5.214  1.00 20.00    -0.298 OA
ENDBRANCH   1   2
BRANCH   1   5
HETATM    5  C8  UNL     1     -34.384  15.127  -3.698  1.00 20.00     0.045 C 
BRANCH   5   6
HETATM    6  C2  UNL     1     -33.923  16.535  -3.373  1.00 20.00    -0.089 C 
HETATM    7  C1  UNL     1     -33.525  17.368  -4.349  1.00 20.00     0.014 C 
BRANCH   6   8
HETATM    8  C7  UNL     1     -33.908  16.982  -1.928  1.00 20.00     0.029 C 
HETATM    9  C5  UNL     1     -35.282  16.943  -1.274  1.00 20.00     0.010 C 
ENDBRANCH   6   8
ENDBRANCH   5   6
ENDBRANCH   1   5
BRANCH   1  10
HETATM   10  C9  UNL     1     -36.885  15.253  -4.255  1.00 20.00     0.008 C 
HETATM   11  C6  UNL     1     -37.491  16.626  -4.516  1.00 20.00     0.006 C 
ENDBRANCH   1  10
TORSDOF 5
ENDMDL
MODEL 8
REMARK VINA RESULT:      -4.3     10.781     11.823
REMARK  5 active torsions:
REMARK  status: ('A' for Active; 'I' for Inactive)
REMARK    1  A    between atoms: C2_2  and  C7_7 
REMARK    2  A    between atoms: C2_2  and  C8_8 
REMARK    3  A    between atoms: C3_3  and  C10_10 
REMARK    4  A    between atoms: C8_8  and  C10_10 
REMARK    5  A    between atoms: C9_9  and  C10_10 
ROOT
HETATM    1  C10 UNL     1     -33.717  15.852  -3.760  1.00 20.00     0.058 C 
ENDROOT
BRANCH   1   2
HETATM    2  C3  UNL     1     -33.862  14.407  -4.239  1.00 20.00     0.127 C 
HETATM    3  C4  UNL     1     -35.250  13.952  -4.614  1.00 20.00     0.091 C 
HETATM    4  O11 UNL     1     -32.907  13.632  -4.298  1.00 20.00    -0.298 OA
ENDBRANCH   1   2
BRANCH   1   5
HETATM    5  C8  UNL     1     -34.899  16.286  -2.870  1.00 20.00     0.045 C 
BRANCH   5   6
HETATM    6  C2  UNL     1     -34.494  17.053  -1.625  1.00 20.00    -0.089 C 
HETATM    7  C1  UNL     1     -35.357  17.215  -0.609  1.00 20.00     0.014 C 
BRANCH   6   8
HETATM    8  C7  UNL     1     -33.103  17.643  -1.554  1.00 20.00     0.029 C 
HETATM    9  C5  UNL     1     -32.906  18.572  -0.364  1.00 20.00     0.010 C 
ENDBRANCH   6   8
ENDBRANCH   5   6
ENDBRANCH   1   5
BRANCH   1  10
HETATM   10  C9  UNL     1     -33.502  16.791  -4.961  1.00 20.00     0.008 C 
HETATM   11  C6  UNL     1     -34.686  17.686  -5.304  1.00 20.00     0.006 C 
ENDBRANCH   1  10
TORSDOF 5
ENDMDL
MODEL 9
REMARK VINA RESULT:      -4.1     11.080     12.049
REMARK  5 active torsions:
REMARK  status: ('A' for Active; 'I' for Inactive)
REMARK    1  A    between atoms: C2_2  and  C7_7 
REMARK    2  A    between atoms: C2_2  and  C8_8 
REMARK    3  A    between atoms: C3_3  and  C10_10 
REMARK    4  A    between atoms: C8_8  and  C10_10 
REMARK    5  A    between atoms: C9_9  and  C10_10 
ROOT
HETATM    1  C10 UNL     1     -34.773  15.661  -3.911  1.00 20.00     0.058 C 
ENDROOT
BRANCH   1   2
HETATM    2  C3  UNL     1     -35.036  16.482  -5.174  1.00 20.00     0.127 C 
HETATM    3  C4  UNL     1     -33.893  16.612  -6.150  1.00 20.00     0.091 C 
HETATM    4  O11 UNL     1     -36.113  17.038  -5.388  1.00 20.00    -0.298 OA
ENDBRANCH   1   2
BRANCH   1   5
HETATM    5  C8  UNL     1     -33.572  16.205  -3.110  1.00 20.00     0.045 C 
BRANCH   5   6
HETATM    6  C2  UNL     1     -33.955  17.054  -1.911  1.00 20.00    -0.089 C 
HETATM    7  C1  UNL     1     -33.064  17.886  -1.349  1.00 20.00     0.014 C 
BRANCH   6   8
HETATM    8  C7  UNL     1     -35.356  16.936  -1.354  1.00 20.00     0.029 C 
HETATM    9  C5  UNL     1     -35.486  17.477   0.063  1.00 20.00     0.010 C 
ENDBRANCH   6   8
ENDBRANCH   5   6
ENDBRANCH   1   5
BRANCH   1  10
HETATM   10  C9  UNL     1     -34.622  14.171  -4.268  1.00 20.00     0.008 C 
HETATM   11  C6  UNL     1     -35.797  13.563  -5.024  1.00 20.00     0.006 C 
ENDBRANCH   1  10
TORSDOF 5
ENDMDL
