MODEL 1
REMARK VINA RESULT:      -5.9      0.000      0.000
REMARK  5 active torsions:
REMARK  status: ('A' for Active; 'I' for Inactive)
REMARK    1  A    between atoms: C4_4  and  C7_7 
REMARK    2  A    between atoms: C4_4  and  C8_8 
REMARK    3  A    between atoms: C6_6  and  C9_9 
REMARK    4  A    between atoms: C8_8  and  N10_10 
REMARK    5  A    between atoms: C9_9  and  N10_10 
ROOT
HETATM    1  C1  UNL     1     -33.210   9.538  -0.664  1.00 20.00     0.012 C 
HETATM    2  C2  UNL     1     -32.803   9.503   0.465  1.00 20.00    -0.116 C 
HETATM    3  C6  UNL     1     -32.304   9.462   1.849  1.00 20.00     0.123 C 
ENDROOT
BRANCH   3   4
HETATM    4  C9  UNL     1     -31.782   8.081   2.228  1.00 20.00     0.282 C 
BRANCH   4   5
HETATM    5  N10 UNL     1     -32.185   7.727   3.581  1.00 20.00     0.088 N 
HETATM    6  H25 UNL     1     -32.280   8.575   4.137  1.00 20.00     0.316 HD
BRANCH   5   7
HETATM    7  C8  UNL     1     -33.460   7.016   3.575  1.00 20.00     0.302 C 
BRANCH   7   8
HETATM    8  C4  UNL     1     -33.952   6.680   4.963  1.00 20.00    -0.062 C 
HETATM    9  C3  UNL     1     -33.649   7.467   6.009  1.00 20.00     0.016 C 
BRANCH   8  10
HETATM   10  C7  UNL     1     -34.794   5.437   5.146  1.00 20.00     0.030 C 
HETATM   11  C5  UNL     1     -34.275   4.248   4.348  1.00 20.00     0.010 C 
ENDBRANCH   8  10
ENDBRANCH   7   8
ENDBRANCH   5   7
ENDBRANCH   4   5
ENDBRANCH   3   4
TORSDOF 5
ENDMDL
MODEL 2
REMARK VINA RESULT:      -5.7      0.915      1.910
REMARK  5 active torsions:
REMARK  status: ('A' for Active; 'I' for Inactive)
REMARK    1  A    between atoms: C4_4  and  C7_7 
REMARK    2  A    between atoms: C4_4  and  C8_8 
REMARK    3  A    between atoms: C6_6  and  C9_9 
REMARK    4  A    between atoms: C8_8  and  N10_10 
REMARK    5  A    between atoms: C9_9  and  N10_10 
ROOT
HETATM    1  C1  UNL     1     -33.128   9.508  -0.323  1.00 20.00     0.012 C 
HETATM    2  C2  UNL     1     -32.490   9.016   0.566  1.00 20.00    -0.116 C 
HETATM    3  C6  UNL     1     -31.704   8.413   1.654  1.00 20.00     0.123 C 
ENDROOT
BRANCH   3   4
HETATM    4  C9  UNL     1     -32.581   8.002   2.832  1.00 20.00     0.282 C 
BRANCH   4   5
HETATM    5  N10 UNL     1     -32.861   6.573   2.796  1.00 20.00     0.088 N 
HETATM    6  H25 UNL     1     -32.224   6.089   3.425  1.00 20.00     0.316 HD
BRANCH   5   7
HETATM    7  C8  UNL     1     -34.235   6.303   3.210  1.00 20.00     0.302 C 
BRANCH   7   8
HETATM    8  C4  UNL     1     -34.318   5.396   4.415  1.00 20.00    -0.062 C 
HETATM    9  C3  UNL     1     -34.180   4.066   4.285  1.00 20.00     0.016 C 
BRANCH   8  10
HETATM   10  C7  UNL     1     -34.557   6.022   5.770  1.00 20.00     0.030 C 
HETATM   11  C5  UNL     1     -33.704   7.261   6.009  1.00 20.00     0.010 C 
ENDBRANCH   8  10
ENDBRANCH   7   8
ENDBRANCH   5   7
ENDBRANCH   4   5
ENDBRANCH   3   4
TORSDOF 5
ENDMDL
MODEL 3
REMARK VINA RESULT:      -5.6      1.169      5.045
REMARK  5 active torsions:
REMARK  status: ('A' for Active; 'I' for Inactive)
REMARK    1  A    between atoms: C4_4  and  C7_7 
REMARK    2  A    between atoms: C4_4  and  C8_8 
REMARK    3  A    between atoms: C6_6  and  C9_9 
REMARK    4  A    between atoms: C8_8  and  N10_10 
REMARK    5  A    between atoms: C9_9  and  N10_10 
ROOT
HETATM    1  C1  UNL     1     -33.718   7.516   6.202  1.00 20.00     0.012 C 
HETATM    2  C2  UNL     1     -34.112   6.529   5.644  1.00 20.00    -0.116 C 
HETATM    3  C6  UNL     1     -34.594   5.317   4.962  1.00 20.00     0.123 C 
ENDROOT
BRANCH   3   4
HETATM    4  C9  UNL     1     -34.456   5.421   3.447  1.00 20.00     0.282 C 
BRANCH   4   5
HETATM    5  N10 UNL     1     -33.179   6.016   3.082  1.00 20.00     0.088 N 
HETATM    6  H25 UNL     1     -32.634   5.342   2.547  1.00 20.00     0.316 HD
BRANCH   5   7
HETATM    7  C8  UNL     1     -33.377   7.216   2.274  1.00 20.00     0.302 C 
BRANCH   7   8
HETATM    8  C4  UNL     1     -32.189   8.149   2.308  1.00 20.00    -0.062 C 
HETATM    9  C3  UNL     1     -31.434   8.260   3.414  1.00 20.00     0.016 C 
BRANCH   8  10
HETATM   10  C7  UNL     1     -31.869   8.951   1.067  1.00 20.00     0.030 C 
HETATM   11  C5  UNL     1     -32.675  10.240   0.972  1.00 20.00     0.010 C 
ENDBRANCH   8  10
ENDBRANCH   7   8
ENDBRANCH   5   7
ENDBRANCH   4   5
ENDBRANCH   3   4
TORSDOF 5
ENDMDL
MODEL 4
REMARK VINA RESULT:      -5.6      0.897      1.631
REMARK  5 active torsions:
REMARK  status: ('A' for Active; 'I' for Inactive)
REMARK    1  A    between atoms: C4_4  and  C7_7 
REMARK    2  A    between atoms: C4_4  and  C8_8 
REMARK    3  A    between atoms: C6_6  and  C9_9 
REMARK    4  A    between atoms: C8_8  and  N10_10 
REMARK    5  A    between atoms: C9_9  and  N10_10 
ROOT
HETATM    1  C1  UNL     1     -33.103   9.488  -0.699  1.00 20.00     0.012 C 
HETATM    2  C2  UNL     1     -32.779   9.503   0.456  1.00 20.00    -0.116 C 
HETATM    3  C6  UNL     1     -32.383   9.525   1.874  1.00 20.00     0.123 C 
ENDROOT
BRANCH   3   4
HETATM    4  C9  UNL     1     -31.614   8.270   2.272  1.00 20.00     0.282 C 
BRANCH   4   5
HETATM    5  N10 UNL     1     -32.154   7.697   3.496  1.00 20.00     0.088 N 
HETATM    6  H25 UNL     1     -32.080   8.379   4.249  1.00 20.00     0.316 HD
BRANCH   5   7
HETATM    7  C8  UNL     1     -33.557   7.330   3.323  1.00 20.00     0.302 C 
BRANCH   7   8
HETATM    8  C4  UNL     1     -33.786   5.839   3.391  1.00 20.00    -0.062 C 
HETATM    9  C3  UNL     1     -33.104   5.002   2.591  1.00 20.00     0.016 C 
BRANCH   8  10
HETATM   10  C7  UNL     1     -34.800   5.311   4.381  1.00 20.00     0.030 C 
HETATM   11  C5  UNL     1     -34.520   5.759   5.809  1.00 20.00     0.010 C 
ENDBRANCH   8  10
ENDBRANCH   7   8
ENDBRANCH   5   7
ENDBRANCH   4   5
ENDBRANCH   3   4
TORSDOF 5
ENDMDL
MODEL 5
REMARK VINA RESULT:      -5.5      1.012      1.374
REMARK  5 active torsions:
REMARK  status: ('A' for Active; 'I' for Inactive)
REMARK    1  A    between atoms: C4_4  and  C7_7 
REMARK    2  A    between atoms: C4_4  and  C8_8 
REMARK    3  A    between atoms: C6_6  and  C9_9 
REMARK    4  A    between atoms: C8_8  and  N10_10 
REMARK    5  A    between atoms: C9_9  and  N10_10 
ROOT
HETATM    1  C1  UNL     1     -32.518  10.309   0.686  1.00 20.00     0.012 C 
HETATM    2  C2  UNL     1     -32.362   9.304   1.322  1.00 20.00    -0.116 C 
HETATM    3  C6  UNL     1     -32.172   8.069   2.100  1.00 20.00     0.123 C 
ENDROOT
BRANCH   3   4
HETATM    4  C9  UNL     1     -31.586   8.347   3.480  1.00 20.00     0.282 C 
BRANCH   4   5
HETATM    5  N10 UNL     1     -32.403   7.743   4.522  1.00 20.00     0.088 N 
HETATM    6  H25 UNL     1     -32.608   8.439   5.236  1.00 20.00     0.316 HD
BRANCH   5   7
HETATM    7  C8  UNL     1     -33.660   7.242   3.973  1.00 20.00     0.302 C 
BRANCH   7   8
HETATM    8  C4  UNL     1     -34.153   5.998   4.673  1.00 20.00    -0.062 C 
HETATM    9  C3  UNL     1     -34.608   6.055   5.936  1.00 20.00     0.016 C 
BRANCH   8  10
HETATM   10  C7  UNL     1     -34.122   4.688   3.919  1.00 20.00     0.030 C 
HETATM   11  C5  UNL     1     -33.254   4.745   2.669  1.00 20.00     0.010 C 
ENDBRANCH   8  10
ENDBRANCH   7   8
ENDBRANCH   5   7
ENDBRANCH   4   5
ENDBRANCH   3   4
TORSDOF 5
ENDMDL
MODEL 6
REMARK VINA RESULT:      -5.2      0.899      5.244
REMARK  5 active torsions:
REMARK  status: ('A' for Active; 'I' for Inactive)
REMARK    1  A    between atoms: C4_4  and  C7_7 
REMARK    2  A    between atoms: C4_4  and  C8_8 
REMARK    3  A    between atoms: C6_6  and  C9_9 
REMARK    4  A    between atoms: C8_8  and  N10_10 
REMARK    5  A    between atoms: C9_9  and  N10_10 
ROOT
HETATM    1  C1  UNL     1     -34.736   4.976   5.609  1.00 20.00     0.012 C 
HETATM    2  C2  UNL     1     -34.274   5.992   5.170  1.00 20.00    -0.116 C 
HETATM    3  C6  UNL     1     -33.706   7.240   4.633  1.00 20.00     0.123 C 
ENDROOT
BRANCH   3   4
HETATM    4  C9  UNL     1     -33.545   7.190   3.118  1.00 20.00     0.282 C 
BRANCH   4   5
HETATM    5  N10 UNL     1     -32.146   7.335   2.740  1.00 20.00     0.088 N 
HETATM    6  H25 UNL     1     -32.013   6.978   1.796  1.00 20.00     0.316 HD
BRANCH   5   7
HETATM    7  C8  UNL     1     -31.740   8.737   2.780  1.00 20.00     0.302 C 
BRANCH   7   8
HETATM    8  C4  UNL     1     -32.235   9.526   1.591  1.00 20.00    -0.062 C 
HETATM    9  C3  UNL     1     -32.801  10.733   1.754  1.00 20.00     0.016 C 
BRANCH   8  10
HETATM   10  C7  UNL     1     -32.075   8.924   0.213  1.00 20.00     0.030 C 
HETATM   11  C5  UNL     1     -33.170   9.358  -0.753  1.00 20.00     0.010 C 
ENDBRANCH   8  10
ENDBRANCH   7   8
ENDBRANCH   5   7
ENDBRANCH   4   5
ENDBRANCH   3   4
TORSDOF 5
ENDMDL
MODEL 7
REMARK VINA RESULT:      -5.0      1.101      5.157
REMARK  5 active torsions:
REMARK  status: ('A' for Active; 'I' for Inactive)
REMARK    1  A    between atoms: C4_4  and  C7_7 
REMARK    2  A    between atoms: C4_4  and  C8_8 
REMARK    3  A    between atoms: C6_6  and  C9_9 
REMARK    4  A    between atoms: C8_8  and  N10_10 
REMARK    5  A    between atoms: C9_9  and  N10_10 
ROOT
HETATM    1  C1  UNL     1     -34.388   3.881   4.452  1.00 20.00     0.012 C 
HETATM    2  C2  UNL     1     -34.390   4.903   5.082  1.00 20.00    -0.116 C 
HETATM    3  C6  UNL     1     -34.395   6.154   5.857  1.00 20.00     0.123 C 
ENDROOT
BRANCH   3   4
HETATM    4  C9  UNL     1     -33.642   7.271   5.143  1.00 20.00     0.282 C 
BRANCH   4   5
HETATM    5  N10 UNL     1     -34.075   7.385   3.757  1.00 20.00     0.088 N 
HETATM    6  H25 UNL     1     -34.355   8.347   3.570  1.00 20.00     0.316 HD
BRANCH   5   7
HETATM    7  C8  UNL     1     -32.997   7.017   2.844  1.00 20.00     0.302 C 
BRANCH   7   8
HETATM    8  C4  UNL     1     -32.221   8.211   2.340  1.00 20.00    -0.062 C 
HETATM    9  C3  UNL     1     -31.149   8.666   3.009  1.00 20.00     0.016 C 
BRANCH   8  10
HETATM   10  C7  UNL     1     -32.680   8.881   1.064  1.00 20.00     0.030 C 
HETATM   11  C5  UNL     1     -32.605  10.400   1.133  1.00 20.00     0.010 C 
ENDBRANCH   8  10
ENDBRANCH   7   8
ENDBRANCH   5   7
ENDBRANCH   4   5
ENDBRANCH   3   4
TORSDOF 5
ENDMDL
MODEL 8
REMARK VINA RESULT:      -5.0      1.114      5.132
REMARK  5 active torsions:
REMARK  status: ('A' for Active; 'I' for Inactive)
REMARK    1  A    between atoms: C4_4  and  C7_7 
REMARK    2  A    between atoms: C4_4  and  C8_8 
REMARK    3  A    between atoms: C6_6  and  C9_9 
REMARK    4  A    between atoms: C8_8  and  N10_10 
REMARK    5  A    between atoms: C9_9  and  N10_10 
ROOT
HETATM    1  C1  UNL     1     -34.132   3.880   4.232  1.00 20.00     0.012 C 
HETATM    2  C2  UNL     1     -34.421   4.732   5.026  1.00 20.00    -0.116 C 
HETATM    3  C6  UNL     1     -34.779   5.774   6.002  1.00 20.00     0.123 C 
ENDROOT
BRANCH   3   4
HETATM    4  C9  UNL     1     -33.831   6.967   5.937  1.00 20.00     0.282 C 
BRANCH   4   5
HETATM    5  N10 UNL     1     -33.878   7.596   4.625  1.00 20.00     0.088 N 
HETATM    6  H25 UNL     1     -34.341   8.500   4.701  1.00 20.00     0.316 HD
BRANCH   5   7
HETATM    7  C8  UNL     1     -32.532   7.794   4.095  1.00 20.00     0.302 C 
BRANCH   7   8
HETATM    8  C4  UNL     1     -32.451   7.574   2.603  1.00 20.00    -0.062 C 
HETATM    9  C3  UNL     1     -33.063   6.525   2.028  1.00 20.00     0.016 C 
BRANCH   8  10
HETATM   10  C7  UNL     1     -31.666   8.564   1.772  1.00 20.00     0.030 C 
HETATM   11  C5  UNL     1     -32.554   9.429   0.887  1.00 20.00     0.010 C 
ENDBRANCH   8  10
ENDBRANCH   7   8
ENDBRANCH   5   7
ENDBRANCH   4   5
ENDBRANCH   3   4
TORSDOF 5
ENDMDL
MODEL 9
REMARK VINA RESULT:      -4.9      0.991      5.199
REMARK  5 active torsions:
REMARK  status: ('A' for Active; 'I' for Inactive)
REMARK    1  A    between atoms: C4_4  and  C7_7 
REMARK    2  A    between atoms: C4_4  and  C8_8 
REMARK    3  A    between atoms: C6_6  and  C9_9 
REMARK    4  A    between atoms: C8_8  and  N10_10 
REMARK    5  A    between atoms: C9_9  and  N10_10 
ROOT
HETATM    1  C1  UNL     1     -33.859   7.224   6.114  1.00 20.00     0.012 C 
HETATM    2  C2  UNL     1     -34.071   6.634   5.090  1.00 20.00    -0.116 C 
HETATM    3  C6  UNL     1     -34.331   5.909   3.837  1.00 20.00     0.123 C 
ENDROOT
BRANCH   3   4
HETATM    4  C9  UNL     1     -33.709   6.607   2.632  1.00 20.00     0.282 C 
BRANCH   4   5
HETATM    5  N10 UNL     1     -32.301   6.890   2.867  1.00 20.00     0.088 N 
HETATM    6  H25 UNL     1     -31.740   6.432   2.151  1.00 20.00     0.316 HD
BRANCH   5   7
HETATM    7  C8  UNL     1     -32.045   8.327   2.825  1.00 20.00     0.302 C 
BRANCH   7   8
HETATM    8  C4  UNL     1     -31.979   8.870   1.417  1.00 20.00    -0.062 C 
HETATM    9  C3  UNL     1     -31.097   8.377   0.531  1.00 20.00     0.016 C 
BRANCH   8  10
HETATM   10  C7  UNL     1     -32.931   9.979   1.028  1.00 20.00     0.030 C 
HETATM   11  C5  UNL     1     -33.376   9.894  -0.426  1.00 20.00     0.010 C 
ENDBRANCH   8  10
ENDBRANCH   7   8
ENDBRANCH   5   7
ENDBRANCH   4   5
ENDBRANCH   3   4
TORSDOF 5
ENDMDL
