MODEL 1
REMARK VINA RESULT:      -6.1      0.000      0.000
REMARK  5 active torsions:
REMARK  status: ('A' for Active; 'I' for Inactive)
REMARK    1  A    between atoms: C2_2  and  C5_5 
REMARK    2  A    between atoms: C2_2  and  C6_6 
REMARK    3  A    between atoms: C6_6  and  C7_7 
REMARK    4  A    between atoms: C7_7  and  C9_9 
REMARK    5  A    between atoms: C8_8  and  C9_9 
ROOT
HETATM    1  C6  UNL     1     -34.424   6.320   3.276  1.00 20.00     0.033 C 
ENDROOT
BRANCH   1   2
HETATM    2  C2  UNL     1     -34.409   5.373   4.463  1.00 20.00    -0.090 C 
HETATM    3  C1  UNL     1     -34.247   4.042   4.376  1.00 20.00     0.014 C 
BRANCH   2   4
HETATM    4  C5  UNL     1     -34.622   6.018   5.818  1.00 20.00     0.029 C 
HETATM    5  C3  UNL     1     -33.765   7.259   6.022  1.00 20.00     0.010 C 
ENDBRANCH   2   4
ENDBRANCH   1   2
BRANCH   1   6
HETATM    6  C7  UNL     1     -33.081   6.579   2.574  1.00 20.00     0.009 C 
BRANCH   6   7
HETATM    7  C9  UNL     1     -32.631   8.055   2.647  1.00 20.00    -0.004 C 
HETATM    8  C4  UNL     1     -31.390   8.243   3.525  1.00 20.00     0.011 C 
BRANCH   7   9
HETATM    9  C8  UNL     1     -32.424   8.654   1.245  1.00 20.00     0.119 C 
HETATM   10 CL10 UNL     1     -32.891  10.367   1.122  1.00 20.00    -0.130 Cl
ENDBRANCH   7   9
ENDBRANCH   6   7
ENDBRANCH   1   6
TORSDOF 5
ENDMDL
MODEL 2
REMARK VINA RESULT:      -6.1      0.516      1.734
REMARK  5 active torsions:
REMARK  status: ('A' for Active; 'I' for Inactive)
REMARK    1  A    between atoms: C2_2  and  C5_5 
REMARK    2  A    between atoms: C2_2  and  C6_6 
REMARK    3  A    between atoms: C6_6  and  C7_7 
REMARK    4  A    between atoms: C7_7  and  C9_9 
REMARK    5  A    between atoms: C8_8  and  C9_9 
ROOT
HETATM    1  C6  UNL     1     -34.367   6.665   3.579  1.00 20.00     0.033 C 
ENDROOT
BRANCH   1   2
HETATM    2  C2  UNL     1     -34.206   6.411   5.067  1.00 20.00    -0.090 C 
HETATM    3  C1  UNL     1     -33.759   7.317   5.953  1.00 20.00     0.014 C 
BRANCH   2   4
HETATM    4  C5  UNL     1     -34.561   5.013   5.534  1.00 20.00     0.029 C 
HETATM    5  C3  UNL     1     -34.282   3.950   4.481  1.00 20.00     0.010 C 
ENDBRANCH   2   4
ENDBRANCH   1   2
BRANCH   1   6
HETATM    6  C7  UNL     1     -33.077   6.783   2.749  1.00 20.00     0.009 C 
BRANCH   6   7
HETATM    7  C9  UNL     1     -32.510   8.220   2.708  1.00 20.00    -0.004 C 
HETATM    8  C4  UNL     1     -31.231   8.365   3.539  1.00 20.00     0.011 C 
BRANCH   7   9
HETATM    9  C8  UNL     1     -32.299   8.704   1.263  1.00 20.00     0.119 C 
HETATM   10 CL10 UNL     1     -32.685  10.425   1.021  1.00 20.00    -0.130 Cl
ENDBRANCH   7   9
ENDBRANCH   6   7
ENDBRANCH   1   6
TORSDOF 5
ENDMDL
MODEL 3
REMARK VINA RESULT:      -5.9      1.942      4.623
REMARK  5 active torsions:
REMARK  status: ('A' for Active; 'I' for Inactive)
REMARK    1  A    between atoms: C2_2  and  C5_5 
REMARK    2  A    between atoms: C2_2  and  C6_6 
REMARK    3  A    between atoms: C6_6  and  C7_7 
REMARK    4  A    between atoms: C7_7  and  C9_9 
REMARK    5  A    between atoms: C8_8  and  C9_9 
ROOT
HETATM    1  C6  UNL     1     -33.020   6.431   2.850  1.00 20.00     0.033 C 
ENDROOT
BRANCH   1   2
HETATM    2  C2  UNL     1     -32.266   7.730   2.626  1.00 20.00    -0.090 C 
HETATM    3  C1  UNL     1     -31.463   8.313   3.532  1.00 20.00     0.014 C 
BRANCH   2   4
HETATM    4  C5  UNL     1     -32.489   8.393   1.282  1.00 20.00     0.029 C 
HETATM    5  C3  UNL     1     -32.520   9.912   1.370  1.00 20.00     0.010 C 
ENDBRANCH   2   4
ENDBRANCH   1   2
BRANCH   1   6
HETATM    6  C7  UNL     1     -34.434   6.540   3.444  1.00 20.00     0.009 C 
BRANCH   6   7
HETATM    7  C9  UNL     1     -34.777   5.385   4.412  1.00 20.00    -0.004 C 
HETATM    8  C4  UNL     1     -34.061   4.083   4.041  1.00 20.00     0.011 C 
BRANCH   7   9
HETATM    9  C8  UNL     1     -34.510   5.776   5.876  1.00 20.00     0.119 C 
HETATM   10 CL10 UNL     1     -33.815   7.404   6.067  1.00 20.00    -0.130 Cl
ENDBRANCH   7   9
ENDBRANCH   6   7
ENDBRANCH   1   6
TORSDOF 5
ENDMDL
MODEL 4
REMARK VINA RESULT:      -5.6      1.159      2.295
REMARK  5 active torsions:
REMARK  status: ('A' for Active; 'I' for Inactive)
REMARK    1  A    between atoms: C2_2  and  C5_5 
REMARK    2  A    between atoms: C2_2  and  C6_6 
REMARK    3  A    between atoms: C6_6  and  C7_7 
REMARK    4  A    between atoms: C7_7  and  C9_9 
REMARK    5  A    between atoms: C8_8  and  C9_9 
ROOT
HETATM    1  C6  UNL     1     -32.585   7.532   3.763  1.00 20.00     0.033 C 
ENDROOT
BRANCH   1   2
HETATM    2  C2  UNL     1     -33.694   6.981   4.641  1.00 20.00    -0.090 C 
HETATM    3  C1  UNL     1     -33.849   7.266   5.945  1.00 20.00     0.014 C 
BRANCH   2   4
HETATM    4  C5  UNL     1     -34.653   6.024   3.961  1.00 20.00     0.029 C 
HETATM    5  C3  UNL     1     -34.552   4.605   4.500  1.00 20.00     0.010 C 
ENDBRANCH   2   4
ENDBRANCH   1   2
BRANCH   1   6
HETATM    6  C7  UNL     1     -32.942   7.835   2.298  1.00 20.00     0.009 C 
BRANCH   6   7
HETATM    7  C9  UNL     1     -32.135   9.012   1.706  1.00 20.00    -0.004 C 
HETATM    8  C4  UNL     1     -31.088   8.547   0.690  1.00 20.00     0.011 C 
BRANCH   7   9
HETATM    9  C8  UNL     1     -33.058  10.089   1.110  1.00 20.00     0.119 C 
HETATM   10 CL10 UNL     1     -33.448   9.826  -0.607  1.00 20.00    -0.130 Cl
ENDBRANCH   7   9
ENDBRANCH   6   7
ENDBRANCH   1   6
TORSDOF 5
ENDMDL
MODEL 5
REMARK VINA RESULT:      -5.4      2.478      5.255
REMARK  5 active torsions:
REMARK  status: ('A' for Active; 'I' for Inactive)
REMARK    1  A    between atoms: C2_2  and  C5_5 
REMARK    2  A    between atoms: C2_2  and  C6_6 
REMARK    3  A    between atoms: C6_6  and  C7_7 
REMARK    4  A    between atoms: C7_7  and  C9_9 
REMARK    5  A    between atoms: C8_8  and  C9_9 
ROOT
HETATM    1  C6  UNL     1     -31.813   8.743   2.833  1.00 20.00     0.033 C 
ENDROOT
BRANCH   1   2
HETATM    2  C2  UNL     1     -32.243   9.562   1.628  1.00 20.00    -0.090 C 
HETATM    3  C1  UNL     1     -32.764  10.799   1.692  1.00 20.00     0.014 C 
BRANCH   2   4
HETATM    4  C5  UNL     1     -32.079   8.883   0.283  1.00 20.00     0.029 C 
HETATM    5  C3  UNL     1     -33.149   9.291  -0.718  1.00 20.00     0.010 C 
ENDBRANCH   2   4
ENDBRANCH   1   2
BRANCH   1   6
HETATM    6  C7  UNL     1     -32.307   7.288   2.898  1.00 20.00     0.009 C 
BRANCH   6   7
HETATM    7  C9  UNL     1     -33.689   7.145   3.575  1.00 20.00    -0.004 C 
HETATM    8  C4  UNL     1     -34.418   5.868   3.146  1.00 20.00     0.011 C 
BRANCH   7   9
HETATM    9  C8  UNL     1     -33.581   7.243   5.107  1.00 20.00     0.119 C 
HETATM   10 CL10 UNL     1     -34.417   5.928   5.968  1.00 20.00    -0.130 Cl
ENDBRANCH   7   9
ENDBRANCH   6   7
ENDBRANCH   1   6
TORSDOF 5
ENDMDL
MODEL 6
REMARK VINA RESULT:      -5.3      2.505      4.862
REMARK  5 active torsions:
REMARK  status: ('A' for Active; 'I' for Inactive)
REMARK    1  A    between atoms: C2_2  and  C5_5 
REMARK    2  A    between atoms: C2_2  and  C6_6 
REMARK    3  A    between atoms: C6_6  and  C7_7 
REMARK    4  A    between atoms: C7_7  and  C9_9 
REMARK    5  A    between atoms: C8_8  and  C9_9 
ROOT
HETATM    1  C6  UNL     1     -33.183   6.872   2.646  1.00 20.00     0.033 C 
ENDROOT
BRANCH   1   2
HETATM    2  C2  UNL     1     -32.294   8.103   2.628  1.00 20.00    -0.090 C 
HETATM    3  C1  UNL     1     -31.282   8.327   3.483  1.00 20.00     0.014 C 
BRANCH   2   4
HETATM    4  C5  UNL     1     -32.629   9.136   1.571  1.00 20.00     0.029 C 
HETATM    5  C3  UNL     1     -31.706   9.066   0.363  1.00 20.00     0.010 C 
ENDBRANCH   2   4
ENDBRANCH   1   2
BRANCH   1   6
HETATM    6  C7  UNL     1     -34.296   6.833   3.707  1.00 20.00     0.009 C 
BRANCH   6   7
HETATM    7  C9  UNL     1     -33.802   6.353   5.090  1.00 20.00    -0.004 C 
HETATM    8  C4  UNL     1     -33.933   7.437   6.164  1.00 20.00     0.011 C 
BRANCH   7   9
HETATM    9  C8  UNL     1     -34.499   5.050   5.519  1.00 20.00     0.119 C 
HETATM   10 CL10 UNL     1     -34.262   3.702   4.380  1.00 20.00    -0.130 Cl
ENDBRANCH   7   9
ENDBRANCH   6   7
ENDBRANCH   1   6
TORSDOF 5
ENDMDL
MODEL 7
REMARK VINA RESULT:      -5.2      2.657      5.284
REMARK  5 active torsions:
REMARK  status: ('A' for Active; 'I' for Inactive)
REMARK    1  A    between atoms: C2_2  and  C5_5 
REMARK    2  A    between atoms: C2_2  and  C6_6 
REMARK    3  A    between atoms: C6_6  and  C7_7 
REMARK    4  A    between atoms: C7_7  and  C9_9 
REMARK    5  A    between atoms: C8_8  and  C9_9 
ROOT
HETATM    1  C6  UNL     1     -32.108   8.446   2.679  1.00 20.00     0.033 C 
ENDROOT
BRANCH   1   2
HETATM    2  C2  UNL     1     -32.291   9.501   1.602  1.00 20.00    -0.090 C 
HETATM    3  C1  UNL     1     -32.671  10.769   1.832  1.00 20.00     0.014 C 
BRANCH   2   4
HETATM    4  C5  UNL     1     -32.044   9.035   0.181  1.00 20.00     0.029 C 
HETATM    5  C3  UNL     1     -33.191   9.374  -0.760  1.00 20.00     0.010 C 
ENDBRANCH   2   4
ENDBRANCH   1   2
BRANCH   1   6
HETATM    6  C7  UNL     1     -33.041   7.224   2.623  1.00 20.00     0.009 C 
BRANCH   6   7
HETATM    7  C9  UNL     1     -33.281   6.580   4.006  1.00 20.00    -0.004 C 
HETATM    8  C4  UNL     1     -33.360   7.620   5.128  1.00 20.00     0.011 C 
BRANCH   7   9
HETATM    9  C8  UNL     1     -34.520   5.667   3.998  1.00 20.00     0.119 C 
HETATM   10 CL10 UNL     1     -34.756   4.768   5.516  1.00 20.00    -0.130 Cl
ENDBRANCH   7   9
ENDBRANCH   6   7
ENDBRANCH   1   6
TORSDOF 5
ENDMDL
MODEL 8
REMARK VINA RESULT:      -5.1      1.177      1.864
REMARK  5 active torsions:
REMARK  status: ('A' for Active; 'I' for Inactive)
REMARK    1  A    between atoms: C2_2  and  C5_5 
REMARK    2  A    between atoms: C2_2  and  C6_6 
REMARK    3  A    between atoms: C6_6  and  C7_7 
REMARK    4  A    between atoms: C7_7  and  C9_9 
REMARK    5  A    between atoms: C8_8  and  C9_9 
ROOT
HETATM    1  C6  UNL     1     -33.565   7.260   2.440  1.00 20.00     0.033 C 
ENDROOT
BRANCH   1   2
HETATM    2  C2  UNL     1     -33.767   5.885   3.051  1.00 20.00    -0.090 C 
HETATM    3  C1  UNL     1     -33.029   4.802   2.754  1.00 20.00     0.014 C 
BRANCH   2   4
HETATM    4  C5  UNL     1     -34.911   5.768   4.038  1.00 20.00     0.029 C 
HETATM    5  C3  UNL     1     -34.454   5.863   5.486  1.00 20.00     0.010 C 
ENDBRANCH   2   4
ENDBRANCH   1   2
BRANCH   1   6
HETATM    6  C7  UNL     1     -32.274   8.006   2.815  1.00 20.00     0.009 C 
BRANCH   6   7
HETATM    7  C9  UNL     1     -31.842   9.045   1.755  1.00 20.00    -0.004 C 
HETATM    8  C4  UNL     1     -31.100   8.403   0.579  1.00 20.00     0.011 C 
BRANCH   7   9
HETATM    9  C8  UNL     1     -33.035   9.890   1.273  1.00 20.00     0.119 C 
HETATM   10 CL10 UNL     1     -33.400   9.690  -0.458  1.00 20.00    -0.130 Cl
ENDBRANCH   7   9
ENDBRANCH   6   7
ENDBRANCH   1   6
TORSDOF 5
ENDMDL
MODEL 9
REMARK VINA RESULT:      -5.1      2.317      4.830
REMARK  5 active torsions:
REMARK  status: ('A' for Active; 'I' for Inactive)
REMARK    1  A    between atoms: C2_2  and  C5_5 
REMARK    2  A    between atoms: C2_2  and  C6_6 
REMARK    3  A    between atoms: C6_6  and  C7_7 
REMARK    4  A    between atoms: C7_7  and  C9_9 
REMARK    5  A    between atoms: C8_8  and  C9_9 
ROOT
HETATM    1  C6  UNL     1     -32.123   7.747   2.690  1.00 20.00     0.033 C 
ENDROOT
BRANCH   1   2
HETATM    2  C2  UNL     1     -32.079   8.626   1.453  1.00 20.00    -0.090 C 
HETATM    3  C1  UNL     1     -31.169   8.516   0.471  1.00 20.00     0.014 C 
BRANCH   2   4
HETATM    4  C5  UNL     1     -33.140   9.706   1.380  1.00 20.00     0.029 C 
HETATM    5  C3  UNL     1     -32.587  11.096   1.660  1.00 20.00     0.010 C 
ENDBRANCH   2   4
ENDBRANCH   1   2
BRANCH   1   6
HETATM    6  C7  UNL     1     -33.486   7.590   3.386  1.00 20.00     0.009 C 
BRANCH   6   7
HETATM    7  C9  UNL     1     -34.081   6.171   3.245  1.00 20.00    -0.004 C 
HETATM    8  C4  UNL     1     -33.068   5.168   2.685  1.00 20.00     0.011 C 
BRANCH   7   9
HETATM    9  C8  UNL     1     -34.687   5.677   4.570  1.00 20.00     0.119 C 
HETATM   10 CL10 UNL     1     -34.171   6.621   5.989  1.00 20.00    -0.130 Cl
ENDBRANCH   7   9
ENDBRANCH   6   7
ENDBRANCH   1   6
TORSDOF 5
ENDMDL
