MODEL 1
REMARK VINA RESULT:      -5.2      0.000      0.000
REMARK  4 active torsions:
REMARK  status: ('A' for Active; 'I' for Inactive)
REMARK    1  A    between atoms: C4_4  and  C5_5 
REMARK    2  A    between atoms: C5_5  and  C8_8 
REMARK    3  A    between atoms: C6_6  and  C8_8 
REMARK    4  A    between atoms: C7_7  and  C8_8 
ROOT
HETATM    1  C8  UNL     1     -33.628   7.092   3.601  1.00 20.00     0.003 C 
ENDROOT
BRANCH   1   2
HETATM    2  C5  UNL     1     -32.271   7.756   3.244  1.00 20.00     0.005 C 
BRANCH   2   3
HETATM    3  C4  UNL     1     -32.077   8.172   1.782  1.00 20.00    -0.004 C 
HETATM    4  C1  UNL     1     -32.436   9.626   1.510  1.00 20.00     0.005 C 
ENDBRANCH   2   3
ENDBRANCH   1   2
BRANCH   1   5
HETATM    5  C6  UNL     1     -33.996   6.028   2.542  1.00 20.00     0.119 C 
HETATM    6 CL9  UNL     1     -32.843   4.666   2.520  1.00 20.00    -0.130 Cl
ENDBRANCH   1   5
BRANCH   1   7
HETATM    7  C7  UNL     1     -33.657   6.503   5.045  1.00 20.00    -0.018 C 
HETATM    8  C2  UNL     1     -34.806   5.506   5.238  1.00 20.00     0.010 C 
HETATM    9  C3  UNL     1     -33.711   7.567   6.145  1.00 20.00     0.010 C 
ENDBRANCH   1   7
TORSDOF 4
ENDMDL
MODEL 2
REMARK VINA RESULT:      -4.9      1.876      2.604
REMARK  4 active torsions:
REMARK  status: ('A' for Active; 'I' for Inactive)
REMARK    1  A    between atoms: C4_4  and  C5_5 
REMARK    2  A    between atoms: C5_5  and  C8_8 
REMARK    3  A    between atoms: C6_6  and  C8_8 
REMARK    4  A    between atoms: C7_7  and  C8_8 
ROOT
HETATM    1  C8  UNL     1     -32.716   7.180   3.588  1.00 20.00     0.003 C 
ENDROOT
BRANCH   1   2
HETATM    2  C5  UNL     1     -31.903   8.159   2.700  1.00 20.00     0.005 C 
BRANCH   2   3
HETATM    3  C4  UNL     1     -32.557   8.591   1.383  1.00 20.00    -0.004 C 
HETATM    4  C1  UNL     1     -32.588  10.099   1.185  1.00 20.00     0.005 C 
ENDBRANCH   2   3
ENDBRANCH   1   2
BRANCH   1   5
HETATM    5  C6  UNL     1     -33.562   7.967   4.614  1.00 20.00     0.119 C 
HETATM    6 CL9  UNL     1     -33.641   7.147   6.198  1.00 20.00    -0.130 Cl
ENDBRANCH   1   5
BRANCH   1   7
HETATM    7  C7  UNL     1     -33.589   6.188   2.760  1.00 20.00    -0.018 C 
HETATM    8  C2  UNL     1     -35.000   6.036   3.341  1.00 20.00     0.010 C 
HETATM    9  C3  UNL     1     -32.955   4.805   2.585  1.00 20.00     0.010 C 
ENDBRANCH   1   7
TORSDOF 4
ENDMDL
MODEL 3
REMARK VINA RESULT:      -4.8      1.827      4.049
REMARK  4 active torsions:
REMARK  status: ('A' for Active; 'I' for Inactive)
REMARK    1  A    between atoms: C4_4  and  C5_5 
REMARK    2  A    between atoms: C5_5  and  C8_8 
REMARK    3  A    between atoms: C6_6  and  C8_8 
REMARK    4  A    between atoms: C7_7  and  C8_8 
ROOT
HETATM    1  C8  UNL     1     -33.695   7.436   3.699  1.00 20.00     0.003 C 
ENDROOT
BRANCH   1   2
HETATM    2  C5  UNL     1     -34.452   6.137   3.315  1.00 20.00     0.005 C 
BRANCH   2   3
HETATM    3  C4  UNL     1     -33.599   4.876   3.140  1.00 20.00    -0.004 C 
HETATM    4  C1  UNL     1     -33.935   3.771   4.131  1.00 20.00     0.005 C 
ENDBRANCH   2   3
ENDBRANCH   1   2
BRANCH   1   5
HETATM    5  C6  UNL     1     -33.375   7.441   5.211  1.00 20.00     0.119 C 
HETATM    6 CL9  UNL     1     -34.519   6.441   6.148  1.00 20.00    -0.130 Cl
ENDBRANCH   1   5
BRANCH   1   7
HETATM    7  C7  UNL     1     -32.417   7.674   2.838  1.00 20.00    -0.018 C 
HETATM    8  C2  UNL     1     -31.258   8.240   3.668  1.00 20.00     0.010 C 
HETATM    9  C3  UNL     1     -32.653   8.564   1.614  1.00 20.00     0.010 C 
ENDBRANCH   1   7
TORSDOF 4
ENDMDL
MODEL 4
REMARK VINA RESULT:      -4.7      1.941      2.557
REMARK  4 active torsions:
REMARK  status: ('A' for Active; 'I' for Inactive)
REMARK    1  A    between atoms: C4_4  and  C5_5 
REMARK    2  A    between atoms: C5_5  and  C8_8 
REMARK    3  A    between atoms: C6_6  and  C8_8 
REMARK    4  A    between atoms: C7_7  and  C8_8 
ROOT
HETATM    1  C8  UNL     1     -32.651   7.163   3.335  1.00 20.00     0.003 C 
ENDROOT
BRANCH   1   2
HETATM    2  C5  UNL     1     -33.101   8.040   2.135  1.00 20.00     0.005 C 
BRANCH   2   3
HETATM    3  C4  UNL     1     -32.014   8.885   1.462  1.00 20.00    -0.004 C 
HETATM    4  C1  UNL     1     -32.540  10.171   0.843  1.00 20.00     0.005 C 
ENDBRANCH   2   3
ENDBRANCH   1   2
BRANCH   1   5
HETATM    5  C6  UNL     1     -32.595   8.011   4.625  1.00 20.00     0.119 C 
HETATM    6 CL9  UNL     1     -33.550   7.292   5.951  1.00 20.00    -0.130 Cl
ENDBRANCH   1   5
BRANCH   1   7
HETATM    7  C7  UNL     1     -33.530   5.888   3.521  1.00 20.00    -0.018 C 
HETATM    8  C2  UNL     1     -33.061   4.729   2.632  1.00 20.00     0.010 C 
HETATM    9  C3  UNL     1     -35.026   6.130   3.301  1.00 20.00     0.010 C 
ENDBRANCH   1   7
TORSDOF 4
ENDMDL
MODEL 5
REMARK VINA RESULT:      -4.6      0.829      3.728
REMARK  4 active torsions:
REMARK  status: ('A' for Active; 'I' for Inactive)
REMARK    1  A    between atoms: C4_4  and  C5_5 
REMARK    2  A    between atoms: C5_5  and  C8_8 
REMARK    3  A    between atoms: C6_6  and  C8_8 
REMARK    4  A    between atoms: C7_7  and  C8_8 
ROOT
HETATM    1  C8  UNL     1     -32.910   6.754   3.478  1.00 20.00     0.003 C 
ENDROOT
BRANCH   1   2
HETATM    2  C5  UNL     1     -33.945   7.380   4.450  1.00 20.00     0.005 C 
BRANCH   2   3
HETATM    3  C4  UNL     1     -34.073   6.721   5.828  1.00 20.00    -0.004 C 
HETATM    4  C1  UNL     1     -34.585   5.289   5.773  1.00 20.00     0.005 C 
ENDBRANCH   2   3
ENDBRANCH   1   2
BRANCH   1   5
HETATM    5  C6  UNL     1     -33.630   5.921   2.394  1.00 20.00     0.119 C 
HETATM    6 CL9  UNL     1     -33.018   4.246   2.309  1.00 20.00    -0.130 Cl
ENDBRANCH   1   5
BRANCH   1   7
HETATM    7  C7  UNL     1     -31.948   7.809   2.850  1.00 20.00    -0.018 C 
HETATM    8  C2  UNL     1     -31.350   8.746   3.907  1.00 20.00     0.010 C 
HETATM    9  C3  UNL     1     -32.584   8.638   1.731  1.00 20.00     0.010 C 
ENDBRANCH   1   7
TORSDOF 4
ENDMDL
MODEL 6
REMARK VINA RESULT:      -4.2      2.075      4.358
REMARK  4 active torsions:
REMARK  status: ('A' for Active; 'I' for Inactive)
REMARK    1  A    between atoms: C4_4  and  C5_5 
REMARK    2  A    between atoms: C5_5  and  C8_8 
REMARK    3  A    between atoms: C6_6  and  C8_8 
REMARK    4  A    between atoms: C7_7  and  C8_8 
ROOT
HETATM    1  C8  UNL     1     -32.761   8.131   2.827  1.00 20.00     0.003 C 
ENDROOT
BRANCH   1   2
HETATM    2  C5  UNL     1     -32.851   6.678   2.288  1.00 20.00     0.005 C 
BRANCH   2   3
HETATM    3  C4  UNL     1     -34.118   5.894   2.646  1.00 20.00    -0.004 C 
HETATM    4  C1  UNL     1     -33.864   4.727   3.589  1.00 20.00     0.005 C 
ENDBRANCH   2   3
ENDBRANCH   1   2
BRANCH   1   5
HETATM    5  C6  UNL     1     -32.083   8.144   4.216  1.00 20.00     0.119 C 
HETATM    6 CL9  UNL     1     -33.202   7.660   5.520  1.00 20.00    -0.130 Cl
ENDBRANCH   1   5
BRANCH   1   7
HETATM    7  C7  UNL     1     -32.060   9.108   1.833  1.00 20.00    -0.018 C 
HETATM    8  C2  UNL     1     -32.999  10.226   1.364  1.00 20.00     0.010 C 
HETATM    9  C3  UNL     1     -31.441   8.414   0.616  1.00 20.00     0.010 C 
ENDBRANCH   1   7
TORSDOF 4
ENDMDL
MODEL 7
REMARK VINA RESULT:      -4.2      1.834      3.676
REMARK  4 active torsions:
REMARK  status: ('A' for Active; 'I' for Inactive)
REMARK    1  A    between atoms: C4_4  and  C5_5 
REMARK    2  A    between atoms: C5_5  and  C8_8 
REMARK    3  A    between atoms: C6_6  and  C8_8 
REMARK    4  A    between atoms: C7_7  and  C8_8 
ROOT
HETATM    1  C8  UNL     1     -33.141   7.617   3.205  1.00 20.00     0.003 C 
ENDROOT
BRANCH   1   2
HETATM    2  C5  UNL     1     -32.704   7.360   4.672  1.00 20.00     0.005 C 
BRANCH   2   3
HETATM    3  C4  UNL     1     -33.811   7.396   5.731  1.00 20.00    -0.004 C 
HETATM    4  C1  UNL     1     -34.391   6.026   6.052  1.00 20.00     0.005 C 
ENDBRANCH   2   3
ENDBRANCH   1   2
BRANCH   1   5
HETATM    5  C6  UNL     1     -31.974   8.228   2.398  1.00 20.00     0.119 C 
HETATM    6 CL9  UNL     1     -32.538   9.104   0.949  1.00 20.00    -0.130 Cl
ENDBRANCH   1   5
BRANCH   1   7
HETATM    7  C7  UNL     1     -33.719   6.345   2.510  1.00 20.00    -0.018 C 
HETATM    8  C2  UNL     1     -35.198   6.124   2.848  1.00 20.00     0.010 C 
HETATM    9  C3  UNL     1     -32.929   5.067   2.804  1.00 20.00     0.010 C 
ENDBRANCH   1   7
TORSDOF 4
ENDMDL
MODEL 8
REMARK VINA RESULT:      -3.9      1.910      3.521
REMARK  4 active torsions:
REMARK  status: ('A' for Active; 'I' for Inactive)
REMARK    1  A    between atoms: C4_4  and  C5_5 
REMARK    2  A    between atoms: C5_5  and  C8_8 
REMARK    3  A    between atoms: C6_6  and  C8_8 
REMARK    4  A    between atoms: C7_7  and  C8_8 
ROOT
HETATM    1  C8  UNL     1     -32.656   7.099   2.763  1.00 20.00     0.003 C 
ENDROOT
BRANCH   1   2
HETATM    2  C5  UNL     1     -33.839   6.097   2.700  1.00 20.00     0.005 C 
BRANCH   2   3
HETATM    3  C4  UNL     1     -33.527   4.647   3.086  1.00 20.00    -0.004 C 
HETATM    4  C1  UNL     1     -34.278   4.171   4.322  1.00 20.00     0.005 C 
ENDBRANCH   2   3
ENDBRANCH   1   2
BRANCH   1   5
HETATM    5  C6  UNL     1     -32.939   8.317   1.855  1.00 20.00     0.119 C 
HETATM    6 CL9  UNL     1     -31.560   8.701   0.788  1.00 20.00    -0.130 Cl
ENDBRANCH   1   5
BRANCH   1   7
HETATM    7  C7  UNL     1     -32.300   7.533   4.218  1.00 20.00    -0.018 C 
HETATM    8  C2  UNL     1     -33.539   7.600   5.120  1.00 20.00     0.010 C 
HETATM    9  C3  UNL     1     -31.536   8.858   4.299  1.00 20.00     0.010 C 
ENDBRANCH   1   7
TORSDOF 4
ENDMDL
MODEL 9
REMARK VINA RESULT:      -3.7     10.816     11.720
REMARK  4 active torsions:
REMARK  status: ('A' for Active; 'I' for Inactive)
REMARK    1  A    between atoms: C4_4  and  C5_5 
REMARK    2  A    between atoms: C5_5  and  C8_8 
REMARK    3  A    between atoms: C6_6  and  C8_8 
REMARK    4  A    between atoms: C7_7  and  C8_8 
ROOT
HETATM    1  C8  UNL     1     -34.703  15.208  -3.649  1.00 20.00     0.003 C 
ENDROOT
BRANCH   1   2
HETATM    2  C5  UNL     1     -35.082  16.347  -2.665  1.00 20.00     0.005 C 
BRANCH   2   3
HETATM    3  C4  UNL     1     -33.922  17.040  -1.942  1.00 20.00    -0.004 C 
HETATM    4  C1  UNL     1     -34.321  17.668  -0.614  1.00 20.00     0.005 C 
ENDBRANCH   2   3
ENDBRANCH   1   2
BRANCH   1   5
HETATM    5  C6  UNL     1     -35.778  15.072  -4.749  1.00 20.00     0.119 C 
HETATM    6 CL9  UNL     1     -36.032  13.374  -5.241  1.00 20.00    -0.130 Cl
ENDBRANCH   1   5
BRANCH   1   7
HETATM    7  C7  UNL     1     -33.275  15.377  -4.254  1.00 20.00    -0.018 C 
HETATM    8  C2  UNL     1     -33.316  15.922  -5.687  1.00 20.00     0.010 C 
HETATM    9  C3  UNL     1     -32.432  14.098  -4.216  1.00 20.00     0.010 C 
ENDBRANCH   1   7
TORSDOF 4
ENDMDL
