MODEL 1
REMARK VINA RESULT:      -6.2      0.000      0.000
REMARK  3 active torsions:
REMARK  status: ('A' for Active; 'I' for Inactive)
REMARK    1  A    between atoms: C2_2  and  C9_9 
REMARK    2  A    between atoms: C2_2  and  C10_10 
REMARK    3  A    between atoms: C6_6  and  C9_9 
ROOT
HETATM    1  C3  UNL     1     -33.436   7.774   4.872  1.00 20.00     0.006 C 
HETATM    2  C4  UNL     1     -34.010   6.435   5.344  1.00 20.00     0.020 C 
HETATM    3  C5  UNL     1     -33.251   6.119   3.105  1.00 20.00     0.025 C 
HETATM    4  C6  UNL     1     -33.179   7.624   3.365  1.00 20.00    -0.009 C 
HETATM    5  C7  UNL     1     -34.347   5.681   4.065  1.00 20.00     0.082 C 
HETATM    6 CL11 UNL     1     -34.371   3.927   4.302  1.00 20.00    -0.125 Cl
ENDROOT
BRANCH   4   7
HETATM    7  C9  UNL     1     -31.865   8.243   2.915  1.00 20.00     0.038 C 
BRANCH   7   8
HETATM    8  C2  UNL     1     -31.921   8.785   1.505  1.00 20.00    -0.089 C 
HETATM    9  C1  UNL     1     -31.102   8.309   0.552  1.00 20.00     0.014 C 
BRANCH   8  10
HETATM   10  C10 UNL     1     -32.921   9.875   1.193  1.00 20.00     0.029 C 
HETATM   11  C8  UNL     1     -33.320   9.911  -0.277  1.00 20.00     0.010 C 
ENDBRANCH   8  10
ENDBRANCH   7   8
ENDBRANCH   4   7
TORSDOF 3
ENDMDL
MODEL 2
REMARK VINA RESULT:      -5.5      2.579      5.047
REMARK  3 active torsions:
REMARK  status: ('A' for Active; 'I' for Inactive)
REMARK    1  A    between atoms: C2_2  and  C9_9 
REMARK    2  A    between atoms: C2_2  and  C10_10 
REMARK    3  A    between atoms: C6_6  and  C9_9 
ROOT
HETATM    1  C3  UNL     1     -32.101   7.683   3.839  1.00 20.00     0.006 C 
HETATM    2  C4  UNL     1     -31.444   8.738   2.945  1.00 20.00     0.020 C 
HETATM    3  C5  UNL     1     -33.348   7.913   1.769  1.00 20.00     0.025 C 
HETATM    4  C6  UNL     1     -33.169   6.993   2.976  1.00 20.00    -0.009 C 
HETATM    5  C7  UNL     1     -31.932   8.419   1.538  1.00 20.00     0.082 C 
HETATM    6 CL11 UNL     1     -31.887   9.829   0.470  1.00 20.00    -0.125 Cl
ENDROOT
BRANCH   4   7
HETATM    7  C9  UNL     1     -34.467   6.732   3.723  1.00 20.00     0.038 C 
BRANCH   7   8
HETATM    8  C2  UNL     1     -34.248   6.342   5.167  1.00 20.00    -0.089 C 
HETATM    9  C1  UNL     1     -33.873   7.257   6.077  1.00 20.00     0.014 C 
BRANCH   8  10
HETATM   10  C10 UNL     1     -34.463   4.899   5.564  1.00 20.00     0.029 C 
HETATM   11  C8  UNL     1     -34.211   3.925   4.420  1.00 20.00     0.010 C 
ENDBRANCH   8  10
ENDBRANCH   7   8
ENDBRANCH   4   7
TORSDOF 3
ENDMDL
MODEL 3
REMARK VINA RESULT:      -5.4      2.683      5.034
REMARK  3 active torsions:
REMARK  status: ('A' for Active; 'I' for Inactive)
REMARK    1  A    between atoms: C2_2  and  C9_9 
REMARK    2  A    between atoms: C2_2  and  C10_10 
REMARK    3  A    between atoms: C6_6  and  C9_9 
ROOT
HETATM    1  C3  UNL     1     -31.795   8.025   3.561  1.00 20.00     0.006 C 
HETATM    2  C4  UNL     1     -31.509   9.285   2.739  1.00 20.00     0.020 C 
HETATM    3  C5  UNL     1     -33.233   8.087   1.606  1.00 20.00     0.025 C 
HETATM    4  C6  UNL     1     -32.722   7.152   2.702  1.00 20.00    -0.009 C 
HETATM    5  C7  UNL     1     -32.019   8.964   1.340  1.00 20.00     0.082 C 
HETATM    6 CL11 UNL     1     -32.428  10.418   0.419  1.00 20.00    -0.125 Cl
ENDROOT
BRANCH   4   7
HETATM    7  C9  UNL     1     -33.841   6.500   3.498  1.00 20.00     0.038 C 
BRANCH   7   8
HETATM    8  C2  UNL     1     -33.765   4.990   3.494  1.00 20.00    -0.089 C 
HETATM    9  C1  UNL     1     -33.097   4.338   2.528  1.00 20.00     0.014 C 
BRANCH   8  10
HETATM   10  C10 UNL     1     -34.458   4.232   4.603  1.00 20.00     0.029 C 
HETATM   11  C8  UNL     1     -34.646   5.064   5.864  1.00 20.00     0.010 C 
ENDBRANCH   8  10
ENDBRANCH   7   8
ENDBRANCH   4   7
TORSDOF 3
ENDMDL
MODEL 4
REMARK VINA RESULT:      -5.4      2.590      4.965
REMARK  3 active torsions:
REMARK  status: ('A' for Active; 'I' for Inactive)
REMARK    1  A    between atoms: C2_2  and  C9_9 
REMARK    2  A    between atoms: C2_2  and  C10_10 
REMARK    3  A    between atoms: C6_6  and  C9_9 
ROOT
HETATM    1  C3  UNL     1     -32.223   7.522   3.767  1.00 20.00     0.006 C 
HETATM    2  C4  UNL     1     -31.587   8.664   2.968  1.00 20.00     0.020 C 
HETATM    3  C5  UNL     1     -33.343   7.765   1.626  1.00 20.00     0.025 C 
HETATM    4  C6  UNL     1     -33.177   6.802   2.801  1.00 20.00    -0.009 C 
HETATM    5  C7  UNL     1     -31.955   8.380   1.518  1.00 20.00     0.082 C 
HETATM    6 CL11 UNL     1     -31.943   9.840   0.519  1.00 20.00    -0.125 Cl
ENDROOT
BRANCH   4   7
HETATM    7  C9  UNL     1     -34.500   6.415   3.443  1.00 20.00     0.038 C 
BRANCH   7   8
HETATM    8  C2  UNL     1     -34.361   5.296   4.451  1.00 20.00    -0.089 C 
HETATM    9  C1  UNL     1     -34.088   4.042   4.053  1.00 20.00     0.014 C 
BRANCH   8  10
HETATM   10  C10 UNL     1     -34.533   5.622   5.916  1.00 20.00     0.029 C 
HETATM   11  C8  UNL     1     -34.093   7.037   6.267  1.00 20.00     0.010 C 
ENDBRANCH   8  10
ENDBRANCH   7   8
ENDBRANCH   4   7
TORSDOF 3
ENDMDL
MODEL 5
REMARK VINA RESULT:      -5.3      0.993      1.490
REMARK  3 active torsions:
REMARK  status: ('A' for Active; 'I' for Inactive)
REMARK    1  A    between atoms: C2_2  and  C9_9 
REMARK    2  A    between atoms: C2_2  and  C10_10 
REMARK    3  A    between atoms: C6_6  and  C9_9 
ROOT
HETATM    1  C3  UNL     1     -33.498   6.822   2.360  1.00 20.00     0.006 C 
HETATM    2  C4  UNL     1     -34.450   6.027   3.259  1.00 20.00     0.020 C 
HETATM    3  C5  UNL     1     -33.038   7.306   4.694  1.00 20.00     0.025 C 
HETATM    4  C6  UNL     1     -32.446   7.444   3.291  1.00 20.00    -0.009 C 
HETATM    5  C7  UNL     1     -33.752   5.966   4.611  1.00 20.00     0.082 C 
HETATM    6 CL11 UNL     1     -34.887   5.724   5.947  1.00 20.00    -0.125 Cl
ENDROOT
BRANCH   4   7
HETATM    7  C9  UNL     1     -32.098   8.879   2.931  1.00 20.00     0.038 C 
BRANCH   7   8
HETATM    8  C2  UNL     1     -31.988   9.102   1.440  1.00 20.00    -0.089 C 
HETATM    9  C1  UNL     1     -31.080   8.433   0.709  1.00 20.00     0.014 C 
BRANCH   8  10
HETATM   10  C10 UNL     1     -32.926  10.093   0.789  1.00 20.00     0.029 C 
HETATM   11  C8  UNL     1     -33.399   9.648  -0.588  1.00 20.00     0.010 C 
ENDBRANCH   8  10
ENDBRANCH   7   8
ENDBRANCH   4   7
TORSDOF 3
ENDMDL
MODEL 6
REMARK VINA RESULT:      -4.4     10.355     11.230
REMARK  3 active torsions:
REMARK  status: ('A' for Active; 'I' for Inactive)
REMARK    1  A    between atoms: C2_2  and  C9_9 
REMARK    2  A    between atoms: C2_2  and  C10_10 
REMARK    3  A    between atoms: C6_6  and  C9_9 
ROOT
HETATM    1  C3  UNL     1     -34.443  14.187  -4.098  1.00 20.00     0.006 C 
HETATM    2  C4  UNL     1     -35.517  13.785  -5.112  1.00 20.00     0.020 C 
HETATM    3  C5  UNL     1     -36.079  15.966  -4.328  1.00 20.00     0.025 C 
HETATM    4  C6  UNL     1     -34.946  15.475  -3.427  1.00 20.00    -0.009 C 
HETATM    5  C7  UNL     1     -36.717  14.662  -4.781  1.00 20.00     0.082 C 
HETATM    6 CL11 UNL     1     -37.793  14.886  -6.167  1.00 20.00    -0.125 Cl
ENDROOT
BRANCH   4   7
HETATM    7  C9  UNL     1     -33.854  16.512  -3.225  1.00 20.00     0.038 C 
BRANCH   7   8
HETATM    8  C2  UNL     1     -33.920  17.182  -1.871  1.00 20.00    -0.089 C 
HETATM    9  C1  UNL     1     -32.884  17.902  -1.409  1.00 20.00     0.014 C 
BRANCH   8  10
HETATM   10  C10 UNL     1     -35.180  17.025  -1.051  1.00 20.00     0.029 C 
HETATM   11  C8  UNL     1     -35.133  17.793   0.263  1.00 20.00     0.010 C 
ENDBRANCH   8  10
ENDBRANCH   7   8
ENDBRANCH   4   7
TORSDOF 3
ENDMDL
MODEL 7
REMARK VINA RESULT:      -4.4     10.421     11.142
REMARK  3 active torsions:
REMARK  status: ('A' for Active; 'I' for Inactive)
REMARK    1  A    between atoms: C2_2  and  C9_9 
REMARK    2  A    between atoms: C2_2  and  C10_10 
REMARK    3  A    between atoms: C6_6  and  C9_9 
ROOT
HETATM    1  C3  UNL     1     -33.054  15.431  -4.649  1.00 20.00     0.006 C 
HETATM    2  C4  UNL     1     -33.908  14.448  -5.455  1.00 20.00     0.020 C 
HETATM    3  C5  UNL     1     -35.322  15.392  -3.783  1.00 20.00     0.025 C 
HETATM    4  C6  UNL     1     -33.904  15.843  -3.436  1.00 20.00    -0.009 C 
HETATM    5  C7  UNL     1     -35.071  14.096  -4.539  1.00 20.00     0.082 C 
HETATM    6 CL11 UNL     1     -36.497  13.552  -5.434  1.00 20.00    -0.125 Cl
ENDROOT
BRANCH   4   7
HETATM    7  C9  UNL     1     -33.812  17.325  -3.115  1.00 20.00     0.038 C 
BRANCH   7   8
HETATM    8  C2  UNL     1     -33.712  17.602  -1.632  1.00 20.00    -0.089 C 
HETATM    9  C1  UNL     1     -32.590  18.119  -1.103  1.00 20.00     0.014 C 
BRANCH   8  10
HETATM   10  C10 UNL     1     -34.905  17.287  -0.759  1.00 20.00     0.029 C 
HETATM   11  C8  UNL     1     -34.866  18.006   0.583  1.00 20.00     0.010 C 
ENDBRANCH   8  10
ENDBRANCH   7   8
ENDBRANCH   4   7
TORSDOF 3
ENDMDL
MODEL 8
REMARK VINA RESULT:      -4.4     10.331     11.107
REMARK  3 active torsions:
REMARK  status: ('A' for Active; 'I' for Inactive)
REMARK    1  A    between atoms: C2_2  and  C9_9 
REMARK    2  A    between atoms: C2_2  and  C10_10 
REMARK    3  A    between atoms: C6_6  and  C9_9 
ROOT
HETATM    1  C3  UNL     1     -33.022  17.896  -1.762  1.00 20.00     0.006 C 
HETATM    2  C4  UNL     1     -33.598  18.177  -0.371  1.00 20.00     0.020 C 
HETATM    3  C5  UNL     1     -35.151  16.758  -1.496  1.00 20.00     0.025 C 
HETATM    4  C6  UNL     1     -34.136  17.191  -2.553  1.00 20.00    -0.009 C 
HETATM    5  C7  UNL     1     -35.091  17.909  -0.503  1.00 20.00     0.082 C 
HETATM    6 CL11 UNL     1     -35.845  17.502   1.045  1.00 20.00    -0.125 Cl
ENDROOT
BRANCH   4   7
HETATM    7  C9  UNL     1     -33.630  16.035  -3.401  1.00 20.00     0.038 C 
BRANCH   7   8
HETATM    8  C2  UNL     1     -34.666  15.520  -4.373  1.00 20.00    -0.089 C 
HETATM    9  C1  UNL     1     -35.332  16.363  -5.181  1.00 20.00     0.014 C 
BRANCH   8  10
HETATM   10  C10 UNL     1     -34.935  14.033  -4.417  1.00 20.00     0.029 C 
HETATM   11  C8  UNL     1     -36.188  13.679  -5.207  1.00 20.00     0.010 C 
ENDBRANCH   8  10
ENDBRANCH   7   8
ENDBRANCH   4   7
TORSDOF 3
ENDMDL
MODEL 9
REMARK VINA RESULT:      -4.3     10.656     11.694
REMARK  3 active torsions:
REMARK  status: ('A' for Active; 'I' for Inactive)
REMARK    1  A    between atoms: C2_2  and  C9_9 
REMARK    2  A    between atoms: C2_2  and  C10_10 
REMARK    3  A    between atoms: C6_6  and  C9_9 
ROOT
HETATM    1  C3  UNL     1     -35.041  16.869  -5.120  1.00 20.00     0.006 C 
HETATM    2  C4  UNL     1     -34.957  16.017  -6.390  1.00 20.00     0.020 C 
HETATM    3  C5  UNL     1     -34.522  14.568  -4.546  1.00 20.00     0.025 C 
HETATM    4  C6  UNL     1     -34.522  15.986  -3.975  1.00 20.00    -0.009 C 
HETATM    5  C7  UNL     1     -34.123  14.806  -5.995  1.00 20.00     0.082 C 
HETATM    6 CL11 UNL     1     -34.444  13.401  -7.021  1.00 20.00    -0.125 Cl
ENDROOT
BRANCH   4   7
HETATM    7  C9  UNL     1     -35.341  16.113  -2.700  1.00 20.00     0.038 C 
BRANCH   7   8
HETATM    8  C2  UNL     1     -34.668  16.967  -1.650  1.00 20.00    -0.089 C 
HETATM    9  C1  UNL     1     -35.320  17.320  -0.530  1.00 20.00     0.014 C 
BRANCH   8  10
HETATM   10  C10 UNL     1     -33.245  17.415  -1.890  1.00 20.00     0.029 C 
HETATM   11  C8  UNL     1     -32.741  18.387  -0.832  1.00 20.00     0.010 C 
ENDBRANCH   8  10
ENDBRANCH   7   8
ENDBRANCH   4   7
TORSDOF 3
ENDMDL
