MODEL 1
REMARK VINA RESULT:      -4.7      0.000      0.000
REMARK  4 active torsions:
REMARK  status: ('A' for Active; 'I' for Inactive)
REMARK    1  A    between atoms: C4_4  and  C5_5 
REMARK    2  A    between atoms: C5_5  and  C7_7 
REMARK    3  A    between atoms: C6_6  and  O9_9 
REMARK    4  A    between atoms: C7_7  and  O9_9 
ROOT
HETATM    1  C1  UNL     1     -33.458   7.444   4.939  1.00 20.00     0.091 C 
HETATM    2  C7  UNL     1     -33.466   7.334   3.474  1.00 20.00     0.227 C 
HETATM    3  N8  UNL     1     -33.453   7.531   6.096  1.00 20.00    -0.195 NA
ENDROOT
BRANCH   2   4
HETATM    4  C5  UNL     1     -34.134   6.042   2.996  1.00 20.00     0.046 C 
BRANCH   4   5
HETATM    5  C4  UNL     1     -34.931   5.335   4.095  1.00 20.00    -0.001 C 
HETATM    6  C2  UNL     1     -34.281   4.020   4.495  1.00 20.00     0.005 C 
ENDBRANCH   4   5
ENDBRANCH   2   4
BRANCH   2   7
HETATM    7  O9  UNL     1     -32.121   7.330   2.994  1.00 20.00    -0.372 OA
BRANCH   7   8
HETATM    8  C6  UNL     1     -31.699   8.634   2.632  1.00 20.00     0.165 C 
HETATM    9  C3  UNL     1     -32.018   8.869   1.172  1.00 20.00     0.033 C 
ENDBRANCH   7   8
ENDBRANCH   2   7
TORSDOF 4
ENDMDL
MODEL 2
REMARK VINA RESULT:      -4.7      2.008      2.353
REMARK  4 active torsions:
REMARK  status: ('A' for Active; 'I' for Inactive)
REMARK    1  A    between atoms: C4_4  and  C5_5 
REMARK    2  A    between atoms: C5_5  and  C7_7 
REMARK    3  A    between atoms: C6_6  and  O9_9 
REMARK    4  A    between atoms: C7_7  and  O9_9 
ROOT
HETATM    1  C1  UNL     1     -32.925   5.701   2.813  1.00 20.00     0.091 C 
HETATM    2  C7  UNL     1     -32.858   7.127   3.159  1.00 20.00     0.227 C 
HETATM    3  N8  UNL     1     -32.977   4.574   2.540  1.00 20.00    -0.195 NA
ENDROOT
BRANCH   2   4
HETATM    4  C5  UNL     1     -33.970   7.537   4.128  1.00 20.00     0.046 C 
BRANCH   4   5
HETATM    5  C4  UNL     1     -33.732   7.045   5.558  1.00 20.00    -0.001 C 
HETATM    6  C2  UNL     1     -34.539   5.791   5.856  1.00 20.00     0.005 C 
ENDBRANCH   4   5
ENDBRANCH   2   4
BRANCH   2   7
HETATM    7  O9  UNL     1     -33.008   7.907   1.973  1.00 20.00    -0.372 OA
BRANCH   7   8
HETATM    8  C6  UNL     1     -32.026   8.928   1.900  1.00 20.00     0.165 C 
HETATM    9  C3  UNL     1     -32.588  10.099   1.123  1.00 20.00     0.033 C 
ENDBRANCH   7   8
ENDBRANCH   2   7
TORSDOF 4
ENDMDL
MODEL 3
REMARK VINA RESULT:      -4.6      2.128      4.258
REMARK  4 active torsions:
REMARK  status: ('A' for Active; 'I' for Inactive)
REMARK    1  A    between atoms: C4_4  and  C5_5 
REMARK    2  A    between atoms: C5_5  and  C7_7 
REMARK    3  A    between atoms: C6_6  and  O9_9 
REMARK    4  A    between atoms: C7_7  and  O9_9 
ROOT
HETATM    1  C1  UNL     1     -33.090   5.804   2.659  1.00 20.00     0.091 C 
HETATM    2  C7  UNL     1     -33.308   7.257   2.630  1.00 20.00     0.227 C 
HETATM    3  N8  UNL     1     -32.917   4.657   2.680  1.00 20.00    -0.195 NA
ENDROOT
BRANCH   2   4
HETATM    4  C5  UNL     1     -31.992   8.037   2.573  1.00 20.00     0.046 C 
BRANCH   4   5
HETATM    5  C4  UNL     1     -31.775   8.752   1.237  1.00 20.00    -0.001 C 
HETATM    6  C2  UNL     1     -32.591  10.033   1.153  1.00 20.00     0.005 C 
ENDBRANCH   4   5
ENDBRANCH   2   4
BRANCH   2   7
HETATM    7  O9  UNL     1     -33.996   7.654   3.816  1.00 20.00    -0.372 OA
BRANCH   7   8
HETATM    8  C6  UNL     1     -33.192   7.460   4.968  1.00 20.00     0.165 C 
HETATM    9  C3  UNL     1     -34.039   6.850   6.064  1.00 20.00     0.033 C 
ENDBRANCH   7   8
ENDBRANCH   2   7
TORSDOF 4
ENDMDL
MODEL 4
REMARK VINA RESULT:      -4.5      2.015      3.109
REMARK  4 active torsions:
REMARK  status: ('A' for Active; 'I' for Inactive)
REMARK    1  A    between atoms: C4_4  and  C5_5 
REMARK    2  A    between atoms: C5_5  and  C7_7 
REMARK    3  A    between atoms: C6_6  and  O9_9 
REMARK    4  A    between atoms: C7_7  and  O9_9 
ROOT
HETATM    1  C1  UNL     1     -32.438   8.315   1.980  1.00 20.00     0.091 C 
HETATM    2  C7  UNL     1     -32.418   7.153   2.879  1.00 20.00     0.227 C 
HETATM    3  N8  UNL     1     -32.453   9.232   1.270  1.00 20.00    -0.195 NA
ENDROOT
BRANCH   2   4
HETATM    4  C5  UNL     1     -33.609   6.221   2.643  1.00 20.00     0.046 C 
BRANCH   4   5
HETATM    5  C4  UNL     1     -33.270   4.744   2.861  1.00 20.00    -0.001 C 
HETATM    6  C2  UNL     1     -34.075   4.153   4.008  1.00 20.00     0.005 C 
ENDBRANCH   4   5
ENDBRANCH   2   4
BRANCH   2   7
HETATM    7  O9  UNL     1     -32.480   7.602   4.233  1.00 20.00    -0.372 OA
BRANCH   7   8
HETATM    8  C6  UNL     1     -33.818   7.642   4.701  1.00 20.00     0.165 C 
HETATM    9  C3  UNL     1     -33.852   7.168   6.139  1.00 20.00     0.033 C 
ENDBRANCH   7   8
ENDBRANCH   2   7
TORSDOF 4
ENDMDL
MODEL 5
REMARK VINA RESULT:      -4.5      1.156      3.802
REMARK  4 active torsions:
REMARK  status: ('A' for Active; 'I' for Inactive)
REMARK    1  A    between atoms: C4_4  and  C5_5 
REMARK    2  A    between atoms: C5_5  and  C7_7 
REMARK    3  A    between atoms: C6_6  and  O9_9 
REMARK    4  A    between atoms: C7_7  and  O9_9 
ROOT
HETATM    1  C1  UNL     1     -33.097   7.434   4.764  1.00 20.00     0.091 C 
HETATM    2  C7  UNL     1     -32.506   7.275   3.428  1.00 20.00     0.227 C 
HETATM    3  N8  UNL     1     -33.563   7.559   5.820  1.00 20.00    -0.195 NA
ENDROOT
BRANCH   2   4
HETATM    4  C5  UNL     1     -31.838   8.562   2.937  1.00 20.00     0.046 C 
BRANCH   4   5
HETATM    5  C4  UNL     1     -31.994   8.783   1.430  1.00 20.00    -0.001 C 
HETATM    6  C2  UNL     1     -32.621  10.135   1.128  1.00 20.00     0.005 C 
ENDBRANCH   4   5
ENDBRANCH   2   4
BRANCH   2   7
HETATM    7  O9  UNL     1     -33.533   6.937   2.496  1.00 20.00    -0.372 OA
BRANCH   7   8
HETATM    8  C6  UNL     1     -34.093   5.666   2.784  1.00 20.00     0.165 C 
HETATM    9  C3  UNL     1     -33.034   4.603   2.587  1.00 20.00     0.033 C 
ENDBRANCH   7   8
ENDBRANCH   2   7
TORSDOF 4
ENDMDL
MODEL 6
REMARK VINA RESULT:      -3.9     11.210     12.036
REMARK  4 active torsions:
REMARK  status: ('A' for Active; 'I' for Inactive)
REMARK    1  A    between atoms: C4_4  and  C5_5 
REMARK    2  A    between atoms: C5_5  and  C7_7 
REMARK    3  A    between atoms: C6_6  and  O9_9 
REMARK    4  A    between atoms: C7_7  and  O9_9 
ROOT
HETATM    1  C1  UNL     1     -35.244  13.723  -4.689  1.00 20.00     0.091 C 
HETATM    2  C7  UNL     1     -34.368  14.697  -4.023  1.00 20.00     0.227 C 
HETATM    3  N8  UNL     1     -35.937  12.954  -5.214  1.00 20.00    -0.195 NA
ENDROOT
BRANCH   2   4
HETATM    4  C5  UNL     1     -35.093  16.009  -3.714  1.00 20.00     0.046 C 
BRANCH   4   5
HETATM    5  C4  UNL     1     -34.953  16.445  -2.254  1.00 20.00    -0.001 C 
HETATM    6  C2  UNL     1     -33.626  17.147  -2.008  1.00 20.00     0.005 C 
ENDBRANCH   4   5
ENDBRANCH   2   4
BRANCH   2   7
HETATM    7  O9  UNL     1     -33.266  15.001  -4.877  1.00 20.00    -0.372 OA
BRANCH   7   8
HETATM    8  C6  UNL     1     -33.509  16.175  -5.635  1.00 20.00     0.165 C 
HETATM    9  C3  UNL     1     -33.595  15.808  -7.100  1.00 20.00     0.033 C 
ENDBRANCH   7   8
ENDBRANCH   2   7
TORSDOF 4
ENDMDL
MODEL 7
REMARK VINA RESULT:      -3.9     11.272     12.447
REMARK  4 active torsions:
REMARK  status: ('A' for Active; 'I' for Inactive)
REMARK    1  A    between atoms: C4_4  and  C5_5 
REMARK    2  A    between atoms: C5_5  and  C7_7 
REMARK    3  A    between atoms: C6_6  and  O9_9 
REMARK    4  A    between atoms: C7_7  and  O9_9 
ROOT
HETATM    1  C1  UNL     1     -36.727  14.005  -5.308  1.00 20.00     0.091 C 
HETATM    2  C7  UNL     1     -35.300  14.119  -5.637  1.00 20.00     0.227 C 
HETATM    3  N8  UNL     1     -37.855  13.915  -5.049  1.00 20.00    -0.195 NA
ENDROOT
BRANCH   2   4
HETATM    4  C5  UNL     1     -34.933  13.328  -6.895  1.00 20.00     0.046 C 
BRANCH   4   5
HETATM    5  C4  UNL     1     -34.146  14.153  -7.916  1.00 20.00    -0.001 C 
HETATM    6  C2  UNL     1     -34.309  15.645  -7.669  1.00 20.00     0.005 C 
ENDBRANCH   4   5
ENDBRANCH   2   4
BRANCH   2   7
HETATM    7  O9  UNL     1     -34.524  13.601  -4.557  1.00 20.00    -0.372 OA
BRANCH   7   8
HETATM    8  C6  UNL     1     -33.377  14.400  -4.317  1.00 20.00     0.165 C 
HETATM    9  C3  UNL     1     -33.816  15.746  -3.782  1.00 20.00     0.033 C 
ENDBRANCH   7   8
ENDBRANCH   2   7
TORSDOF 4
ENDMDL
MODEL 8
REMARK VINA RESULT:      -3.9      2.144      3.333
REMARK  4 active torsions:
REMARK  status: ('A' for Active; 'I' for Inactive)
REMARK    1  A    between atoms: C4_4  and  C5_5 
REMARK    2  A    between atoms: C5_5  and  C7_7 
REMARK    3  A    between atoms: C6_6  and  O9_9 
REMARK    4  A    between atoms: C7_7  and  O9_9 
ROOT
HETATM    1  C1  UNL     1     -32.512   8.142   2.276  1.00 20.00     0.091 C 
HETATM    2  C7  UNL     1     -33.483   7.600   3.237  1.00 20.00     0.227 C 
HETATM    3  N8  UNL     1     -31.746   8.570   1.517  1.00 20.00    -0.195 NA
ENDROOT
BRANCH   2   4
HETATM    4  C5  UNL     1     -32.850   7.326   4.604  1.00 20.00     0.046 C 
BRANCH   4   5
HETATM    5  C4  UNL     1     -33.861   7.362   5.753  1.00 20.00    -0.001 C 
HETATM    6  C2  UNL     1     -34.493   5.997   5.979  1.00 20.00     0.005 C 
ENDBRANCH   4   5
ENDBRANCH   2   4
BRANCH   2   7
HETATM    7  O9  UNL     1     -33.997   6.363   2.742  1.00 20.00    -0.372 OA
BRANCH   7   8
HETATM    8  C6  UNL     1     -32.986   5.370   2.687  1.00 20.00     0.165 C 
HETATM    9  C3  UNL     1     -33.551   4.063   3.200  1.00 20.00     0.033 C 
ENDBRANCH   7   8
ENDBRANCH   2   7
TORSDOF 4
ENDMDL
MODEL 9
REMARK VINA RESULT:      -3.7     11.381     12.419
REMARK  4 active torsions:
REMARK  status: ('A' for Active; 'I' for Inactive)
REMARK    1  A    between atoms: C4_4  and  C5_5 
REMARK    2  A    between atoms: C5_5  and  C7_7 
REMARK    3  A    between atoms: C6_6  and  O9_9 
REMARK    4  A    between atoms: C7_7  and  O9_9 
ROOT
HETATM    1  C1  UNL     1     -36.754  14.041  -5.200  1.00 20.00     0.091 C 
HETATM    2  C7  UNL     1     -35.309  14.169  -5.434  1.00 20.00     0.227 C 
HETATM    3  N8  UNL     1     -37.895  13.939  -5.015  1.00 20.00    -0.195 NA
ENDROOT
BRANCH   2   4
HETATM    4  C5  UNL     1     -34.514  14.205  -4.126  1.00 20.00     0.046 C 
BRANCH   4   5
HETATM    5  C4  UNL     1     -33.966  15.595  -3.795  1.00 20.00    -0.001 C 
HETATM    6  C2  UNL     1     -34.783  16.269  -2.703  1.00 20.00     0.005 C 
ENDBRANCH   4   5
ENDBRANCH   2   4
BRANCH   2   7
HETATM    7  O9  UNL     1     -35.050  15.386  -6.133  1.00 20.00    -0.372 OA
BRANCH   7   8
HETATM    8  C6  UNL     1     -35.097  15.195  -7.537  1.00 20.00     0.165 C 
HETATM    9  C3  UNL     1     -34.147  14.079  -7.915  1.00 20.00     0.033 C 
ENDBRANCH   7   8
ENDBRANCH   2   7
TORSDOF 4
ENDMDL
