MODEL 1
REMARK VINA RESULT:      -4.7      0.000      0.000
REMARK  3 active torsions:
REMARK  status: ('A' for Active; 'I' for Inactive)
REMARK    1  A    between atoms: C1_1  and  C6_6 
REMARK    2  A    between atoms: C5_5  and  C6_6 
REMARK    3  A    between atoms: C6_6  and  O8_8 
ROOT
HETATM    1  C4  UNL     1     -33.422   5.366   2.667  1.00 20.00     0.054 C 
HETATM    2  C6  UNL     1     -34.313   5.917   3.782  1.00 20.00     0.110 C 
ENDROOT
BRANCH   2   3
HETATM    3  C1  UNL     1     -34.456   4.853   4.862  1.00 20.00     0.268 C 
HETATM    4  O7  UNL     1     -34.235   3.659   4.686  1.00 20.00    -0.304 OA
ENDBRANCH   2   3
BRANCH   2   5
HETATM    5  C5  UNL     1     -33.790   7.258   4.362  1.00 20.00     0.018 C 
HETATM    6  C2  UNL     1     -32.449   7.716   3.781  1.00 20.00     0.013 C 
HETATM    7  C3  UNL     1     -33.700   7.233   5.897  1.00 20.00     0.013 C 
ENDBRANCH   2   5
BRANCH   2   8
HETATM    8  O8  UNL     1     -35.609   6.152   3.233  1.00 20.00    -0.383 OA
HETATM    9  H20 UNL     1     -35.469   6.520   2.346  1.00 20.00     0.211 HD
ENDBRANCH   2   8
TORSDOF 3
ENDMDL
MODEL 2
REMARK VINA RESULT:      -4.7      1.422      2.535
REMARK  3 active torsions:
REMARK  status: ('A' for Active; 'I' for Inactive)
REMARK    1  A    between atoms: C1_1  and  C6_6 
REMARK    2  A    between atoms: C5_5  and  C6_6 
REMARK    3  A    between atoms: C6_6  and  O8_8 
ROOT
HETATM    1  C4  UNL     1     -34.361   4.517   4.899  1.00 20.00     0.054 C 
HETATM    2  C6  UNL     1     -34.523   5.827   4.125  1.00 20.00     0.110 C 
ENDROOT
BRANCH   2   3
HETATM    3  C1  UNL     1     -34.184   6.985   5.052  1.00 20.00     0.268 C 
HETATM    4  O7  UNL     1     -34.098   6.889   6.273  1.00 20.00    -0.304 OA
ENDBRANCH   2   3
BRANCH   2   5
HETATM    5  C5  UNL     1     -33.678   5.865   2.825  1.00 20.00     0.018 C 
HETATM    6  C2  UNL     1     -32.914   4.570   2.531  1.00 20.00     0.013 C 
HETATM    7  C3  UNL     1     -32.702   7.052   2.799  1.00 20.00     0.013 C 
ENDBRANCH   2   5
BRANCH   2   8
HETATM    8  O8  UNL     1     -35.897   5.954   3.760  1.00 20.00    -0.383 OA
HETATM    9  H20 UNL     1     -36.117   6.894   3.844  1.00 20.00     0.211 HD
ENDBRANCH   2   8
TORSDOF 3
ENDMDL
MODEL 3
REMARK VINA RESULT:      -4.4      1.292      1.891
REMARK  3 active torsions:
REMARK  status: ('A' for Active; 'I' for Inactive)
REMARK    1  A    between atoms: C1_1  and  C6_6 
REMARK    2  A    between atoms: C5_5  and  C6_6 
REMARK    3  A    between atoms: C6_6  and  O8_8 
ROOT
HETATM    1  C4  UNL     1     -33.200   7.202   3.112  1.00 20.00     0.054 C 
HETATM    2  C6  UNL     1     -34.172   6.140   3.630  1.00 20.00     0.110 C 
ENDROOT
BRANCH   2   3
HETATM    3  C1  UNL     1     -33.595   4.763   3.327  1.00 20.00     0.268 C 
HETATM    4  O7  UNL     1     -32.736   4.548   2.478  1.00 20.00    -0.304 OA
ENDBRANCH   2   3
BRANCH   2   5
HETATM    5  C5  UNL     1     -34.497   6.307   5.138  1.00 20.00     0.018 C 
HETATM    6  C2  UNL     1     -33.571   7.276   5.879  1.00 20.00     0.013 C 
HETATM    7  C3  UNL     1     -34.528   4.961   5.880  1.00 20.00     0.013 C 
ENDBRANCH   2   5
BRANCH   2   8
HETATM    8  O8  UNL     1     -35.392   6.267   2.901  1.00 20.00    -0.383 OA
HETATM    9  H20 UNL     1     -35.865   7.019   3.288  1.00 20.00     0.211 HD
ENDBRANCH   2   8
TORSDOF 3
ENDMDL
MODEL 4
REMARK VINA RESULT:      -4.3      1.705      2.814
REMARK  3 active torsions:
REMARK  status: ('A' for Active; 'I' for Inactive)
REMARK    1  A    between atoms: C1_1  and  C6_6 
REMARK    2  A    between atoms: C5_5  and  C6_6 
REMARK    3  A    between atoms: C6_6  and  O8_8 
ROOT
HETATM    1  C4  UNL     1     -34.704   6.297   2.196  1.00 20.00     0.054 C 
HETATM    2  C6  UNL     1     -33.727   6.122   3.360  1.00 20.00     0.110 C 
ENDROOT
BRANCH   2   3
HETATM    3  C1  UNL     1     -32.594   7.126   3.198  1.00 20.00     0.268 C 
HETATM    4  O7  UNL     1     -32.613   8.066   2.410  1.00 20.00    -0.304 OA
ENDBRANCH   2   3
BRANCH   2   5
HETATM    5  C5  UNL     1     -34.414   6.250   4.745  1.00 20.00     0.018 C 
HETATM    6  C2  UNL     1     -33.720   7.220   5.706  1.00 20.00     0.013 C 
HETATM    7  C3  UNL     1     -34.592   4.888   5.435  1.00 20.00     0.013 C 
ENDBRANCH   2   5
BRANCH   2   8
HETATM    8  O8  UNL     1     -33.163   4.815   3.268  1.00 20.00    -0.383 OA
HETATM    9  H20 UNL     1     -33.854   4.243   2.899  1.00 20.00     0.211 HD
ENDBRANCH   2   8
TORSDOF 3
ENDMDL
MODEL 5
REMARK VINA RESULT:      -4.0      0.938      1.590
REMARK  3 active torsions:
REMARK  status: ('A' for Active; 'I' for Inactive)
REMARK    1  A    between atoms: C1_1  and  C6_6 
REMARK    2  A    between atoms: C5_5  and  C6_6 
REMARK    3  A    between atoms: C6_6  and  O8_8 
ROOT
HETATM    1  C4  UNL     1     -32.913   4.628   2.546  1.00 20.00     0.054 C 
HETATM    2  C6  UNL     1     -33.762   5.734   3.175  1.00 20.00     0.110 C 
ENDROOT
BRANCH   2   3
HETATM    3  C1  UNL     1     -34.634   5.120   4.261  1.00 20.00     0.268 C 
HETATM    4  O7  UNL     1     -34.657   3.923   4.532  1.00 20.00    -0.304 OA
ENDBRANCH   2   3
BRANCH   2   5
HETATM    5  C5  UNL     1     -32.909   6.909   3.720  1.00 20.00     0.018 C 
HETATM    6  C2  UNL     1     -33.445   7.530   5.014  1.00 20.00     0.013 C 
HETATM    7  C3  UNL     1     -32.701   8.014   2.672  1.00 20.00     0.013 C 
ENDBRANCH   2   5
BRANCH   2   8
HETATM    8  O8  UNL     1     -34.628   6.250   2.166  1.00 20.00    -0.383 OA
HETATM    9  H20 UNL     1     -35.527   6.204   2.526  1.00 20.00     0.211 HD
ENDBRANCH   2   8
TORSDOF 3
ENDMDL
MODEL 6
REMARK VINA RESULT:      -4.0      1.810      3.406
REMARK  3 active torsions:
REMARK  status: ('A' for Active; 'I' for Inactive)
REMARK    1  A    between atoms: C1_1  and  C6_6 
REMARK    2  A    between atoms: C5_5  and  C6_6 
REMARK    3  A    between atoms: C6_6  and  O8_8 
ROOT
HETATM    1  C4  UNL     1     -33.526   7.209   5.525  1.00 20.00     0.054 C 
HETATM    2  C6  UNL     1     -33.677   7.008   4.016  1.00 20.00     0.110 C 
ENDROOT
BRANCH   2   3
HETATM    3  C1  UNL     1     -32.358   7.365   3.344  1.00 20.00     0.268 C 
HETATM    4  O7  UNL     1     -31.582   8.221   3.759  1.00 20.00    -0.304 OA
ENDBRANCH   2   3
BRANCH   2   5
HETATM    5  C5  UNL     1     -34.141   5.575   3.644  1.00 20.00     0.018 C 
HETATM    6  C2  UNL     1     -34.549   4.714   4.842  1.00 20.00     0.013 C 
HETATM    7  C3  UNL     1     -33.096   4.822   2.805  1.00 20.00     0.013 C 
ENDBRANCH   2   5
BRANCH   2   8
HETATM    8  O8  UNL     1     -34.663   7.926   3.547  1.00 20.00    -0.383 OA
HETATM    9  H20 UNL     1     -34.664   7.857   2.580  1.00 20.00     0.211 HD
ENDBRANCH   2   8
TORSDOF 3
ENDMDL
MODEL 7
REMARK VINA RESULT:      -4.0     11.802     12.983
REMARK  3 active torsions:
REMARK  status: ('A' for Active; 'I' for Inactive)
REMARK    1  A    between atoms: C1_1  and  C6_6 
REMARK    2  A    between atoms: C5_5  and  C6_6 
REMARK    3  A    between atoms: C6_6  and  O8_8 
ROOT
HETATM    1  C4  UNL     1     -34.691  14.457  -4.071  1.00 20.00     0.054 C 
HETATM    2  C6  UNL     1     -35.722  14.007  -5.108  1.00 20.00     0.110 C 
ENDROOT
BRANCH   2   3
HETATM    3  C1  UNL     1     -37.063  14.642  -4.768  1.00 20.00     0.268 C 
HETATM    4  O7  UNL     1     -38.141  14.061  -4.848  1.00 20.00    -0.304 OA
ENDBRANCH   2   3
BRANCH   2   5
HETATM    5  C5  UNL     1     -35.288  14.324  -6.563  1.00 20.00     0.018 C 
HETATM    6  C2  UNL     1     -35.144  13.091  -7.460  1.00 20.00     0.013 C 
HETATM    7  C3  UNL     1     -33.994  15.152  -6.619  1.00 20.00     0.013 C 
ENDBRANCH   2   5
BRANCH   2   8
HETATM    8  O8  UNL     1     -35.872  12.593  -4.992  1.00 20.00    -0.383 OA
HETATM    9  H20 UNL     1     -36.812  12.430  -4.818  1.00 20.00     0.211 HD
ENDBRANCH   2   8
TORSDOF 3
ENDMDL
MODEL 8
REMARK VINA RESULT:      -3.9     11.744     12.577
REMARK  3 active torsions:
REMARK  status: ('A' for Active; 'I' for Inactive)
REMARK    1  A    between atoms: C1_1  and  C6_6 
REMARK    2  A    between atoms: C5_5  and  C6_6 
REMARK    3  A    between atoms: C6_6  and  O8_8 
ROOT
HETATM    1  C4  UNL     1     -36.807  14.781  -5.354  1.00 20.00     0.054 C 
HETATM    2  C6  UNL     1     -35.529  13.958  -5.190  1.00 20.00     0.110 C 
ENDROOT
BRANCH   2   3
HETATM    3  C1  UNL     1     -34.780  13.951  -6.516  1.00 20.00     0.268 C 
HETATM    4  O7  UNL     1     -34.553  12.940  -7.173  1.00 20.00    -0.304 OA
ENDBRANCH   2   3
BRANCH   2   5
HETATM    5  C5  UNL     1     -34.633  14.464  -4.028  1.00 20.00     0.018 C 
HETATM    6  C2  UNL     1     -35.026  15.840  -3.482  1.00 20.00     0.013 C 
HETATM    7  C3  UNL     1     -33.142  14.469  -4.401  1.00 20.00     0.013 C 
ENDBRANCH   2   5
BRANCH   2   8
HETATM    8  O8  UNL     1     -35.906  12.613  -4.900  1.00 20.00    -0.383 OA
HETATM    9  H20 UNL     1     -35.815  12.503  -3.941  1.00 20.00     0.211 HD
ENDBRANCH   2   8
TORSDOF 3
ENDMDL
MODEL 9
REMARK VINA RESULT:      -3.9      1.381      2.117
REMARK  3 active torsions:
REMARK  status: ('A' for Active; 'I' for Inactive)
REMARK    1  A    between atoms: C1_1  and  C6_6 
REMARK    2  A    between atoms: C5_5  and  C6_6 
REMARK    3  A    between atoms: C6_6  and  O8_8 
ROOT
HETATM    1  C4  UNL     1     -35.649   6.043   3.569  1.00 20.00     0.054 C 
HETATM    2  C6  UNL     1     -34.447   5.542   4.372  1.00 20.00     0.110 C 
ENDROOT
BRANCH   2   3
HETATM    3  C1  UNL     1     -33.792   4.400   3.608  1.00 20.00     0.268 C 
HETATM    4  O7  UNL     1     -33.050   4.553   2.643  1.00 20.00    -0.304 OA
ENDBRANCH   2   3
BRANCH   2   5
HETATM    5  C5  UNL     1     -33.433   6.669   4.701  1.00 20.00     0.018 C 
HETATM    6  C2  UNL     1     -33.727   7.422   6.002  1.00 20.00     0.013 C 
HETATM    7  C3  UNL     1     -33.286   7.676   3.549  1.00 20.00     0.013 C 
ENDBRANCH   2   5
BRANCH   2   8
HETATM    8  O8  UNL     1     -34.932   5.014   5.606  1.00 20.00    -0.383 OA
HETATM    9  H20 UNL     1     -34.184   4.562   6.024  1.00 20.00     0.211 HD
ENDBRANCH   2   8
TORSDOF 3
ENDMDL
