MODEL 1
REMARK VINA RESULT:      -4.9      0.000      0.000
REMARK  1 active torsions:
REMARK  status: ('A' for Active; 'I' for Inactive)
REMARK    1  A    between atoms: C7_7  and  C9_9 
ROOT
HETATM    1  C1  UNL     1     -34.023   5.167   5.632  1.00 20.00     0.005 C 
HETATM    2  C2  UNL     1     -34.184   6.695   5.638  1.00 20.00     0.006 C 
HETATM    3  C3  UNL     1     -35.492   5.832   3.880  1.00 20.00     0.010 C 
HETATM    4  C4  UNL     1     -33.294   5.171   3.228  1.00 20.00     0.015 C 
HETATM    5  C5  UNL     1     -34.429   4.783   4.197  1.00 20.00    -0.013 C 
HETATM    6  C6  UNL     1     -34.548   7.007   4.174  1.00 20.00    -0.005 C 
HETATM    7  C7  UNL     1     -33.352   6.722   3.211  1.00 20.00    -0.028 C 
HETATM    8  C8  UNL     1     -33.657   7.246   1.793  1.00 20.00     0.016 C 
ENDROOT
BRANCH   7   9
HETATM    9  C9  UNL     1     -32.023   7.344   3.660  1.00 20.00     0.124 C 
HETATM   10 CL10 UNL     1     -31.608   8.706   2.609  1.00 20.00    -0.130 Cl
ENDBRANCH   7   9
TORSDOF 1
ENDMDL
MODEL 2
REMARK VINA RESULT:      -4.1     11.690     12.749
REMARK  1 active torsions:
REMARK  status: ('A' for Active; 'I' for Inactive)
REMARK    1  A    between atoms: C7_7  and  C9_9 
ROOT
HETATM    1  C1  UNL     1     -33.642  16.667  -3.965  1.00 20.00     0.005 C 
HETATM    2  C2  UNL     1     -34.681  15.762  -3.286  1.00 20.00     0.006 C 
HETATM    3  C3  UNL     1     -33.157  14.383  -4.435  1.00 20.00     0.010 C 
HETATM    4  C4  UNL     1     -34.109  15.653  -6.216  1.00 20.00     0.015 C 
HETATM    5  C5  UNL     1     -33.074  15.765  -5.078  1.00 20.00    -0.013 C 
HETATM    6  C6  UNL     1     -34.665  14.499  -4.168  1.00 20.00    -0.005 C 
HETATM    7  C7  UNL     1     -35.234  14.784  -5.594  1.00 20.00    -0.028 C 
HETATM    8  C8  UNL     1     -35.415  13.471  -6.381  1.00 20.00     0.016 C 
ENDROOT
BRANCH   7   9
HETATM    9  C9  UNL     1     -36.583  15.517  -5.595  1.00 20.00     0.124 C 
HETATM   10 CL10 UNL     1     -37.847  14.456  -4.958  1.00 20.00    -0.130 Cl
ENDBRANCH   7   9
TORSDOF 1
ENDMDL
MODEL 3
REMARK VINA RESULT:      -4.0      1.073      2.431
REMARK  1 active torsions:
REMARK  status: ('A' for Active; 'I' for Inactive)
REMARK    1  A    between atoms: C7_7  and  C9_9 
ROOT
HETATM    1  C1  UNL     1     -34.313   5.511   2.170  1.00 20.00     0.005 C 
HETATM    2  C2  UNL     1     -33.071   5.045   2.946  1.00 20.00     0.006 C 
HETATM    3  C3  UNL     1     -34.863   5.200   4.466  1.00 20.00     0.010 C 
HETATM    4  C4  UNL     1     -34.653   7.458   3.722  1.00 20.00     0.015 C 
HETATM    5  C5  UNL     1     -35.213   6.091   3.277  1.00 20.00    -0.013 C 
HETATM    6  C6  UNL     1     -33.363   5.523   4.381  1.00 20.00    -0.005 C 
HETATM    7  C7  UNL     1     -33.353   7.082   4.482  1.00 20.00    -0.028 C 
HETATM    8  C8  UNL     1     -33.426   7.533   5.954  1.00 20.00     0.016 C 
ENDROOT
BRANCH   7   9
HETATM    9  C9  UNL     1     -32.118   7.742   3.854  1.00 20.00     0.124 C 
HETATM   10 CL10 UNL     1     -32.560   8.512   2.322  1.00 20.00    -0.130 Cl
ENDBRANCH   7   9
TORSDOF 1
ENDMDL
MODEL 4
REMARK VINA RESULT:      -4.0     11.290     12.771
REMARK  1 active torsions:
REMARK  status: ('A' for Active; 'I' for Inactive)
REMARK    1  A    between atoms: C7_7  and  C9_9 
ROOT
HETATM    1  C1  UNL     1     -32.968  14.644  -4.410  1.00 20.00     0.005 C 
HETATM    2  C2  UNL     1     -34.400  14.182  -4.102  1.00 20.00     0.006 C 
HETATM    3  C3  UNL     1     -34.473  15.549  -6.018  1.00 20.00     0.010 C 
HETATM    4  C4  UNL     1     -33.651  17.062  -4.366  1.00 20.00     0.015 C 
HETATM    5  C5  UNL     1     -33.189  15.902  -5.271  1.00 20.00    -0.013 C 
HETATM    6  C6  UNL     1     -35.262  15.297  -4.724  1.00 20.00    -0.005 C 
HETATM    7  C7  UNL     1     -35.093  16.649  -3.962  1.00 20.00    -0.028 C 
HETATM    8  C8  UNL     1     -36.120  17.686  -4.456  1.00 20.00     0.016 C 
ENDROOT
BRANCH   7   9
HETATM    9  C9  UNL     1     -35.243  16.534  -2.439  1.00 20.00     0.124 C 
HETATM   10 CL10 UNL     1     -33.765  17.094  -1.643  1.00 20.00    -0.130 Cl
ENDBRANCH   7   9
TORSDOF 1
ENDMDL
MODEL 5
REMARK VINA RESULT:      -4.0     11.439     12.674
REMARK  1 active torsions:
REMARK  status: ('A' for Active; 'I' for Inactive)
REMARK    1  A    between atoms: C7_7  and  C9_9 
ROOT
HETATM    1  C1  UNL     1     -37.154  14.277  -5.046  1.00 20.00     0.005 C 
HETATM    2  C2  UNL     1     -36.893  15.528  -5.898  1.00 20.00     0.006 C 
HETATM    3  C3  UNL     1     -35.339  13.877  -6.534  1.00 20.00     0.010 C 
HETATM    4  C4  UNL     1     -34.774  14.227  -4.241  1.00 20.00     0.015 C 
HETATM    5  C5  UNL     1     -35.817  13.517  -5.130  1.00 20.00    -0.013 C 
HETATM    6  C6  UNL     1     -35.403  15.388  -6.265  1.00 20.00    -0.005 C 
HETATM    7  C7  UNL     1     -34.484  15.543  -5.012  1.00 20.00    -0.028 C 
HETATM    8  C8  UNL     1     -33.003  15.621  -5.429  1.00 20.00     0.016 C 
ENDROOT
BRANCH   7   9
HETATM    9  C9  UNL     1     -34.793  16.780  -4.157  1.00 20.00     0.124 C 
HETATM   10 CL10 UNL     1     -35.073  16.296  -2.477  1.00 20.00    -0.130 Cl
ENDBRANCH   7   9
TORSDOF 1
ENDMDL
MODEL 6
REMARK VINA RESULT:      -3.9     11.613     12.871
REMARK  1 active torsions:
REMARK  status: ('A' for Active; 'I' for Inactive)
REMARK    1  A    between atoms: C7_7  and  C9_9 
ROOT
HETATM    1  C1  UNL     1     -33.037  15.456  -5.147  1.00 20.00     0.005 C 
HETATM    2  C2  UNL     1     -33.975  16.463  -5.829  1.00 20.00     0.006 C 
HETATM    3  C3  UNL     1     -34.738  16.135  -3.626  1.00 20.00     0.010 C 
HETATM    4  C4  UNL     1     -34.955  13.947  -4.552  1.00 20.00     0.015 C 
HETATM    5  C5  UNL     1     -33.895  14.915  -3.989  1.00 20.00    -0.013 C 
HETATM    6  C6  UNL     1     -35.292  16.287  -5.050  1.00 20.00    -0.005 C 
HETATM    7  C7  UNL     1     -35.932  14.886  -5.310  1.00 20.00    -0.028 C 
HETATM    8  C8  UNL     1     -37.347  14.812  -4.704  1.00 20.00     0.016 C 
ENDROOT
BRANCH   7   9
HETATM    9  C9  UNL     1     -36.040  14.512  -6.794  1.00 20.00     0.124 C 
HETATM   10 CL10 UNL     1     -35.042  13.090  -7.132  1.00 20.00    -0.130 Cl
ENDBRANCH   7   9
TORSDOF 1
ENDMDL
MODEL 7
REMARK VINA RESULT:      -3.9     11.874     12.995
REMARK  1 active torsions:
REMARK  status: ('A' for Active; 'I' for Inactive)
REMARK    1  A    between atoms: C7_7  and  C9_9 
ROOT
HETATM    1  C1  UNL     1     -34.441  14.683  -6.293  1.00 20.00     0.005 C 
HETATM    2  C2  UNL     1     -33.371  15.784  -6.224  1.00 20.00     0.006 C 
HETATM    3  C3  UNL     1     -33.103  14.390  -4.345  1.00 20.00     0.010 C 
HETATM    4  C4  UNL     1     -35.299  15.259  -4.003  1.00 20.00     0.015 C 
HETATM    5  C5  UNL     1     -34.538  14.204  -4.832  1.00 20.00    -0.013 C 
HETATM    6  C6  UNL     1     -33.075  15.880  -4.715  1.00 20.00    -0.005 C 
HETATM    7  C7  UNL     1     -34.298  16.443  -3.923  1.00 20.00    -0.028 C 
HETATM    8  C8  UNL     1     -33.911  16.738  -2.461  1.00 20.00     0.016 C 
ENDROOT
BRANCH   7   9
HETATM    9  C9  UNL     1     -34.892  17.727  -4.516  1.00 20.00     0.124 C 
HETATM   10 CL10 UNL     1     -36.546  17.427  -5.069  1.00 20.00    -0.130 Cl
ENDBRANCH   7   9
TORSDOF 1
ENDMDL
MODEL 8
REMARK VINA RESULT:      -3.9     11.789     12.854
REMARK  1 active torsions:
REMARK  status: ('A' for Active; 'I' for Inactive)
REMARK    1  A    between atoms: C7_7  and  C9_9 
ROOT
HETATM    1  C1  UNL     1     -34.025  15.934  -6.073  1.00 20.00     0.005 C 
HETATM    2  C2  UNL     1     -33.023  15.529  -4.982  1.00 20.00     0.006 C 
HETATM    3  C3  UNL     1     -35.138  14.695  -4.371  1.00 20.00     0.010 C 
HETATM    4  C4  UNL     1     -35.526  17.050  -4.395  1.00 20.00     0.015 C 
HETATM    5  C5  UNL     1     -35.380  15.844  -5.346  1.00 20.00    -0.013 C 
HETATM    6  C6  UNL     1     -33.915  15.374  -3.736  1.00 20.00    -0.005 C 
HETATM    7  C7  UNL     1     -34.499  16.745  -3.271  1.00 20.00    -0.028 C 
HETATM    8  C8  UNL     1     -35.202  16.604  -1.907  1.00 20.00     0.016 C 
ENDROOT
BRANCH   7   9
HETATM    9  C9  UNL     1     -33.453  17.861  -3.143  1.00 20.00     0.124 C 
HETATM   10 CL10 UNL     1     -32.786  17.877  -1.504  1.00 20.00    -0.130 Cl
ENDBRANCH   7   9
TORSDOF 1
ENDMDL
MODEL 9
REMARK VINA RESULT:      -3.9     11.555     13.027
REMARK  1 active torsions:
REMARK  status: ('A' for Active; 'I' for Inactive)
REMARK    1  A    between atoms: C7_7  and  C9_9 
ROOT
HETATM    1  C1  UNL     1     -34.359  16.300  -3.447  1.00 20.00     0.005 C 
HETATM    2  C2  UNL     1     -35.714  15.849  -4.011  1.00 20.00     0.006 C 
HETATM    3  C3  UNL     1     -34.240  14.015  -4.105  1.00 20.00     0.010 C 
HETATM    4  C4  UNL     1     -33.159  15.590  -5.536  1.00 20.00     0.015 C 
HETATM    5  C5  UNL     1     -33.378  15.273  -4.043  1.00 20.00    -0.013 C 
HETATM    6  C6  UNL     1     -35.326  14.694  -4.954  1.00 20.00    -0.005 C 
HETATM    7  C7  UNL     1     -34.515  15.205  -6.187  1.00 20.00    -0.028 C 
HETATM    8  C8  UNL     1     -34.329  14.078  -7.221  1.00 20.00     0.016 C 
ENDROOT
BRANCH   7   9
HETATM    9  C9  UNL     1     -35.156  16.398  -6.908  1.00 20.00     0.124 C 
HETATM   10 CL10 UNL     1     -34.065  17.790  -6.857  1.00 20.00    -0.130 Cl
ENDBRANCH   7   9
TORSDOF 1
ENDMDL
