MODEL 1
REMARK VINA RESULT:      -5.9      0.000      0.000
REMARK  5 active torsions:
REMARK  status: ('A' for Active; 'I' for Inactive)
REMARK    1  A    between atoms: C2_2  and  C4_4 
REMARK    2  A    between atoms: C2_2  and  C5_5 
REMARK    3  A    between atoms: C5_5  and  C6_6 
REMARK    4  A    between atoms: C6_6  and  C7_7 
REMARK    5  A    between atoms: C7_7  and  C8_8 
ROOT
HETATM    1  C5  UNL     1     -33.974   7.051   3.534  1.00 20.00     0.033 C 
ENDROOT
BRANCH   1   2
HETATM    2  C2  UNL     1     -34.066   6.625   4.983  1.00 20.00    -0.090 C 
HETATM    3  C1  UNL     1     -33.562   7.397   5.960  1.00 20.00     0.014 C 
BRANCH   2   4
HETATM    4  C4  UNL     1     -34.738   5.310   5.307  1.00 20.00     0.029 C 
HETATM    5  C3  UNL     1     -34.286   4.171   4.404  1.00 20.00     0.010 C 
ENDBRANCH   2   4
ENDBRANCH   1   2
BRANCH   1   6
HETATM    6  C6  UNL     1     -32.556   6.934   2.968  1.00 20.00     0.005 C 
BRANCH   6   7
HETATM    7  C7  UNL     1     -31.910   8.312   2.801  1.00 20.00     0.015 C 
BRANCH   7   8
HETATM    8  C8  UNL     1     -31.916   8.746   1.341  1.00 20.00     0.114 C 
HETATM    9 CL9  UNL     1     -32.770  10.294   1.156  1.00 20.00    -0.130 Cl
ENDBRANCH   7   8
ENDBRANCH   6   7
ENDBRANCH   1   6
TORSDOF 5
ENDMDL
MODEL 2
REMARK VINA RESULT:      -5.7      0.632      1.857
REMARK  5 active torsions:
REMARK  status: ('A' for Active; 'I' for Inactive)
REMARK    1  A    between atoms: C2_2  and  C4_4 
REMARK    2  A    between atoms: C2_2  and  C5_5 
REMARK    3  A    between atoms: C5_5  and  C6_6 
REMARK    4  A    between atoms: C6_6  and  C7_7 
REMARK    5  A    between atoms: C7_7  and  C8_8 
ROOT
HETATM    1  C5  UNL     1     -34.261   6.440   3.326  1.00 20.00     0.033 C 
ENDROOT
BRANCH   1   2
HETATM    2  C2  UNL     1     -34.336   5.463   4.479  1.00 20.00    -0.090 C 
HETATM    3  C1  UNL     1     -34.281   4.139   4.262  1.00 20.00     0.014 C 
BRANCH   2   4
HETATM    4  C4  UNL     1     -34.476   6.012   5.881  1.00 20.00     0.029 C 
HETATM    5  C3  UNL     1     -33.790   7.358   6.065  1.00 20.00     0.010 C 
ENDBRANCH   2   4
ENDBRANCH   1   2
BRANCH   1   6
HETATM    6  C6  UNL     1     -32.865   6.516   2.700  1.00 20.00     0.005 C 
BRANCH   6   7
HETATM    7  C7  UNL     1     -32.268   7.918   2.846  1.00 20.00     0.015 C 
BRANCH   7   8
HETATM    8  C8  UNL     1     -31.870   8.488   1.490  1.00 20.00     0.114 C 
HETATM    9 CL9  UNL     1     -32.655  10.061   1.224  1.00 20.00    -0.130 Cl
ENDBRANCH   7   8
ENDBRANCH   6   7
ENDBRANCH   1   6
TORSDOF 5
ENDMDL
MODEL 3
REMARK VINA RESULT:      -5.6      1.291      1.846
REMARK  5 active torsions:
REMARK  status: ('A' for Active; 'I' for Inactive)
REMARK    1  A    between atoms: C2_2  and  C4_4 
REMARK    2  A    between atoms: C2_2  and  C5_5 
REMARK    3  A    between atoms: C5_5  and  C6_6 
REMARK    4  A    between atoms: C6_6  and  C7_7 
REMARK    5  A    between atoms: C7_7  and  C8_8 
ROOT
HETATM    1  C5  UNL     1     -33.617   7.455   3.090  1.00 20.00     0.033 C 
ENDROOT
BRANCH   1   2
HETATM    2  C2  UNL     1     -33.861   5.979   3.314  1.00 20.00    -0.090 C 
HETATM    3  C1  UNL     1     -33.100   5.057   2.702  1.00 20.00     0.014 C 
BRANCH   2   4
HETATM    4  C4  UNL     1     -34.981   5.565   4.241  1.00 20.00     0.029 C 
HETATM    5  C3  UNL     1     -34.526   5.380   5.681  1.00 20.00     0.010 C 
ENDBRANCH   2   4
ENDBRANCH   1   2
BRANCH   1   6
HETATM    6  C6  UNL     1     -32.130   7.820   3.089  1.00 20.00     0.005 C 
BRANCH   6   7
HETATM    7  C7  UNL     1     -31.705   8.410   1.742  1.00 20.00     0.015 C 
BRANCH   7   8
HETATM    8  C8  UNL     1     -32.563   9.616   1.378  1.00 20.00     0.114 C 
HETATM    9 CL9  UNL     1     -33.101   9.508  -0.313  1.00 20.00    -0.130 Cl
ENDBRANCH   7   8
ENDBRANCH   6   7
ENDBRANCH   1   6
TORSDOF 5
ENDMDL
MODEL 4
REMARK VINA RESULT:      -5.5      2.274      4.714
REMARK  5 active torsions:
REMARK  status: ('A' for Active; 'I' for Inactive)
REMARK    1  A    between atoms: C2_2  and  C4_4 
REMARK    2  A    between atoms: C2_2  and  C5_5 
REMARK    3  A    between atoms: C5_5  and  C6_6 
REMARK    4  A    between atoms: C6_6  and  C7_7 
REMARK    5  A    between atoms: C7_7  and  C8_8 
ROOT
HETATM    1  C5  UNL     1     -33.534   7.362   2.400  1.00 20.00     0.033 C 
ENDROOT
BRANCH   1   2
HETATM    2  C2  UNL     1     -32.251   8.165   2.381  1.00 20.00    -0.090 C 
HETATM    3  C1  UNL     1     -31.457   8.216   3.463  1.00 20.00     0.014 C 
BRANCH   2   4
HETATM    4  C4  UNL     1     -31.884   8.909   1.117  1.00 20.00     0.029 C 
HETATM    5  C3  UNL     1     -32.669  10.201   0.937  1.00 20.00     0.010 C 
ENDBRANCH   2   4
ENDBRANCH   1   2
BRANCH   1   6
HETATM    6  C6  UNL     1     -33.405   6.054   3.186  1.00 20.00     0.005 C 
BRANCH   6   7
HETATM    7  C7  UNL     1     -34.722   5.692   3.877  1.00 20.00     0.015 C 
BRANCH   7   8
HETATM    8  C8  UNL     1     -34.549   5.631   5.390  1.00 20.00     0.114 C 
HETATM    9 CL9  UNL     1     -33.891   7.166   6.001  1.00 20.00    -0.130 Cl
ENDBRANCH   7   8
ENDBRANCH   6   7
ENDBRANCH   1   6
TORSDOF 5
ENDMDL
MODEL 5
REMARK VINA RESULT:      -5.2      2.566      4.812
REMARK  5 active torsions:
REMARK  status: ('A' for Active; 'I' for Inactive)
REMARK    1  A    between atoms: C2_2  and  C4_4 
REMARK    2  A    between atoms: C2_2  and  C5_5 
REMARK    3  A    between atoms: C5_5  and  C6_6 
REMARK    4  A    between atoms: C6_6  and  C7_7 
REMARK    5  A    between atoms: C7_7  and  C8_8 
ROOT
HETATM    1  C5  UNL     1     -33.368   7.332   3.388  1.00 20.00     0.033 C 
ENDROOT
BRANCH   1   2
HETATM    2  C2  UNL     1     -32.262   8.151   2.761  1.00 20.00    -0.090 C 
HETATM    3  C1  UNL     1     -31.159   8.466   3.460  1.00 20.00     0.014 C 
BRANCH   2   4
HETATM    4  C4  UNL     1     -32.426   8.608   1.329  1.00 20.00     0.029 C 
HETATM    5  C3  UNL     1     -32.570  10.117   1.198  1.00 20.00     0.010 C 
ENDBRANCH   2   4
ENDBRANCH   1   2
BRANCH   1   6
HETATM    6  C6  UNL     1     -33.298   7.308   4.918  1.00 20.00     0.005 C 
BRANCH   6   7
HETATM    7  C7  UNL     1     -34.364   6.382   5.508  1.00 20.00     0.015 C 
BRANCH   7   8
HETATM    8  C8  UNL     1     -34.997   5.516   4.425  1.00 20.00     0.114 C 
HETATM    9 CL9  UNL     1     -34.187   3.935   4.341  1.00 20.00    -0.130 Cl
ENDBRANCH   7   8
ENDBRANCH   6   7
ENDBRANCH   1   6
TORSDOF 5
ENDMDL
MODEL 6
REMARK VINA RESULT:      -5.0      2.698      5.129
REMARK  5 active torsions:
REMARK  status: ('A' for Active; 'I' for Inactive)
REMARK    1  A    between atoms: C2_2  and  C4_4 
REMARK    2  A    between atoms: C2_2  and  C5_5 
REMARK    3  A    between atoms: C5_5  and  C6_6 
REMARK    4  A    between atoms: C6_6  and  C7_7 
REMARK    5  A    between atoms: C7_7  and  C8_8 
ROOT
HETATM    1  C5  UNL     1     -31.958   8.403   2.732  1.00 20.00     0.033 C 
ENDROOT
BRANCH   1   2
HETATM    2  C2  UNL     1     -32.251   9.387   1.620  1.00 20.00    -0.090 C 
HETATM    3  C1  UNL     1     -32.707  10.620   1.896  1.00 20.00     0.014 C 
BRANCH   2   4
HETATM    4  C4  UNL     1     -32.019   8.950   0.191  1.00 20.00     0.029 C 
HETATM    5  C3  UNL     1     -33.171   9.309  -0.736  1.00 20.00     0.010 C 
ENDBRANCH   2   4
ENDBRANCH   1   2
BRANCH   1   6
HETATM    6  C6  UNL     1     -32.906   7.201   2.728  1.00 20.00     0.005 C 
BRANCH   6   7
HETATM    7  C7  UNL     1     -33.649   7.078   4.061  1.00 20.00     0.015 C 
BRANCH   7   8
HETATM    8  C8  UNL     1     -34.658   5.936   4.022  1.00 20.00     0.114 C 
HETATM    9 CL9  UNL     1     -34.601   5.005   5.536  1.00 20.00    -0.130 Cl
ENDBRANCH   7   8
ENDBRANCH   6   7
ENDBRANCH   1   6
TORSDOF 5
ENDMDL
MODEL 7
REMARK VINA RESULT:      -5.0      2.664      5.226
REMARK  5 active torsions:
REMARK  status: ('A' for Active; 'I' for Inactive)
REMARK    1  A    between atoms: C2_2  and  C4_4 
REMARK    2  A    between atoms: C2_2  and  C5_5 
REMARK    3  A    between atoms: C5_5  and  C6_6 
REMARK    4  A    between atoms: C6_6  and  C7_7 
REMARK    5  A    between atoms: C7_7  and  C8_8 
ROOT
HETATM    1  C5  UNL     1     -31.979   8.260   2.814  1.00 20.00     0.033 C 
ENDROOT
BRANCH   1   2
HETATM    2  C2  UNL     1     -31.937   8.849   1.421  1.00 20.00    -0.090 C 
HETATM    3  C1  UNL     1     -31.065   8.391   0.507  1.00 20.00     0.014 C 
BRANCH   2   4
HETATM    4  C4  UNL     1     -32.898   9.965   1.080  1.00 20.00     0.029 C 
HETATM    5  C3  UNL     1     -33.404   9.900  -0.353  1.00 20.00     0.010 C 
ENDBRANCH   2   4
ENDBRANCH   1   2
BRANCH   1   6
HETATM    6  C6  UNL     1     -32.797   6.967   2.888  1.00 20.00     0.005 C 
BRANCH   6   7
HETATM    7  C7  UNL     1     -33.868   7.053   3.979  1.00 20.00     0.015 C 
BRANCH   7   8
HETATM    8  C8  UNL     1     -34.747   5.808   3.983  1.00 20.00     0.114 C 
HETATM    9 CL9  UNL     1     -34.621   4.964   5.543  1.00 20.00    -0.130 Cl
ENDBRANCH   7   8
ENDBRANCH   6   7
ENDBRANCH   1   6
TORSDOF 5
ENDMDL
MODEL 8
REMARK VINA RESULT:      -4.5      2.556      4.411
REMARK  5 active torsions:
REMARK  status: ('A' for Active; 'I' for Inactive)
REMARK    1  A    between atoms: C2_2  and  C4_4 
REMARK    2  A    between atoms: C2_2  and  C5_5 
REMARK    3  A    between atoms: C5_5  and  C6_6 
REMARK    4  A    between atoms: C6_6  and  C7_7 
REMARK    5  A    between atoms: C7_7  and  C8_8 
ROOT
HETATM    1  C5  UNL     1     -33.481   6.813   2.516  1.00 20.00     0.033 C 
ENDROOT
BRANCH   1   2
HETATM    2  C2  UNL     1     -32.393   7.863   2.472  1.00 20.00    -0.090 C 
HETATM    3  C1  UNL     1     -32.145   8.548   1.344  1.00 20.00     0.014 C 
BRANCH   2   4
HETATM    4  C4  UNL     1     -31.592   8.124   3.728  1.00 20.00     0.029 C 
HETATM    5  C3  UNL     1     -32.459   8.257   4.971  1.00 20.00     0.010 C 
ENDBRANCH   2   4
ENDBRANCH   1   2
BRANCH   1   6
HETATM    6  C6  UNL     1     -32.935   5.399   2.740  1.00 20.00     0.005 C 
BRANCH   6   7
HETATM    7  C7  UNL     1     -33.909   4.553   3.564  1.00 20.00     0.015 C 
BRANCH   7   8
HETATM    8  C8  UNL     1     -34.954   5.428   4.245  1.00 20.00     0.114 C 
HETATM    9 CL9  UNL     1     -34.554   5.647   5.964  1.00 20.00    -0.130 Cl
ENDBRANCH   7   8
ENDBRANCH   6   7
ENDBRANCH   1   6
TORSDOF 5
ENDMDL
MODEL 9
REMARK VINA RESULT:      -4.2      2.771      4.252
REMARK  5 active torsions:
REMARK  status: ('A' for Active; 'I' for Inactive)
REMARK    1  A    between atoms: C2_2  and  C4_4 
REMARK    2  A    between atoms: C2_2  and  C5_5 
REMARK    3  A    between atoms: C5_5  and  C6_6 
REMARK    4  A    between atoms: C6_6  and  C7_7 
REMARK    5  A    between atoms: C7_7  and  C8_8 
ROOT
HETATM    1  C5  UNL     1     -32.300   7.645   4.087  1.00 20.00     0.033 C 
ENDROOT
BRANCH   1   2
HETATM    2  C2  UNL     1     -32.765   7.504   2.654  1.00 20.00    -0.090 C 
HETATM    3  C1  UNL     1     -32.423   8.415   1.727  1.00 20.00     0.014 C 
BRANCH   2   4
HETATM    4  C4  UNL     1     -33.625   6.315   2.289  1.00 20.00     0.029 C 
HETATM    5  C3  UNL     1     -32.947   4.981   2.568  1.00 20.00     0.010 C 
ENDBRANCH   2   4
ENDBRANCH   1   2
BRANCH   1   6
HETATM    6  C6  UNL     1     -33.442   7.967   5.055  1.00 20.00     0.005 C 
BRANCH   6   7
HETATM    7  C7  UNL     1     -33.680   6.814   6.033  1.00 20.00     0.015 C 
BRANCH   7   8
HETATM    8  C8  UNL     1     -34.889   5.984   5.618  1.00 20.00     0.114 C 
HETATM    9 CL9  UNL     1     -34.431   4.277   5.421  1.00 20.00    -0.130 Cl
ENDBRANCH   7   8
ENDBRANCH   6   7
ENDBRANCH   1   6
TORSDOF 5
ENDMDL
