MODEL 1
REMARK VINA RESULT:      -6.6      0.000      0.000
REMARK  4 active torsions:
REMARK  status: ('A' for Active; 'I' for Inactive)
REMARK    1  A    between atoms: C2_2  and  C9_9 
REMARK    2  A    between atoms: C2_2  and  C10_10 
REMARK    3  A    between atoms: C3_3  and  C5_5 
REMARK    4  A    between atoms: C3_3  and  C9_9 
ROOT
HETATM    1  C3  UNL     1     -33.582   6.085   3.011  1.00 20.00     0.135 C 
HETATM    2  O11 UNL     1     -32.711   5.293   2.672  1.00 20.00    -0.297 OA
ENDROOT
BRANCH   1   3
HETATM    3  C5  UNL     1     -34.720   5.619   3.857  1.00 20.00     0.060 A 
HETATM    4  C4  UNL     1     -34.449   4.612   4.929  1.00 20.00     0.017 A 
HETATM    5  C6  UNL     1     -34.804   6.026   5.295  1.00 20.00    -0.007 A 
HETATM    6  C7  UNL     1     -33.792   6.904   5.950  1.00 20.00     0.011 C 
ENDBRANCH   1   3
BRANCH   1   7
HETATM    7  C9  UNL     1     -33.631   7.545   2.604  1.00 20.00     0.111 C 
BRANCH   7   8
HETATM    8  C2  UNL     1     -32.249   8.134   2.505  1.00 20.00    -0.083 C 
HETATM    9  C1  UNL     1     -31.441   8.192   3.576  1.00 20.00     0.014 C 
BRANCH   8  10
HETATM   10  C10 UNL     1     -31.804   8.664   1.161  1.00 20.00     0.029 C 
HETATM   11  C8  UNL     1     -32.520   9.950   0.770  1.00 20.00     0.010 C 
ENDBRANCH   8  10
ENDBRANCH   7   8
ENDBRANCH   1   7
TORSDOF 4
ENDMDL
MODEL 2
REMARK VINA RESULT:      -6.0      1.261      4.844
REMARK  4 active torsions:
REMARK  status: ('A' for Active; 'I' for Inactive)
REMARK    1  A    between atoms: C2_2  and  C9_9 
REMARK    2  A    between atoms: C2_2  and  C10_10 
REMARK    3  A    between atoms: C3_3  and  C5_5 
REMARK    4  A    between atoms: C3_3  and  C9_9 
ROOT
HETATM    1  C3  UNL     1     -32.160   8.069   2.351  1.00 20.00     0.135 C 
HETATM    2  O11 UNL     1     -31.438   8.129   3.339  1.00 20.00    -0.297 OA
ENDROOT
BRANCH   1   3
HETATM    3  C5  UNL     1     -31.733   8.722   1.078  1.00 20.00     0.060 A 
HETATM    4  C4  UNL     1     -32.768   9.001   0.035  1.00 20.00     0.017 A 
HETATM    5  C6  UNL     1     -32.132  10.135   0.789  1.00 20.00    -0.007 A 
HETATM    6  C7  UNL     1     -32.949  10.957   1.728  1.00 20.00     0.011 C 
ENDBRANCH   1   3
BRANCH   1   7
HETATM    7  C9  UNL     1     -33.519   7.397   2.310  1.00 20.00     0.111 C 
BRANCH   7   8
HETATM    8  C2  UNL     1     -33.575   6.214   3.241  1.00 20.00    -0.083 C 
HETATM    9  C1  UNL     1     -33.118   5.009   2.860  1.00 20.00     0.014 C 
BRANCH   8  10
HETATM   10  C10 UNL     1     -34.166   6.427   4.616  1.00 20.00     0.029 C 
HETATM   11  C8  UNL     1     -34.633   5.129   5.261  1.00 20.00     0.010 C 
ENDBRANCH   8  10
ENDBRANCH   7   8
ENDBRANCH   1   7
TORSDOF 4
ENDMDL
MODEL 3
REMARK VINA RESULT:      -5.7      1.391      4.885
REMARK  4 active torsions:
REMARK  status: ('A' for Active; 'I' for Inactive)
REMARK    1  A    between atoms: C2_2  and  C9_9 
REMARK    2  A    between atoms: C2_2  and  C10_10 
REMARK    3  A    between atoms: C3_3  and  C5_5 
REMARK    4  A    between atoms: C3_3  and  C9_9 
ROOT
HETATM    1  C3  UNL     1     -32.312   8.039   2.867  1.00 20.00     0.135 C 
HETATM    2  O11 UNL     1     -31.336   8.481   3.461  1.00 20.00    -0.297 OA
ENDROOT
BRANCH   1   3
HETATM    3  C5  UNL     1     -33.040   8.901   1.890  1.00 20.00     0.060 A 
HETATM    4  C4  UNL     1     -32.474  10.246   1.563  1.00 20.00     0.017 A 
HETATM    5  C6  UNL     1     -32.462   9.152   0.533  1.00 20.00    -0.007 A 
HETATM    6  C7  UNL     1     -31.167   8.567   0.081  1.00 20.00     0.011 C 
ENDBRANCH   1   3
BRANCH   1   7
HETATM    7  C9  UNL     1     -32.895   6.653   3.069  1.00 20.00     0.111 C 
BRANCH   7   8
HETATM    8  C2  UNL     1     -33.811   6.611   4.263  1.00 20.00    -0.083 C 
HETATM    9  C1  UNL     1     -33.614   7.421   5.317  1.00 20.00     0.014 C 
BRANCH   8  10
HETATM   10  C10 UNL     1     -34.955   5.624   4.240  1.00 20.00     0.029 C 
HETATM   11  C8  UNL     1     -34.515   4.207   4.582  1.00 20.00     0.010 C 
ENDBRANCH   8  10
ENDBRANCH   7   8
ENDBRANCH   1   7
TORSDOF 4
ENDMDL
MODEL 4
REMARK VINA RESULT:      -5.4      1.359      2.078
REMARK  4 active torsions:
REMARK  status: ('A' for Active; 'I' for Inactive)
REMARK    1  A    between atoms: C2_2  and  C9_9 
REMARK    2  A    between atoms: C2_2  and  C10_10 
REMARK    3  A    between atoms: C3_3  and  C5_5 
REMARK    4  A    between atoms: C3_3  and  C9_9 
ROOT
HETATM    1  C3  UNL     1     -32.675   7.577   3.570  1.00 20.00     0.135 C 
HETATM    2  O11 UNL     1     -32.833   7.746   4.773  1.00 20.00    -0.297 OA
ENDROOT
BRANCH   1   3
HETATM    3  C5  UNL     1     -33.587   6.663   2.822  1.00 20.00     0.060 A 
HETATM    4  C4  UNL     1     -33.305   5.194   2.848  1.00 20.00     0.017 A 
HETATM    5  C6  UNL     1     -34.505   5.744   3.566  1.00 20.00    -0.007 A 
HETATM    6  C7  UNL     1     -34.572   5.694   5.055  1.00 20.00     0.011 C 
ENDBRANCH   1   3
BRANCH   1   7
HETATM    7  C9  UNL     1     -31.569   8.208   2.745  1.00 20.00     0.111 C 
BRANCH   7   8
HETATM    8  C2  UNL     1     -32.125   9.162   1.720  1.00 20.00    -0.083 C 
HETATM    9  C1  UNL     1     -32.742  10.296   2.091  1.00 20.00     0.014 C 
BRANCH   8  10
HETATM   10  C10 UNL     1     -31.969   8.798   0.261  1.00 20.00     0.029 C 
HETATM   11  C8  UNL     1     -33.123   9.302  -0.595  1.00 20.00     0.010 C 
ENDBRANCH   8  10
ENDBRANCH   7   8
ENDBRANCH   1   7
TORSDOF 4
ENDMDL
MODEL 5
REMARK VINA RESULT:      -5.4      0.965      4.588
REMARK  4 active torsions:
REMARK  status: ('A' for Active; 'I' for Inactive)
REMARK    1  A    between atoms: C2_2  and  C9_9 
REMARK    2  A    between atoms: C2_2  and  C10_10 
REMARK    3  A    between atoms: C3_3  and  C5_5 
REMARK    4  A    between atoms: C3_3  and  C9_9 
ROOT
HETATM    1  C3  UNL     1     -32.965   7.107   2.872  1.00 20.00     0.135 C 
HETATM    2  O11 UNL     1     -32.389   6.122   2.427  1.00 20.00    -0.297 OA
ENDROOT
BRANCH   1   3
HETATM    3  C5  UNL     1     -32.326   8.452   2.767  1.00 20.00     0.060 A 
HETATM    4  C4  UNL     1     -31.180   8.626   1.822  1.00 20.00     0.017 A 
HETATM    5  C6  UNL     1     -32.505   9.274   1.529  1.00 20.00    -0.007 A 
HETATM    6  C7  UNL     1     -33.315   8.820   0.363  1.00 20.00     0.011 C 
ENDBRANCH   1   3
BRANCH   1   7
HETATM    7  C9  UNL     1     -34.306   7.080   3.582  1.00 20.00     0.111 C 
BRANCH   7   8
HETATM    8  C2  UNL     1     -34.162   6.615   5.008  1.00 20.00    -0.083 C 
HETATM    9  C1  UNL     1     -33.520   7.363   5.920  1.00 20.00     0.014 C 
BRANCH   8  10
HETATM   10  C10 UNL     1     -34.761   5.277   5.377  1.00 20.00     0.029 C 
HETATM   11  C8  UNL     1     -34.289   4.152   4.466  1.00 20.00     0.010 C 
ENDBRANCH   8  10
ENDBRANCH   7   8
ENDBRANCH   1   7
TORSDOF 4
ENDMDL
MODEL 6
REMARK VINA RESULT:      -5.2      0.825      4.463
REMARK  4 active torsions:
REMARK  status: ('A' for Active; 'I' for Inactive)
REMARK    1  A    between atoms: C2_2  and  C9_9 
REMARK    2  A    between atoms: C2_2  and  C10_10 
REMARK    3  A    between atoms: C3_3  and  C5_5 
REMARK    4  A    between atoms: C3_3  and  C9_9 
ROOT
HETATM    1  C3  UNL     1     -33.212   6.626   2.867  1.00 20.00     0.135 C 
HETATM    2  O11 UNL     1     -32.503   5.868   2.217  1.00 20.00    -0.297 OA
ENDROOT
BRANCH   1   3
HETATM    3  C5  UNL     1     -32.713   7.986   3.226  1.00 20.00     0.060 A 
HETATM    4  C4  UNL     1     -31.269   8.301   2.994  1.00 20.00     0.017 A 
HETATM    5  C6  UNL     1     -32.329   8.953   2.150  1.00 20.00    -0.007 A 
HETATM    6  C7  UNL     1     -32.427   8.632   0.697  1.00 20.00     0.011 C 
ENDBRANCH   1   3
BRANCH   1   7
HETATM    7  C9  UNL     1     -34.592   6.282   3.395  1.00 20.00     0.111 C 
BRANCH   7   8
HETATM    8  C2  UNL     1     -34.512   5.343   4.570  1.00 20.00    -0.083 C 
HETATM    9  C1  UNL     1     -34.304   4.027   4.394  1.00 20.00     0.014 C 
BRANCH   8  10
HETATM   10  C10 UNL     1     -34.678   5.929   5.953  1.00 20.00     0.029 C 
HETATM   11  C8  UNL     1     -33.879   7.210   6.148  1.00 20.00     0.010 C 
ENDBRANCH   8  10
ENDBRANCH   7   8
ENDBRANCH   1   7
TORSDOF 4
ENDMDL
MODEL 7
REMARK VINA RESULT:      -5.1      1.375      1.939
REMARK  4 active torsions:
REMARK  status: ('A' for Active; 'I' for Inactive)
REMARK    1  A    between atoms: C2_2  and  C9_9 
REMARK    2  A    between atoms: C2_2  and  C10_10 
REMARK    3  A    between atoms: C3_3  and  C5_5 
REMARK    4  A    between atoms: C3_3  and  C9_9 
ROOT
HETATM    1  C3  UNL     1     -33.596   7.276   4.638  1.00 20.00     0.135 C 
HETATM    2  O11 UNL     1     -32.879   7.702   5.535  1.00 20.00    -0.297 OA
ENDROOT
BRANCH   1   3
HETATM    3  C5  UNL     1     -34.412   6.045   4.860  1.00 20.00     0.060 A 
HETATM    4  C4  UNL     1     -35.434   5.670   3.834  1.00 20.00     0.017 A 
HETATM    5  C6  UNL     1     -34.195   4.836   4.005  1.00 20.00    -0.007 A 
HETATM    6  C7  UNL     1     -33.176   4.782   2.918  1.00 20.00     0.011 C 
ENDBRANCH   1   3
BRANCH   1   7
HETATM    7  C9  UNL     1     -33.708   7.886   3.254  1.00 20.00     0.111 C 
BRANCH   7   8
HETATM    8  C2  UNL     1     -32.354   8.250   2.704  1.00 20.00    -0.083 C 
HETATM    9  C1  UNL     1     -31.246   8.136   3.455  1.00 20.00     0.014 C 
BRANCH   8  10
HETATM   10  C10 UNL     1     -32.283   8.752   1.280  1.00 20.00     0.029 C 
HETATM   11  C8  UNL     1     -32.716  10.206   1.148  1.00 20.00     0.010 C 
ENDBRANCH   8  10
ENDBRANCH   7   8
ENDBRANCH   1   7
TORSDOF 4
ENDMDL
MODEL 8
REMARK VINA RESULT:      -5.0      0.452      1.613
REMARK  4 active torsions:
REMARK  status: ('A' for Active; 'I' for Inactive)
REMARK    1  A    between atoms: C2_2  and  C9_9 
REMARK    2  A    between atoms: C2_2  and  C10_10 
REMARK    3  A    between atoms: C3_3  and  C5_5 
REMARK    4  A    between atoms: C3_3  and  C9_9 
ROOT
HETATM    1  C3  UNL     1     -33.644   6.076   2.996  1.00 20.00     0.135 C 
HETATM    2  O11 UNL     1     -32.733   5.341   2.633  1.00 20.00    -0.297 OA
ENDROOT
BRANCH   1   3
HETATM    3  C5  UNL     1     -34.761   5.523   3.817  1.00 20.00     0.060 A 
HETATM    4  C4  UNL     1     -34.447   4.482   4.843  1.00 20.00     0.017 A 
HETATM    5  C6  UNL     1     -34.862   5.861   5.272  1.00 20.00    -0.007 A 
HETATM    6  C7  UNL     1     -33.890   6.751   5.969  1.00 20.00     0.011 C 
ENDBRANCH   1   3
BRANCH   1   7
HETATM    7  C9  UNL     1     -33.765   7.546   2.642  1.00 20.00     0.111 C 
BRANCH   7   8
HETATM    8  C2  UNL     1     -32.427   8.134   2.276  1.00 20.00    -0.083 C 
HETATM    9  C1  UNL     1     -32.224   8.701   1.075  1.00 20.00     0.014 C 
BRANCH   8  10
HETATM   10  C10 UNL     1     -31.321   8.062   3.303  1.00 20.00     0.029 C 
HETATM   11  C8  UNL     1     -31.610   8.906   4.537  1.00 20.00     0.010 C 
ENDBRANCH   8  10
ENDBRANCH   7   8
ENDBRANCH   1   7
TORSDOF 4
ENDMDL
MODEL 9
REMARK VINA RESULT:      -4.6     10.774     11.853
REMARK  4 active torsions:
REMARK  status: ('A' for Active; 'I' for Inactive)
REMARK    1  A    between atoms: C2_2  and  C9_9 
REMARK    2  A    between atoms: C2_2  and  C10_10 
REMARK    3  A    between atoms: C3_3  and  C5_5 
REMARK    4  A    between atoms: C3_3  and  C9_9 
ROOT
HETATM    1  C3  UNL     1     -34.915  14.081  -4.368  1.00 20.00     0.135 C 
HETATM    2  O11 UNL     1     -33.879  13.517  -4.038  1.00 20.00    -0.297 OA
ENDROOT
BRANCH   1   3
HETATM    3  C5  UNL     1     -35.855  13.412  -5.316  1.00 20.00     0.060 A 
HETATM    4  C4  UNL     1     -36.650  14.263  -6.254  1.00 20.00     0.017 A 
HETATM    5  C6  UNL     1     -35.551  13.383  -6.781  1.00 20.00    -0.007 A 
HETATM    6  C7  UNL     1     -34.323  13.993  -7.367  1.00 20.00     0.011 C 
ENDBRANCH   1   3
BRANCH   1   7
HETATM    7  C9  UNL     1     -35.329  15.468  -3.915  1.00 20.00     0.111 C 
BRANCH   7   8
HETATM    8  C2  UNL     1     -34.143  16.392  -3.822  1.00 20.00    -0.083 C 
HETATM    9  C1  UNL     1     -33.505  16.815  -4.926  1.00 20.00     0.014 C 
BRANCH   8  10
HETATM   10  C10 UNL     1     -33.692  16.823  -2.445  1.00 20.00     0.029 C 
HETATM   11  C8  UNL     1     -34.849  16.966  -1.466  1.00 20.00     0.010 C 
ENDBRANCH   8  10
ENDBRANCH   7   8
ENDBRANCH   1   7
TORSDOF 4
ENDMDL
