MODEL 1
REMARK VINA RESULT:      -4.6      0.000      0.000
REMARK  4 active torsions:
REMARK  status: ('A' for Active; 'I' for Inactive)
REMARK    1  A    between atoms: C3_3  and  C5_5 
REMARK    2  A    between atoms: C3_3  and  C6_6 
REMARK    3  A    between atoms: C5_5  and  C7_7 
REMARK    4  A    between atoms: C7_7  and  O8_8 
ROOT
HETATM    1  C1  UNL     1     -34.817   6.035   3.581  1.00 20.00     0.011 A 
HETATM    2  C2  UNL     1     -33.563   5.236   3.368  1.00 20.00     0.011 A 
HETATM    3  C3  UNL     1     -33.490   6.743   3.442  1.00 20.00    -0.026 A 
ENDROOT
BRANCH   3   4
HETATM    4  C5  UNL     1     -33.225   7.500   2.170  1.00 20.00     0.037 C 
BRANCH   4   5
HETATM    5  C7  UNL     1     -32.023   8.433   2.290  1.00 20.00     0.167 C 
BRANCH   5   6
HETATM    6  O8  UNL     1     -31.797   9.074   1.043  1.00 20.00    -0.396 OA
HETATM    7  C4  UNL     1     -32.627  10.217   0.884  1.00 20.00     0.201 C 
ENDBRANCH   5   6
ENDBRANCH   4   5
ENDBRANCH   3   4
BRANCH   3   8
HETATM    8  C6  UNL     1     -32.887   7.361   4.674  1.00 20.00     0.124 C 
HETATM    9 CL9  UNL     1     -33.996   7.219   6.060  1.00 20.00    -0.130 Cl
ENDBRANCH   3   8
TORSDOF 4
ENDMDL
MODEL 2
REMARK VINA RESULT:      -4.3      2.322      3.984
REMARK  4 active torsions:
REMARK  status: ('A' for Active; 'I' for Inactive)
REMARK    1  A    between atoms: C3_3  and  C5_5 
REMARK    2  A    between atoms: C3_3  and  C6_6 
REMARK    3  A    between atoms: C5_5  and  C7_7 
REMARK    4  A    between atoms: C7_7  and  O8_8 
ROOT
HETATM    1  C1  UNL     1     -31.487   8.110   3.313  1.00 20.00     0.011 A 
HETATM    2  C2  UNL     1     -32.399   8.445   2.168  1.00 20.00     0.011 A 
HETATM    3  C3  UNL     1     -32.825   7.422   3.194  1.00 20.00    -0.026 A 
ENDROOT
BRANCH   3   4
HETATM    4  C5  UNL     1     -32.841   5.975   2.784  1.00 20.00     0.037 C 
BRANCH   4   5
HETATM    5  C7  UNL     1     -34.180   5.303   3.079  1.00 20.00     0.167 C 
BRANCH   5   6
HETATM    6  O8  UNL     1     -33.968   4.190   3.936  1.00 20.00    -0.396 OA
HETATM    7  C4  UNL     1     -34.568   4.388   5.209  1.00 20.00     0.201 C 
ENDBRANCH   5   6
ENDBRANCH   4   5
ENDBRANCH   3   4
BRANCH   3   8
HETATM    8  C6  UNL     1     -33.906   7.807   4.167  1.00 20.00     0.124 C 
HETATM    9 CL9  UNL     1     -33.375   7.531   5.844  1.00 20.00    -0.130 Cl
ENDBRANCH   3   8
TORSDOF 4
ENDMDL
MODEL 3
REMARK VINA RESULT:      -4.0      1.751      2.161
REMARK  4 active torsions:
REMARK  status: ('A' for Active; 'I' for Inactive)
REMARK    1  A    between atoms: C3_3  and  C5_5 
REMARK    2  A    between atoms: C3_3  and  C6_6 
REMARK    3  A    between atoms: C5_5  and  C7_7 
REMARK    4  A    between atoms: C7_7  and  O8_8 
ROOT
HETATM    1  C1  UNL     1     -34.753   5.770   5.074  1.00 20.00     0.011 A 
HETATM    2  C2  UNL     1     -35.531   6.095   3.832  1.00 20.00     0.011 A 
HETATM    3  C3  UNL     1     -34.021   6.103   3.797  1.00 20.00    -0.026 A 
ENDROOT
BRANCH   3   4
HETATM    4  C5  UNL     1     -33.324   7.432   3.709  1.00 20.00     0.037 C 
BRANCH   4   5
HETATM    5  C7  UNL     1     -32.285   7.471   2.591  1.00 20.00     0.167 C 
BRANCH   5   6
HETATM    6  O8  UNL     1     -31.890   8.815   2.361  1.00 20.00    -0.396 OA
HETATM    7  C4  UNL     1     -32.350   9.288   1.103  1.00 20.00     0.201 C 
ENDBRANCH   5   6
ENDBRANCH   4   5
ENDBRANCH   3   4
BRANCH   3   8
HETATM    8  C6  UNL     1     -33.327   4.984   3.068  1.00 20.00     0.124 C 
HETATM    9 CL9  UNL     1     -33.647   3.421   3.859  1.00 20.00    -0.130 Cl
ENDBRANCH   3   8
TORSDOF 4
ENDMDL
MODEL 4
REMARK VINA RESULT:      -3.9      2.064      3.710
REMARK  4 active torsions:
REMARK  status: ('A' for Active; 'I' for Inactive)
REMARK    1  A    between atoms: C3_3  and  C5_5 
REMARK    2  A    between atoms: C3_3  and  C6_6 
REMARK    3  A    between atoms: C5_5  and  C7_7 
REMARK    4  A    between atoms: C7_7  and  O8_8 
ROOT
HETATM    1  C1  UNL     1     -31.640   8.334   1.153  1.00 20.00     0.011 A 
HETATM    2  C2  UNL     1     -32.584   9.379   1.675  1.00 20.00     0.011 A 
HETATM    3  C3  UNL     1     -32.360   8.108   2.460  1.00 20.00    -0.026 A 
ENDROOT
BRANCH   3   4
HETATM    4  C5  UNL     1     -33.468   7.092   2.489  1.00 20.00     0.037 C 
BRANCH   4   5
HETATM    5  C7  UNL     1     -32.952   5.678   2.746  1.00 20.00     0.167 C 
BRANCH   5   6
HETATM    6  O8  UNL     1     -33.896   4.969   3.535  1.00 20.00    -0.396 OA
HETATM    7  C4  UNL     1     -35.004   5.786   3.886  1.00 20.00     0.201 C 
ENDBRANCH   5   6
ENDBRANCH   4   5
ENDBRANCH   3   4
BRANCH   3   8
HETATM    8  C6  UNL     1     -31.561   8.197   3.731  1.00 20.00     0.124 C 
HETATM    9 CL9  UNL     1     -32.620   8.062   5.156  1.00 20.00    -0.130 Cl
ENDBRANCH   3   8
TORSDOF 4
ENDMDL
MODEL 5
REMARK VINA RESULT:      -3.9      2.751      4.277
REMARK  4 active torsions:
REMARK  status: ('A' for Active; 'I' for Inactive)
REMARK    1  A    between atoms: C3_3  and  C5_5 
REMARK    2  A    between atoms: C3_3  and  C6_6 
REMARK    3  A    between atoms: C5_5  and  C7_7 
REMARK    4  A    between atoms: C7_7  and  O8_8 
ROOT
HETATM    1  C1  UNL     1     -32.844   8.810   2.173  1.00 20.00     0.011 A 
HETATM    2  C2  UNL     1     -31.628   7.928   2.194  1.00 20.00     0.011 A 
HETATM    3  C3  UNL     1     -32.877   7.504   2.931  1.00 20.00    -0.026 A 
ENDROOT
BRANCH   3   4
HETATM    4  C5  UNL     1     -32.863   7.560   4.434  1.00 20.00     0.037 C 
BRANCH   4   5
HETATM    5  C7  UNL     1     -34.211   7.181   5.041  1.00 20.00     0.167 C 
BRANCH   5   6
HETATM    6  O8  UNL     1     -34.019   6.171   6.021  1.00 20.00    -0.396 OA
HETATM    7  C4  UNL     1     -34.662   4.958   5.654  1.00 20.00     0.201 C 
ENDBRANCH   5   6
ENDBRANCH   4   5
ENDBRANCH   3   4
BRANCH   3   8
HETATM    8  C6  UNL     1     -33.685   6.374   2.356  1.00 20.00     0.124 C 
HETATM    9 CL9  UNL     1     -32.890   4.810   2.657  1.00 20.00    -0.130 Cl
ENDBRANCH   3   8
TORSDOF 4
ENDMDL
MODEL 6
REMARK VINA RESULT:      -3.8     10.761     11.582
REMARK  4 active torsions:
REMARK  status: ('A' for Active; 'I' for Inactive)
REMARK    1  A    between atoms: C3_3  and  C5_5 
REMARK    2  A    between atoms: C3_3  and  C6_6 
REMARK    3  A    between atoms: C5_5  and  C7_7 
REMARK    4  A    between atoms: C7_7  and  O8_8 
ROOT
HETATM    1  C1  UNL     1     -35.207  16.309  -2.737  1.00 20.00     0.011 A 
HETATM    2  C2  UNL     1     -33.716  16.366  -2.911  1.00 20.00     0.011 A 
HETATM    3  C3  UNL     1     -34.578  15.777  -4.003  1.00 20.00    -0.026 A 
ENDROOT
BRANCH   3   4
HETATM    4  C5  UNL     1     -34.545  14.287  -4.203  1.00 20.00     0.037 C 
BRANCH   4   5
HETATM    5  C7  UNL     1     -35.767  13.776  -4.962  1.00 20.00     0.167 C 
BRANCH   5   6
HETATM    6  O8  UNL     1     -35.382  12.695  -5.800  1.00 20.00    -0.396 OA
HETATM    7  C4  UNL     1     -35.193  13.116  -7.143  1.00 20.00     0.201 C 
ENDBRANCH   5   6
ENDBRANCH   4   5
ENDBRANCH   3   4
BRANCH   3   8
HETATM    8  C6  UNL     1     -34.756  16.573  -5.267  1.00 20.00     0.124 C 
HETATM    9 CL9  UNL     1     -33.457  16.212  -6.430  1.00 20.00    -0.130 Cl
ENDBRANCH   3   8
TORSDOF 4
ENDMDL
MODEL 7
REMARK VINA RESULT:      -3.8      2.998      4.072
REMARK  4 active torsions:
REMARK  status: ('A' for Active; 'I' for Inactive)
REMARK    1  A    between atoms: C3_3  and  C5_5 
REMARK    2  A    between atoms: C3_3  and  C6_6 
REMARK    3  A    between atoms: C5_5  and  C7_7 
REMARK    4  A    between atoms: C7_7  and  O8_8 
ROOT
HETATM    1  C1  UNL     1     -32.904   5.280   2.845  1.00 20.00     0.011 A 
HETATM    2  C2  UNL     1     -33.724   5.973   1.794  1.00 20.00     0.011 A 
HETATM    3  C3  UNL     1     -33.161   6.764   2.952  1.00 20.00    -0.026 A 
ENDROOT
BRANCH   3   4
HETATM    4  C5  UNL     1     -34.116   7.240   4.011  1.00 20.00     0.037 C 
BRANCH   4   5
HETATM    5  C7  UNL     1     -33.498   7.208   5.407  1.00 20.00     0.167 C 
BRANCH   5   6
HETATM    6  O8  UNL     1     -34.362   6.506   6.289  1.00 20.00    -0.396 OA
HETATM    7  C4  UNL     1     -34.646   5.198   5.812  1.00 20.00     0.201 C 
ENDBRANCH   5   6
ENDBRANCH   4   5
ENDBRANCH   3   4
BRANCH   3   8
HETATM    8  C6  UNL     1     -32.017   7.700   2.676  1.00 20.00     0.124 C 
HETATM    9 CL9  UNL     1     -32.566   9.111   1.739  1.00 20.00    -0.130 Cl
ENDBRANCH   3   8
TORSDOF 4
ENDMDL
MODEL 8
REMARK VINA RESULT:      -3.7      3.022      4.346
REMARK  4 active torsions:
REMARK  status: ('A' for Active; 'I' for Inactive)
REMARK    1  A    between atoms: C3_3  and  C5_5 
REMARK    2  A    between atoms: C3_3  and  C6_6 
REMARK    3  A    between atoms: C5_5  and  C7_7 
REMARK    4  A    between atoms: C7_7  and  O8_8 
ROOT
HETATM    1  C1  UNL     1     -32.649   8.174   4.365  1.00 20.00     0.011 A 
HETATM    2  C2  UNL     1     -31.293   7.994   3.746  1.00 20.00     0.011 A 
HETATM    3  C3  UNL     1     -32.533   7.711   2.932  1.00 20.00    -0.026 A 
ENDROOT
BRANCH   3   4
HETATM    4  C5  UNL     1     -32.864   6.277   2.626  1.00 20.00     0.037 C 
BRANCH   4   5
HETATM    5  C7  UNL     1     -34.246   5.877   3.139  1.00 20.00     0.167 C 
BRANCH   5   6
HETATM    6  O8  UNL     1     -34.129   4.722   3.957  1.00 20.00    -0.396 OA
HETATM    7  C4  UNL     1     -34.604   4.964   5.274  1.00 20.00     0.201 C 
ENDBRANCH   5   6
ENDBRANCH   4   5
ENDBRANCH   3   4
BRANCH   3   8
HETATM    8  C6  UNL     1     -32.900   8.683   1.844  1.00 20.00     0.124 C 
HETATM    9 CL9  UNL     1     -31.591   8.812   0.644  1.00 20.00    -0.130 Cl
ENDBRANCH   3   8
TORSDOF 4
ENDMDL
MODEL 9
REMARK VINA RESULT:      -3.6     10.566     11.458
REMARK  4 active torsions:
REMARK  status: ('A' for Active; 'I' for Inactive)
REMARK    1  A    between atoms: C3_3  and  C5_5 
REMARK    2  A    between atoms: C3_3  and  C6_6 
REMARK    3  A    between atoms: C5_5  and  C7_7 
REMARK    4  A    between atoms: C7_7  and  O8_8 
ROOT
HETATM    1  C1  UNL     1     -33.317  14.851  -4.305  1.00 20.00     0.011 A 
HETATM    2  C2  UNL     1     -33.061  15.799  -5.441  1.00 20.00     0.011 A 
HETATM    3  C3  UNL     1     -34.453  15.669  -4.870  1.00 20.00    -0.026 A 
ENDROOT
BRANCH   3   4
HETATM    4  C5  UNL     1     -35.491  14.960  -5.695  1.00 20.00     0.037 C 
BRANCH   4   5
HETATM    5  C7  UNL     1     -35.851  13.591  -5.124  1.00 20.00     0.167 C 
BRANCH   5   6
HETATM    6  O8  UNL     1     -35.392  12.577  -6.006  1.00 20.00    -0.396 OA
HETATM    7  C4  UNL     1     -35.208  13.075  -7.324  1.00 20.00     0.201 C 
ENDBRANCH   5   6
ENDBRANCH   4   5
ENDBRANCH   3   4
BRANCH   3   8
HETATM    8  C6  UNL     1     -34.984  16.807  -4.041  1.00 20.00     0.124 C 
HETATM    9 CL9  UNL     1     -35.027  16.366  -2.316  1.00 20.00    -0.130 Cl
ENDBRANCH   3   8
TORSDOF 4
ENDMDL
