MODEL 1
REMARK VINA RESULT:      -5.1      0.000      0.000
REMARK  4 active torsions:
REMARK  status: ('A' for Active; 'I' for Inactive)
REMARK    1  A    between atoms: C3_3  and  C5_5 
REMARK    2  A    between atoms: C4_4  and  C7_7 
REMARK    3  A    between atoms: C5_5  and  C7_7 
REMARK    4  A    between atoms: C6_6  and  C7_7 
ROOT
HETATM    1  C7  UNL     1     -33.647   7.309   3.746  1.00 20.00    -0.001 C 
ENDROOT
BRANCH   1   2
HETATM    2  C4  UNL     1     -33.723   7.181   5.286  1.00 20.00     0.001 C 
HETATM    3  C2  UNL     1     -34.453   5.930   5.760  1.00 20.00     0.005 C 
ENDBRANCH   1   2
BRANCH   1   4
HETATM    4  C5  UNL     1     -32.222   7.695   3.283  1.00 20.00     0.005 C 
BRANCH   4   5
HETATM    5  C3  UNL     1     -32.090   8.147   1.824  1.00 20.00    -0.004 C 
HETATM    6  C1  UNL     1     -32.484   9.599   1.601  1.00 20.00     0.005 C 
ENDBRANCH   4   5
ENDBRANCH   1   4
BRANCH   1   7
HETATM    7  C6  UNL     1     -34.194   6.035   3.073  1.00 20.00     0.119 C 
HETATM    8 CL8  UNL     1     -32.934   4.842   2.678  1.00 20.00    -0.130 Cl
ENDBRANCH   1   7
TORSDOF 4
ENDMDL
MODEL 2
REMARK VINA RESULT:      -5.0      0.952      1.083
REMARK  4 active torsions:
REMARK  status: ('A' for Active; 'I' for Inactive)
REMARK    1  A    between atoms: C3_3  and  C5_5 
REMARK    2  A    between atoms: C4_4  and  C7_7 
REMARK    3  A    between atoms: C5_5  and  C7_7 
REMARK    4  A    between atoms: C6_6  and  C7_7 
ROOT
HETATM    1  C7  UNL     1     -33.647   6.734   3.396  1.00 20.00    -0.001 C 
ENDROOT
BRANCH   1   2
HETATM    2  C4  UNL     1     -34.361   6.728   4.769  1.00 20.00     0.001 C 
HETATM    3  C2  UNL     1     -33.559   7.396   5.878  1.00 20.00     0.005 C 
ENDBRANCH   1   2
BRANCH   1   4
HETATM    4  C5  UNL     1     -32.384   7.628   3.422  1.00 20.00     0.005 C 
BRANCH   4   5
HETATM    5  C3  UNL     1     -31.860   8.089   2.058  1.00 20.00    -0.004 C 
HETATM    6  C1  UNL     1     -32.500   9.379   1.567  1.00 20.00     0.005 C 
ENDBRANCH   4   5
ENDBRANCH   1   4
BRANCH   1   7
HETATM    7  C6  UNL     1     -33.376   5.292   2.925  1.00 20.00     0.119 C 
HETATM    8 CL8  UNL     1     -34.047   4.050   4.009  1.00 20.00    -0.130 Cl
ENDBRANCH   1   7
TORSDOF 4
ENDMDL
MODEL 3
REMARK VINA RESULT:      -4.8      0.780      3.634
REMARK  4 active torsions:
REMARK  status: ('A' for Active; 'I' for Inactive)
REMARK    1  A    between atoms: C3_3  and  C5_5 
REMARK    2  A    between atoms: C4_4  and  C7_7 
REMARK    3  A    between atoms: C5_5  and  C7_7 
REMARK    4  A    between atoms: C6_6  and  C7_7 
ROOT
HETATM    1  C7  UNL     1     -32.705   7.108   3.632  1.00 20.00    -0.001 C 
ENDROOT
BRANCH   1   2
HETATM    2  C4  UNL     1     -31.785   8.237   3.111  1.00 20.00     0.001 C 
HETATM    3  C2  UNL     1     -32.083   8.656   1.677  1.00 20.00     0.005 C 
ENDBRANCH   1   2
BRANCH   1   4
HETATM    4  C5  UNL     1     -33.763   7.655   4.620  1.00 20.00     0.005 C 
BRANCH   4   5
HETATM    5  C3  UNL     1     -33.957   6.848   5.910  1.00 20.00    -0.004 C 
HETATM    6  C1  UNL     1     -34.586   5.483   5.682  1.00 20.00     0.005 C 
ENDBRANCH   4   5
ENDBRANCH   1   4
BRANCH   1   7
HETATM    7  C6  UNL     1     -33.308   6.319   2.454  1.00 20.00     0.119 C 
HETATM    8 CL8  UNL     1     -32.971   4.572   2.521  1.00 20.00    -0.130 Cl
ENDBRANCH   1   7
TORSDOF 4
ENDMDL
MODEL 4
REMARK VINA RESULT:      -4.8      1.634      2.295
REMARK  4 active torsions:
REMARK  status: ('A' for Active; 'I' for Inactive)
REMARK    1  A    between atoms: C3_3  and  C5_5 
REMARK    2  A    between atoms: C4_4  and  C7_7 
REMARK    3  A    between atoms: C5_5  and  C7_7 
REMARK    4  A    between atoms: C6_6  and  C7_7 
ROOT
HETATM    1  C7  UNL     1     -32.585   7.167   3.760  1.00 20.00    -0.001 C 
ENDROOT
BRANCH   1   2
HETATM    2  C4  UNL     1     -33.504   6.393   2.787  1.00 20.00     0.001 C 
HETATM    3  C2  UNL     1     -33.131   4.923   2.631  1.00 20.00     0.005 C 
ENDBRANCH   1   2
BRANCH   1   4
HETATM    4  C5  UNL     1     -31.860   8.331   3.044  1.00 20.00     0.005 C 
BRANCH   4   5
HETATM    5  C3  UNL     1     -32.208   8.531   1.564  1.00 20.00    -0.004 C 
HETATM    6  C1  UNL     1     -32.559   9.968   1.213  1.00 20.00     0.005 C 
ENDBRANCH   4   5
ENDBRANCH   1   4
BRANCH   1   7
HETATM    7  C6  UNL     1     -33.372   7.604   5.011  1.00 20.00     0.119 C 
HETATM    8 CL8  UNL     1     -34.268   6.276   5.787  1.00 20.00    -0.130 Cl
ENDBRANCH   1   7
TORSDOF 4
ENDMDL
MODEL 5
REMARK VINA RESULT:      -4.7      1.839      4.130
REMARK  4 active torsions:
REMARK  status: ('A' for Active; 'I' for Inactive)
REMARK    1  A    between atoms: C3_3  and  C5_5 
REMARK    2  A    between atoms: C4_4  and  C7_7 
REMARK    3  A    between atoms: C5_5  and  C7_7 
REMARK    4  A    between atoms: C6_6  and  C7_7 
ROOT
HETATM    1  C7  UNL     1     -33.029   7.568   3.139  1.00 20.00    -0.001 C 
ENDROOT
BRANCH   1   2
HETATM    2  C4  UNL     1     -32.094   8.078   2.018  1.00 20.00     0.001 C 
HETATM    3  C2  UNL     1     -32.512   9.425   1.439  1.00 20.00     0.005 C 
ENDBRANCH   1   2
BRANCH   1   4
HETATM    4  C5  UNL     1     -33.366   6.070   2.954  1.00 20.00     0.005 C 
BRANCH   4   5
HETATM    5  C3  UNL     1     -34.659   5.585   3.620  1.00 20.00    -0.004 C 
HETATM    6  C1  UNL     1     -34.466   4.355   4.493  1.00 20.00     0.005 C 
ENDBRANCH   4   5
ENDBRANCH   1   4
BRANCH   1   7
HETATM    7  C6  UNL     1     -32.440   7.904   4.523  1.00 20.00     0.119 C 
HETATM    8 CL8  UNL     1     -33.545   7.547   5.873  1.00 20.00    -0.130 Cl
ENDBRANCH   1   7
TORSDOF 4
ENDMDL
MODEL 6
REMARK VINA RESULT:      -4.6      1.773      3.886
REMARK  4 active torsions:
REMARK  status: ('A' for Active; 'I' for Inactive)
REMARK    1  A    between atoms: C3_3  and  C5_5 
REMARK    2  A    between atoms: C4_4  and  C7_7 
REMARK    3  A    between atoms: C5_5  and  C7_7 
REMARK    4  A    between atoms: C6_6  and  C7_7 
ROOT
HETATM    1  C7  UNL     1     -33.474   7.320   3.591  1.00 20.00    -0.001 C 
ENDROOT
BRANCH   1   2
HETATM    2  C4  UNL     1     -34.006   6.120   2.773  1.00 20.00     0.001 C 
HETATM    3  C2  UNL     1     -32.972   5.022   2.555  1.00 20.00     0.005 C 
ENDBRANCH   1   2
BRANCH   1   4
HETATM    4  C5  UNL     1     -33.532   7.037   5.110  1.00 20.00     0.005 C 
BRANCH   4   5
HETATM    5  C3  UNL     1     -34.741   6.231   5.598  1.00 20.00    -0.004 C 
HETATM    6  C1  UNL     1     -34.434   4.761   5.836  1.00 20.00     0.005 C 
ENDBRANCH   4   5
ENDBRANCH   1   4
BRANCH   1   7
HETATM    7  C6  UNL     1     -32.077   7.734   3.090  1.00 20.00     0.119 C 
HETATM    8 CL8  UNL     1     -32.116   8.741   1.622  1.00 20.00    -0.130 Cl
ENDBRANCH   1   7
TORSDOF 4
ENDMDL
MODEL 7
REMARK VINA RESULT:      -4.5      1.300      1.465
REMARK  4 active torsions:
REMARK  status: ('A' for Active; 'I' for Inactive)
REMARK    1  A    between atoms: C3_3  and  C5_5 
REMARK    2  A    between atoms: C4_4  and  C7_7 
REMARK    3  A    between atoms: C5_5  and  C7_7 
REMARK    4  A    between atoms: C6_6  and  C7_7 
ROOT
HETATM    1  C7  UNL     1     -33.315   7.437   3.345  1.00 20.00    -0.001 C 
ENDROOT
BRANCH   1   2
HETATM    2  C4  UNL     1     -32.778   7.809   4.747  1.00 20.00     0.001 C 
HETATM    3  C2  UNL     1     -33.666   7.330   5.889  1.00 20.00     0.005 C 
ENDBRANCH   1   2
BRANCH   1   4
HETATM    4  C5  UNL     1     -32.298   7.801   2.237  1.00 20.00     0.005 C 
BRANCH   4   5
HETATM    5  C3  UNL     1     -32.286   9.268   1.792  1.00 20.00    -0.004 C 
HETATM    6  C1  UNL     1     -32.629   9.459   0.323  1.00 20.00     0.005 C 
ENDBRANCH   4   5
ENDBRANCH   1   4
BRANCH   1   7
HETATM    7  C6  UNL     1     -33.763   5.962   3.314  1.00 20.00     0.119 C 
HETATM    8 CL8  UNL     1     -35.476   5.730   3.738  1.00 20.00    -0.130 Cl
ENDBRANCH   1   7
TORSDOF 4
ENDMDL
MODEL 8
REMARK VINA RESULT:      -4.5      1.854      3.335
REMARK  4 active torsions:
REMARK  status: ('A' for Active; 'I' for Inactive)
REMARK    1  A    between atoms: C3_3  and  C5_5 
REMARK    2  A    between atoms: C4_4  and  C7_7 
REMARK    3  A    between atoms: C5_5  and  C7_7 
REMARK    4  A    between atoms: C6_6  and  C7_7 
ROOT
HETATM    1  C7  UNL     1     -32.724   7.137   3.609  1.00 20.00    -0.001 C 
ENDROOT
BRANCH   1   2
HETATM    2  C4  UNL     1     -33.673   7.869   4.588  1.00 20.00     0.001 C 
HETATM    3  C2  UNL     1     -33.722   7.241   5.976  1.00 20.00     0.005 C 
ENDBRANCH   1   2
BRANCH   1   4
HETATM    4  C5  UNL     1     -33.507   6.191   2.668  1.00 20.00     0.005 C 
BRANCH   4   5
HETATM    5  C3  UNL     1     -33.365   4.692   2.954  1.00 20.00    -0.004 C 
HETATM    6  C1  UNL     1     -34.207   4.216   4.126  1.00 20.00     0.005 C 
ENDBRANCH   4   5
ENDBRANCH   1   4
BRANCH   1   7
HETATM    7  C6  UNL     1     -31.832   8.151   2.867  1.00 20.00     0.119 C 
HETATM    8 CL8  UNL     1     -32.553   8.763   1.358  1.00 20.00    -0.130 Cl
ENDBRANCH   1   7
TORSDOF 4
ENDMDL
MODEL 9
REMARK VINA RESULT:      -3.8      1.990      3.760
REMARK  4 active torsions:
REMARK  status: ('A' for Active; 'I' for Inactive)
REMARK    1  A    between atoms: C3_3  and  C5_5 
REMARK    2  A    between atoms: C4_4  and  C7_7 
REMARK    3  A    between atoms: C5_5  and  C7_7 
REMARK    4  A    between atoms: C6_6  and  C7_7 
ROOT
HETATM    1  C7  UNL     1     -32.744   7.084   2.723  1.00 20.00    -0.001 C 
ENDROOT
BRANCH   1   2
HETATM    2  C4  UNL     1     -32.576   7.622   4.163  1.00 20.00     0.001 C 
HETATM    3  C2  UNL     1     -31.504   8.697   4.294  1.00 20.00     0.005 C 
ENDBRANCH   1   2
BRANCH   1   4
HETATM    4  C5  UNL     1     -33.848   6.003   2.650  1.00 20.00     0.005 C 
BRANCH   4   5
HETATM    5  C3  UNL     1     -34.728   5.857   3.896  1.00 20.00    -0.004 C 
HETATM    6  C1  UNL     1     -34.564   4.519   4.601  1.00 20.00     0.005 C 
ENDBRANCH   4   5
ENDBRANCH   1   4
BRANCH   1   7
HETATM    7  C6  UNL     1     -32.951   8.249   1.735  1.00 20.00     0.119 C 
HETATM    8 CL8  UNL     1     -31.496   8.649   0.791  1.00 20.00    -0.130 Cl
ENDBRANCH   1   7
TORSDOF 4
ENDMDL
