MODEL 1
REMARK VINA RESULT:      -4.6      0.000      0.000
REMARK  3 active torsions:
REMARK  status: ('A' for Active; 'I' for Inactive)
REMARK    1  A    between atoms: C6_6  and  C7_7 
REMARK    2  A    between atoms: C6_6  and  C8_8 
REMARK    3  A    between atoms: C8_8  and  O10_10 
ROOT
HETATM    1  C1  UNL     1     -33.805   6.839   4.978  1.00 20.00     0.097 C 
HETATM    2  C4  UNL     1     -35.360   6.316   3.150  1.00 20.00     0.062 C 
HETATM    3  C8  UNL     1     -33.937   6.132   3.692  1.00 20.00     0.144 C 
HETATM    4  N9  UNL     1     -33.700   7.398   5.990  1.00 20.00    -0.194 NA
ENDROOT
BRANCH   3   5
HETATM    5  C6  UNL     1     -32.920   6.649   2.651  1.00 20.00     0.057 C 
BRANCH   5   6
HETATM    6  C7  UNL     1     -32.591   8.162   2.667  1.00 20.00    -0.019 C 
HETATM    7  C2  UNL     1     -31.269   8.384   3.412  1.00 20.00     0.009 C 
HETATM    8  C3  UNL     1     -32.498   8.786   1.275  1.00 20.00     0.009 C 
ENDBRANCH   5   6
ENDBRANCH   3   5
BRANCH   3   9
HETATM    9  O10 UNL     1     -33.737   4.733   3.887  1.00 20.00    -0.371 OA
HETATM   10  C5  UNL     1     -34.532   4.241   4.954  1.00 20.00     0.204 C 
ENDBRANCH   3   9
TORSDOF 3
ENDMDL
MODEL 2
REMARK VINA RESULT:      -4.5      2.165      2.811
REMARK  3 active torsions:
REMARK  status: ('A' for Active; 'I' for Inactive)
REMARK    1  A    between atoms: C6_6  and  C7_7 
REMARK    2  A    between atoms: C6_6  and  C8_8 
REMARK    3  A    between atoms: C8_8  and  O10_10 
ROOT
HETATM    1  C1  UNL     1     -32.984   5.920   2.912  1.00 20.00     0.097 C 
HETATM    2  C4  UNL     1     -31.747   7.802   3.893  1.00 20.00     0.062 C 
HETATM    3  C8  UNL     1     -33.054   7.358   3.226  1.00 20.00     0.144 C 
HETATM    4  N9  UNL     1     -32.928   4.788   2.663  1.00 20.00    -0.194 NA
ENDROOT
BRANCH   3   5
HETATM    5  C6  UNL     1     -33.297   8.206   1.957  1.00 20.00     0.057 C 
BRANCH   5   6
HETATM    6  C7  UNL     1     -32.211   9.241   1.573  1.00 20.00    -0.019 C 
HETATM    7  C2  UNL     1     -31.413   8.714   0.375  1.00 20.00     0.009 C 
HETATM    8  C3  UNL     1     -32.769  10.624   1.241  1.00 20.00     0.009 C 
ENDBRANCH   5   6
ENDBRANCH   3   5
BRANCH   3   9
HETATM    9  O10 UNL     1     -34.107   7.599   4.158  1.00 20.00    -0.371 OA
HETATM   10  C5  UNL     1     -33.737   7.203   5.469  1.00 20.00     0.204 C 
ENDBRANCH   3   9
TORSDOF 3
ENDMDL
MODEL 3
REMARK VINA RESULT:      -4.3     11.370     12.075
REMARK  3 active torsions:
REMARK  status: ('A' for Active; 'I' for Inactive)
REMARK    1  A    between atoms: C6_6  and  C7_7 
REMARK    2  A    between atoms: C6_6  and  C8_8 
REMARK    3  A    between atoms: C8_8  and  O10_10 
ROOT
HETATM    1  C1  UNL     1     -37.384  14.174  -5.174  1.00 20.00     0.097 C 
HETATM    2  C4  UNL     1     -35.578  15.167  -6.510  1.00 20.00     0.062 C 
HETATM    3  C8  UNL     1     -35.931  14.154  -5.413  1.00 20.00     0.144 C 
HETATM    4  N9  UNL     1     -38.529  14.191  -4.983  1.00 20.00    -0.194 NA
ENDROOT
BRANCH   3   5
HETATM    5  C6  UNL     1     -35.138  14.488  -4.131  1.00 20.00     0.057 C 
BRANCH   5   6
HETATM    6  C7  UNL     1     -33.808  15.263  -4.297  1.00 20.00    -0.019 C 
HETATM    7  C2  UNL     1     -33.678  16.293  -3.169  1.00 20.00     0.009 C 
HETATM    8  C3  UNL     1     -32.570  14.366  -4.308  1.00 20.00     0.009 C 
ENDBRANCH   5   6
ENDBRANCH   3   5
BRANCH   3   9
HETATM    9  O10 UNL     1     -35.536  12.866  -5.886  1.00 20.00    -0.371 OA
HETATM   10  C5  UNL     1     -35.064  12.929  -7.222  1.00 20.00     0.204 C 
ENDBRANCH   3   9
TORSDOF 3
ENDMDL
MODEL 4
REMARK VINA RESULT:      -4.2     11.625     12.491
REMARK  3 active torsions:
REMARK  status: ('A' for Active; 'I' for Inactive)
REMARK    1  A    between atoms: C6_6  and  C7_7 
REMARK    2  A    between atoms: C6_6  and  C8_8 
REMARK    3  A    between atoms: C8_8  and  O10_10 
ROOT
HETATM    1  C1  UNL     1     -35.393  13.926  -5.065  1.00 20.00     0.097 C 
HETATM    2  C4  UNL     1     -35.711  16.349  -5.315  1.00 20.00     0.062 C 
HETATM    3  C8  UNL     1     -34.756  15.238  -4.860  1.00 20.00     0.144 C 
HETATM    4  N9  UNL     1     -35.896  12.892  -5.223  1.00 20.00    -0.194 NA
ENDROOT
BRANCH   3   5
HETATM    5  C6  UNL     1     -34.376  15.462  -3.379  1.00 20.00     0.057 C 
BRANCH   5   6
HETATM    6  C7  UNL     1     -34.575  16.884  -2.800  1.00 20.00    -0.019 C 
HETATM    7  C2  UNL     1     -35.460  16.802  -1.550  1.00 20.00     0.009 C 
HETATM    8  C3  UNL     1     -33.267  17.593  -2.449  1.00 20.00     0.009 C 
ENDBRANCH   5   6
ENDBRANCH   3   5
BRANCH   3   9
HETATM    9  O10 UNL     1     -33.581  15.337  -5.664  1.00 20.00    -0.371 OA
HETATM   10  C5  UNL     1     -33.676  16.408  -6.589  1.00 20.00     0.204 C 
ENDBRANCH   3   9
TORSDOF 3
ENDMDL
MODEL 5
REMARK VINA RESULT:      -4.0     11.423     12.208
REMARK  3 active torsions:
REMARK  status: ('A' for Active; 'I' for Inactive)
REMARK    1  A    between atoms: C6_6  and  C7_7 
REMARK    2  A    between atoms: C6_6  and  C8_8 
REMARK    3  A    between atoms: C8_8  and  O10_10 
ROOT
HETATM    1  C1  UNL     1     -34.062  15.082  -6.105  1.00 20.00     0.097 C 
HETATM    2  C4  UNL     1     -32.846  14.236  -4.145  1.00 20.00     0.062 C 
HETATM    3  C8  UNL     1     -34.223  14.576  -4.730  1.00 20.00     0.144 C 
HETATM    4  N9  UNL     1     -33.936  15.483  -7.186  1.00 20.00    -0.194 NA
ENDROOT
BRANCH   3   5
HETATM    5  C6  UNL     1     -34.926  15.608  -3.822  1.00 20.00     0.057 C 
BRANCH   5   6
HETATM    6  C7  UNL     1     -34.031  16.486  -2.914  1.00 20.00    -0.019 C 
HETATM    7  C2  UNL     1     -33.635  17.758  -3.672  1.00 20.00     0.009 C 
HETATM    8  C3  UNL     1     -34.688  16.870  -1.589  1.00 20.00     0.009 C 
ENDBRANCH   5   6
ENDBRANCH   3   5
BRANCH   3   9
HETATM    9  O10 UNL     1     -34.984  13.369  -4.745  1.00 20.00    -0.371 OA
HETATM   10  C5  UNL     1     -36.293  13.591  -5.246  1.00 20.00     0.204 C 
ENDBRANCH   3   9
TORSDOF 3
ENDMDL
MODEL 6
REMARK VINA RESULT:      -3.9     11.977     12.692
REMARK  3 active torsions:
REMARK  status: ('A' for Active; 'I' for Inactive)
REMARK    1  A    between atoms: C6_6  and  C7_7 
REMARK    2  A    between atoms: C6_6  and  C8_8 
REMARK    3  A    between atoms: C8_8  and  O10_10 
ROOT
HETATM    1  C1  UNL     1     -36.296  13.849  -5.251  1.00 20.00     0.097 C 
HETATM    2  C4  UNL     1     -38.199  15.196  -4.479  1.00 20.00     0.062 C 
HETATM    3  C8  UNL     1     -36.875  15.204  -5.253  1.00 20.00     0.144 C 
HETATM    4  N9  UNL     1     -35.837  12.783  -5.248  1.00 20.00    -0.194 NA
ENDROOT
BRANCH   3   5
HETATM    5  C6  UNL     1     -35.916  16.235  -4.619  1.00 20.00     0.057 C 
BRANCH   5   6
HETATM    6  C7  UNL     1     -35.057  15.765  -3.419  1.00 20.00    -0.019 C 
HETATM    7  C2  UNL     1     -33.575  15.812  -3.808  1.00 20.00     0.009 C 
HETATM    8  C3  UNL     1     -35.274  16.588  -2.149  1.00 20.00     0.009 C 
ENDBRANCH   5   6
ENDBRANCH   3   5
BRANCH   3   9
HETATM    9  O10 UNL     1     -37.171  15.602  -6.591  1.00 20.00    -0.371 OA
HETATM   10  C5  UNL     1     -35.986  15.849  -7.330  1.00 20.00     0.204 C 
ENDBRANCH   3   9
TORSDOF 3
ENDMDL
MODEL 7
REMARK VINA RESULT:      -3.8     11.817     12.541
REMARK  3 active torsions:
REMARK  status: ('A' for Active; 'I' for Inactive)
REMARK    1  A    between atoms: C6_6  and  C7_7 
REMARK    2  A    between atoms: C6_6  and  C8_8 
REMARK    3  A    between atoms: C8_8  and  O10_10 
ROOT
HETATM    1  C1  UNL     1     -34.079  16.119  -6.020  1.00 20.00     0.097 C 
HETATM    2  C4  UNL     1     -33.461  14.714  -4.102  1.00 20.00     0.062 C 
HETATM    3  C8  UNL     1     -34.450  15.755  -4.642  1.00 20.00     0.144 C 
HETATM    4  N9  UNL     1     -33.786  16.407  -7.106  1.00 20.00    -0.194 NA
ENDROOT
BRANCH   3   5
HETATM    5  C6  UNL     1     -34.458  16.987  -3.710  1.00 20.00     0.057 C 
BRANCH   5   6
HETATM    6  C7  UNL     1     -34.176  16.746  -2.207  1.00 20.00    -0.019 C 
HETATM    7  C2  UNL     1     -33.065  17.695  -1.742  1.00 20.00     0.009 C 
HETATM    8  C3  UNL     1     -35.403  16.927  -1.314  1.00 20.00     0.009 C 
ENDBRANCH   5   6
ENDBRANCH   3   5
BRANCH   3   9
HETATM    9  O10 UNL     1     -35.744  15.152  -4.631  1.00 20.00    -0.371 OA
HETATM   10  C5  UNL     1     -35.678  13.782  -4.992  1.00 20.00     0.204 C 
ENDBRANCH   3   9
TORSDOF 3
ENDMDL
MODEL 8
REMARK VINA RESULT:      -3.7      2.144      3.800
REMARK  3 active torsions:
REMARK  status: ('A' for Active; 'I' for Inactive)
REMARK    1  A    between atoms: C6_6  and  C7_7 
REMARK    2  A    between atoms: C6_6  and  C8_8 
REMARK    3  A    between atoms: C8_8  and  O10_10 
ROOT
HETATM    1  C1  UNL     1     -32.752   8.388   1.828  1.00 20.00     0.097 C 
HETATM    2  C4  UNL     1     -31.410   8.112   3.867  1.00 20.00     0.062 C 
HETATM    3  C8  UNL     1     -32.539   7.530   3.007  1.00 20.00     0.144 C 
HETATM    4  N9  UNL     1     -32.921   9.064   0.900  1.00 20.00    -0.194 NA
ENDROOT
BRANCH   3   5
HETATM    5  C6  UNL     1     -33.822   7.406   3.859  1.00 20.00     0.057 C 
BRANCH   5   6
HETATM    6  C7  UNL     1     -33.705   6.677   5.220  1.00 20.00    -0.019 C 
HETATM    7  C2  UNL     1     -33.867   7.695   6.355  1.00 20.00     0.009 C 
HETATM    8  C3  UNL     1     -34.721   5.550   5.403  1.00 20.00     0.009 C 
ENDBRANCH   5   6
ENDBRANCH   3   5
BRANCH   3   9
HETATM    9  O10 UNL     1     -32.126   6.229   2.591  1.00 20.00    -0.371 OA
HETATM   10  C5  UNL     1     -33.239   5.416   2.258  1.00 20.00     0.204 C 
ENDBRANCH   3   9
TORSDOF 3
ENDMDL
MODEL 9
REMARK VINA RESULT:      -3.7     11.850     12.448
REMARK  3 active torsions:
REMARK  status: ('A' for Active; 'I' for Inactive)
REMARK    1  A    between atoms: C6_6  and  C7_7 
REMARK    2  A    between atoms: C6_6  and  C8_8 
REMARK    3  A    between atoms: C8_8  and  O10_10 
ROOT
HETATM    1  C1  UNL     1     -36.475  15.395  -4.277  1.00 20.00     0.097 C 
HETATM    2  C4  UNL     1     -35.815  17.762  -4.280  1.00 20.00     0.062 C 
HETATM    3  C8  UNL     1     -35.334  16.314  -4.116  1.00 20.00     0.144 C 
HETATM    4  N9  UNL     1     -37.373  14.671  -4.401  1.00 20.00    -0.194 NA
ENDROOT
BRANCH   3   5
HETATM    5  C6  UNL     1     -34.661  16.150  -2.736  1.00 20.00     0.057 C 
BRANCH   5   6
HETATM    6  C7  UNL     1     -34.519  17.417  -1.857  1.00 20.00    -0.019 C 
HETATM    7  C2  UNL     1     -35.334  17.233  -0.571  1.00 20.00     0.009 C 
HETATM    8  C3  UNL     1     -33.074  17.756  -1.496  1.00 20.00     0.009 C 
ENDBRANCH   5   6
ENDBRANCH   3   5
BRANCH   3   9
HETATM    9  O10 UNL     1     -34.369  16.072  -5.139  1.00 20.00    -0.371 OA
HETATM   10  C5  UNL     1     -33.348  15.197  -4.688  1.00 20.00     0.204 C 
ENDBRANCH   3   9
TORSDOF 3
ENDMDL
