MODEL 1
REMARK VINA RESULT:      -5.3      0.000      0.000
REMARK  5 active torsions:
REMARK  status: ('A' for Active; 'I' for Inactive)
REMARK    1  A    between atoms: C2_2  and  C8_8 
REMARK    2  A    between atoms: C2_2  and  C9_9 
REMARK    3  A    between atoms: C3_3  and  C10_10 
REMARK    4  A    between atoms: C9_9  and  C10_10 
REMARK    5  A    between atoms: C10_10  and  C11_11 
ROOT
HETATM    1  C10 UNL     1     -33.399   6.621   3.739  1.00 20.00     0.062 C 
ENDROOT
BRANCH   1   2
HETATM    2  C3  UNL     1     -33.758   5.596   2.659  1.00 20.00     0.127 C 
HETATM    3  C4  UNL     1     -32.868   4.383   2.550  1.00 20.00     0.091 C 
HETATM    4  O12 UNL     1     -34.731   5.734   1.917  1.00 20.00    -0.298 OA
ENDBRANCH   1   2
BRANCH   1   5
HETATM    5  C9  UNL     1     -33.388   8.042   3.135  1.00 20.00     0.045 C 
BRANCH   5   6
HETATM    6  C2  UNL     1     -32.054   8.451   2.539  1.00 20.00    -0.089 C 
HETATM    7  C1  UNL     1     -30.924   8.374   3.263  1.00 20.00     0.014 C 
BRANCH   6   8
HETATM    8  C8  UNL     1     -32.022   8.954   1.112  1.00 20.00     0.029 C 
HETATM    9  C5  UNL     1     -32.636  10.337   0.952  1.00 20.00     0.010 C 
ENDBRANCH   6   8
ENDBRANCH   5   6
ENDBRANCH   1   5
BRANCH   1  10
HETATM   10  C11 UNL     1     -34.322   6.522   4.983  1.00 20.00    -0.011 C 
HETATM   11  C6  UNL     1     -33.847   7.320   6.201  1.00 20.00     0.010 C 
HETATM   12  C7  UNL     1     -34.576   5.066   5.386  1.00 20.00     0.010 C 
ENDBRANCH   1  10
TORSDOF 5
ENDMDL
MODEL 2
REMARK VINA RESULT:      -4.8      1.634      2.818
REMARK  5 active torsions:
REMARK  status: ('A' for Active; 'I' for Inactive)
REMARK    1  A    between atoms: C2_2  and  C8_8 
REMARK    2  A    between atoms: C2_2  and  C9_9 
REMARK    3  A    between atoms: C3_3  and  C10_10 
REMARK    4  A    between atoms: C9_9  and  C10_10 
REMARK    5  A    between atoms: C10_10  and  C11_11 
ROOT
HETATM    1  C10 UNL     1     -33.655   7.123   3.730  1.00 20.00     0.062 C 
ENDROOT
BRANCH   1   2
HETATM    2  C3  UNL     1     -33.794   6.947   5.245  1.00 20.00     0.127 C 
HETATM    3  C4  UNL     1     -34.580   5.752   5.721  1.00 20.00     0.091 C 
HETATM    4  O12 UNL     1     -33.280   7.726   6.048  1.00 20.00    -0.298 OA
ENDBRANCH   1   2
BRANCH   1   5
HETATM    5  C9  UNL     1     -32.231   7.606   3.382  1.00 20.00     0.045 C 
BRANCH   5   6
HETATM    6  C2  UNL     1     -32.154   8.458   2.129  1.00 20.00    -0.089 C 
HETATM    7  C1  UNL     1     -31.329   8.124   1.121  1.00 20.00     0.014 C 
BRANCH   6   8
HETATM    8  C8  UNL     1     -33.020   9.694   2.038  1.00 20.00     0.029 C 
HETATM    9  C5  UNL     1     -32.686  10.572   0.840  1.00 20.00     0.010 C 
ENDBRANCH   6   8
ENDBRANCH   5   6
ENDBRANCH   1   5
BRANCH   1  10
HETATM   10  C11 UNL     1     -34.045   5.843   2.944  1.00 20.00    -0.011 C 
HETATM   11  C6  UNL     1     -32.888   4.875   2.677  1.00 20.00     0.010 C 
HETATM   12  C7  UNL     1     -34.751   6.179   1.626  1.00 20.00     0.010 C 
ENDBRANCH   1  10
TORSDOF 5
ENDMDL
MODEL 3
REMARK VINA RESULT:      -4.8      1.827      4.863
REMARK  5 active torsions:
REMARK  status: ('A' for Active; 'I' for Inactive)
REMARK    1  A    between atoms: C2_2  and  C8_8 
REMARK    2  A    between atoms: C2_2  and  C9_9 
REMARK    3  A    between atoms: C3_3  and  C10_10 
REMARK    4  A    between atoms: C9_9  and  C10_10 
REMARK    5  A    between atoms: C10_10  and  C11_11 
ROOT
HETATM    1  C10 UNL     1     -32.542   7.581   2.402  1.00 20.00     0.062 C 
ENDROOT
BRANCH   1   2
HETATM    2  C3  UNL     1     -31.836   8.052   3.678  1.00 20.00     0.127 C 
HETATM    3  C4  UNL     1     -32.676   8.139   4.927  1.00 20.00     0.091 C 
HETATM    4  O12 UNL     1     -30.638   8.334   3.701  1.00 20.00    -0.298 OA
ENDBRANCH   1   2
BRANCH   1   5
HETATM    5  C9  UNL     1     -33.971   7.103   2.736  1.00 20.00     0.045 C 
BRANCH   5   6
HETATM    6  C2  UNL     1     -34.044   5.671   3.234  1.00 20.00    -0.089 C 
HETATM    7  C1  UNL     1     -33.196   4.738   2.771  1.00 20.00     0.014 C 
BRANCH   6   8
HETATM    8  C8  UNL     1     -35.097   5.314   4.261  1.00 20.00     0.029 C 
HETATM    9  C5  UNL     1     -34.509   4.944   5.615  1.00 20.00     0.010 C 
ENDBRANCH   6   8
ENDBRANCH   5   6
ENDBRANCH   1   5
BRANCH   1  10
HETATM   10  C11 UNL     1     -32.533   8.659   1.285  1.00 20.00    -0.011 C 
HETATM   11  C6  UNL     1     -31.265   8.684   0.427  1.00 20.00     0.010 C 
HETATM   12  C7  UNL     1     -32.805  10.059   1.846  1.00 20.00     0.010 C 
ENDBRANCH   1  10
TORSDOF 5
ENDMDL
MODEL 4
REMARK VINA RESULT:      -4.7     10.706     11.899
REMARK  5 active torsions:
REMARK  status: ('A' for Active; 'I' for Inactive)
REMARK    1  A    between atoms: C2_2  and  C8_8 
REMARK    2  A    between atoms: C2_2  and  C9_9 
REMARK    3  A    between atoms: C3_3  and  C10_10 
REMARK    4  A    between atoms: C9_9  and  C10_10 
REMARK    5  A    between atoms: C10_10  and  C11_11 
ROOT
HETATM    1  C10 UNL     1     -34.920  15.676  -4.022  1.00 20.00     0.062 C 
ENDROOT
BRANCH   1   2
HETATM    2  C3  UNL     1     -34.764  14.202  -4.409  1.00 20.00     0.127 C 
HETATM    3  C4  UNL     1     -35.920  13.563  -5.135  1.00 20.00     0.091 C 
HETATM    4  O12 UNL     1     -33.743  13.560  -4.158  1.00 20.00    -0.298 OA
ENDBRANCH   1   2
BRANCH   1   5
HETATM    5  C9  UNL     1     -33.677  16.152  -3.242  1.00 20.00     0.045 C 
BRANCH   5   6
HETATM    6  C2  UNL     1     -33.997  16.992  -2.019  1.00 20.00    -0.089 C 
HETATM    7  C1  UNL     1     -33.076  17.818  -1.492  1.00 20.00     0.014 C 
BRANCH   6   8
HETATM    8  C8  UNL     1     -35.372  16.876  -1.400  1.00 20.00     0.029 C 
HETATM    9  C5  UNL     1     -35.455  17.488  -0.009  1.00 20.00     0.010 C 
ENDBRANCH   6   8
ENDBRANCH   5   6
ENDBRANCH   1   5
BRANCH   1  10
HETATM   10  C11 UNL     1     -35.224  16.582  -5.245  1.00 20.00    -0.011 C 
HETATM   11  C6  UNL     1     -34.024  17.373  -5.773  1.00 20.00     0.010 C 
HETATM   12  C7  UNL     1     -36.391  17.536  -4.967  1.00 20.00     0.010 C 
ENDBRANCH   1  10
TORSDOF 5
ENDMDL
MODEL 5
REMARK VINA RESULT:      -4.6     10.885     12.033
REMARK  5 active torsions:
REMARK  status: ('A' for Active; 'I' for Inactive)
REMARK    1  A    between atoms: C2_2  and  C8_8 
REMARK    2  A    between atoms: C2_2  and  C9_9 
REMARK    3  A    between atoms: C3_3  and  C10_10 
REMARK    4  A    between atoms: C9_9  and  C10_10 
REMARK    5  A    between atoms: C10_10  and  C11_11 
ROOT
HETATM    1  C10 UNL     1     -35.399  15.112  -4.998  1.00 20.00     0.062 C 
ENDROOT
BRANCH   1   2
HETATM    2  C3  UNL     1     -36.348  13.923  -5.172  1.00 20.00     0.127 C 
HETATM    3  C4  UNL     1     -37.818  14.238  -5.293  1.00 20.00     0.091 C 
HETATM    4  O12 UNL     1     -35.945  12.760  -5.227  1.00 20.00    -0.298 OA
ENDBRANCH   1   2
BRANCH   1   5
HETATM    5  C9  UNL     1     -34.944  15.213  -3.526  1.00 20.00     0.045 C 
BRANCH   5   6
HETATM    6  C2  UNL     1     -35.467  16.438  -2.799  1.00 20.00    -0.089 C 
HETATM    7  C1  UNL     1     -36.551  17.094  -3.249  1.00 20.00     0.014 C 
BRANCH   6   8
HETATM    8  C8  UNL     1     -34.739  16.911  -1.560  1.00 20.00     0.029 C 
HETATM    9  C5  UNL     1     -33.332  17.414  -1.849  1.00 20.00     0.010 C 
ENDBRANCH   6   8
ENDBRANCH   5   6
ENDBRANCH   1   5
BRANCH   1  10
HETATM   10  C11 UNL     1     -34.196  15.061  -5.978  1.00 20.00    -0.011 C 
HETATM   11  C6  UNL     1     -32.910  15.705  -5.452  1.00 20.00     0.010 C 
HETATM   12  C7  UNL     1     -34.552  15.658  -7.344  1.00 20.00     0.010 C 
ENDBRANCH   1  10
TORSDOF 5
ENDMDL
MODEL 6
REMARK VINA RESULT:      -4.6     10.751     11.936
REMARK  5 active torsions:
REMARK  status: ('A' for Active; 'I' for Inactive)
REMARK    1  A    between atoms: C2_2  and  C8_8 
REMARK    2  A    between atoms: C2_2  and  C9_9 
REMARK    3  A    between atoms: C3_3  and  C10_10 
REMARK    4  A    between atoms: C9_9  and  C10_10 
REMARK    5  A    between atoms: C10_10  and  C11_11 
ROOT
HETATM    1  C10 UNL     1     -34.947  15.687  -3.980  1.00 20.00     0.062 C 
ENDROOT
BRANCH   1   2
HETATM    2  C3  UNL     1     -34.810  14.222  -4.404  1.00 20.00     0.127 C 
HETATM    3  C4  UNL     1     -35.984  13.609  -5.124  1.00 20.00     0.091 C 
HETATM    4  O12 UNL     1     -33.790  13.567  -4.188  1.00 20.00    -0.298 OA
ENDBRANCH   1   2
BRANCH   1   5
HETATM    5  C9  UNL     1     -33.717  16.115  -3.151  1.00 20.00     0.045 C 
BRANCH   5   6
HETATM    6  C2  UNL     1     -34.048  16.994  -1.959  1.00 20.00    -0.089 C 
HETATM    7  C1  UNL     1     -35.248  16.915  -1.359  1.00 20.00     0.014 C 
BRANCH   6   8
HETATM    8  C8  UNL     1     -33.001  17.966  -1.463  1.00 20.00     0.029 C 
HETATM    9  C5  UNL     1     -33.269  18.463  -0.049  1.00 20.00     0.010 C 
ENDBRANCH   6   8
ENDBRANCH   5   6
ENDBRANCH   1   5
BRANCH   1  10
HETATM   10  C11 UNL     1     -35.198  16.634  -5.184  1.00 20.00    -0.011 C 
HETATM   11  C6  UNL     1     -33.952  17.360  -5.701  1.00 20.00     0.010 C 
HETATM   12  C7  UNL     1     -36.303  17.652  -4.884  1.00 20.00     0.010 C 
ENDBRANCH   1  10
TORSDOF 5
ENDMDL
MODEL 7
REMARK VINA RESULT:      -4.5      1.664      4.385
REMARK  5 active torsions:
REMARK  status: ('A' for Active; 'I' for Inactive)
REMARK    1  A    between atoms: C2_2  and  C8_8 
REMARK    2  A    between atoms: C2_2  and  C9_9 
REMARK    3  A    between atoms: C3_3  and  C10_10 
REMARK    4  A    between atoms: C9_9  and  C10_10 
REMARK    5  A    between atoms: C10_10  and  C11_11 
ROOT
HETATM    1  C10 UNL     1     -32.825   6.835   3.257  1.00 20.00     0.062 C 
ENDROOT
BRANCH   1   2
HETATM    2  C3  UNL     1     -31.995   8.048   2.826  1.00 20.00     0.127 C 
HETATM    3  C4  UNL     1     -32.368   8.696   1.516  1.00 20.00     0.091 C 
HETATM    4  O12 UNL     1     -31.074   8.493   3.511  1.00 20.00    -0.298 OA
ENDBRANCH   1   2
BRANCH   1   5
HETATM    5  C9  UNL     1     -34.071   7.300   4.041  1.00 20.00     0.045 C 
BRANCH   5   6
HETATM    6  C2  UNL     1     -34.042   6.946   5.517  1.00 20.00    -0.089 C 
HETATM    7  C1  UNL     1     -33.315   7.671   6.384  1.00 20.00     0.014 C 
BRANCH   6   8
HETATM    8  C8  UNL     1     -34.845   5.755   5.992  1.00 20.00     0.029 C 
HETATM    9  C5  UNL     1     -34.519   4.475   5.235  1.00 20.00     0.010 C 
ENDBRANCH   6   8
ENDBRANCH   5   6
ENDBRANCH   1   5
BRANCH   1  10
HETATM   10  C11 UNL     1     -33.196   5.914   2.065  1.00 20.00    -0.011 C 
HETATM   11  C6  UNL     1     -34.669   5.963   1.648  1.00 20.00     0.010 C 
HETATM   12  C7  UNL     1     -32.780   4.461   2.319  1.00 20.00     0.010 C 
ENDBRANCH   1  10
TORSDOF 5
ENDMDL
MODEL 8
REMARK VINA RESULT:      -4.5     10.883     11.549
REMARK  5 active torsions:
REMARK  status: ('A' for Active; 'I' for Inactive)
REMARK    1  A    between atoms: C2_2  and  C8_8 
REMARK    2  A    between atoms: C2_2  and  C9_9 
REMARK    3  A    between atoms: C3_3  and  C10_10 
REMARK    4  A    between atoms: C9_9  and  C10_10 
REMARK    5  A    between atoms: C10_10  and  C11_11 
ROOT
HETATM    1  C10 UNL     1     -34.895  15.256  -3.929  1.00 20.00     0.062 C 
ENDROOT
BRANCH   1   2
HETATM    2  C3  UNL     1     -33.555  14.815  -4.524  1.00 20.00     0.127 C 
HETATM    3  C4  UNL     1     -32.988  15.670  -5.629  1.00 20.00     0.091 C 
HETATM    4  O12 UNL     1     -32.950  13.821  -4.121  1.00 20.00    -0.298 OA
ENDBRANCH   1   2
BRANCH   1   5
HETATM    5  C9  UNL     1     -34.854  16.761  -3.592  1.00 20.00     0.045 C 
BRANCH   5   6
HETATM    6  C2  UNL     1     -34.491  17.064  -2.149  1.00 20.00    -0.089 C 
HETATM    7  C1  UNL     1     -35.392  16.898  -1.165  1.00 20.00     0.014 C 
BRANCH   6   8
HETATM    8  C8  UNL     1     -33.097  17.562  -1.842  1.00 20.00     0.029 C 
HETATM    9  C5  UNL     1     -33.022  18.372  -0.555  1.00 20.00     0.010 C 
ENDBRANCH   6   8
ENDBRANCH   5   6
ENDBRANCH   1   5
BRANCH   1  10
HETATM   10  C11 UNL     1     -36.099  14.894  -4.839  1.00 20.00    -0.011 C 
HETATM   11  C6  UNL     1     -37.472  15.242  -4.258  1.00 20.00     0.010 C 
HETATM   12  C7  UNL     1     -36.072  13.420  -5.255  1.00 20.00     0.010 C 
ENDBRANCH   1  10
TORSDOF 5
ENDMDL
MODEL 9
REMARK VINA RESULT:      -4.5      1.739      2.952
REMARK  5 active torsions:
REMARK  status: ('A' for Active; 'I' for Inactive)
REMARK    1  A    between atoms: C2_2  and  C8_8 
REMARK    2  A    between atoms: C2_2  and  C9_9 
REMARK    3  A    between atoms: C3_3  and  C10_10 
REMARK    4  A    between atoms: C9_9  and  C10_10 
REMARK    5  A    between atoms: C10_10  and  C11_11 
ROOT
HETATM    1  C10 UNL     1     -33.349   7.563   2.757  1.00 20.00     0.062 C 
ENDROOT
BRANCH   1   2
HETATM    2  C3  UNL     1     -32.541   7.779   4.040  1.00 20.00     0.127 C 
HETATM    3  C4  UNL     1     -31.129   8.283   3.878  1.00 20.00     0.091 C 
HETATM    4  O12 UNL     1     -33.012   7.570   5.159  1.00 20.00    -0.298 OA
ENDBRANCH   1   2
BRANCH   1   5
HETATM    5  C9  UNL     1     -32.471   7.863   1.524  1.00 20.00     0.045 C 
BRANCH   5   6
HETATM    6  C2  UNL     1     -32.925   9.066   0.717  1.00 20.00    -0.089 C 
HETATM    7  C1  UNL     1     -32.899   9.042  -0.626  1.00 20.00     0.014 C 
BRANCH   6   8
HETATM    8  C8  UNL     1     -33.404  10.295   1.457  1.00 20.00     0.029 C 
HETATM    9  C5  UNL     1     -32.275  11.247   1.827  1.00 20.00     0.010 C 
ENDBRANCH   6   8
ENDBRANCH   5   6
ENDBRANCH   1   5
BRANCH   1  10
HETATM   10  C11 UNL     1     -33.990   6.151   2.688  1.00 20.00    -0.011 C 
HETATM   11  C6  UNL     1     -35.077   5.887   3.734  1.00 20.00     0.010 C 
HETATM   12  C7  UNL     1     -32.932   5.045   2.752  1.00 20.00     0.010 C 
ENDBRANCH   1  10
TORSDOF 5
ENDMDL
