MODEL 1
REMARK VINA RESULT:      -5.4      0.000      0.000
REMARK  5 active torsions:
REMARK  status: ('A' for Active; 'I' for Inactive)
REMARK    1  A    between atoms: C4_4  and  C5_5 
REMARK    2  A    between atoms: C5_5  and  C8_8 
REMARK    3  A    between atoms: C6_6  and  C8_8 
REMARK    4  A    between atoms: C6_6  and  C9_9 
REMARK    5  A    between atoms: C7_7  and  C9_9 
ROOT
HETATM    1  C6  UNL     1     -32.557   6.395   2.530  1.00 20.00     0.009 C 
ENDROOT
BRANCH   1   2
HETATM    2  C8  UNL     1     -33.887   5.708   2.908  1.00 20.00    -0.018 C 
HETATM    3  C2  UNL     1     -33.677   4.270   3.388  1.00 20.00     0.010 C 
BRANCH   2   4
HETATM    4  C5  UNL     1     -34.683   6.538   3.941  1.00 20.00     0.004 C 
BRANCH   4   5
HETATM    5  C4  UNL     1     -34.416   6.196   5.409  1.00 20.00    -0.004 C 
HETATM    6  C1  UNL     1     -33.686   7.329   6.115  1.00 20.00     0.005 C 
ENDBRANCH   4   5
ENDBRANCH   2   4
ENDBRANCH   1   2
BRANCH   1   7
HETATM    7  C9  UNL     1     -32.560   7.940   2.580  1.00 20.00    -0.004 C 
HETATM    8  C3  UNL     1     -31.464   8.424   3.539  1.00 20.00     0.011 C 
BRANCH   7   9
HETATM    9  C7  UNL     1     -32.442   8.625   1.209  1.00 20.00     0.119 C 
HETATM   10 CL10 UNL     1     -32.737  10.379   1.261  1.00 20.00    -0.130 Cl
ENDBRANCH   7   9
ENDBRANCH   1   7
TORSDOF 5
ENDMDL
MODEL 2
REMARK VINA RESULT:      -5.3      2.278      4.740
REMARK  5 active torsions:
REMARK  status: ('A' for Active; 'I' for Inactive)
REMARK    1  A    between atoms: C4_4  and  C5_5 
REMARK    2  A    between atoms: C5_5  and  C8_8 
REMARK    3  A    between atoms: C6_6  and  C8_8 
REMARK    4  A    between atoms: C6_6  and  C9_9 
REMARK    5  A    between atoms: C7_7  and  C9_9 
ROOT
HETATM    1  C6  UNL     1     -32.631   6.481   2.594  1.00 20.00     0.009 C 
ENDROOT
BRANCH   1   2
HETATM    2  C8  UNL     1     -32.329   7.992   2.675  1.00 20.00    -0.018 C 
HETATM    3  C2  UNL     1     -31.398   8.333   3.841  1.00 20.00     0.010 C 
BRANCH   2   4
HETATM    4  C5  UNL     1     -31.779   8.536   1.336  1.00 20.00     0.004 C 
BRANCH   4   5
HETATM    5  C4  UNL     1     -32.489   9.775   0.785  1.00 20.00    -0.004 C 
HETATM    6  C1  UNL     1     -33.219   9.461  -0.512  1.00 20.00     0.005 C 
ENDBRANCH   4   5
ENDBRANCH   2   4
ENDBRANCH   1   2
BRANCH   1   7
HETATM    7  C9  UNL     1     -33.966   6.027   3.228  1.00 20.00    -0.004 C 
HETATM    8  C3  UNL     1     -33.888   4.534   3.574  1.00 20.00     0.011 C 
BRANCH   7   9
HETATM    9  C7  UNL     1     -34.412   6.856   4.442  1.00 20.00     0.119 C 
HETATM   10 CL10 UNL     1     -34.419   5.940   5.968  1.00 20.00    -0.130 Cl
ENDBRANCH   7   9
ENDBRANCH   1   7
TORSDOF 5
ENDMDL
MODEL 3
REMARK VINA RESULT:      -4.9      1.317      1.813
REMARK  5 active torsions:
REMARK  status: ('A' for Active; 'I' for Inactive)
REMARK    1  A    between atoms: C4_4  and  C5_5 
REMARK    2  A    between atoms: C5_5  and  C8_8 
REMARK    3  A    between atoms: C6_6  and  C8_8 
REMARK    4  A    between atoms: C6_6  and  C9_9 
REMARK    5  A    between atoms: C7_7  and  C9_9 
ROOT
HETATM    1  C6  UNL     1     -32.034   8.000   2.983  1.00 20.00     0.009 C 
ENDROOT
BRANCH   1   2
HETATM    2  C8  UNL     1     -33.259   7.066   2.891  1.00 20.00    -0.018 C 
HETATM    3  C2  UNL     1     -32.877   5.655   2.437  1.00 20.00     0.010 C 
BRANCH   2   4
HETATM    4  C5  UNL     1     -34.053   7.037   4.217  1.00 20.00     0.004 C 
BRANCH   4   5
HETATM    5  C4  UNL     1     -34.942   5.808   4.427  1.00 20.00    -0.004 C 
HETATM    6  C1  UNL     1     -34.586   5.085   5.718  1.00 20.00     0.005 C 
ENDBRANCH   4   5
ENDBRANCH   2   4
ENDBRANCH   1   2
BRANCH   1   7
HETATM    7  C9  UNL     1     -31.889   9.034   1.843  1.00 20.00    -0.004 C 
HETATM    8  C3  UNL     1     -31.084   8.419   0.691  1.00 20.00     0.011 C 
BRANCH   7   9
HETATM    9  C7  UNL     1     -33.217   9.623   1.342  1.00 20.00     0.119 C 
HETATM   10 CL10 UNL     1     -33.396   9.573  -0.428  1.00 20.00    -0.130 Cl
ENDBRANCH   7   9
ENDBRANCH   1   7
TORSDOF 5
ENDMDL
MODEL 4
REMARK VINA RESULT:      -4.9      1.849      2.199
REMARK  5 active torsions:
REMARK  status: ('A' for Active; 'I' for Inactive)
REMARK    1  A    between atoms: C4_4  and  C5_5 
REMARK    2  A    between atoms: C5_5  and  C8_8 
REMARK    3  A    between atoms: C6_6  and  C8_8 
REMARK    4  A    between atoms: C6_6  and  C9_9 
REMARK    5  A    between atoms: C7_7  and  C9_9 
ROOT
HETATM    1  C6  UNL     1     -33.650   7.486   2.511  1.00 20.00     0.009 C 
ENDROOT
BRANCH   1   2
HETATM    2  C8  UNL     1     -34.088   6.007   2.574  1.00 20.00    -0.018 C 
HETATM    3  C2  UNL     1     -32.894   5.055   2.671  1.00 20.00     0.010 C 
BRANCH   2   4
HETATM    4  C5  UNL     1     -35.101   5.761   3.716  1.00 20.00     0.004 C 
BRANCH   4   5
HETATM    5  C4  UNL     1     -34.761   4.606   4.662  1.00 20.00    -0.004 C 
HETATM    6  C1  UNL     1     -34.547   5.104   6.084  1.00 20.00     0.005 C 
ENDBRANCH   4   5
ENDBRANCH   2   4
ENDBRANCH   1   2
BRANCH   1   7
HETATM    7  C9  UNL     1     -32.125   7.736   2.505  1.00 20.00    -0.004 C 
HETATM    8  C3  UNL     1     -31.767   8.695   1.361  1.00 20.00     0.011 C 
BRANCH   7   9
HETATM    9  C7  UNL     1     -31.552   8.229   3.843  1.00 20.00     0.119 C 
HETATM   10 CL10 UNL     1     -32.664   8.017   5.216  1.00 20.00    -0.130 Cl
ENDBRANCH   7   9
ENDBRANCH   1   7
TORSDOF 5
ENDMDL
MODEL 5
REMARK VINA RESULT:      -4.9      2.616      4.868
REMARK  5 active torsions:
REMARK  status: ('A' for Active; 'I' for Inactive)
REMARK    1  A    between atoms: C4_4  and  C5_5 
REMARK    2  A    between atoms: C5_5  and  C8_8 
REMARK    3  A    between atoms: C6_6  and  C8_8 
REMARK    4  A    between atoms: C6_6  and  C9_9 
REMARK    5  A    between atoms: C7_7  and  C9_9 
ROOT
HETATM    1  C6  UNL     1     -33.317   7.402   2.679  1.00 20.00     0.009 C 
ENDROOT
BRANCH   1   2
HETATM    2  C8  UNL     1     -32.211   8.479   2.695  1.00 20.00    -0.018 C 
HETATM    3  C2  UNL     1     -31.028   8.078   3.579  1.00 20.00     0.010 C 
BRANCH   2   4
HETATM    4  C5  UNL     1     -31.749   8.841   1.264  1.00 20.00     0.004 C 
BRANCH   4   5
HETATM    5  C4  UNL     1     -32.529   9.971   0.586  1.00 20.00    -0.004 C 
HETATM    6  C1  UNL     1     -33.301   9.459  -0.621  1.00 20.00     0.005 C 
ENDBRANCH   4   5
ENDBRANCH   2   4
ENDBRANCH   1   2
BRANCH   1   7
HETATM    7  C9  UNL     1     -33.374   6.479   3.918  1.00 20.00    -0.004 C 
HETATM    8  C3  UNL     1     -33.911   7.266   5.120  1.00 20.00     0.011 C 
BRANCH   7   9
HETATM    9  C7  UNL     1     -34.164   5.177   3.708  1.00 20.00     0.119 C 
HETATM   10 CL10 UNL     1     -34.576   4.341   5.225  1.00 20.00    -0.130 Cl
ENDBRANCH   7   9
ENDBRANCH   1   7
TORSDOF 5
ENDMDL
MODEL 6
REMARK VINA RESULT:      -4.8      2.581      4.534
REMARK  5 active torsions:
REMARK  status: ('A' for Active; 'I' for Inactive)
REMARK    1  A    between atoms: C4_4  and  C5_5 
REMARK    2  A    between atoms: C5_5  and  C8_8 
REMARK    3  A    between atoms: C6_6  and  C8_8 
REMARK    4  A    between atoms: C6_6  and  C9_9 
REMARK    5  A    between atoms: C7_7  and  C9_9 
ROOT
HETATM    1  C6  UNL     1     -33.680   7.496   3.969  1.00 20.00     0.009 C 
ENDROOT
BRANCH   1   2
HETATM    2  C8  UNL     1     -32.546   7.160   2.976  1.00 20.00    -0.018 C 
HETATM    3  C2  UNL     1     -33.036   6.298   1.811  1.00 20.00     0.010 C 
BRANCH   2   4
HETATM    4  C5  UNL     1     -31.833   8.436   2.473  1.00 20.00     0.004 C 
BRANCH   4   5
HETATM    5  C4  UNL     1     -32.205   8.886   1.058  1.00 20.00    -0.004 C 
HETATM    6  C1  UNL     1     -32.704  10.323   1.049  1.00 20.00     0.005 C 
ENDBRANCH   4   5
ENDBRANCH   2   4
ENDBRANCH   1   2
BRANCH   1   7
HETATM    7  C9  UNL     1     -33.756   6.605   5.229  1.00 20.00    -0.004 C 
HETATM    8  C3  UNL     1     -33.942   7.487   6.471  1.00 20.00     0.011 C 
BRANCH   7   9
HETATM    9  C7  UNL     1     -34.824   5.500   5.168  1.00 20.00     0.119 C 
HETATM   10 CL10 UNL     1     -34.261   4.008   4.379  1.00 20.00    -0.130 Cl
ENDBRANCH   7   9
ENDBRANCH   1   7
TORSDOF 5
ENDMDL
MODEL 7
REMARK VINA RESULT:      -4.7      1.397      2.335
REMARK  5 active torsions:
REMARK  status: ('A' for Active; 'I' for Inactive)
REMARK    1  A    between atoms: C4_4  and  C5_5 
REMARK    2  A    between atoms: C5_5  and  C8_8 
REMARK    3  A    between atoms: C6_6  and  C8_8 
REMARK    4  A    between atoms: C6_6  and  C9_9 
REMARK    5  A    between atoms: C7_7  and  C9_9 
ROOT
HETATM    1  C6  UNL     1     -33.332   8.366   2.470  1.00 20.00     0.009 C 
ENDROOT
BRANCH   1   2
HETATM    2  C8  UNL     1     -32.846   7.248   3.417  1.00 20.00    -0.018 C 
HETATM    3  C2  UNL     1     -33.017   7.625   4.890  1.00 20.00     0.010 C 
BRANCH   2   4
HETATM    4  C5  UNL     1     -33.523   5.896   3.097  1.00 20.00     0.004 C 
BRANCH   4   5
HETATM    5  C4  UNL     1     -34.771   5.571   3.923  1.00 20.00    -0.004 C 
HETATM    6  C1  UNL     1     -34.530   4.381   4.840  1.00 20.00     0.005 C 
ENDBRANCH   4   5
ENDBRANCH   2   4
ENDBRANCH   1   2
BRANCH   1   7
HETATM    7  C9  UNL     1     -32.225   9.218   1.809  1.00 20.00    -0.004 C 
HETATM    8  C3  UNL     1     -31.245   8.299   1.067  1.00 20.00     0.011 C 
BRANCH   7   9
HETATM    9  C7  UNL     1     -32.741  10.337   0.891  1.00 20.00     0.119 C 
HETATM   10 CL10 UNL     1     -33.366   9.749  -0.668  1.00 20.00    -0.130 Cl
ENDBRANCH   7   9
ENDBRANCH   1   7
TORSDOF 5
ENDMDL
MODEL 8
REMARK VINA RESULT:      -4.7      2.023      4.219
REMARK  5 active torsions:
REMARK  status: ('A' for Active; 'I' for Inactive)
REMARK    1  A    between atoms: C4_4  and  C5_5 
REMARK    2  A    between atoms: C5_5  and  C8_8 
REMARK    3  A    between atoms: C6_6  and  C8_8 
REMARK    4  A    between atoms: C6_6  and  C9_9 
REMARK    5  A    between atoms: C7_7  and  C9_9 
ROOT
HETATM    1  C6  UNL     1     -34.315   6.433   3.516  1.00 20.00     0.009 C 
ENDROOT
BRANCH   1   2
HETATM    2  C8  UNL     1     -32.887   6.049   3.073  1.00 20.00    -0.018 C 
HETATM    3  C2  UNL     1     -32.892   5.026   1.935  1.00 20.00     0.010 C 
BRANCH   2   4
HETATM    4  C5  UNL     1     -32.049   7.296   2.709  1.00 20.00     0.004 C 
BRANCH   4   5
HETATM    5  C4  UNL     1     -32.821   8.439   2.044  1.00 20.00    -0.004 C 
HETATM    6  C1  UNL     1     -32.010   9.072   0.924  1.00 20.00     0.005 C 
ENDBRANCH   4   5
ENDBRANCH   2   4
ENDBRANCH   1   2
BRANCH   1   7
HETATM    7  C9  UNL     1     -34.895   5.622   4.697  1.00 20.00    -0.004 C 
HETATM    8  C3  UNL     1     -34.458   4.156   4.577  1.00 20.00     0.011 C 
BRANCH   7   9
HETATM    9  C7  UNL     1     -34.562   6.190   6.087  1.00 20.00     0.119 C 
HETATM   10 CL10 UNL     1     -33.500   7.617   6.038  1.00 20.00    -0.130 Cl
ENDBRANCH   7   9
ENDBRANCH   1   7
TORSDOF 5
ENDMDL
MODEL 9
REMARK VINA RESULT:      -4.6      1.002      2.282
REMARK  5 active torsions:
REMARK  status: ('A' for Active; 'I' for Inactive)
REMARK    1  A    between atoms: C4_4  and  C5_5 
REMARK    2  A    between atoms: C5_5  and  C8_8 
REMARK    3  A    between atoms: C6_6  and  C8_8 
REMARK    4  A    between atoms: C6_6  and  C9_9 
REMARK    5  A    between atoms: C7_7  and  C9_9 
ROOT
HETATM    1  C6  UNL     1     -33.864   7.683   3.344  1.00 20.00     0.009 C 
ENDROOT
BRANCH   1   2
HETATM    2  C8  UNL     1     -33.647   6.746   4.551  1.00 20.00    -0.018 C 
HETATM    3  C2  UNL     1     -33.710   7.496   5.883  1.00 20.00     0.010 C 
BRANCH   2   4
HETATM    4  C5  UNL     1     -34.630   5.552   4.528  1.00 20.00     0.004 C 
BRANCH   4   5
HETATM    5  C4  UNL     1     -34.069   4.246   3.962  1.00 20.00    -0.004 C 
HETATM    6  C1  UNL     1     -33.133   4.510   2.791  1.00 20.00     0.005 C 
ENDBRANCH   4   5
ENDBRANCH   2   4
ENDBRANCH   1   2
BRANCH   1   7
HETATM    7  C9  UNL     1     -32.636   8.517   2.911  1.00 20.00    -0.004 C 
HETATM    8  C3  UNL     1     -31.358   7.875   3.467  1.00 20.00     0.011 C 
BRANCH   7   9
HETATM    9  C7  UNL     1     -32.526   8.755   1.397  1.00 20.00     0.119 C 
HETATM   10 CL10 UNL     1     -32.624  10.471   0.935  1.00 20.00    -0.130 Cl
ENDBRANCH   7   9
ENDBRANCH   1   7
TORSDOF 5
ENDMDL
