MODEL 1
REMARK VINA RESULT:      -4.0      0.000      0.000
REMARK  2 active torsions:
REMARK  status: ('A' for Active; 'I' for Inactive)
REMARK    1  A    between atoms: C5_5  and  C6_6 
REMARK    2  A    between atoms: C6_6  and  O8_8 
ROOT
HETATM    1  C1  UNL     1     -33.116   7.042   3.318  1.00 20.00     0.097 C 
HETATM    2  C3  UNL     1     -35.471   6.339   3.266  1.00 20.00     0.062 C 
HETATM    3  C6  UNL     1     -34.086   6.076   3.865  1.00 20.00     0.144 C 
HETATM    4  N7  UNL     1     -32.352   7.801   2.886  1.00 20.00    -0.194 NA
ENDROOT
BRANCH   3   5
HETATM    5  C5  UNL     1     -34.157   6.167   5.402  1.00 20.00     0.049 C 
HETATM    6  C2  UNL     1     -33.610   7.470   5.980  1.00 20.00     0.009 C 
ENDBRANCH   3   5
BRANCH   3   7
HETATM    7  O8  UNL     1     -33.694   4.750   3.507  1.00 20.00    -0.371 OA
HETATM    8  C4  UNL     1     -34.148   3.804   4.461  1.00 20.00     0.204 C 
ENDBRANCH   3   7
TORSDOF 2
ENDMDL
MODEL 2
REMARK VINA RESULT:      -3.7     12.296     12.803
REMARK  2 active torsions:
REMARK  status: ('A' for Active; 'I' for Inactive)
REMARK    1  A    between atoms: C5_5  and  C6_6 
REMARK    2  A    between atoms: C6_6  and  O8_8 
ROOT
HETATM    1  C1  UNL     1     -35.306  13.859  -4.925  1.00 20.00     0.097 C 
HETATM    2  C3  UNL     1     -33.033  14.641  -4.409  1.00 20.00     0.062 C 
HETATM    3  C6  UNL     1     -34.500  15.045  -4.584  1.00 20.00     0.144 C 
HETATM    4  N7  UNL     1     -35.940  12.925  -5.195  1.00 20.00    -0.194 NA
ENDROOT
BRANCH   3   5
HETATM    5  C5  UNL     1     -35.014  15.717  -3.295  1.00 20.00     0.049 C 
HETATM    6  C2  UNL     1     -33.987  16.607  -2.599  1.00 20.00     0.009 C 
ENDBRANCH   3   5
BRANCH   3   7
HETATM    7  O8  UNL     1     -34.572  15.994  -5.648  1.00 20.00    -0.371 OA
HETATM    8  C4  UNL     1     -33.554  15.769  -6.610  1.00 20.00     0.204 C 
ENDBRANCH   3   7
TORSDOF 2
ENDMDL
MODEL 3
REMARK VINA RESULT:      -3.7      1.688      2.822
REMARK  2 active torsions:
REMARK  status: ('A' for Active; 'I' for Inactive)
REMARK    1  A    between atoms: C5_5  and  C6_6 
REMARK    2  A    between atoms: C6_6  and  O8_8 
ROOT
HETATM    1  C1  UNL     1     -33.822   6.929   5.000  1.00 20.00     0.097 C 
HETATM    2  C3  UNL     1     -35.597   6.298   3.420  1.00 20.00     0.062 C 
HETATM    3  C6  UNL     1     -34.086   6.375   3.659  1.00 20.00     0.144 C 
HETATM    4  N7  UNL     1     -33.615   7.367   6.055  1.00 20.00    -0.194 NA
ENDROOT
BRANCH   3   5
HETATM    5  C5  UNL     1     -33.460   4.976   3.501  1.00 20.00     0.049 C 
HETATM    6  C2  UNL     1     -34.100   3.900   4.376  1.00 20.00     0.009 C 
ENDBRANCH   3   5
BRANCH   3   7
HETATM    7  O8  UNL     1     -33.526   7.236   2.667  1.00 20.00    -0.371 OA
HETATM    8  C4  UNL     1     -32.192   7.595   2.989  1.00 20.00     0.204 C 
ENDBRANCH   3   7
TORSDOF 2
ENDMDL
MODEL 4
REMARK VINA RESULT:      -3.7      2.247      3.278
REMARK  2 active torsions:
REMARK  status: ('A' for Active; 'I' for Inactive)
REMARK    1  A    between atoms: C5_5  and  C6_6 
REMARK    2  A    between atoms: C6_6  and  O8_8 
ROOT
HETATM    1  C1  UNL     1     -32.935   5.950   2.876  1.00 20.00     0.097 C 
HETATM    2  C3  UNL     1     -31.638   7.862   3.717  1.00 20.00     0.062 C 
HETATM    3  C6  UNL     1     -33.004   7.383   3.217  1.00 20.00     0.144 C 
HETATM    4  N7  UNL     1     -32.879   4.823   2.605  1.00 20.00    -0.194 NA
ENDROOT
BRANCH   3   5
HETATM    5  C5  UNL     1     -34.076   7.648   4.292  1.00 20.00     0.049 C 
HETATM    6  C2  UNL     1     -33.653   7.265   5.708  1.00 20.00     0.009 C 
ENDBRANCH   3   5
BRANCH   3   7
HETATM    7  O8  UNL     1     -33.336   8.137   2.051  1.00 20.00    -0.371 OA
HETATM    8  C4  UNL     1     -32.208   8.833   1.548  1.00 20.00     0.204 C 
ENDBRANCH   3   7
TORSDOF 2
ENDMDL
MODEL 5
REMARK VINA RESULT:      -3.6     12.043     13.094
REMARK  2 active torsions:
REMARK  status: ('A' for Active; 'I' for Inactive)
REMARK    1  A    between atoms: C5_5  and  C6_6 
REMARK    2  A    between atoms: C6_6  and  O8_8 
ROOT
HETATM    1  C1  UNL     1     -36.602  14.055  -5.196  1.00 20.00     0.097 C 
HETATM    2  C3  UNL     1     -34.417  14.233  -4.084  1.00 20.00     0.062 C 
HETATM    3  C6  UNL     1     -35.156  14.230  -5.426  1.00 20.00     0.144 C 
HETATM    4  N7  UNL     1     -37.740  13.916  -5.015  1.00 20.00    -0.194 NA
ENDROOT
BRANCH   3   5
HETATM    5  C5  UNL     1     -34.866  15.539  -6.185  1.00 20.00     0.049 C 
HETATM    6  C2  UNL     1     -33.435  16.048  -6.034  1.00 20.00     0.009 C 
ENDBRANCH   3   5
BRANCH   3   7
HETATM    7  O8  UNL     1     -34.659  13.138  -6.200  1.00 20.00    -0.371 OA
HETATM    8  C4  UNL     1     -35.212  13.138  -7.506  1.00 20.00     0.204 C 
ENDBRANCH   3   7
TORSDOF 2
ENDMDL
MODEL 6
REMARK VINA RESULT:      -3.5      2.065      2.939
REMARK  2 active torsions:
REMARK  status: ('A' for Active; 'I' for Inactive)
REMARK    1  A    between atoms: C5_5  and  C6_6 
REMARK    2  A    between atoms: C6_6  and  O8_8 
ROOT
HETATM    1  C1  UNL     1     -34.094   4.593   4.116  1.00 20.00     0.097 C 
HETATM    2  C3  UNL     1     -35.601   6.416   3.447  1.00 20.00     0.062 C 
HETATM    3  C6  UNL     1     -34.152   6.019   3.747  1.00 20.00     0.144 C 
HETATM    4  N7  UNL     1     -34.048   3.471   4.409  1.00 20.00    -0.194 NA
ENDROOT
BRANCH   3   5
HETATM    5  C5  UNL     1     -33.266   6.314   2.521  1.00 20.00     0.049 C 
HETATM    6  C2  UNL     1     -32.479   7.619   2.614  1.00 20.00     0.009 C 
ENDBRANCH   3   5
BRANCH   3   7
HETATM    7  O8  UNL     1     -33.693   6.816   4.839  1.00 20.00    -0.371 OA
HETATM    8  C4  UNL     1     -34.363   6.476   6.042  1.00 20.00     0.204 C 
ENDBRANCH   3   7
TORSDOF 2
ENDMDL
MODEL 7
REMARK VINA RESULT:      -3.4     12.202     12.765
REMARK  2 active torsions:
REMARK  status: ('A' for Active; 'I' for Inactive)
REMARK    1  A    between atoms: C5_5  and  C6_6 
REMARK    2  A    between atoms: C6_6  and  O8_8 
ROOT
HETATM    1  C1  UNL     1     -35.725  13.874  -4.985  1.00 20.00     0.097 C 
HETATM    2  C3  UNL     1     -35.468  16.189  -5.769  1.00 20.00     0.062 C 
HETATM    3  C6  UNL     1     -35.504  15.264  -4.549  1.00 20.00     0.144 C 
HETATM    4  N7  UNL     1     -35.901  12.779  -5.329  1.00 20.00    -0.194 NA
ENDROOT
BRANCH   3   5
HETATM    5  C5  UNL     1     -34.190  15.397  -3.754  1.00 20.00     0.049 C 
HETATM    6  C2  UNL     1     -32.980  14.757  -4.429  1.00 20.00     0.009 C 
ENDBRANCH   3   5
BRANCH   3   7
HETATM    7  O8  UNL     1     -36.583  15.680  -3.712  1.00 20.00    -0.371 OA
HETATM    8  C4  UNL     1     -36.243  16.839  -2.968  1.00 20.00     0.204 C 
ENDBRANCH   3   7
TORSDOF 2
ENDMDL
MODEL 8
REMARK VINA RESULT:      -3.4      1.801      2.705
REMARK  2 active torsions:
REMARK  status: ('A' for Active; 'I' for Inactive)
REMARK    1  A    between atoms: C5_5  and  C6_6 
REMARK    2  A    between atoms: C6_6  and  O8_8 
ROOT
HETATM    1  C1  UNL     1     -33.424   7.086   4.755  1.00 20.00     0.097 C 
HETATM    2  C3  UNL     1     -32.727   5.398   3.109  1.00 20.00     0.062 C 
HETATM    3  C6  UNL     1     -33.546   6.671   3.346  1.00 20.00     0.144 C 
HETATM    4  N7  UNL     1     -33.329   7.411   5.866  1.00 20.00    -0.194 NA
ENDROOT
BRANCH   3   5
HETATM    5  C5  UNL     1     -33.067   7.785   2.394  1.00 20.00     0.049 C 
HETATM    6  C2  UNL     1     -31.697   8.363   2.742  1.00 20.00     0.009 C 
ENDBRANCH   3   5
BRANCH   3   7
HETATM    7  O8  UNL     1     -34.912   6.379   3.050  1.00 20.00    -0.371 OA
HETATM    8  C4  UNL     1     -35.478   5.519   4.025  1.00 20.00     0.204 C 
ENDBRANCH   3   7
TORSDOF 2
ENDMDL
MODEL 9
REMARK VINA RESULT:      -3.4      2.077      3.300
REMARK  2 active torsions:
REMARK  status: ('A' for Active; 'I' for Inactive)
REMARK    1  A    between atoms: C5_5  and  C6_6 
REMARK    2  A    between atoms: C6_6  and  O8_8 
ROOT
HETATM    1  C1  UNL     1     -33.351   7.363   4.619  1.00 20.00     0.097 C 
HETATM    2  C3  UNL     1     -31.246   8.139   3.614  1.00 20.00     0.062 C 
HETATM    3  C6  UNL     1     -32.596   7.464   3.357  1.00 20.00     0.144 C 
HETATM    4  N7  UNL     1     -33.943   7.283   5.614  1.00 20.00    -0.194 NA
ENDROOT
BRANCH   3   5
HETATM    5  C5  UNL     1     -33.384   8.259   2.298  1.00 20.00     0.049 C 
HETATM    6  C2  UNL     1     -32.518   9.135   1.396  1.00 20.00     0.009 C 
ENDBRANCH   3   5
BRANCH   3   7
HETATM    7  O8  UNL     1     -32.344   6.155   2.844  1.00 20.00    -0.371 OA
HETATM    8  C4  UNL     1     -33.529   5.377   2.812  1.00 20.00     0.204 C 
ENDBRANCH   3   7
TORSDOF 2
ENDMDL
