MODEL 1
REMARK VINA RESULT:      -4.8      0.000      0.000
REMARK  4 active torsions:
REMARK  status: ('A' for Active; 'I' for Inactive)
REMARK    1  A    between atoms: C6_6  and  C8_8 
REMARK    2  A    between atoms: C6_6  and  C9_9 
REMARK    3  A    between atoms: C7_7  and  O11_11 
REMARK    4  A    between atoms: C8_8  and  O11_11 
ROOT
HETATM    1  C1  UNL     1     -32.788   5.917   2.633  1.00 20.00     0.091 C 
HETATM    2  C8  UNL     1     -32.411   7.331   2.794  1.00 20.00     0.228 C 
HETATM    3  N10 UNL     1     -33.083   4.802   2.505  1.00 20.00    -0.195 NA
ENDROOT
BRANCH   2   4
HETATM    4  C6  UNL     1     -33.284   8.221   1.894  1.00 20.00     0.055 C 
BRANCH   4   5
HETATM    5  C9  UNL     1     -32.543   9.154   0.891  1.00 20.00    -0.048 C 
HETATM    6  C3  UNL     1     -32.590  10.589   1.457  1.00 20.00     0.014 C 
HETATM    7  C4  UNL     1     -31.068   8.743   0.741  1.00 20.00     0.014 C 
HETATM    8  C5  UNL     1     -33.205   9.164  -0.496  1.00 20.00     0.014 C 
ENDBRANCH   4   5
ENDBRANCH   2   4
BRANCH   2   9
HETATM    9  O11 UNL     1     -32.594   7.705   4.155  1.00 20.00    -0.372 OA
BRANCH   9  10
HETATM   10  C7  UNL     1     -33.841   7.246   4.657  1.00 20.00     0.165 C 
HETATM   11  C2  UNL     1     -33.786   7.221   6.170  1.00 20.00     0.033 C 
ENDBRANCH   9  10
ENDBRANCH   2   9
TORSDOF 4
ENDMDL
MODEL 2
REMARK VINA RESULT:      -4.8      0.035      1.310
REMARK  4 active torsions:
REMARK  status: ('A' for Active; 'I' for Inactive)
REMARK    1  A    between atoms: C6_6  and  C8_8 
REMARK    2  A    between atoms: C6_6  and  C9_9 
REMARK    3  A    between atoms: C7_7  and  O11_11 
REMARK    4  A    between atoms: C8_8  and  O11_11 
ROOT
HETATM    1  C1  UNL     1     -32.802   5.906   2.634  1.00 20.00     0.091 C 
HETATM    2  C8  UNL     1     -32.414   7.319   2.779  1.00 20.00     0.228 C 
HETATM    3  N10 UNL     1     -33.105   4.792   2.519  1.00 20.00    -0.195 NA
ENDROOT
BRANCH   2   4
HETATM    4  C6  UNL     1     -33.275   8.204   1.862  1.00 20.00     0.055 C 
BRANCH   4   5
HETATM    5  C9  UNL     1     -32.520   9.174   0.905  1.00 20.00    -0.048 C 
HETATM    6  C3  UNL     1     -33.214   9.114  -0.472  1.00 20.00     0.014 C 
HETATM    7  C4  UNL     1     -32.592  10.622   1.419  1.00 20.00     0.014 C 
HETATM    8  C5  UNL     1     -31.047   8.781   0.718  1.00 20.00     0.014 C 
ENDBRANCH   4   5
ENDBRANCH   2   4
BRANCH   2   9
HETATM    9  O11 UNL     1     -32.602   7.712   4.134  1.00 20.00    -0.372 OA
BRANCH   9  10
HETATM   10  C7  UNL     1     -33.850   7.256   4.638  1.00 20.00     0.165 C 
HETATM   11  C2  UNL     1     -33.786   7.217   6.150  1.00 20.00     0.033 C 
ENDBRANCH   9  10
ENDBRANCH   2   9
TORSDOF 4
ENDMDL
MODEL 3
REMARK VINA RESULT:      -4.5     10.222     11.214
REMARK  4 active torsions:
REMARK  status: ('A' for Active; 'I' for Inactive)
REMARK    1  A    between atoms: C6_6  and  C8_8 
REMARK    2  A    between atoms: C6_6  and  C9_9 
REMARK    3  A    between atoms: C7_7  and  O11_11 
REMARK    4  A    between atoms: C8_8  and  O11_11 
ROOT
HETATM    1  C1  UNL     1     -37.266  14.157  -5.160  1.00 20.00     0.091 C 
HETATM    2  C8  UNL     1     -35.814  14.181  -5.405  1.00 20.00     0.228 C 
HETATM    3  N10 UNL     1     -38.410  14.139  -4.969  1.00 20.00    -0.195 NA
ENDROOT
BRANCH   2   4
HETATM    4  C6  UNL     1     -35.065  14.601  -4.129  1.00 20.00     0.055 C 
BRANCH   4   5
HETATM    5  C9  UNL     1     -34.154  15.861  -4.227  1.00 20.00    -0.048 C 
HETATM    6  C3  UNL     1     -32.840  15.440  -4.917  1.00 20.00     0.014 C 
HETATM    7  C4  UNL     1     -34.817  16.956  -5.080  1.00 20.00     0.014 C 
HETATM    8  C5  UNL     1     -33.807  16.439  -2.847  1.00 20.00     0.014 C 
ENDBRANCH   4   5
ENDBRANCH   2   4
BRANCH   2   9
HETATM    9  O11 UNL     1     -35.391  12.880  -5.800  1.00 20.00    -0.372 OA
BRANCH   9  10
HETATM   10  C7  UNL     1     -35.302  12.770  -7.213  1.00 20.00     0.165 C 
HETATM   11  C2  UNL     1     -34.386  13.855  -7.737  1.00 20.00     0.033 C 
ENDBRANCH   9  10
ENDBRANCH   2   9
TORSDOF 4
ENDMDL
MODEL 4
REMARK VINA RESULT:      -4.2     10.087     11.379
REMARK  4 active torsions:
REMARK  status: ('A' for Active; 'I' for Inactive)
REMARK    1  A    between atoms: C6_6  and  C8_8 
REMARK    2  A    between atoms: C6_6  and  C9_9 
REMARK    3  A    between atoms: C7_7  and  O11_11 
REMARK    4  A    between atoms: C8_8  and  O11_11 
ROOT
HETATM    1  C1  UNL     1     -35.406  13.899  -5.080  1.00 20.00     0.091 C 
HETATM    2  C8  UNL     1     -34.775  15.207  -4.838  1.00 20.00     0.228 C 
HETATM    3  N10 UNL     1     -35.906  12.870  -5.271  1.00 20.00    -0.195 NA
ENDROOT
BRANCH   2   4
HETATM    4  C6  UNL     1     -34.568  15.428  -3.330  1.00 20.00     0.055 C 
BRANCH   4   5
HETATM    5  C9  UNL     1     -34.743  16.882  -2.799  1.00 20.00    -0.048 C 
HETATM    6  C3  UNL     1     -35.745  17.604  -3.723  1.00 20.00     0.014 C 
HETATM    7  C4  UNL     1     -35.317  16.882  -1.372  1.00 20.00     0.014 C 
HETATM    8  C5  UNL     1     -33.425  17.670  -2.811  1.00 20.00     0.014 C 
ENDBRANCH   4   5
ENDBRANCH   2   4
BRANCH   2   9
HETATM    9  O11 UNL     1     -33.516  15.240  -5.501  1.00 20.00    -0.372 OA
BRANCH   9  10
HETATM   10  C7  UNL     1     -33.659  15.595  -6.869  1.00 20.00     0.165 C 
HETATM   11  C2  UNL     1     -33.962  17.075  -6.967  1.00 20.00     0.033 C 
ENDBRANCH   9  10
ENDBRANCH   2   9
TORSDOF 4
ENDMDL
MODEL 5
REMARK VINA RESULT:      -4.1      2.046      4.687
REMARK  4 active torsions:
REMARK  status: ('A' for Active; 'I' for Inactive)
REMARK    1  A    between atoms: C6_6  and  C8_8 
REMARK    2  A    between atoms: C6_6  and  C9_9 
REMARK    3  A    between atoms: C7_7  and  O11_11 
REMARK    4  A    between atoms: C8_8  and  O11_11 
ROOT
HETATM    1  C1  UNL     1     -31.496   7.982   3.437  1.00 20.00     0.091 C 
HETATM    2  C8  UNL     1     -32.788   7.475   2.945  1.00 20.00     0.228 C 
HETATM    3  N10 UNL     1     -30.477   8.380   3.824  1.00 20.00    -0.195 NA
ENDROOT
BRANCH   2   4
HETATM    4  C6  UNL     1     -33.736   7.200   4.124  1.00 20.00     0.055 C 
BRANCH   4   5
HETATM    5  C9  UNL     1     -34.404   5.794   4.181  1.00 20.00    -0.048 C 
HETATM    6  C3  UNL     1     -35.820   5.919   3.581  1.00 20.00     0.014 C 
HETATM    7  C4  UNL     1     -33.614   4.774   3.344  1.00 20.00     0.014 C 
HETATM    8  C5  UNL     1     -34.537   5.269   5.619  1.00 20.00     0.014 C 
ENDBRANCH   4   5
ENDBRANCH   2   4
BRANCH   2   9
HETATM    9  O11 UNL     1     -33.367   8.448   2.084  1.00 20.00    -0.372 OA
BRANCH   9  10
HETATM   10  C7  UNL     1     -32.432   8.913   1.122  1.00 20.00     0.165 C 
HETATM   11  C2  UNL     1     -32.628  10.402   0.922  1.00 20.00     0.033 C 
ENDBRANCH   9  10
ENDBRANCH   2   9
TORSDOF 4
ENDMDL
MODEL 6
REMARK VINA RESULT:      -4.0      2.047      4.683
REMARK  4 active torsions:
REMARK  status: ('A' for Active; 'I' for Inactive)
REMARK    1  A    between atoms: C6_6  and  C8_8 
REMARK    2  A    between atoms: C6_6  and  C9_9 
REMARK    3  A    between atoms: C7_7  and  O11_11 
REMARK    4  A    between atoms: C8_8  and  O11_11 
ROOT
HETATM    1  C1  UNL     1     -31.477   7.977   3.458  1.00 20.00     0.091 C 
HETATM    2  C8  UNL     1     -32.769   7.457   2.980  1.00 20.00     0.228 C 
HETATM    3  N10 UNL     1     -30.458   8.385   3.833  1.00 20.00    -0.195 NA
ENDROOT
BRANCH   2   4
HETATM    4  C6  UNL     1     -33.707   7.188   4.168  1.00 20.00     0.055 C 
BRANCH   4   5
HETATM    5  C9  UNL     1     -34.446   5.817   4.189  1.00 20.00    -0.048 C 
HETATM    6  C3  UNL     1     -33.621   4.824   3.343  1.00 20.00     0.014 C 
HETATM    7  C4  UNL     1     -34.543   5.265   5.621  1.00 20.00     0.014 C 
HETATM    8  C5  UNL     1     -35.856   5.905   3.587  1.00 20.00     0.014 C 
ENDBRANCH   4   5
ENDBRANCH   2   4
BRANCH   2   9
HETATM    9  O11 UNL     1     -33.361   8.419   2.113  1.00 20.00    -0.372 OA
BRANCH   9  10
HETATM   10  C7  UNL     1     -32.425   8.908   1.164  1.00 20.00     0.165 C 
HETATM   11  C2  UNL     1     -32.665  10.388   0.951  1.00 20.00     0.033 C 
ENDBRANCH   9  10
ENDBRANCH   2   9
TORSDOF 4
ENDMDL
MODEL 7
REMARK VINA RESULT:      -4.0     10.285     11.402
REMARK  4 active torsions:
REMARK  status: ('A' for Active; 'I' for Inactive)
REMARK    1  A    between atoms: C6_6  and  C8_8 
REMARK    2  A    between atoms: C6_6  and  C9_9 
REMARK    3  A    between atoms: C7_7  and  O11_11 
REMARK    4  A    between atoms: C8_8  and  O11_11 
ROOT
HETATM    1  C1  UNL     1     -36.628  14.616  -4.862  1.00 20.00     0.091 C 
HETATM    2  C8  UNL     1     -35.390  15.410  -4.809  1.00 20.00     0.228 C 
HETATM    3  N10 UNL     1     -37.605  13.992  -4.905  1.00 20.00    -0.195 NA
ENDROOT
BRANCH   2   4
HETATM    4  C6  UNL     1     -34.866  15.486  -3.365  1.00 20.00     0.055 C 
BRANCH   4   5
HETATM    5  C9  UNL     1     -34.762  16.902  -2.724  1.00 20.00    -0.048 C 
HETATM    6  C3  UNL     1     -35.530  16.871  -1.386  1.00 20.00     0.014 C 
HETATM    7  C4  UNL     1     -33.297  17.268  -2.431  1.00 20.00     0.014 C 
HETATM    8  C5  UNL     1     -35.385  17.991  -3.611  1.00 20.00     0.014 C 
ENDBRANCH   4   5
ENDBRANCH   2   4
BRANCH   2   9
HETATM    9  O11 UNL     1     -34.411  14.795  -5.640  1.00 20.00    -0.372 OA
BRANCH   9  10
HETATM   10  C7  UNL     1     -33.344  15.686  -5.933  1.00 20.00     0.165 C 
HETATM   11  C2  UNL     1     -33.842  16.755  -6.883  1.00 20.00     0.033 C 
ENDBRANCH   9  10
ENDBRANCH   2   9
TORSDOF 4
ENDMDL
MODEL 8
REMARK VINA RESULT:      -3.9      1.960      2.578
REMARK  4 active torsions:
REMARK  status: ('A' for Active; 'I' for Inactive)
REMARK    1  A    between atoms: C6_6  and  C8_8 
REMARK    2  A    between atoms: C6_6  and  C9_9 
REMARK    3  A    between atoms: C7_7  and  O11_11 
REMARK    4  A    between atoms: C8_8  and  O11_11 
ROOT
HETATM    1  C1  UNL     1     -33.356   7.523   4.766  1.00 20.00     0.091 C 
HETATM    2  C8  UNL     1     -33.458   7.415   3.302  1.00 20.00     0.228 C 
HETATM    3  N10 UNL     1     -33.278   7.610   5.921  1.00 20.00    -0.195 NA
ENDROOT
BRANCH   2   4
HETATM    4  C6  UNL     1     -32.168   7.928   2.639  1.00 20.00     0.055 C 
BRANCH   4   5
HETATM    5  C9  UNL     1     -32.331   8.833   1.381  1.00 20.00    -0.048 C 
HETATM    6  C3  UNL     1     -31.024   8.747   0.566  1.00 20.00     0.014 C 
HETATM    7  C4  UNL     1     -33.487   8.339   0.494  1.00 20.00     0.014 C 
HETATM    8  C5  UNL     1     -32.573  10.305   1.749  1.00 20.00     0.014 C 
ENDBRANCH   4   5
ENDBRANCH   2   4
BRANCH   2   9
HETATM    9  O11 UNL     1     -33.662   6.050   2.953  1.00 20.00    -0.372 OA
BRANCH   9  10
HETATM   10  C7  UNL     1     -34.739   5.483   3.687  1.00 20.00     0.165 C 
HETATM   11  C2  UNL     1     -34.274   4.191   4.326  1.00 20.00     0.033 C 
ENDBRANCH   9  10
ENDBRANCH   2   9
TORSDOF 4
ENDMDL
MODEL 9
REMARK VINA RESULT:      -3.8     10.272     11.098
REMARK  4 active torsions:
REMARK  status: ('A' for Active; 'I' for Inactive)
REMARK    1  A    between atoms: C6_6  and  C8_8 
REMARK    2  A    between atoms: C6_6  and  C9_9 
REMARK    3  A    between atoms: C7_7  and  O11_11 
REMARK    4  A    between atoms: C8_8  and  O11_11 
ROOT
HETATM    1  C1  UNL     1     -35.591  13.211  -5.976  1.00 20.00     0.091 C 
HETATM    2  C8  UNL     1     -36.172  14.025  -4.896  1.00 20.00     0.228 C 
HETATM    3  N10 UNL     1     -35.132  12.569  -6.826  1.00 20.00    -0.195 NA
ENDROOT
BRANCH   2   4
HETATM    4  C6  UNL     1     -35.796  15.504  -5.082  1.00 20.00     0.055 C 
BRANCH   4   5
HETATM    5  C9  UNL     1     -34.665  16.065  -4.170  1.00 20.00    -0.048 C 
HETATM    6  C3  UNL     1     -34.254  17.447  -4.723  1.00 20.00     0.014 C 
HETATM    7  C4  UNL     1     -35.162  16.252  -2.726  1.00 20.00     0.014 C 
HETATM    8  C5  UNL     1     -33.421  15.164  -4.160  1.00 20.00     0.014 C 
ENDBRANCH   4   5
ENDBRANCH   2   4
BRANCH   2   9
HETATM    9  O11 UNL     1     -37.589  13.886  -4.925  1.00 20.00    -0.372 OA
BRANCH   9  10
HETATM   10  C7  UNL     1     -38.236  15.097  -4.563  1.00 20.00     0.165 C 
HETATM   11  C2  UNL     1     -39.520  15.227  -5.356  1.00 20.00     0.033 C 
ENDBRANCH   9  10
ENDBRANCH   2   9
TORSDOF 4
ENDMDL
