MODEL 1
REMARK VINA RESULT:      -4.6      0.000      0.000
REMARK  1 active torsions:
REMARK  status: ('A' for Active; 'I' for Inactive)
REMARK    1  A    between atoms: C3_3  and  C8_8 
ROOT
HETATM    1  C1  UNL     1     -34.413   6.223   5.273  1.00 20.00     0.218 C 
HETATM    2  C2  UNL     1     -33.277   7.170   4.982  1.00 20.00     0.109 C 
HETATM    3  C3  UNL     1     -33.355   7.351   3.460  1.00 20.00     0.021 C 
HETATM    4  C4  UNL     1     -33.915   5.999   2.960  1.00 20.00     0.029 C 
HETATM    5  C5  UNL     1     -32.842   4.925   2.733  1.00 20.00     0.038 C 
HETATM    6  C6  UNL     1     -34.751   6.173   1.691  1.00 20.00     0.038 C 
HETATM    7  N9  UNL     1     -34.755   5.603   4.077  1.00 20.00    -0.352 N 
HETATM    8  O10 UNL     1     -34.904   6.026   6.374  1.00 20.00    -0.274 OA
HETATM    9  H25 UNL     1     -35.518   4.938   3.992  1.00 20.00     0.163 HD
ENDROOT
BRANCH   3  10
HETATM   10  C8  UNL     1     -32.029   7.796   2.859  1.00 20.00     0.003 C 
HETATM   11  C7  UNL     1     -32.220   8.833   1.797  1.00 20.00     0.005 C 
ENDBRANCH   3  10
TORSDOF 1
ENDMDL
MODEL 2
REMARK VINA RESULT:      -4.5     11.267     12.252
REMARK  1 active torsions:
REMARK  status: ('A' for Active; 'I' for Inactive)
REMARK    1  A    between atoms: C3_3  and  C8_8 
ROOT
HETATM    1  C1  UNL     1     -35.654  13.803  -4.883  1.00 20.00     0.218 C 
HETATM    2  C2  UNL     1     -34.432  14.264  -4.131  1.00 20.00     0.109 C 
HETATM    3  C3  UNL     1     -34.896  15.576  -3.484  1.00 20.00     0.021 C 
HETATM    4  C4  UNL     1     -35.938  16.128  -4.484  1.00 20.00     0.029 C 
HETATM    5  C5  UNL     1     -35.330  16.957  -5.624  1.00 20.00     0.038 C 
HETATM    6  C6  UNL     1     -37.022  16.940  -3.774  1.00 20.00     0.038 C 
HETATM    7  N9  UNL     1     -36.492  14.902  -5.032  1.00 20.00    -0.352 N 
HETATM    8  O10 UNL     1     -35.837  12.672  -5.308  1.00 20.00    -0.274 OA
HETATM    9  H25 UNL     1     -37.402  14.853  -5.478  1.00 20.00     0.163 HD
ENDROOT
BRANCH   3  10
HETATM   10  C8  UNL     1     -33.734  16.498  -3.141  1.00 20.00     0.003 C 
HETATM   11  C7  UNL     1     -33.875  17.086  -1.773  1.00 20.00     0.005 C 
ENDBRANCH   3  10
TORSDOF 1
ENDMDL
MODEL 3
REMARK VINA RESULT:      -4.1     11.614     12.478
REMARK  1 active torsions:
REMARK  status: ('A' for Active; 'I' for Inactive)
REMARK    1  A    between atoms: C3_3  and  C8_8 
ROOT
HETATM    1  C1  UNL     1     -35.058  13.019  -6.395  1.00 20.00     0.218 C 
HETATM    2  C2  UNL     1     -35.941  13.563  -5.300  1.00 20.00     0.109 C 
HETATM    3  C3  UNL     1     -35.432  15.001  -5.125  1.00 20.00     0.021 C 
HETATM    4  C4  UNL     1     -33.932  14.903  -5.485  1.00 20.00     0.029 C 
HETATM    5  C5  UNL     1     -33.034  14.490  -4.311  1.00 20.00     0.038 C 
HETATM    6  C6  UNL     1     -33.416  16.207  -6.098  1.00 20.00     0.038 C 
HETATM    7  N9  UNL     1     -33.939  13.840  -6.475  1.00 20.00    -0.352 N 
HETATM    8  O10 UNL     1     -35.287  12.017  -7.054  1.00 20.00    -0.274 OA
HETATM    9  H25 UNL     1     -33.200  13.710  -7.159  1.00 20.00     0.163 HD
ENDROOT
BRANCH   3  10
HETATM   10  C8  UNL     1     -35.762  15.570  -3.753  1.00 20.00     0.003 C 
HETATM   11  C7  UNL     1     -36.437  16.902  -3.850  1.00 20.00     0.005 C 
ENDBRANCH   3  10
TORSDOF 1
ENDMDL
MODEL 4
REMARK VINA RESULT:      -4.1     11.762     12.383
REMARK  1 active torsions:
REMARK  status: ('A' for Active; 'I' for Inactive)
REMARK    1  A    between atoms: C3_3  and  C8_8 
ROOT
HETATM    1  C1  UNL     1     -36.961  14.720  -4.483  1.00 20.00     0.218 C 
HETATM    2  C2  UNL     1     -35.522  14.578  -4.911  1.00 20.00     0.109 C 
HETATM    3  C3  UNL     1     -34.756  15.320  -3.807  1.00 20.00     0.021 C 
HETATM    4  C4  UNL     1     -35.745  16.418  -3.352  1.00 20.00     0.029 C 
HETATM    5  C5  UNL     1     -35.683  17.700  -4.193  1.00 20.00     0.038 C 
HETATM    6  C6  UNL     1     -35.560  16.760  -1.872  1.00 20.00     0.038 C 
HETATM    7  N9  UNL     1     -37.024  15.766  -3.572  1.00 20.00    -0.352 N 
HETATM    8  O10 UNL     1     -37.891  14.048  -4.902  1.00 20.00    -0.274 OA
HETATM    9  H25 UNL     1     -37.880  16.048  -3.104  1.00 20.00     0.163 HD
ENDROOT
BRANCH   3  10
HETATM   10  C8  UNL     1     -33.385  15.794  -4.269  1.00 20.00     0.003 C 
HETATM   11  C7  UNL     1     -33.182  15.567  -5.733  1.00 20.00     0.005 C 
ENDBRANCH   3  10
TORSDOF 1
ENDMDL
MODEL 5
REMARK VINA RESULT:      -4.0     11.380     12.170
REMARK  1 active torsions:
REMARK  status: ('A' for Active; 'I' for Inactive)
REMARK    1  A    between atoms: C3_3  and  C8_8 
ROOT
HETATM    1  C1  UNL     1     -36.376  14.393  -4.856  1.00 20.00     0.218 C 
HETATM    2  C2  UNL     1     -36.117  15.397  -3.761  1.00 20.00     0.109 C 
HETATM    3  C3  UNL     1     -34.904  16.179  -4.286  1.00 20.00     0.021 C 
HETATM    4  C4  UNL     1     -34.136  15.137  -5.132  1.00 20.00     0.029 C 
HETATM    5  C5  UNL     1     -33.167  14.268  -4.320  1.00 20.00     0.038 C 
HETATM    6  C6  UNL     1     -33.392  15.798  -6.294  1.00 20.00     0.038 C 
HETATM    7  N9  UNL     1     -35.221  14.307  -5.625  1.00 20.00    -0.352 N 
HETATM    8  O10 UNL     1     -37.408  13.757  -5.000  1.00 20.00    -0.274 OA
HETATM    9  H25 UNL     1     -35.144  13.721  -6.450  1.00 20.00     0.163 HD
ENDROOT
BRANCH   3  10
HETATM   10  C8  UNL     1     -34.121  16.854  -3.170  1.00 20.00     0.003 C 
HETATM   11  C7  UNL     1     -34.823  16.748  -1.854  1.00 20.00     0.005 C 
ENDBRANCH   3  10
TORSDOF 1
ENDMDL
MODEL 6
REMARK VINA RESULT:      -4.0      2.208      3.539
REMARK  1 active torsions:
REMARK  status: ('A' for Active; 'I' for Inactive)
REMARK    1  A    between atoms: C3_3  and  C8_8 
ROOT
HETATM    1  C1  UNL     1     -32.201   8.016   3.154  1.00 20.00     0.218 C 
HETATM    2  C2  UNL     1     -32.858   7.929   4.508  1.00 20.00     0.109 C 
HETATM    3  C3  UNL     1     -33.283   6.456   4.595  1.00 20.00     0.021 C 
HETATM    4  C4  UNL     1     -33.566   6.071   3.124  1.00 20.00     0.029 C 
HETATM    5  C5  UNL     1     -34.988   6.407   2.654  1.00 20.00     0.038 C 
HETATM    6  C6  UNL     1     -33.270   4.592   2.865  1.00 20.00     0.038 C 
HETATM    7  N9  UNL     1     -32.619   6.915   2.416  1.00 20.00    -0.352 N 
HETATM    8  O10 UNL     1     -31.467   8.919   2.782  1.00 20.00    -0.274 OA
HETATM    9  H25 UNL     1     -32.294   6.718   1.474  1.00 20.00     0.163 HD
ENDROOT
BRANCH   3  10
HETATM   10  C8  UNL     1     -34.421   6.237   5.581  1.00 20.00     0.003 C 
HETATM   11  C7  UNL     1     -34.624   4.787   5.884  1.00 20.00     0.005 C 
ENDBRANCH   3  10
TORSDOF 1
ENDMDL
MODEL 7
REMARK VINA RESULT:      -4.0     11.762     12.881
REMARK  1 active torsions:
REMARK  status: ('A' for Active; 'I' for Inactive)
REMARK    1  A    between atoms: C3_3  and  C8_8 
ROOT
HETATM    1  C1  UNL     1     -33.685  16.410  -6.412  1.00 20.00     0.218 C 
HETATM    2  C2  UNL     1     -34.125  17.118  -5.155  1.00 20.00     0.109 C 
HETATM    3  C3  UNL     1     -33.544  16.238  -4.039  1.00 20.00     0.021 C 
HETATM    4  C4  UNL     1     -33.550  14.819  -4.653  1.00 20.00     0.029 C 
HETATM    5  C5  UNL     1     -34.881  14.073  -4.486  1.00 20.00     0.038 C 
HETATM    6  C6  UNL     1     -32.406  13.965  -4.103  1.00 20.00     0.038 C 
HETATM    7  N9  UNL     1     -33.342  15.110  -6.060  1.00 20.00    -0.352 N 
HETATM    8  O10 UNL     1     -33.675  16.900  -7.531  1.00 20.00    -0.274 OA
HETATM    9  H25 UNL     1     -32.980  14.431  -6.722  1.00 20.00     0.163 HD
ENDROOT
BRANCH   3  10
HETATM   10  C8  UNL     1     -34.286  16.407  -2.721  1.00 20.00     0.003 C 
HETATM   11  C7  UNL     1     -33.549  17.307  -1.780  1.00 20.00     0.005 C 
ENDBRANCH   3  10
TORSDOF 1
ENDMDL
MODEL 8
REMARK VINA RESULT:      -3.9     11.481     12.337
REMARK  1 active torsions:
REMARK  status: ('A' for Active; 'I' for Inactive)
REMARK    1  A    between atoms: C3_3  and  C8_8 
ROOT
HETATM    1  C1  UNL     1     -33.511  14.301  -4.738  1.00 20.00     0.218 C 
HETATM    2  C2  UNL     1     -34.880  14.516  -4.144  1.00 20.00     0.109 C 
HETATM    3  C3  UNL     1     -35.807  13.805  -5.140  1.00 20.00     0.021 C 
HETATM    4  C4  UNL     1     -35.075  13.959  -6.494  1.00 20.00     0.029 C 
HETATM    5  C5  UNL     1     -35.379  15.275  -7.221  1.00 20.00     0.038 C 
HETATM    6  C6  UNL     1     -35.359  12.776  -7.422  1.00 20.00     0.038 C 
HETATM    7  N9  UNL     1     -33.684  13.958  -6.073  1.00 20.00    -0.352 N 
HETATM    8  O10 UNL     1     -32.453  14.445  -4.144  1.00 20.00    -0.274 OA
HETATM    9  H25 UNL     1     -32.915  13.728  -6.695  1.00 20.00     0.163 HD
ENDROOT
BRANCH   3  10
HETATM   10  C8  UNL     1     -37.235  14.328  -5.081  1.00 20.00     0.003 C 
HETATM   11  C7  UNL     1     -37.363  15.490  -4.148  1.00 20.00     0.005 C 
ENDBRANCH   3  10
TORSDOF 1
ENDMDL
MODEL 9
REMARK VINA RESULT:      -3.9      1.647      2.606
REMARK  1 active torsions:
REMARK  status: ('A' for Active; 'I' for Inactive)
REMARK    1  A    between atoms: C3_3  and  C8_8 
ROOT
HETATM    1  C1  UNL     1     -33.949   4.328   3.963  1.00 20.00     0.218 C 
HETATM    2  C2  UNL     1     -33.213   5.044   2.859  1.00 20.00     0.109 C 
HETATM    3  C3  UNL     1     -32.880   6.405   3.488  1.00 20.00     0.021 C 
HETATM    4  C4  UNL     1     -34.048   6.647   4.472  1.00 20.00     0.029 C 
HETATM    5  C5  UNL     1     -35.280   7.297   3.829  1.00 20.00     0.038 C 
HETATM    6  C6  UNL     1     -33.600   7.469   5.682  1.00 20.00     0.038 C 
HETATM    7  N9  UNL     1     -34.379   5.290   4.869  1.00 20.00    -0.352 N 
HETATM    8  O10 UNL     1     -34.151   3.125   4.011  1.00 20.00    -0.274 OA
HETATM    9  H25 UNL     1     -34.875   5.065   5.726  1.00 20.00     0.163 HD
ENDROOT
BRANCH   3  10
HETATM   10  C8  UNL     1     -32.641   7.485   2.443  1.00 20.00     0.003 C 
HETATM   11  C7  UNL     1     -31.557   8.429   2.856  1.00 20.00     0.005 C 
ENDBRANCH   3  10
TORSDOF 1
ENDMDL
