MODEL 1
REMARK VINA RESULT:      -4.5      0.000      0.000
REMARK  1 active torsions:
REMARK  status: ('A' for Active; 'I' for Inactive)
REMARK    1  A    between atoms: C3_3  and  C8_8 
ROOT
HETATM    1  C1  UNL     1     -32.332   7.745   3.766  1.00 20.00     0.218 C 
HETATM    2  C2  UNL     1     -33.291   7.157   4.772  1.00 20.00     0.109 C 
HETATM    3  C3  UNL     1     -34.373   6.520   3.888  1.00 20.00     0.021 C 
HETATM    4  C4  UNL     1     -33.604   6.103   2.614  1.00 20.00     0.029 C 
HETATM    5  C5  UNL     1     -34.500   6.155   1.374  1.00 20.00     0.038 C 
HETATM    6  C6  UNL     1     -32.936   4.725   2.712  1.00 20.00     0.038 C 
HETATM    7  N9  UNL     1     -32.576   7.126   2.546  1.00 20.00    -0.352 N 
HETATM    8  O10 UNL     1     -31.479   8.584   4.011  1.00 20.00    -0.274 OA
HETATM    9  H25 UNL     1     -32.084   7.367   1.691  1.00 20.00     0.163 HD
ENDROOT
BRANCH   3  10
HETATM   10  C8  UNL     1     -35.138   5.419   4.608  1.00 20.00     0.003 C 
HETATM   11  C7  UNL     1     -34.543   5.109   5.944  1.00 20.00     0.005 C 
ENDBRANCH   3  10
TORSDOF 1
ENDMDL
MODEL 2
REMARK VINA RESULT:      -4.5     11.358     12.146
REMARK  1 active torsions:
REMARK  status: ('A' for Active; 'I' for Inactive)
REMARK    1  A    between atoms: C3_3  and  C8_8 
ROOT
HETATM    1  C1  UNL     1     -35.942  14.120  -4.866  1.00 20.00     0.218 C 
HETATM    2  C2  UNL     1     -35.908  15.380  -4.038  1.00 20.00     0.109 C 
HETATM    3  C3  UNL     1     -34.454  15.435  -3.549  1.00 20.00     0.021 C 
HETATM    4  C4  UNL     1     -33.660  14.756  -4.688  1.00 20.00     0.029 C 
HETATM    5  C5  UNL     1     -32.415  14.042  -4.157  1.00 20.00     0.038 C 
HETATM    6  C6  UNL     1     -33.267  15.706  -5.827  1.00 20.00     0.038 C 
HETATM    7  N9  UNL     1     -34.629  13.794  -5.184  1.00 20.00    -0.352 N 
HETATM    8  O10 UNL     1     -36.954  13.531  -5.214  1.00 20.00    -0.274 OA
HETATM    9  H25 UNL     1     -34.372  12.965  -5.711  1.00 20.00     0.163 HD
ENDROOT
BRANCH   3  10
HETATM   10  C8  UNL     1     -34.021  16.844  -3.169  1.00 20.00     0.003 C 
HETATM   11  C7  UNL     1     -34.030  17.049  -1.688  1.00 20.00     0.005 C 
ENDBRANCH   3  10
TORSDOF 1
ENDMDL
MODEL 3
REMARK VINA RESULT:      -4.2     11.602     12.875
REMARK  1 active torsions:
REMARK  status: ('A' for Active; 'I' for Inactive)
REMARK    1  A    between atoms: C3_3  and  C8_8 
ROOT
HETATM    1  C1  UNL     1     -35.389  13.834  -5.197  1.00 20.00     0.218 C 
HETATM    2  C2  UNL     1     -34.775  14.506  -3.994  1.00 20.00     0.109 C 
HETATM    3  C3  UNL     1     -33.928  15.626  -4.617  1.00 20.00     0.021 C 
HETATM    4  C4  UNL     1     -34.702  15.996  -5.902  1.00 20.00     0.029 C 
HETATM    5  C5  UNL     1     -33.759  16.485  -7.004  1.00 20.00     0.038 C 
HETATM    6  C6  UNL     1     -35.820  17.024  -5.683  1.00 20.00     0.038 C 
HETATM    7  N9  UNL     1     -35.293  14.720  -6.263  1.00 20.00    -0.352 N 
HETATM    8  O10 UNL     1     -35.904  12.727  -5.200  1.00 20.00    -0.274 OA
HETATM    9  H25 UNL     1     -35.606  14.496  -7.204  1.00 20.00     0.163 HD
ENDROOT
BRANCH   3  10
HETATM   10  C8  UNL     1     -33.656  16.761  -3.640  1.00 20.00     0.003 C 
HETATM   11  C7  UNL     1     -34.382  16.569  -2.347  1.00 20.00     0.005 C 
ENDBRANCH   3  10
TORSDOF 1
ENDMDL
MODEL 4
REMARK VINA RESULT:      -4.2      1.857      3.217
REMARK  1 active torsions:
REMARK  status: ('A' for Active; 'I' for Inactive)
REMARK    1  A    between atoms: C3_3  and  C8_8 
ROOT
HETATM    1  C1  UNL     1     -33.745   7.031   5.162  1.00 20.00     0.218 C 
HETATM    2  C2  UNL     1     -33.045   7.987   4.228  1.00 20.00     0.109 C 
HETATM    3  C3  UNL     1     -32.539   7.068   3.107  1.00 20.00     0.021 C 
HETATM    4  C4  UNL     1     -33.592   5.937   3.059  1.00 20.00     0.029 C 
HETATM    5  C5  UNL     1     -32.971   4.611   2.614  1.00 20.00     0.038 C 
HETATM    6  C6  UNL     1     -34.812   6.257   2.185  1.00 20.00     0.038 C 
HETATM    7  N9  UNL     1     -34.006   5.868   4.449  1.00 20.00    -0.352 N 
HETATM    8  O10 UNL     1     -34.050   7.272   6.320  1.00 20.00    -0.274 OA
HETATM    9  H25 UNL     1     -34.445   5.048   4.859  1.00 20.00     0.163 HD
ENDROOT
BRANCH   3  10
HETATM   10  C8  UNL     1     -32.293   7.819   1.806  1.00 20.00     0.003 C 
HETATM   11  C7  UNL     1     -32.161   9.291   2.029  1.00 20.00     0.005 C 
ENDBRANCH   3  10
TORSDOF 1
ENDMDL
MODEL 5
REMARK VINA RESULT:      -4.2     12.055     12.957
REMARK  1 active torsions:
REMARK  status: ('A' for Active; 'I' for Inactive)
REMARK    1  A    between atoms: C3_3  and  C8_8 
ROOT
HETATM    1  C1  UNL     1     -36.775  14.097  -5.358  1.00 20.00     0.218 C 
HETATM    2  C2  UNL     1     -35.665  14.553  -4.444  1.00 20.00     0.109 C 
HETATM    3  C3  UNL     1     -34.418  14.447  -5.333  1.00 20.00     0.021 C 
HETATM    4  C4  UNL     1     -34.958  14.724  -6.754  1.00 20.00     0.029 C 
HETATM    5  C5  UNL     1     -34.151  13.976  -7.818  1.00 20.00     0.038 C 
HETATM    6  C6  UNL     1     -35.034  16.214  -7.114  1.00 20.00     0.038 C 
HETATM    7  N9  UNL     1     -36.305  14.188  -6.662  1.00 20.00    -0.352 N 
HETATM    8  O10 UNL     1     -37.889  13.750  -4.996  1.00 20.00    -0.274 OA
HETATM    9  H25 UNL     1     -36.850  13.907  -7.472  1.00 20.00     0.163 HD
ENDROOT
BRANCH   3  10
HETATM   10  C8  UNL     1     -33.284  15.343  -4.854  1.00 20.00     0.003 C 
HETATM   11  C7  UNL     1     -33.626  16.038  -3.575  1.00 20.00     0.005 C 
ENDBRANCH   3  10
TORSDOF 1
ENDMDL
MODEL 6
REMARK VINA RESULT:      -4.1     11.926     12.681
REMARK  1 active torsions:
REMARK  status: ('A' for Active; 'I' for Inactive)
REMARK    1  A    between atoms: C3_3  and  C8_8 
ROOT
HETATM    1  C1  UNL     1     -35.096  13.174  -6.314  1.00 20.00     0.218 C 
HETATM    2  C2  UNL     1     -35.994  13.670  -5.208  1.00 20.00     0.109 C 
HETATM    3  C3  UNL     1     -35.158  14.780  -4.554  1.00 20.00     0.021 C 
HETATM    4  C4  UNL     1     -34.314  15.338  -5.723  1.00 20.00     0.029 C 
HETATM    5  C5  UNL     1     -32.961  15.864  -5.238  1.00 20.00     0.038 C 
HETATM    6  C6  UNL     1     -35.027  16.421  -6.544  1.00 20.00     0.038 C 
HETATM    7  N9  UNL     1     -34.139  14.155  -6.545  1.00 20.00    -0.352 N 
HETATM    8  O10 UNL     1     -35.228  12.116  -6.909  1.00 20.00    -0.274 OA
HETATM    9  H25 UNL     1     -33.389  14.053  -7.224  1.00 20.00     0.163 HD
ENDROOT
BRANCH   3  10
HETATM   10  C8  UNL     1     -36.015  15.785  -3.798  1.00 20.00     0.003 C 
HETATM   11  C7  UNL     1     -35.325  16.294  -2.573  1.00 20.00     0.005 C 
ENDBRANCH   3  10
TORSDOF 1
ENDMDL
MODEL 7
REMARK VINA RESULT:      -4.0     11.795     12.435
REMARK  1 active torsions:
REMARK  status: ('A' for Active; 'I' for Inactive)
REMARK    1  A    between atoms: C3_3  and  C8_8 
ROOT
HETATM    1  C1  UNL     1     -36.455  15.532  -4.103  1.00 20.00     0.218 C 
HETATM    2  C2  UNL     1     -35.927  16.420  -3.004  1.00 20.00     0.109 C 
HETATM    3  C3  UNL     1     -34.452  16.005  -2.900  1.00 20.00     0.021 C 
HETATM    4  C4  UNL     1     -34.091  15.578  -4.341  1.00 20.00     0.029 C 
HETATM    5  C5  UNL     1     -33.020  14.485  -4.351  1.00 20.00     0.038 C 
HETATM    6  C6  UNL     1     -33.655  16.739  -5.245  1.00 20.00     0.038 C 
HETATM    7  N9  UNL     1     -35.361  15.056  -4.815  1.00 20.00    -0.352 N 
HETATM    8  O10 UNL     1     -37.635  15.314  -4.329  1.00 20.00    -0.274 OA
HETATM    9  H25 UNL     1     -35.441  14.407  -5.593  1.00 20.00     0.163 HD
ENDROOT
BRANCH   3  10
HETATM   10  C8  UNL     1     -33.585  17.091  -2.280  1.00 20.00     0.003 C 
HETATM   11  C7  UNL     1     -34.130  17.557  -0.967  1.00 20.00     0.005 C 
ENDBRANCH   3  10
TORSDOF 1
ENDMDL
MODEL 8
REMARK VINA RESULT:      -4.0     11.602     13.081
REMARK  1 active torsions:
REMARK  status: ('A' for Active; 'I' for Inactive)
REMARK    1  A    between atoms: C3_3  and  C8_8 
ROOT
HETATM    1  C1  UNL     1     -35.539  13.716  -5.082  1.00 20.00     0.218 C 
HETATM    2  C2  UNL     1     -36.051  14.928  -5.821  1.00 20.00     0.109 C 
HETATM    3  C3  UNL     1     -35.537  16.096  -4.968  1.00 20.00     0.021 C 
HETATM    4  C4  UNL     1     -34.220  15.557  -4.365  1.00 20.00     0.029 C 
HETATM    5  C5  UNL     1     -33.939  16.169  -2.990  1.00 20.00     0.038 C 
HETATM    6  C6  UNL     1     -32.997  15.741  -5.273  1.00 20.00     0.038 C 
HETATM    7  N9  UNL     1     -34.515  14.140  -4.244  1.00 20.00    -0.352 N 
HETATM    8  O10 UNL     1     -35.942  12.573  -5.236  1.00 20.00    -0.274 OA
HETATM    9  H25 UNL     1     -34.021  13.520  -3.610  1.00 20.00     0.163 HD
ENDROOT
BRANCH   3  10
HETATM   10  C8  UNL     1     -35.438  17.393  -5.758  1.00 20.00     0.003 C 
HETATM   11  C7  UNL     1     -35.915  17.226  -7.165  1.00 20.00     0.005 C 
ENDBRANCH   3  10
TORSDOF 1
ENDMDL
MODEL 9
REMARK VINA RESULT:      -3.9     11.623     13.130
REMARK  1 active torsions:
REMARK  status: ('A' for Active; 'I' for Inactive)
REMARK    1  A    between atoms: C3_3  and  C8_8 
ROOT
HETATM    1  C1  UNL     1     -37.139  14.373  -5.149  1.00 20.00     0.218 C 
HETATM    2  C2  UNL     1     -36.318  14.322  -6.414  1.00 20.00     0.109 C 
HETATM    3  C3  UNL     1     -35.268  15.420  -6.190  1.00 20.00     0.021 C 
HETATM    4  C4  UNL     1     -35.066  15.425  -4.657  1.00 20.00     0.029 C 
HETATM    5  C5  UNL     1     -34.698  16.819  -4.144  1.00 20.00     0.038 C 
HETATM    6  C6  UNL     1     -34.037  14.402  -4.160  1.00 20.00     0.038 C 
HETATM    7  N9  UNL     1     -36.386  15.039  -4.190  1.00 20.00    -0.352 N 
HETATM    8  O10 UNL     1     -38.246  13.878  -5.006  1.00 20.00    -0.274 OA
HETATM    9  H25 UNL     1     -36.725  15.237  -3.253  1.00 20.00     0.163 HD
ENDROOT
BRANCH   3  10
HETATM   10  C8  UNL     1     -34.020  15.213  -7.036  1.00 20.00     0.003 C 
HETATM   11  C7  UNL     1     -34.139  14.011  -7.918  1.00 20.00     0.005 C 
ENDBRANCH   3  10
TORSDOF 1
ENDMDL
