MODEL 1
REMARK VINA RESULT:      -4.7      0.000      0.000
REMARK  2 active torsions:
REMARK  status: ('A' for Active; 'I' for Inactive)
REMARK    1  A    between atoms: C4_4  and  C7_7 
REMARK    2  A    between atoms: C7_7  and  C8_8 
ROOT
HETATM    1  C1  UNL     1     -35.077  13.728  -4.851  1.00 20.00     0.218 C 
HETATM    2  C2  UNL     1     -35.352  14.914  -3.957  1.00 20.00     0.113 C 
HETATM    3  C3  UNL     1     -33.019  14.832  -4.536  1.00 20.00     0.132 C 
HETATM    4  C4  UNL     1     -34.125  15.825  -4.168  1.00 20.00    -0.020 C 
HETATM    5  C5  UNL     1     -34.379  16.808  -5.324  1.00 20.00     0.017 C 
HETATM    6  N9  UNL     1     -33.722  13.741  -5.154  1.00 20.00    -0.360 N 
HETATM    7  O10 UNL     1     -35.904  12.900  -5.198  1.00 20.00    -0.274 OA
HETATM    8  H25 UNL     1     -33.274  13.052  -5.751  1.00 20.00     0.162 HD
ENDROOT
BRANCH   4   9
HETATM    9  C7  UNL     1     -33.782  16.606  -2.899  1.00 20.00     0.011 C 
BRANCH   9  10
HETATM   10  C8  UNL     1     -34.976  16.662  -1.959  1.00 20.00    -0.004 C 
HETATM   11  C6  UNL     1     -34.656  17.492  -0.726  1.00 20.00     0.005 C 
ENDBRANCH   9  10
ENDBRANCH   4   9
TORSDOF 2
ENDMDL
MODEL 2
REMARK VINA RESULT:      -4.7     11.374     11.994
REMARK  2 active torsions:
REMARK  status: ('A' for Active; 'I' for Inactive)
REMARK    1  A    between atoms: C4_4  and  C7_7 
REMARK    2  A    between atoms: C7_7  and  C8_8 
ROOT
HETATM    1  C1  UNL     1     -34.205   4.448   4.144  1.00 20.00     0.218 C 
HETATM    2  C2  UNL     1     -33.230   5.253   3.318  1.00 20.00     0.113 C 
HETATM    3  C3  UNL     1     -35.218   6.537   3.743  1.00 20.00     0.132 C 
HETATM    4  C4  UNL     1     -33.717   6.706   3.486  1.00 20.00    -0.020 C 
HETATM    5  C5  UNL     1     -33.031   7.366   4.694  1.00 20.00     0.017 C 
HETATM    6  N9  UNL     1     -35.322   5.244   4.361  1.00 20.00    -0.360 N 
HETATM    7  O10 UNL     1     -34.035   3.295   4.510  1.00 20.00    -0.274 OA
HETATM    8  H25 UNL     1     -36.128   4.943   4.900  1.00 20.00     0.162 HD
ENDROOT
BRANCH   4   9
HETATM    9  C7  UNL     1     -33.451   7.536   2.230  1.00 20.00     0.011 C 
BRANCH   9  10
HETATM   10  C8  UNL     1     -32.106   8.242   2.323  1.00 20.00    -0.004 C 
HETATM   11  C6  UNL     1     -31.808   9.009   1.044  1.00 20.00     0.005 C 
ENDBRANCH   9  10
ENDBRANCH   4   9
TORSDOF 2
ENDMDL
MODEL 3
REMARK VINA RESULT:      -4.4     10.748     11.298
REMARK  2 active torsions:
REMARK  status: ('A' for Active; 'I' for Inactive)
REMARK    1  A    between atoms: C4_4  and  C7_7 
REMARK    2  A    between atoms: C7_7  and  C8_8 
ROOT
HETATM    1  C1  UNL     1     -33.981   5.121   3.929  1.00 20.00     0.218 C 
HETATM    2  C2  UNL     1     -33.320   5.701   2.700  1.00 20.00     0.113 C 
HETATM    3  C3  UNL     1     -34.338   7.449   4.001  1.00 20.00     0.132 C 
HETATM    4  C4  UNL     1     -33.177   7.200   3.034  1.00 20.00    -0.020 C 
HETATM    5  C5  UNL     1     -31.829   7.472   3.722  1.00 20.00     0.017 C 
HETATM    6  N9  UNL     1     -34.540   6.176   4.637  1.00 20.00    -0.360 N 
HETATM    7  O10 UNL     1     -34.034   3.933   4.207  1.00 20.00    -0.274 OA
HETATM    8  H25 UNL     1     -35.040   6.060   5.514  1.00 20.00     0.162 HD
ENDROOT
BRANCH   4   9
HETATM    9  C7  UNL     1     -33.295   8.067   1.779  1.00 20.00     0.011 C 
BRANCH   9  10
HETATM   10  C8  UNL     1     -32.164   9.083   1.716  1.00 20.00    -0.004 C 
HETATM   11  C6  UNL     1     -32.560  10.282   0.869  1.00 20.00     0.005 C 
ENDBRANCH   9  10
ENDBRANCH   4   9
TORSDOF 2
ENDMDL
MODEL 4
REMARK VINA RESULT:      -4.4     10.640     11.199
REMARK  2 active torsions:
REMARK  status: ('A' for Active; 'I' for Inactive)
REMARK    1  A    between atoms: C4_4  and  C7_7 
REMARK    2  A    between atoms: C7_7  and  C8_8 
ROOT
HETATM    1  C1  UNL     1     -33.775   7.219   5.324  1.00 20.00     0.218 C 
HETATM    2  C2  UNL     1     -34.305   7.202   3.909  1.00 20.00     0.113 C 
HETATM    3  C3  UNL     1     -32.046   8.024   3.941  1.00 20.00     0.132 C 
HETATM    4  C4  UNL     1     -33.034   7.277   3.040  1.00 20.00    -0.020 C 
HETATM    5  C5  UNL     1     -32.517   5.865   2.720  1.00 20.00     0.017 C 
HETATM    6  N9  UNL     1     -32.471   7.693   5.273  1.00 20.00    -0.360 N 
HETATM    7  O10 UNL     1     -34.410   6.904   6.318  1.00 20.00    -0.274 OA
HETATM    8  H25 UNL     1     -31.880   7.796   6.093  1.00 20.00     0.162 HD
ENDROOT
BRANCH   4   9
HETATM    9  C7  UNL     1     -33.290   8.035   1.736  1.00 20.00     0.011 C 
BRANCH   9  10
HETATM   10  C8  UNL     1     -32.114   8.939   1.395  1.00 20.00    -0.004 C 
HETATM   11  C6  UNL     1     -32.597  10.282   0.872  1.00 20.00     0.005 C 
ENDBRANCH   9  10
ENDBRANCH   4   9
TORSDOF 2
ENDMDL
MODEL 5
REMARK VINA RESULT:      -4.3     11.419     12.009
REMARK  2 active torsions:
REMARK  status: ('A' for Active; 'I' for Inactive)
REMARK    1  A    between atoms: C4_4  and  C7_7 
REMARK    2  A    between atoms: C7_7  and  C8_8 
ROOT
HETATM    1  C1  UNL     1     -34.394   5.184   5.016  1.00 20.00     0.218 C 
HETATM    2  C2  UNL     1     -33.840   6.516   4.565  1.00 20.00     0.113 C 
HETATM    3  C3  UNL     1     -33.162   4.777   3.050  1.00 20.00     0.132 C 
HETATM    4  C4  UNL     1     -33.466   6.277   3.089  1.00 20.00    -0.020 C 
HETATM    5  C5  UNL     1     -34.655   6.614   2.172  1.00 20.00     0.017 C 
HETATM    6  N9  UNL     1     -33.976   4.229   4.100  1.00 20.00    -0.360 N 
HETATM    7  O10 UNL     1     -35.055   5.001   6.026  1.00 20.00    -0.274 OA
HETATM    8  H25 UNL     1     -34.220   3.245   4.166  1.00 20.00     0.162 HD
ENDROOT
BRANCH   4   9
HETATM    9  C7  UNL     1     -32.251   7.109   2.676  1.00 20.00     0.011 C 
BRANCH   9  10
HETATM   10  C8  UNL     1     -32.677   8.486   2.192  1.00 20.00    -0.004 C 
HETATM   11  C6  UNL     1     -31.861   8.911   0.982  1.00 20.00     0.005 C 
ENDBRANCH   9  10
ENDBRANCH   4   9
TORSDOF 2
ENDMDL
MODEL 6
REMARK VINA RESULT:      -4.3     11.322     11.978
REMARK  2 active torsions:
REMARK  status: ('A' for Active; 'I' for Inactive)
REMARK    1  A    between atoms: C4_4  and  C7_7 
REMARK    2  A    between atoms: C7_7  and  C8_8 
ROOT
HETATM    1  C1  UNL     1     -31.988   8.022   3.127  1.00 20.00     0.218 C 
HETATM    2  C2  UNL     1     -32.789   7.138   4.054  1.00 20.00     0.113 C 
HETATM    3  C3  UNL     1     -33.804   7.193   1.875  1.00 20.00     0.132 C 
HETATM    4  C4  UNL     1     -33.647   6.285   3.098  1.00 20.00    -0.020 C 
HETATM    5  C5  UNL     1     -32.907   4.990   2.723  1.00 20.00     0.017 C 
HETATM    6  N9  UNL     1     -32.618   8.005   1.890  1.00 20.00    -0.360 N 
HETATM    7  O10 UNL     1     -30.993   8.656   3.442  1.00 20.00    -0.274 OA
HETATM    8  H25 UNL     1     -32.276   8.514   1.080  1.00 20.00     0.162 HD
ENDROOT
BRANCH   4   9
HETATM    9  C7  UNL     1     -35.001   5.938   3.719  1.00 20.00     0.011 C 
BRANCH   9  10
HETATM   10  C8  UNL     1     -34.903   4.674   4.560  1.00 20.00    -0.004 C 
HETATM   11  C6  UNL     1     -34.643   5.012   6.019  1.00 20.00     0.005 C 
ENDBRANCH   9  10
ENDBRANCH   4   9
TORSDOF 2
ENDMDL
MODEL 7
REMARK VINA RESULT:      -4.2      1.509      2.114
REMARK  2 active torsions:
REMARK  status: ('A' for Active; 'I' for Inactive)
REMARK    1  A    between atoms: C4_4  and  C7_7 
REMARK    2  A    between atoms: C7_7  and  C8_8 
ROOT
HETATM    1  C1  UNL     1     -34.369  14.050  -6.666  1.00 20.00     0.218 C 
HETATM    2  C2  UNL     1     -33.641  15.217  -6.041  1.00 20.00     0.113 C 
HETATM    3  C3  UNL     1     -34.923  14.048  -4.376  1.00 20.00     0.132 C 
HETATM    4  C4  UNL     1     -33.657  14.894  -4.533  1.00 20.00    -0.020 C 
HETATM    5  C5  UNL     1     -32.409  14.082  -4.145  1.00 20.00     0.017 C 
HETATM    6  N9  UNL     1     -35.080  13.415  -5.657  1.00 20.00    -0.360 N 
HETATM    7  O10 UNL     1     -34.350  13.761  -7.853  1.00 20.00    -0.274 OA
HETATM    8  H25 UNL     1     -35.652  12.590  -5.808  1.00 20.00     0.162 HD
ENDROOT
BRANCH   4   9
HETATM    9  C7  UNL     1     -33.721  16.167  -3.688  1.00 20.00     0.011 C 
BRANCH   9  10
HETATM   10  C8  UNL     1     -34.998  16.203  -2.861  1.00 20.00    -0.004 C 
HETATM   11  C6  UNL     1     -34.764  16.910  -1.535  1.00 20.00     0.005 C 
ENDBRANCH   9  10
ENDBRANCH   4   9
TORSDOF 2
ENDMDL
MODEL 8
REMARK VINA RESULT:      -4.1      1.257      1.619
REMARK  2 active torsions:
REMARK  status: ('A' for Active; 'I' for Inactive)
REMARK    1  A    between atoms: C4_4  and  C7_7 
REMARK    2  A    between atoms: C7_7  and  C8_8 
ROOT
HETATM    1  C1  UNL     1     -34.315  14.430  -5.648  1.00 20.00     0.218 C 
HETATM    2  C2  UNL     1     -34.302  14.502  -4.139  1.00 20.00     0.113 C 
HETATM    3  C3  UNL     1     -34.325  16.716  -5.077  1.00 20.00     0.132 C 
HETATM    4  C4  UNL     1     -34.773  15.939  -3.836  1.00 20.00    -0.020 C 
HETATM    5  C5  UNL     1     -36.304  15.983  -3.691  1.00 20.00     0.017 C 
HETATM    6  N9  UNL     1     -34.336  15.734  -6.126  1.00 20.00    -0.360 N 
HETATM    7  O10 UNL     1     -34.275  13.402  -6.305  1.00 20.00    -0.274 OA
HETATM    8  H25 UNL     1     -34.357  15.968  -7.114  1.00 20.00     0.162 HD
ENDROOT
BRANCH   4   9
HETATM    9  C7  UNL     1     -34.123  16.486  -2.564  1.00 20.00     0.011 C 
BRANCH   9  10
HETATM   10  C8  UNL     1     -35.178  16.838  -1.526  1.00 20.00    -0.004 C 
HETATM   11  C6  UNL     1     -34.585  17.700  -0.423  1.00 20.00     0.005 C 
ENDBRANCH   9  10
ENDBRANCH   4   9
TORSDOF 2
ENDMDL
MODEL 9
REMARK VINA RESULT:      -4.1     10.450     11.116
REMARK  2 active torsions:
REMARK  status: ('A' for Active; 'I' for Inactive)
REMARK    1  A    between atoms: C4_4  and  C7_7 
REMARK    2  A    between atoms: C7_7  and  C8_8 
ROOT
HETATM    1  C1  UNL     1     -32.430   9.192   1.766  1.00 20.00     0.218 C 
HETATM    2  C2  UNL     1     -33.395   8.029   1.800  1.00 20.00     0.113 C 
HETATM    3  C3  UNL     1     -31.533   7.607   3.262  1.00 20.00     0.132 C 
HETATM    4  C4  UNL     1     -33.018   7.277   3.092  1.00 20.00    -0.020 C 
HETATM    5  C5  UNL     1     -33.833   7.814   4.282  1.00 20.00     0.017 C 
HETATM    6  N9  UNL     1     -31.387   8.891   2.632  1.00 20.00    -0.360 N 
HETATM    7  O10 UNL     1     -32.548  10.186   1.067  1.00 20.00    -0.274 OA
HETATM    8  H25 UNL     1     -30.603   9.514   2.803  1.00 20.00     0.162 HD
ENDROOT
BRANCH   4   9
HETATM    9  C7  UNL     1     -33.249   5.772   2.952  1.00 20.00     0.011 C 
BRANCH   9  10
HETATM   10  C8  UNL     1     -34.536   5.354   3.648  1.00 20.00    -0.004 C 
HETATM   11  C6  UNL     1     -34.288   4.188   4.590  1.00 20.00     0.005 C 
ENDBRANCH   9  10
ENDBRANCH   4   9
TORSDOF 2
ENDMDL
