MODEL 1
REMARK VINA RESULT:      -4.8      0.000      0.000
REMARK  1 active torsions:
REMARK  status: ('A' for Active; 'I' for Inactive)
REMARK    1  A    between atoms: C5_5  and  C6_6 
ROOT
HETATM    1  C1  UNL     1     -35.653  13.757  -5.026  1.00 20.00     0.218 C 
HETATM    2  C2  UNL     1     -35.890  14.967  -4.155  1.00 20.00     0.110 C 
HETATM    3  C5  UNL     1     -34.491  15.281  -3.609  1.00 20.00     0.026 C 
HETATM    4  C7  UNL     1     -33.544  14.815  -4.739  1.00 20.00     0.030 C 
HETATM    5  C8  UNL     1     -32.201  14.334  -4.185  1.00 20.00     0.038 C 
HETATM    6  C9  UNL     1     -33.307  15.868  -5.830  1.00 20.00     0.038 C 
HETATM    7  N10 UNL     1     -34.292  13.705  -5.303  1.00 20.00    -0.352 N 
HETATM    8  O11 UNL     1     -36.519  12.998  -5.431  1.00 20.00    -0.274 OA
HETATM    9  H26 UNL     1     -33.862  12.962  -5.848  1.00 20.00     0.163 HD
ENDROOT
BRANCH   3  10
HETATM   10  C6  UNL     1     -34.351  16.731  -3.166  1.00 20.00    -0.008 A 
HETATM   11  C3  UNL     1     -34.918  17.169  -1.850  1.00 20.00     0.005 A 
HETATM   12  C4  UNL     1     -33.429  17.083  -2.038  1.00 20.00     0.005 A 
ENDBRANCH   3  10
TORSDOF 1
ENDMDL
MODEL 2
REMARK VINA RESULT:      -4.5     10.703     11.408
REMARK  1 active torsions:
REMARK  status: ('A' for Active; 'I' for Inactive)
REMARK    1  A    between atoms: C5_5  and  C6_6 
ROOT
HETATM    1  C1  UNL     1     -33.688   7.117   5.149  1.00 20.00     0.218 C 
HETATM    2  C2  UNL     1     -33.119   8.083   4.140  1.00 20.00     0.110 C 
HETATM    3  C5  UNL     1     -32.653   7.163   3.004  1.00 20.00     0.026 C 
HETATM    4  C7  UNL     1     -33.642   5.977   3.065  1.00 20.00     0.030 C 
HETATM    5  C8  UNL     1     -32.987   4.675   2.600  1.00 20.00     0.038 C 
HETATM    6  C9  UNL     1     -34.944   6.209   2.286  1.00 20.00     0.038 C 
HETATM    7  N10 UNL     1     -33.940   5.922   4.485  1.00 20.00    -0.352 N 
HETATM    8  O11 UNL     1     -33.913   7.371   6.323  1.00 20.00    -0.274 OA
HETATM    9  H26 UNL     1     -34.299   5.091   4.948  1.00 20.00     0.163 HD
ENDROOT
BRANCH   3  10
HETATM   10  C6  UNL     1     -32.553   7.891   1.670  1.00 20.00    -0.008 A 
HETATM   11  C3  UNL     1     -32.607   9.388   1.629  1.00 20.00     0.005 A 
HETATM   12  C4  UNL     1     -31.318   8.673   1.335  1.00 20.00     0.005 A 
ENDBRANCH   3  10
TORSDOF 1
ENDMDL
MODEL 3
REMARK VINA RESULT:      -4.4      1.256      1.798
REMARK  1 active torsions:
REMARK  status: ('A' for Active; 'I' for Inactive)
REMARK    1  A    between atoms: C5_5  and  C6_6 
ROOT
HETATM    1  C1  UNL     1     -35.336  13.940  -5.172  1.00 20.00     0.218 C 
HETATM    2  C2  UNL     1     -35.086  14.649  -3.864  1.00 20.00     0.110 C 
HETATM    3  C5  UNL     1     -34.335  15.917  -4.295  1.00 20.00     0.026 C 
HETATM    4  C7  UNL     1     -34.900  16.214  -5.702  1.00 20.00     0.030 C 
HETATM    5  C8  UNL     1     -33.860  16.899  -6.592  1.00 20.00     0.038 C 
HETATM    6  C9  UNL     1     -36.196  17.036  -5.695  1.00 20.00     0.038 C 
HETATM    7  N10 UNL     1     -35.188  14.877  -6.188  1.00 20.00    -0.352 N 
HETATM    8  O11 UNL     1     -35.648  12.765  -5.290  1.00 20.00    -0.274 OA
HETATM    9  H26 UNL     1     -35.273  14.647  -7.175  1.00 20.00     0.163 HD
ENDROOT
BRANCH   3  10
HETATM   10  C6  UNL     1     -34.450  17.037  -3.270  1.00 20.00    -0.008 A 
HETATM   11  C3  UNL     1     -34.958  16.741  -1.892  1.00 20.00     0.005 A 
HETATM   12  C4  UNL     1     -33.510  17.083  -2.104  1.00 20.00     0.005 A 
ENDBRANCH   3  10
TORSDOF 1
ENDMDL
MODEL 4
REMARK VINA RESULT:      -4.4     11.655     12.308
REMARK  1 active torsions:
REMARK  status: ('A' for Active; 'I' for Inactive)
REMARK    1  A    between atoms: C5_5  and  C6_6 
ROOT
HETATM    1  C1  UNL     1     -32.222   7.789   3.611  1.00 20.00     0.218 C 
HETATM    2  C2  UNL     1     -33.146   7.245   4.672  1.00 20.00     0.110 C 
HETATM    3  C5  UNL     1     -34.286   6.624   3.854  1.00 20.00     0.026 C 
HETATM    4  C7  UNL     1     -33.592   6.162   2.553  1.00 20.00     0.030 C 
HETATM    5  C8  UNL     1     -34.546   6.216   1.358  1.00 20.00     0.038 C 
HETATM    6  C9  UNL     1     -32.957   4.768   2.645  1.00 20.00     0.038 C 
HETATM    7  N10 UNL     1     -32.542   7.155   2.416  1.00 20.00    -0.352 N 
HETATM    8  O11 UNL     1     -31.336   8.608   3.798  1.00 20.00    -0.274 OA
HETATM    9  H26 UNL     1     -32.086   7.367   1.533  1.00 20.00     0.163 HD
ENDROOT
BRANCH   3  10
HETATM   10  C6  UNL     1     -35.045   5.557   4.631  1.00 20.00    -0.008 A 
HETATM   11  C3  UNL     1     -34.377   4.257   4.964  1.00 20.00     0.005 A 
HETATM   12  C4  UNL     1     -34.668   5.254   6.050  1.00 20.00     0.005 A 
ENDBRANCH   3  10
TORSDOF 1
ENDMDL
MODEL 5
REMARK VINA RESULT:      -4.2      2.084      2.967
REMARK  1 active torsions:
REMARK  status: ('A' for Active; 'I' for Inactive)
REMARK    1  A    between atoms: C5_5  and  C6_6 
ROOT
HETATM    1  C1  UNL     1     -34.058  16.689  -6.199  1.00 20.00     0.218 C 
HETATM    2  C2  UNL     1     -33.452  17.095  -4.878  1.00 20.00     0.110 C 
HETATM    3  C5  UNL     1     -34.542  16.720  -3.866  1.00 20.00     0.026 C 
HETATM    4  C7  UNL     1     -35.237  15.501  -4.513  1.00 20.00     0.030 C 
HETATM    5  C8  UNL     1     -36.716  15.426  -4.127  1.00 20.00     0.038 C 
HETATM    6  C9  UNL     1     -34.556  14.159  -4.211  1.00 20.00     0.038 C 
HETATM    7  N10 UNL     1     -35.092  15.801  -5.926  1.00 20.00    -0.352 N 
HETATM    8  O11 UNL     1     -33.671  17.058  -7.297  1.00 20.00    -0.274 OA
HETATM    9  H26 UNL     1     -35.687  15.400  -6.647  1.00 20.00     0.163 HD
ENDROOT
BRANCH   3  10
HETATM   10  C6  UNL     1     -33.988  16.515  -2.462  1.00 20.00    -0.008 A 
HETATM   11  C3  UNL     1     -33.283  17.639  -1.766  1.00 20.00     0.005 A 
HETATM   12  C4  UNL     1     -34.638  17.193  -1.295  1.00 20.00     0.005 A 
ENDBRANCH   3  10
TORSDOF 1
ENDMDL
MODEL 6
REMARK VINA RESULT:      -4.2      1.974      2.720
REMARK  1 active torsions:
REMARK  status: ('A' for Active; 'I' for Inactive)
REMARK    1  A    between atoms: C5_5  and  C6_6 
ROOT
HETATM    1  C1  UNL     1     -33.819  16.779  -6.351  1.00 20.00     0.218 C 
HETATM    2  C2  UNL     1     -33.639  17.387  -4.982  1.00 20.00     0.110 C 
HETATM    3  C5  UNL     1     -34.320  16.368  -4.058  1.00 20.00     0.026 C 
HETATM    4  C7  UNL     1     -34.105  15.019  -4.781  1.00 20.00     0.030 C 
HETATM    5  C8  UNL     1     -35.250  14.043  -4.501  1.00 20.00     0.038 C 
HETATM    6  C9  UNL     1     -32.763  14.346  -4.462  1.00 20.00     0.038 C 
HETATM    7  N10 UNL     1     -34.112  15.432  -6.173  1.00 20.00    -0.352 N 
HETATM    8  O11 UNL     1     -33.689  17.373  -7.411  1.00 20.00    -0.274 OA
HETATM    9  H26 UNL     1     -34.311  14.798  -6.942  1.00 20.00     0.163 HD
ENDROOT
BRANCH   3  10
HETATM   10  C6  UNL     1     -33.814  16.455  -2.624  1.00 20.00    -0.008 A 
HETATM   11  C3  UNL     1     -33.495  17.790  -2.023  1.00 20.00     0.005 A 
HETATM   12  C4  UNL     1     -34.697  17.019  -1.552  1.00 20.00     0.005 A 
ENDBRANCH   3  10
TORSDOF 1
ENDMDL
MODEL 7
REMARK VINA RESULT:      -4.2      1.732      3.230
REMARK  1 active torsions:
REMARK  status: ('A' for Active; 'I' for Inactive)
REMARK    1  A    between atoms: C5_5  and  C6_6 
ROOT
HETATM    1  C1  UNL     1     -34.945  13.129  -6.544  1.00 20.00     0.218 C 
HETATM    2  C2  UNL     1     -34.400  14.313  -7.304  1.00 20.00     0.110 C 
HETATM    3  C5  UNL     1     -34.615  15.480  -6.331  1.00 20.00     0.026 C 
HETATM    4  C7  UNL     1     -34.491  14.821  -4.938  1.00 20.00     0.030 C 
HETATM    5  C8  UNL     1     -35.358  15.535  -3.899  1.00 20.00     0.038 C 
HETATM    6  C9  UNL     1     -33.049  14.714  -4.423  1.00 20.00     0.038 C 
HETATM    7  N10 UNL     1     -35.002  13.488  -5.202  1.00 20.00    -0.352 N 
HETATM    8  O11 UNL     1     -35.240  12.050  -7.033  1.00 20.00    -0.274 OA
HETATM    9  H26 UNL     1     -35.366  12.876  -4.476  1.00 20.00     0.163 HD
ENDROOT
BRANCH   3  10
HETATM   10  C6  UNL     1     -33.682  16.650  -6.610  1.00 20.00    -0.008 A 
HETATM   11  C3  UNL     1     -33.898  17.507  -7.820  1.00 20.00     0.005 A 
HETATM   12  C4  UNL     1     -34.176  18.056  -6.449  1.00 20.00     0.005 A 
ENDBRANCH   3  10
TORSDOF 1
ENDMDL
MODEL 8
REMARK VINA RESULT:      -4.1      1.990      2.861
REMARK  1 active torsions:
REMARK  status: ('A' for Active; 'I' for Inactive)
REMARK    1  A    between atoms: C5_5  and  C6_6 
ROOT
HETATM    1  C1  UNL     1     -37.487  14.314  -5.357  1.00 20.00     0.218 C 
HETATM    2  C2  UNL     1     -36.281  14.728  -4.550  1.00 20.00     0.110 C 
HETATM    3  C5  UNL     1     -35.109  14.392  -5.481  1.00 20.00     0.026 C 
HETATM    4  C7  UNL     1     -35.698  14.588  -6.896  1.00 20.00     0.030 C 
HETATM    5  C8  UNL     1     -35.042  13.652  -7.913  1.00 20.00     0.038 C 
HETATM    6  C9  UNL     1     -35.632  16.034  -7.406  1.00 20.00     0.038 C 
HETATM    7  N10 UNL     1     -37.087  14.221  -6.685  1.00 20.00    -0.352 N 
HETATM    8  O11 UNL     1     -38.609  14.134  -4.909  1.00 20.00    -0.274 OA
HETATM    9  H26 UNL     1     -37.707  13.926  -7.435  1.00 20.00     0.163 HD
ENDROOT
BRANCH   3  10
HETATM   10  C6  UNL     1     -33.857  15.195  -5.153  1.00 20.00    -0.008 A 
HETATM   11  C3  UNL     1     -33.644  15.714  -3.764  1.00 20.00     0.005 A 
HETATM   12  C4  UNL     1     -32.789  14.596  -4.289  1.00 20.00     0.005 A 
ENDBRANCH   3  10
TORSDOF 1
ENDMDL
MODEL 9
REMARK VINA RESULT:      -4.1      1.871      2.411
REMARK  1 active torsions:
REMARK  status: ('A' for Active; 'I' for Inactive)
REMARK    1  A    between atoms: C5_5  and  C6_6 
ROOT
HETATM    1  C1  UNL     1     -35.540  13.724  -5.069  1.00 20.00     0.218 C 
HETATM    2  C2  UNL     1     -36.082  14.941  -5.777  1.00 20.00     0.110 C 
HETATM    3  C5  UNL     1     -35.559  16.102  -4.921  1.00 20.00     0.026 C 
HETATM    4  C7  UNL     1     -34.221  15.569  -4.362  1.00 20.00     0.030 C 
HETATM    5  C8  UNL     1     -33.910  16.165  -2.987  1.00 20.00     0.038 C 
HETATM    6  C9  UNL     1     -33.024  15.777  -5.299  1.00 20.00     0.038 C 
HETATM    7  N10 UNL     1     -34.498  14.148  -4.253  1.00 20.00    -0.352 N 
HETATM    8  O11 UNL     1     -35.935  12.579  -5.228  1.00 20.00    -0.274 OA
HETATM    9  H26 UNL     1     -33.981  13.523  -3.639  1.00 20.00     0.163 HD
ENDROOT
BRANCH   3  10
HETATM   10  C6  UNL     1     -35.494  17.412  -5.696  1.00 20.00    -0.008 A 
HETATM   11  C3  UNL     1     -36.753  18.167  -5.995  1.00 20.00     0.005 A 
HETATM   12  C4  UNL     1     -35.769  18.709  -4.996  1.00 20.00     0.005 A 
ENDBRANCH   3  10
TORSDOF 1
ENDMDL
