MODEL 1
REMARK VINA RESULT:      -4.6      0.000      0.000
REMARK  1 active torsions:
REMARK  status: ('A' for Active; 'I' for Inactive)
REMARK    1  A    between atoms: C4_4  and  C8_8 
ROOT
HETATM    1  C1  UNL     1     -35.577  13.834  -4.955  1.00 20.00     0.218 C 
HETATM    2  C2  UNL     1     -34.456  14.205  -4.013  1.00 20.00     0.114 C 
HETATM    3  C3  UNL     1     -35.638  16.178  -4.703  1.00 20.00     0.088 C 
HETATM    4  C4  UNL     1     -34.226  15.708  -4.291  1.00 20.00    -0.016 C 
HETATM    5  C5  UNL     1     -35.714  17.411  -5.590  1.00 20.00     0.033 C 
HETATM    6  C6  UNL     1     -33.174  15.874  -5.403  1.00 20.00     0.018 C 
HETATM    7  N9  UNL     1     -36.200  15.013  -5.343  1.00 20.00    -0.356 N 
HETATM    8  O10 UNL     1     -35.887  12.695  -5.270  1.00 20.00    -0.274 OA
HETATM    9  H25 UNL     1     -36.970  15.051  -6.005  1.00 20.00     0.162 HD
ENDROOT
BRANCH   4  10
HETATM   10  C8  UNL     1     -33.741  16.432  -3.031  1.00 20.00     0.007 C 
HETATM   11  C7  UNL     1     -34.847  16.623  -2.049  1.00 20.00     0.006 C 
ENDBRANCH   4  10
TORSDOF 1
ENDMDL
MODEL 2
REMARK VINA RESULT:      -4.1      1.290      1.387
REMARK  1 active torsions:
REMARK  status: ('A' for Active; 'I' for Inactive)
REMARK    1  A    between atoms: C4_4  and  C8_8 
ROOT
HETATM    1  C1  UNL     1     -35.180  13.575  -6.089  1.00 20.00     0.218 C 
HETATM    2  C2  UNL     1     -35.249  13.865  -4.608  1.00 20.00     0.114 C 
HETATM    3  C3  UNL     1     -34.916  15.904  -5.831  1.00 20.00     0.088 C 
HETATM    4  C4  UNL     1     -34.578  15.250  -4.474  1.00 20.00    -0.016 C 
HETATM    5  C5  UNL     1     -33.977  16.999  -6.313  1.00 20.00     0.033 C 
HETATM    6  C6  UNL     1     -33.066  15.073  -4.238  1.00 20.00     0.018 C 
HETATM    7  N9  UNL     1     -34.956  14.782  -6.738  1.00 20.00    -0.356 N 
HETATM    8  O10 UNL     1     -35.337  12.478  -6.603  1.00 20.00    -0.274 OA
HETATM    9  H25 UNL     1     -34.832  14.868  -7.743  1.00 20.00     0.162 HD
ENDROOT
BRANCH   4  10
HETATM   10  C8  UNL     1     -35.177  16.040  -3.306  1.00 20.00     0.007 C 
HETATM   11  C7  UNL     1     -34.115  16.656  -2.459  1.00 20.00     0.006 C 
ENDBRANCH   4  10
TORSDOF 1
ENDMDL
MODEL 3
REMARK VINA RESULT:      -4.1     11.214     12.458
REMARK  1 active torsions:
REMARK  status: ('A' for Active; 'I' for Inactive)
REMARK    1  A    between atoms: C4_4  and  C8_8 
ROOT
HETATM    1  C1  UNL     1     -32.904   8.028   2.567  1.00 20.00     0.218 C 
HETATM    2  C2  UNL     1     -33.615   7.966   3.898  1.00 20.00     0.114 C 
HETATM    3  C3  UNL     1     -32.836   5.780   3.279  1.00 20.00     0.088 C 
HETATM    4  C4  UNL     1     -33.982   6.473   4.049  1.00 20.00    -0.016 C 
HETATM    5  C5  UNL     1     -33.133   4.401   2.711  1.00 20.00     0.033 C 
HETATM    6  C6  UNL     1     -35.373   6.217   3.441  1.00 20.00     0.018 C 
HETATM    7  N9  UNL     1     -32.507   6.735   2.248  1.00 20.00    -0.356 N 
HETATM    8  O10 UNL     1     -32.692   9.045   1.925  1.00 20.00    -0.274 OA
HETATM    9  H25 UNL     1     -32.035   6.488   1.383  1.00 20.00     0.162 HD
ENDROOT
BRANCH   4  10
HETATM   10  C8  UNL     1     -33.997   6.057   5.524  1.00 20.00     0.007 C 
HETATM   11  C7  UNL     1     -34.746   4.783   5.726  1.00 20.00     0.006 C 
ENDBRANCH   4  10
TORSDOF 1
ENDMDL
MODEL 4
REMARK VINA RESULT:      -4.0      1.345      2.808
REMARK  1 active torsions:
REMARK  status: ('A' for Active; 'I' for Inactive)
REMARK    1  A    between atoms: C4_4  and  C8_8 
ROOT
HETATM    1  C1  UNL     1     -36.361  14.165  -4.929  1.00 20.00     0.218 C 
HETATM    2  C2  UNL     1     -36.098  15.643  -5.102  1.00 20.00     0.114 C 
HETATM    3  C3  UNL     1     -34.020  14.445  -4.980  1.00 20.00     0.088 C 
HETATM    4  C4  UNL     1     -34.639  15.814  -4.622  1.00 20.00    -0.016 C 
HETATM    5  C5  UNL     1     -32.809  14.011  -4.168  1.00 20.00     0.033 C 
HETATM    6  C6  UNL     1     -34.623  16.119  -3.113  1.00 20.00     0.018 C 
HETATM    7  N9  UNL     1     -35.129  13.532  -4.833  1.00 20.00    -0.356 N 
HETATM    8  O10 UNL     1     -37.464  13.641  -4.920  1.00 20.00    -0.274 OA
HETATM    9  H25 UNL     1     -35.019  12.535  -4.675  1.00 20.00     0.162 HD
ENDROOT
BRANCH   4  10
HETATM   10  C8  UNL     1     -33.944  16.955  -5.371  1.00 20.00     0.007 C 
HETATM   11  C7  UNL     1     -33.683  16.597  -6.795  1.00 20.00     0.006 C 
ENDBRANCH   4  10
TORSDOF 1
ENDMDL
MODEL 5
REMARK VINA RESULT:      -3.9      2.190      3.173
REMARK  1 active torsions:
REMARK  status: ('A' for Active; 'I' for Inactive)
REMARK    1  A    between atoms: C4_4  and  C8_8 
ROOT
HETATM    1  C1  UNL     1     -33.840  16.316  -6.489  1.00 20.00     0.218 C 
HETATM    2  C2  UNL     1     -34.811  16.641  -5.378  1.00 20.00     0.114 C 
HETATM    3  C3  UNL     1     -33.032  15.262  -4.541  1.00 20.00     0.088 C 
HETATM    4  C4  UNL     1     -34.533  15.552  -4.318  1.00 20.00    -0.016 C 
HETATM    5  C5  UNL     1     -32.534  13.888  -4.119  1.00 20.00     0.033 C 
HETATM    6  C6  UNL     1     -35.439  14.334  -4.577  1.00 20.00     0.018 C 
HETATM    7  N9  UNL     1     -32.857  15.494  -5.954  1.00 20.00    -0.356 N 
HETATM    8  O10 UNL     1     -33.906  16.743  -7.632  1.00 20.00    -0.274 OA
HETATM    9  H25 UNL     1     -32.096  15.098  -6.499  1.00 20.00     0.162 HD
ENDROOT
BRANCH   4  10
HETATM   10  C8  UNL     1     -34.797  16.080  -2.905  1.00 20.00     0.007 C 
HETATM   11  C7  UNL     1     -33.665  16.917  -2.412  1.00 20.00     0.006 C 
ENDBRANCH   4  10
TORSDOF 1
ENDMDL
MODEL 6
REMARK VINA RESULT:      -3.9      1.202      2.807
REMARK  1 active torsions:
REMARK  status: ('A' for Active; 'I' for Inactive)
REMARK    1  A    between atoms: C4_4  and  C8_8 
ROOT
HETATM    1  C1  UNL     1     -35.446  13.722  -5.132  1.00 20.00     0.218 C 
HETATM    2  C2  UNL     1     -35.738  14.905  -6.026  1.00 20.00     0.114 C 
HETATM    3  C3  UNL     1     -34.088  15.500  -4.385  1.00 20.00     0.088 C 
HETATM    4  C4  UNL     1     -35.243  16.117  -5.204  1.00 20.00    -0.016 C 
HETATM    5  C5  UNL     1     -33.739  16.186  -3.074  1.00 20.00     0.033 C 
HETATM    6  C6  UNL     1     -36.393  16.656  -4.333  1.00 20.00     0.018 C 
HETATM    7  N9  UNL     1     -34.514  14.135  -4.189  1.00 20.00    -0.356 N 
HETATM    8  O10 UNL     1     -35.924  12.605  -5.259  1.00 20.00    -0.274 OA
HETATM    9  H25 UNL     1     -34.169  13.540  -3.441  1.00 20.00     0.162 HD
ENDROOT
BRANCH   4  10
HETATM   10  C8  UNL     1     -34.743  17.236  -6.122  1.00 20.00     0.007 C 
HETATM   11  C7  UNL     1     -33.856  16.706  -7.198  1.00 20.00     0.006 C 
ENDBRANCH   4  10
TORSDOF 1
ENDMDL
MODEL 7
REMARK VINA RESULT:      -3.9      1.474      1.901
REMARK  1 active torsions:
REMARK  status: ('A' for Active; 'I' for Inactive)
REMARK    1  A    between atoms: C4_4  and  C8_8 
ROOT
HETATM    1  C1  UNL     1     -37.092  14.514  -5.086  1.00 20.00     0.218 C 
HETATM    2  C2  UNL     1     -36.362  15.253  -3.989  1.00 20.00     0.114 C 
HETATM    3  C3  UNL     1     -35.176  15.480  -6.064  1.00 20.00     0.088 C 
HETATM    4  C4  UNL     1     -34.927  15.407  -4.542  1.00 20.00    -0.016 C 
HETATM    5  C5  UNL     1     -34.026  15.055  -6.964  1.00 20.00     0.033 C 
HETATM    6  C6  UNL     1     -34.076  14.197  -4.116  1.00 20.00     0.018 C 
HETATM    7  N9  UNL     1     -36.345  14.654  -6.249  1.00 20.00    -0.356 N 
HETATM    8  O10 UNL     1     -38.163  13.940  -4.960  1.00 20.00    -0.274 OA
HETATM    9  H25 UNL     1     -36.594  14.222  -7.134  1.00 20.00     0.162 HD
ENDROOT
BRANCH   4  10
HETATM   10  C8  UNL     1     -34.272  16.689  -4.019  1.00 20.00     0.007 C 
HETATM   11  C7  UNL     1     -34.150  16.675  -2.533  1.00 20.00     0.006 C 
ENDBRANCH   4  10
TORSDOF 1
ENDMDL
MODEL 8
REMARK VINA RESULT:      -3.9      1.610      2.137
REMARK  1 active torsions:
REMARK  status: ('A' for Active; 'I' for Inactive)
REMARK    1  A    between atoms: C4_4  and  C8_8 
ROOT
HETATM    1  C1  UNL     1     -37.258  14.626  -4.569  1.00 20.00     0.218 C 
HETATM    2  C2  UNL     1     -35.771  14.447  -4.768  1.00 20.00     0.114 C 
HETATM    3  C3  UNL     1     -36.188  16.310  -3.312  1.00 20.00     0.088 C 
HETATM    4  C4  UNL     1     -35.180  15.820  -4.374  1.00 20.00    -0.016 C 
HETATM    5  C5  UNL     1     -36.291  17.815  -3.113  1.00 20.00     0.033 C 
HETATM    6  C6  UNL     1     -35.106  16.727  -5.616  1.00 20.00     0.018 C 
HETATM    7  N9  UNL     1     -37.436  15.732  -3.748  1.00 20.00    -0.356 N 
HETATM    8  O10 UNL     1     -38.125  13.895  -5.023  1.00 20.00    -0.274 OA
HETATM    9  H25 UNL     1     -38.347  16.096  -3.484  1.00 20.00     0.162 HD
ENDROOT
BRANCH   4  10
HETATM   10  C8  UNL     1     -33.775  15.664  -3.784  1.00 20.00     0.007 C 
HETATM   11  C7  UNL     1     -33.062  14.492  -4.370  1.00 20.00     0.006 C 
ENDBRANCH   4  10
TORSDOF 1
ENDMDL
MODEL 9
REMARK VINA RESULT:      -3.9      1.670      2.229
REMARK  1 active torsions:
REMARK  status: ('A' for Active; 'I' for Inactive)
REMARK    1  A    between atoms: C4_4  and  C8_8 
ROOT
HETATM    1  C1  UNL     1     -33.522  14.350  -4.225  1.00 20.00     0.218 C 
HETATM    2  C2  UNL     1     -33.771  15.724  -3.647  1.00 20.00     0.114 C 
HETATM    3  C3  UNL     1     -35.856  14.690  -4.240  1.00 20.00     0.088 C 
HETATM    4  C4  UNL     1     -35.189  16.081  -4.147  1.00 20.00    -0.016 C 
HETATM    5  C5  UNL     1     -37.015  14.555  -5.216  1.00 20.00     0.033 C 
HETATM    6  C6  UNL     1     -35.094  16.808  -5.500  1.00 20.00     0.018 C 
HETATM    7  N9  UNL     1     -34.756  13.818  -4.577  1.00 20.00    -0.356 N 
HETATM    8  O10 UNL     1     -32.431  13.809  -4.317  1.00 20.00    -0.274 OA
HETATM    9  H25 UNL     1     -34.873  12.913  -5.023  1.00 20.00     0.162 HD
ENDROOT
BRANCH   4  10
HETATM   10  C8  UNL     1     -35.914  16.983  -3.143  1.00 20.00     0.007 C 
HETATM   11  C7  UNL     1     -35.394  16.790  -1.758  1.00 20.00     0.006 C 
ENDBRANCH   4  10
TORSDOF 1
ENDMDL
