MODEL 1
REMARK VINA RESULT:      -4.9      0.000      0.000
REMARK  0 active torsions:
REMARK  status: ('A' for Active; 'I' for Inactive)
ROOT
HETATM    1  C1  UNL     1     -32.891  18.514  -0.333  1.00 20.00     0.010 A 
HETATM    2  C2  UNL     1     -32.910  17.800  -1.533  1.00 20.00     0.019 A 
HETATM    3  C3  UNL     1     -35.160  16.996  -1.074  1.00 20.00     0.026 A 
HETATM    4  C4  UNL     1     -34.012  18.464   0.480  1.00 20.00    -0.033 A 
HETATM    5  C5  UNL     1     -35.137  17.716   0.109  1.00 20.00    -0.049 A 
HETATM    6  C6  UNL     1     -34.036  17.046  -1.900  1.00 20.00     0.011 A 
HETATM    7  C7  UNL     1     -36.199  17.791   1.162  1.00 20.00     0.041 C 
HETATM    8  C8  UNL     1     -35.750  19.038   1.943  1.00 20.00     0.030 C 
HETATM    9  C9  UNL     1     -34.218  19.116   1.813  1.00 20.00     0.116 C 
HETATM   10 CL10 UNL     1     -33.412  18.176   3.087  1.00 20.00    -0.120 Cl
HETATM   11 BR11 UNL     1     -34.026  16.082  -3.528  1.00 20.00    -0.051 Br
ENDROOT
TORSDOF 0
ENDMDL
MODEL 2
REMARK VINA RESULT:      -4.9      3.176      4.377
REMARK  0 active torsions:
REMARK  status: ('A' for Active; 'I' for Inactive)
ROOT
HETATM    1  C1  UNL     1     -32.701  18.087  -1.175  1.00 20.00     0.010 A 
HETATM    2  C2  UNL     1     -33.087  18.526   0.092  1.00 20.00     0.019 A 
HETATM    3  C3  UNL     1     -35.286  17.521  -0.178  1.00 20.00     0.026 A 
HETATM    4  C4  UNL     1     -33.613  17.364  -1.927  1.00 20.00    -0.033 A 
HETATM    5  C5  UNL     1     -34.891  17.079  -1.430  1.00 20.00    -0.049 A 
HETATM    6  C6  UNL     1     -34.371  18.246   0.587  1.00 20.00     0.011 A 
HETATM    7  C7  UNL     1     -35.699  16.320  -2.435  1.00 20.00     0.041 C 
HETATM    8  C8  UNL     1     -34.592  15.792  -3.362  1.00 20.00     0.030 C 
HETATM    9  C9  UNL     1     -33.443  16.815  -3.311  1.00 20.00     0.116 C 
HETATM   10 CL10 UNL     1     -33.668  18.103  -4.514  1.00 20.00    -0.120 Cl
HETATM   11 BR11 UNL     1     -34.866  18.863   2.306  1.00 20.00    -0.051 Br
ENDROOT
TORSDOF 0
ENDMDL
MODEL 3
REMARK VINA RESULT:      -4.6      4.090      6.063
REMARK  0 active torsions:
REMARK  status: ('A' for Active; 'I' for Inactive)
ROOT
HETATM    1  C1  UNL     1     -36.279  16.303  -3.334  1.00 20.00     0.010 A 
HETATM    2  C2  UNL     1     -35.919  16.988  -2.172  1.00 20.00     0.019 A 
HETATM    3  C3  UNL     1     -33.557  16.649  -2.650  1.00 20.00     0.026 A 
HETATM    4  C4  UNL     1     -35.272  15.805  -4.144  1.00 20.00    -0.033 A 
HETATM    5  C5  UNL     1     -33.923  15.982  -3.807  1.00 20.00    -0.049 A 
HETATM    6  C6  UNL     1     -34.567  17.158  -1.832  1.00 20.00     0.011 A 
HETATM    7  C7  UNL     1     -33.030  15.327  -4.814  1.00 20.00     0.041 C 
HETATM    8  C8  UNL     1     -33.993  15.173  -6.003  1.00 20.00     0.030 C 
HETATM    9  C9  UNL     1     -35.407  15.020  -5.414  1.00 20.00     0.116 C 
HETATM   10 CL10 UNL     1     -35.778  13.322  -5.049  1.00 20.00    -0.120 Cl
HETATM   11 BR11 UNL     1     -34.112  18.082  -0.245  1.00 20.00    -0.051 Br
ENDROOT
TORSDOF 0
ENDMDL
MODEL 4
REMARK VINA RESULT:      -4.6      3.440      4.816
REMARK  0 active torsions:
REMARK  status: ('A' for Active; 'I' for Inactive)
ROOT
HETATM    1  C1  UNL     1     -32.920  17.435  -1.930  1.00 20.00     0.010 A 
HETATM    2  C2  UNL     1     -33.475  18.150  -0.867  1.00 20.00     0.019 A 
HETATM    3  C3  UNL     1     -35.668  17.193  -1.307  1.00 20.00     0.026 A 
HETATM    4  C4  UNL     1     -33.748  16.602  -2.666  1.00 20.00    -0.033 A 
HETATM    5  C5  UNL     1     -35.108  16.479  -2.352  1.00 20.00    -0.049 A 
HETATM    6  C6  UNL     1     -34.839  18.031  -0.558  1.00 20.00     0.011 A 
HETATM    7  C7  UNL     1     -35.795  15.553  -3.307  1.00 20.00     0.041 C 
HETATM    8  C8  UNL     1     -34.593  14.796  -3.897  1.00 20.00     0.030 C 
HETATM    9  C9  UNL     1     -33.395  15.763  -3.856  1.00 20.00     0.116 C 
HETATM   10 CL10 UNL     1     -33.325  16.770  -5.317  1.00 20.00    -0.120 Cl
HETATM   11 BR11 UNL     1     -35.562  19.021   0.883  1.00 20.00    -0.051 Br
ENDROOT
TORSDOF 0
ENDMDL
MODEL 5
REMARK VINA RESULT:      -4.6      4.969      6.678
REMARK  0 active torsions:
REMARK  status: ('A' for Active; 'I' for Inactive)
ROOT
HETATM    1  C1  UNL     1     -33.351  15.529  -4.294  1.00 20.00     0.010 A 
HETATM    2  C2  UNL     1     -33.659  16.231  -3.127  1.00 20.00     0.019 A 
HETATM    3  C3  UNL     1     -36.023  15.714  -3.384  1.00 20.00     0.026 A 
HETATM    4  C4  UNL     1     -34.385  14.922  -4.988  1.00 20.00    -0.033 A 
HETATM    5  C5  UNL     1     -35.707  15.009  -4.533  1.00 20.00    -0.049 A 
HETATM    6  C6  UNL     1     -34.986  16.324  -2.676  1.00 20.00     0.011 A 
HETATM    7  C7  UNL     1     -36.642  14.306  -5.468  1.00 20.00     0.041 C 
HETATM    8  C8  UNL     1     -35.661  13.408  -6.241  1.00 20.00     0.030 C 
HETATM    9  C9  UNL     1     -34.310  14.144  -6.267  1.00 20.00     0.116 C 
HETATM   10 CL10 UNL     1     -34.201  15.250  -7.652  1.00 20.00    -0.120 Cl
HETATM   11 BR11 UNL     1     -35.371  17.291  -1.096  1.00 20.00    -0.051 Br
ENDROOT
TORSDOF 0
ENDMDL
MODEL 6
REMARK VINA RESULT:      -4.5      3.473      5.254
REMARK  0 active torsions:
REMARK  status: ('A' for Active; 'I' for Inactive)
ROOT
HETATM    1  C1  UNL     1     -35.426  16.573  -1.721  1.00 20.00     0.010 A 
HETATM    2  C2  UNL     1     -34.752  17.292  -0.732  1.00 20.00     0.019 A 
HETATM    3  C3  UNL     1     -33.051  17.985  -2.329  1.00 20.00     0.026 A 
HETATM    4  C4  UNL     1     -34.905  16.574  -3.005  1.00 20.00    -0.033 A 
HETATM    5  C5  UNL     1     -33.732  17.278  -3.306  1.00 20.00    -0.049 A 
HETATM    6  C6  UNL     1     -33.572  17.993  -1.034  1.00 20.00     0.011 A 
HETATM    7  C7  UNL     1     -33.355  17.099  -4.744  1.00 20.00     0.041 C 
HETATM    8  C8  UNL     1     -34.688  16.613  -5.338  1.00 20.00     0.030 C 
HETATM    9  C9  UNL     1     -35.428  15.862  -4.216  1.00 20.00     0.116 C 
HETATM   10 CL10 UNL     1     -34.964  14.149  -4.168  1.00 20.00    -0.120 Cl
HETATM   11 BR11 UNL     1     -32.678  18.949   0.331  1.00 20.00    -0.051 Br
ENDROOT
TORSDOF 0
ENDMDL
MODEL 7
REMARK VINA RESULT:      -4.4      3.488      4.935
REMARK  0 active torsions:
REMARK  status: ('A' for Active; 'I' for Inactive)
ROOT
HETATM    1  C1  UNL     1     -34.116  14.855  -3.748  1.00 20.00     0.010 A 
HETATM    2  C2  UNL     1     -34.134  14.478  -5.092  1.00 20.00     0.019 A 
HETATM    3  C3  UNL     1     -33.709  16.770  -5.790  1.00 20.00     0.026 A 
HETATM    4  C4  UNL     1     -33.889  16.187  -3.442  1.00 20.00    -0.033 A 
HETATM    5  C5  UNL     1     -33.682  17.133  -4.454  1.00 20.00    -0.049 A 
HETATM    6  C6  UNL     1     -33.932  15.428  -6.106  1.00 20.00     0.011 A 
HETATM    7  C7  UNL     1     -33.494  18.502  -3.877  1.00 20.00     0.041 C 
HETATM    8  C8  UNL     1     -33.142  18.158  -2.419  1.00 20.00     0.030 C 
HETATM    9  C9  UNL     1     -33.852  16.833  -2.090  1.00 20.00     0.116 C 
HETATM   10 CL10 UNL     1     -35.503  17.112  -1.498  1.00 20.00    -0.120 Cl
HETATM   11 BR11 UNL     1     -33.972  14.886  -7.918  1.00 20.00    -0.051 Br
ENDROOT
TORSDOF 0
ENDMDL
MODEL 8
REMARK VINA RESULT:      -4.3      5.353      7.065
REMARK  0 active torsions:
REMARK  status: ('A' for Active; 'I' for Inactive)
ROOT
HETATM    1  C1  UNL     1     -33.765  16.645  -6.005  1.00 20.00     0.010 A 
HETATM    2  C2  UNL     1     -33.456  17.216  -4.769  1.00 20.00     0.019 A 
HETATM    3  C3  UNL     1     -34.632  15.435  -3.600  1.00 20.00     0.026 A 
HETATM    4  C4  UNL     1     -34.501  15.471  -6.022  1.00 20.00    -0.033 A 
HETATM    5  C5  UNL     1     -34.925  14.870  -4.830  1.00 20.00    -0.049 A 
HETATM    6  C6  UNL     1     -33.887  16.616  -3.575  1.00 20.00     0.011 A 
HETATM    7  C7  UNL     1     -35.728  13.638  -5.108  1.00 20.00     0.041 C 
HETATM    8  C8  UNL     1     -35.313  13.340  -6.560  1.00 20.00     0.030 C 
HETATM    9  C9  UNL     1     -34.974  14.693  -7.212  1.00 20.00     0.116 C 
HETATM   10 CL10 UNL     1     -36.418  15.456  -7.909  1.00 20.00    -0.120 Cl
HETATM   11 BR11 UNL     1     -33.460  17.420  -1.916  1.00 20.00    -0.051 Br
ENDROOT
TORSDOF 0
ENDMDL
MODEL 9
REMARK VINA RESULT:      -4.3      1.683      2.823
REMARK  0 active torsions:
REMARK  status: ('A' for Active; 'I' for Inactive)
ROOT
HETATM    1  C1  UNL     1     -35.529  16.523  -1.741  1.00 20.00     0.010 A 
HETATM    2  C2  UNL     1     -35.098  16.172  -3.021  1.00 20.00     0.019 A 
HETATM    3  C3  UNL     1     -33.145  17.608  -2.809  1.00 20.00     0.026 A 
HETATM    4  C4  UNL     1     -34.757  17.410  -1.007  1.00 20.00    -0.033 A 
HETATM    5  C5  UNL     1     -33.573  17.942  -1.535  1.00 20.00    -0.049 A 
HETATM    6  C6  UNL     1     -33.915  16.711  -3.552  1.00 20.00     0.011 A 
HETATM    7  C7  UNL     1     -32.940  18.897  -0.572  1.00 20.00     0.041 C 
HETATM    8  C8  UNL     1     -33.629  18.488   0.741  1.00 20.00     0.030 C 
HETATM    9  C9  UNL     1     -35.023  17.953   0.364  1.00 20.00     0.116 C 
HETATM   10 CL10 UNL     1     -36.219  19.263   0.283  1.00 20.00    -0.120 Cl
HETATM   11 BR11 UNL     1     -33.364  16.222  -5.295  1.00 20.00    -0.051 Br
ENDROOT
TORSDOF 0
ENDMDL
