MODEL 1
REMARK VINA RESULT:      -5.4      0.000      0.000
REMARK  4 active torsions:
REMARK  status: ('A' for Active; 'I' for Inactive)
REMARK    1  A    between atoms: C5_5  and  C6_6 
REMARK    2  A    between atoms: C6_6  and  S10_10 
REMARK    3  A    between atoms: C7_7  and  C8_8 
REMARK    4  A    between atoms: C7_7  and  S10_10 
ROOT
HETATM    1  C1  UNL     1     -33.678   7.316   5.077  1.00 20.00     0.074 C 
HETATM    2  C7  UNL     1     -33.697   7.135   3.615  1.00 20.00     0.157 C 
HETATM    3  N9  UNL     1     -33.667   7.462   6.228  1.00 20.00    -0.196 NA
ENDROOT
BRANCH   2   4
HETATM    4  C8  UNL     1     -34.111   5.705   3.187  1.00 20.00     0.005 C 
HETATM    5  C3  UNL     1     -34.722   4.934   4.366  1.00 20.00     0.011 C 
HETATM    6  C4  UNL     1     -32.985   4.870   2.564  1.00 20.00     0.011 C 
ENDBRANCH   2   4
BRANCH   2   7
HETATM    7  S10 UNL     1     -32.087   7.624   2.889  1.00 20.00    -0.149 SA
BRANCH   7   8
HETATM    8  C6  UNL     1     -32.663   9.062   1.963  1.00 20.00     0.075 C 
BRANCH   8   9
HETATM    9  C5  UNL     1     -32.014   9.104   0.583  1.00 20.00     0.006 C 
HETATM   10  C2  UNL     1     -33.037   9.445  -0.492  1.00 20.00     0.006 C 
ENDBRANCH   8   9
ENDBRANCH   7   8
ENDBRANCH   2   7
TORSDOF 4
ENDMDL
MODEL 2
REMARK VINA RESULT:      -4.8      1.891      2.533
REMARK  4 active torsions:
REMARK  status: ('A' for Active; 'I' for Inactive)
REMARK    1  A    between atoms: C5_5  and  C6_6 
REMARK    2  A    between atoms: C6_6  and  S10_10 
REMARK    3  A    between atoms: C7_7  and  C8_8 
REMARK    4  A    between atoms: C7_7  and  S10_10 
ROOT
HETATM    1  C1  UNL     1     -33.097   5.316   2.901  1.00 20.00     0.074 C 
HETATM    2  C7  UNL     1     -33.190   6.579   3.653  1.00 20.00     0.157 C 
HETATM    3  N9  UNL     1     -33.019   4.320   2.311  1.00 20.00    -0.196 NA
ENDROOT
BRANCH   2   4
HETATM    4  C8  UNL     1     -34.237   6.529   4.794  1.00 20.00     0.005 C 
HETATM    5  C3  UNL     1     -33.757   7.329   6.015  1.00 20.00     0.011 C 
HETATM    6  C4  UNL     1     -34.637   5.116   5.238  1.00 20.00     0.011 C 
ENDBRANCH   2   4
BRANCH   2   7
HETATM    7  S10 UNL     1     -33.492   7.981   2.513  1.00 20.00    -0.149 SA
BRANCH   7   8
HETATM    8  C6  UNL     1     -31.780   8.270   2.021  1.00 20.00     0.075 C 
BRANCH   8   9
HETATM    9  C5  UNL     1     -31.725   9.067   0.722  1.00 20.00     0.006 C 
HETATM   10  C2  UNL     1     -32.626  10.292   0.792  1.00 20.00     0.006 C 
ENDBRANCH   8   9
ENDBRANCH   7   8
ENDBRANCH   2   7
TORSDOF 4
ENDMDL
MODEL 3
REMARK VINA RESULT:      -4.1     10.820     11.768
REMARK  4 active torsions:
REMARK  status: ('A' for Active; 'I' for Inactive)
REMARK    1  A    between atoms: C5_5  and  C6_6 
REMARK    2  A    between atoms: C6_6  and  S10_10 
REMARK    3  A    between atoms: C7_7  and  C8_8 
REMARK    4  A    between atoms: C7_7  and  S10_10 
ROOT
HETATM    1  C1  UNL     1     -35.688  13.921  -5.167  1.00 20.00     0.074 C 
HETATM    2  C7  UNL     1     -35.385  15.355  -5.025  1.00 20.00     0.157 C 
HETATM    3  N9  UNL     1     -35.927  12.791  -5.284  1.00 20.00    -0.196 NA
ENDROOT
BRANCH   2   4
HETATM    4  C8  UNL     1     -33.866  15.653  -4.978  1.00 20.00     0.005 C 
HETATM    5  C3  UNL     1     -33.324  15.968  -6.381  1.00 20.00     0.011 C 
HETATM    6  C4  UNL     1     -33.014  14.547  -4.342  1.00 20.00     0.011 C 
ENDBRANCH   2   4
BRANCH   2   7
HETATM    7  S10 UNL     1     -36.260  16.053  -3.574  1.00 20.00    -0.149 SA
BRANCH   7   8
HETATM    8  C6  UNL     1     -35.049  17.319  -3.143  1.00 20.00     0.075 C 
BRANCH   8   9
HETATM    9  C5  UNL     1     -34.563  17.129  -1.710  1.00 20.00     0.006 C 
HETATM   10  C2  UNL     1     -33.149  17.664  -1.535  1.00 20.00     0.006 C 
ENDBRANCH   8   9
ENDBRANCH   7   8
ENDBRANCH   2   7
TORSDOF 4
ENDMDL
MODEL 4
REMARK VINA RESULT:      -4.1     10.979     12.121
REMARK  4 active torsions:
REMARK  status: ('A' for Active; 'I' for Inactive)
REMARK    1  A    between atoms: C5_5  and  C6_6 
REMARK    2  A    between atoms: C6_6  and  S10_10 
REMARK    3  A    between atoms: C7_7  and  C8_8 
REMARK    4  A    between atoms: C7_7  and  S10_10 
ROOT
HETATM    1  C1  UNL     1     -35.386  13.866  -5.365  1.00 20.00     0.074 C 
HETATM    2  C7  UNL     1     -34.779  15.201  -5.501  1.00 20.00     0.157 C 
HETATM    3  N9  UNL     1     -35.869  12.816  -5.260  1.00 20.00    -0.196 NA
ENDROOT
BRANCH   2   4
HETATM    4  C8  UNL     1     -33.824  15.312  -6.717  1.00 20.00     0.005 C 
HETATM    5  C3  UNL     1     -33.830  16.737  -7.290  1.00 20.00     0.011 C 
HETATM    6  C4  UNL     1     -34.102  14.310  -7.845  1.00 20.00     0.011 C 
ENDBRANCH   2   4
BRANCH   2   7
HETATM    7  S10 UNL     1     -33.953  15.690  -3.941  1.00 20.00    -0.149 SA
BRANCH   7   8
HETATM    8  C6  UNL     1     -35.435  16.113  -3.001  1.00 20.00     0.075 C 
BRANCH   8   9
HETATM    9  C5  UNL     1     -35.060  16.807  -1.696  1.00 20.00     0.006 C 
HETATM   10  C2  UNL     1     -33.613  17.280  -1.723  1.00 20.00     0.006 C 
ENDBRANCH   8   9
ENDBRANCH   7   8
ENDBRANCH   2   7
TORSDOF 4
ENDMDL
MODEL 5
REMARK VINA RESULT:      -4.1     10.954     12.169
REMARK  4 active torsions:
REMARK  status: ('A' for Active; 'I' for Inactive)
REMARK    1  A    between atoms: C5_5  and  C6_6 
REMARK    2  A    between atoms: C6_6  and  S10_10 
REMARK    3  A    between atoms: C7_7  and  C8_8 
REMARK    4  A    between atoms: C7_7  and  S10_10 
ROOT
HETATM    1  C1  UNL     1     -35.446  13.841  -5.343  1.00 20.00     0.074 C 
HETATM    2  C7  UNL     1     -34.827  15.174  -5.441  1.00 20.00     0.157 C 
HETATM    3  N9  UNL     1     -35.939  12.793  -5.265  1.00 20.00    -0.196 NA
ENDROOT
BRANCH   2   4
HETATM    4  C8  UNL     1     -34.664  15.661  -6.902  1.00 20.00     0.005 C 
HETATM    5  C3  UNL     1     -33.986  14.587  -7.766  1.00 20.00     0.011 C 
HETATM    6  C4  UNL     1     -33.908  16.987  -7.056  1.00 20.00     0.011 C 
ENDBRANCH   2   4
BRANCH   2   7
HETATM    7  S10 UNL     1     -33.237  15.209  -4.530  1.00 20.00    -0.149 SA
BRANCH   7   8
HETATM    8  C6  UNL     1     -33.659  16.507  -3.350  1.00 20.00     0.075 C 
BRANCH   8   9
HETATM    9  C5  UNL     1     -35.009  16.221  -2.701  1.00 20.00     0.006 C 
HETATM   10  C2  UNL     1     -35.144  16.953  -1.373  1.00 20.00     0.006 C 
ENDBRANCH   8   9
ENDBRANCH   7   8
ENDBRANCH   2   7
TORSDOF 4
ENDMDL
MODEL 6
REMARK VINA RESULT:      -4.0     10.708     11.770
REMARK  4 active torsions:
REMARK  status: ('A' for Active; 'I' for Inactive)
REMARK    1  A    between atoms: C5_5  and  C6_6 
REMARK    2  A    between atoms: C6_6  and  S10_10 
REMARK    3  A    between atoms: C7_7  and  C8_8 
REMARK    4  A    between atoms: C7_7  and  S10_10 
ROOT
HETATM    1  C1  UNL     1     -35.300  13.763  -4.713  1.00 20.00     0.074 C 
HETATM    2  C7  UNL     1     -34.504  14.817  -4.064  1.00 20.00     0.157 C 
HETATM    3  N9  UNL     1     -35.928  12.928  -5.220  1.00 20.00    -0.196 NA
ENDROOT
BRANCH   2   4
HETATM    4  C8  UNL     1     -35.344  16.061  -3.679  1.00 20.00     0.005 C 
HETATM    5  C3  UNL     1     -35.044  16.501  -2.238  1.00 20.00     0.011 C 
HETATM    6  C4  UNL     1     -36.858  15.892  -3.853  1.00 20.00     0.011 C 
ENDBRANCH   2   4
BRANCH   2   7
HETATM    7  S10 UNL     1     -33.064  15.265  -5.105  1.00 20.00    -0.149 SA
BRANCH   7   8
HETATM    8  C6  UNL     1     -33.772  16.729  -5.887  1.00 20.00     0.075 C 
BRANCH   8   9
HETATM    9  C5  UNL     1     -34.331  16.383  -7.262  1.00 20.00     0.006 C 
HETATM   10  C2  UNL     1     -33.798  15.043  -7.749  1.00 20.00     0.006 C 
ENDBRANCH   8   9
ENDBRANCH   7   8
ENDBRANCH   2   7
TORSDOF 4
ENDMDL
MODEL 7
REMARK VINA RESULT:      -3.8      1.689      4.701
REMARK  4 active torsions:
REMARK  status: ('A' for Active; 'I' for Inactive)
REMARK    1  A    between atoms: C5_5  and  C6_6 
REMARK    2  A    between atoms: C6_6  and  S10_10 
REMARK    3  A    between atoms: C7_7  and  C8_8 
REMARK    4  A    between atoms: C7_7  and  S10_10 
ROOT
HETATM    1  C1  UNL     1     -31.673   8.393   3.151  1.00 20.00     0.074 C 
HETATM    2  C7  UNL     1     -32.258   8.005   1.857  1.00 20.00     0.157 C 
HETATM    3  N9  UNL     1     -31.207   8.699   4.169  1.00 20.00    -0.196 NA
ENDROOT
BRANCH   2   4
HETATM    4  C8  UNL     1     -33.009   9.167   1.158  1.00 20.00     0.005 C 
HETATM    5  C3  UNL     1     -32.949   9.019  -0.370  1.00 20.00     0.011 C 
HETATM    6  C4  UNL     1     -32.528  10.570   1.551  1.00 20.00     0.011 C 
ENDBRANCH   2   4
BRANCH   2   7
HETATM    7  S10 UNL     1     -33.324   6.528   2.054  1.00 20.00    -0.149 SA
BRANCH   7   8
HETATM    8  C6  UNL     1     -33.934   6.885   3.714  1.00 20.00     0.075 C 
BRANCH   8   9
HETATM    9  C5  UNL     1     -34.916   5.809   4.166  1.00 20.00     0.006 C 
HETATM   10  C2  UNL     1     -34.587   5.322   5.570  1.00 20.00     0.006 C 
ENDBRANCH   8   9
ENDBRANCH   7   8
ENDBRANCH   2   7
TORSDOF 4
ENDMDL
MODEL 8
REMARK VINA RESULT:      -3.8      2.112      4.630
REMARK  4 active torsions:
REMARK  status: ('A' for Active; 'I' for Inactive)
REMARK    1  A    between atoms: C5_5  and  C6_6 
REMARK    2  A    between atoms: C6_6  and  S10_10 
REMARK    3  A    between atoms: C7_7  and  C8_8 
REMARK    4  A    between atoms: C7_7  and  S10_10 
ROOT
HETATM    1  C1  UNL     1     -32.981   5.450   2.480  1.00 20.00     0.074 C 
HETATM    2  C7  UNL     1     -33.277   6.887   2.362  1.00 20.00     0.157 C 
HETATM    3  N9  UNL     1     -32.750   4.315   2.568  1.00 20.00    -0.196 NA
ENDROOT
BRANCH   2   4
HETATM    4  C8  UNL     1     -32.002   7.762   2.254  1.00 20.00     0.005 C 
HETATM    5  C3  UNL     1     -31.554   8.252   3.639  1.00 20.00     0.011 C 
HETATM    6  C4  UNL     1     -32.125   8.962   1.307  1.00 20.00     0.011 C 
ENDBRANCH   2   4
BRANCH   2   7
HETATM    7  S10 UNL     1     -34.361   7.432   3.735  1.00 20.00    -0.149 SA
BRANCH   7   8
HETATM    8  C6  UNL     1     -34.976   5.807   4.222  1.00 20.00     0.075 C 
BRANCH   8   9
HETATM    9  C5  UNL     1     -34.633   5.521   5.680  1.00 20.00     0.006 C 
HETATM   10  C2  UNL     1     -33.979   6.729   6.336  1.00 20.00     0.006 C 
ENDBRANCH   8   9
ENDBRANCH   7   8
ENDBRANCH   2   7
TORSDOF 4
ENDMDL
MODEL 9
REMARK VINA RESULT:      -3.7     10.586     11.352
REMARK  4 active torsions:
REMARK  status: ('A' for Active; 'I' for Inactive)
REMARK    1  A    between atoms: C5_5  and  C6_6 
REMARK    2  A    between atoms: C6_6  and  S10_10 
REMARK    3  A    between atoms: C7_7  and  C8_8 
REMARK    4  A    between atoms: C7_7  and  S10_10 
ROOT
HETATM    1  C1  UNL     1     -33.722  14.201  -4.253  1.00 20.00     0.074 C 
HETATM    2  C7  UNL     1     -35.120  14.658  -4.196  1.00 20.00     0.157 C 
HETATM    3  N9  UNL     1     -32.620  13.839  -4.293  1.00 20.00    -0.196 NA
ENDROOT
BRANCH   2   4
HETATM    4  C8  UNL     1     -36.066  13.832  -5.103  1.00 20.00     0.005 C 
HETATM    5  C3  UNL     1     -35.503  13.723  -6.528  1.00 20.00     0.011 C 
HETATM    6  C4  UNL     1     -37.509  14.348  -5.166  1.00 20.00     0.011 C 
ENDBRANCH   2   4
BRANCH   2   7
HETATM    7  S10 UNL     1     -35.223  16.451  -4.562  1.00 20.00    -0.149 SA
BRANCH   7   8
HETATM    8  C6  UNL     1     -35.964  16.977  -3.003  1.00 20.00     0.075 C 
BRANCH   8   9
HETATM    9  C5  UNL     1     -35.045  16.641  -1.834  1.00 20.00     0.006 C 
HETATM   10  C2  UNL     1     -33.662  17.247  -2.031  1.00 20.00     0.006 C 
ENDBRANCH   8   9
ENDBRANCH   7   8
ENDBRANCH   2   7
TORSDOF 4
ENDMDL
