MODEL 1
REMARK VINA RESULT:      -4.1      0.000      0.000
REMARK  1 active torsions:
REMARK  status: ('A' for Active; 'I' for Inactive)
REMARK    1  A    between atoms: C3_3  and  C6_6 
ROOT
HETATM    1  C1  UNL     1     -33.970   5.596   3.312  1.00 20.00     0.131 A 
HETATM    2  C2  UNL     1     -34.686   5.839   5.371  1.00 20.00     0.166 A 
HETATM    3  C3  UNL     1     -33.261   6.732   3.646  1.00 20.00     0.005 A 
HETATM    4  N7  UNL     1     -34.787   5.084   4.300  1.00 20.00    -0.265 NA
HETATM    5  S8  UNL     1     -33.627   7.184   5.260  1.00 20.00    -0.085 SA
ENDROOT
BRANCH   3   6
HETATM    6  C6  UNL     1     -32.285   7.546   2.818  1.00 20.00     0.019 C 
HETATM    7  C4  UNL     1     -31.336   8.358   3.703  1.00 20.00     0.015 C 
HETATM    8  C5  UNL     1     -33.012   8.454   1.822  1.00 20.00     0.015 C 
ENDBRANCH   3   6
TORSDOF 1
ENDMDL
MODEL 2
REMARK VINA RESULT:      -4.0      1.732      3.522
REMARK  1 active torsions:
REMARK  status: ('A' for Active; 'I' for Inactive)
REMARK    1  A    between atoms: C3_3  and  C6_6 
ROOT
HETATM    1  C1  UNL     1     -33.195   6.525   2.575  1.00 20.00     0.131 A 
HETATM    2  C2  UNL     1     -32.080   8.228   3.390  1.00 20.00     0.166 A 
HETATM    3  C3  UNL     1     -33.655   6.471   3.875  1.00 20.00     0.005 A 
HETATM    4  N7  UNL     1     -32.292   7.532   2.296  1.00 20.00    -0.265 NA
HETATM    5  S8  UNL     1     -32.932   7.727   4.793  1.00 20.00    -0.085 SA
ENDROOT
BRANCH   3   6
HETATM    6  C6  UNL     1     -34.637   5.511   4.519  1.00 20.00     0.019 C 
HETATM    7  C4  UNL     1     -34.774   5.770   6.021  1.00 20.00     0.015 C 
HETATM    8  C5  UNL     1     -34.259   4.053   4.248  1.00 20.00     0.015 C 
ENDBRANCH   3   6
TORSDOF 1
ENDMDL
MODEL 3
REMARK VINA RESULT:      -4.0      1.311      1.471
REMARK  1 active torsions:
REMARK  status: ('A' for Active; 'I' for Inactive)
REMARK    1  A    between atoms: C3_3  and  C6_6 
ROOT
HETATM    1  C1  UNL     1     -33.497   7.243   5.120  1.00 20.00     0.131 A 
HETATM    2  C2  UNL     1     -34.790   5.488   4.882  1.00 20.00     0.166 A 
HETATM    3  C3  UNL     1     -33.193   6.937   3.809  1.00 20.00     0.005 A 
HETATM    4  N7  UNL     1     -34.412   6.413   5.736  1.00 20.00    -0.265 NA
HETATM    5  S8  UNL     1     -34.083   5.554   3.320  1.00 20.00    -0.085 SA
ENDROOT
BRANCH   3   6
HETATM    6  C6  UNL     1     -32.245   7.626   2.845  1.00 20.00     0.019 C 
HETATM    7  C4  UNL     1     -31.196   8.459   3.586  1.00 20.00     0.015 C 
HETATM    8  C5  UNL     1     -33.002   8.482   1.827  1.00 20.00     0.015 C 
ENDBRANCH   3   6
TORSDOF 1
ENDMDL
MODEL 4
REMARK VINA RESULT:      -4.0      1.378      1.973
REMARK  1 active torsions:
REMARK  status: ('A' for Active; 'I' for Inactive)
REMARK    1  A    between atoms: C3_3  and  C6_6 
ROOT
HETATM    1  C1  UNL     1     -33.744   7.141   5.451  1.00 20.00     0.131 A 
HETATM    2  C2  UNL     1     -34.714   5.230   4.988  1.00 20.00     0.166 A 
HETATM    3  C3  UNL     1     -33.469   7.090   4.099  1.00 20.00     0.005 A 
HETATM    4  N7  UNL     1     -34.458   6.075   5.961  1.00 20.00    -0.265 NA
HETATM    5  S8  UNL     1     -34.126   5.652   3.433  1.00 20.00    -0.085 SA
ENDROOT
BRANCH   3   6
HETATM    6  C6  UNL     1     -32.719   8.076   3.223  1.00 20.00     0.019 C 
HETATM    7  C4  UNL     1     -32.716   7.635   1.757  1.00 20.00     0.015 C 
HETATM    8  C5  UNL     1     -31.292   8.305   3.727  1.00 20.00     0.015 C 
ENDBRANCH   3   6
TORSDOF 1
ENDMDL
MODEL 5
REMARK VINA RESULT:      -3.9      2.074      3.794
REMARK  1 active torsions:
REMARK  status: ('A' for Active; 'I' for Inactive)
REMARK    1  A    between atoms: C3_3  and  C6_6 
ROOT
HETATM    1  C1  UNL     1     -32.848   7.578   4.544  1.00 20.00     0.131 A 
HETATM    2  C2  UNL     1     -32.084   7.727   2.494  1.00 20.00     0.166 A 
HETATM    3  C3  UNL     1     -33.590   6.565   3.972  1.00 20.00     0.005 A 
HETATM    4  N7  UNL     1     -31.985   8.245   3.698  1.00 20.00    -0.265 NA
HETATM    5  S8  UNL     1     -33.198   6.435   2.307  1.00 20.00    -0.085 SA
ENDROOT
BRANCH   3   6
HETATM    6  C6  UNL     1     -34.618   5.641   4.598  1.00 20.00     0.019 C 
HETATM    7  C4  UNL     1     -34.742   5.876   6.105  1.00 20.00     0.015 C 
HETATM    8  C5  UNL     1     -34.309   4.171   4.299  1.00 20.00     0.015 C 
ENDBRANCH   3   6
TORSDOF 1
ENDMDL
MODEL 6
REMARK VINA RESULT:      -3.7      2.184      3.660
REMARK  1 active torsions:
REMARK  status: ('A' for Active; 'I' for Inactive)
REMARK    1  A    between atoms: C3_3  and  C6_6 
ROOT
HETATM    1  C1  UNL     1     -33.378   7.299   2.192  1.00 20.00     0.131 A 
HETATM    2  C2  UNL     1     -31.717   8.728   2.267  1.00 20.00     0.166 A 
HETATM    3  C3  UNL     1     -33.086   7.208   3.537  1.00 20.00     0.005 A 
HETATM    4  N7  UNL     1     -32.593   8.170   1.462  1.00 20.00    -0.265 NA
HETATM    5  S8  UNL     1     -31.777   8.251   3.914  1.00 20.00    -0.085 SA
ENDROOT
BRANCH   3   6
HETATM    6  C6  UNL     1     -33.737   6.364   4.617  1.00 20.00     0.019 C 
HETATM    7  C4  UNL     1     -35.081   5.796   4.154  1.00 20.00     0.015 C 
HETATM    8  C5  UNL     1     -33.897   7.147   5.923  1.00 20.00     0.015 C 
ENDBRANCH   3   6
TORSDOF 1
ENDMDL
MODEL 7
REMARK VINA RESULT:      -3.6     11.127     11.714
REMARK  1 active torsions:
REMARK  status: ('A' for Active; 'I' for Inactive)
REMARK    1  A    between atoms: C3_3  and  C6_6 
ROOT
HETATM    1  C1  UNL     1     -34.562  13.862  -4.269  1.00 20.00     0.131 A 
HETATM    2  C2  UNL     1     -36.548  13.874  -5.198  1.00 20.00     0.166 A 
HETATM    3  C3  UNL     1     -34.974  15.115  -3.863  1.00 20.00     0.005 A 
HETATM    4  N7  UNL     1     -35.464  13.150  -5.034  1.00 20.00    -0.265 NA
HETATM    5  S8  UNL     1     -36.552  15.424  -4.460  1.00 20.00    -0.085 SA
ENDROOT
BRANCH   3   6
HETATM    6  C6  UNL     1     -34.249  16.151  -3.024  1.00 20.00     0.019 C 
HETATM    7  C4  UNL     1     -35.144  16.701  -1.912  1.00 20.00     0.015 C 
HETATM    8  C5  UNL     1     -33.693  17.286  -3.889  1.00 20.00     0.015 C 
ENDBRANCH   3   6
TORSDOF 1
ENDMDL
MODEL 8
REMARK VINA RESULT:      -3.6     11.535     12.257
REMARK  1 active torsions:
REMARK  status: ('A' for Active; 'I' for Inactive)
REMARK    1  A    between atoms: C3_3  and  C6_6 
ROOT
HETATM    1  C1  UNL     1     -35.181  13.878  -4.552  1.00 20.00     0.131 A 
HETATM    2  C2  UNL     1     -35.505  13.121  -6.585  1.00 20.00     0.166 A 
HETATM    3  C3  UNL     1     -34.353  14.748  -5.232  1.00 20.00     0.005 A 
HETATM    4  N7  UNL     1     -35.842  12.945  -5.327  1.00 20.00    -0.265 NA
HETATM    5  S8  UNL     1     -34.396  14.390  -6.910  1.00 20.00    -0.085 SA
ENDROOT
BRANCH   3   6
HETATM    6  C6  UNL     1     -33.491  15.879  -4.705  1.00 20.00     0.019 C 
HETATM    7  C4  UNL     1     -33.781  16.169  -3.231  1.00 20.00     0.015 C 
HETATM    8  C5  UNL     1     -33.645  17.145  -5.551  1.00 20.00     0.015 C 
ENDBRANCH   3   6
TORSDOF 1
ENDMDL
MODEL 9
REMARK VINA RESULT:      -3.5     11.622     11.873
REMARK  1 active torsions:
REMARK  status: ('A' for Active; 'I' for Inactive)
REMARK    1  A    between atoms: C3_3  and  C6_6 
ROOT
HETATM    1  C1  UNL     1     -35.798  13.720  -5.027  1.00 20.00     0.131 A 
HETATM    2  C2  UNL     1     -37.717  14.756  -4.799  1.00 20.00     0.166 A 
HETATM    3  C3  UNL     1     -35.351  14.839  -4.354  1.00 20.00     0.005 A 
HETATM    4  N7  UNL     1     -37.154  13.672  -5.283  1.00 20.00    -0.265 NA
HETATM    5  S8  UNL     1     -36.676  15.879  -4.025  1.00 20.00    -0.085 SA
ENDROOT
BRANCH   3   6
HETATM    6  C6  UNL     1     -33.948  15.213  -3.916  1.00 20.00     0.019 C 
HETATM    7  C4  UNL     1     -33.959  16.388  -2.935  1.00 20.00     0.015 C 
HETATM    8  C5  UNL     1     -33.045  15.513  -5.115  1.00 20.00     0.015 C 
ENDBRANCH   3   6
TORSDOF 1
ENDMDL
