MODEL 1
REMARK VINA RESULT:      -4.5      0.000      0.000
REMARK  1 active torsions:
REMARK  status: ('A' for Active; 'I' for Inactive)
REMARK    1  A    between atoms: C3_3  and  C7_7 
ROOT
HETATM    1  C1  UNL     1     -32.040   8.126   4.089  1.00 20.00     0.111 C 
HETATM    2  C2  UNL     1     -32.727   8.134   2.725  1.00 20.00     0.227 C 
HETATM    3  C3  UNL     1     -34.273   6.748   3.844  1.00 20.00     0.285 C 
HETATM    4  C4  UNL     1     -31.715   8.247   1.590  1.00 20.00     0.043 C 
HETATM    5  N8  UNL     1     -33.489   6.879   2.609  1.00 20.00     0.102 N 
HETATM    6  S9  UNL     1     -33.297   7.461   5.205  1.00 20.00    -0.131 SA
HETATM    7  H24 UNL     1     -34.103   6.904   1.795  1.00 20.00     0.317 HD
ENDROOT
BRANCH   3   8
HETATM    8  C7  UNL     1     -34.613   5.292   4.129  1.00 20.00     0.021 C 
HETATM    9  C5  UNL     1     -33.640   4.357   3.410  1.00 20.00     0.012 C 
HETATM   10  C6  UNL     1     -34.603   5.016   5.633  1.00 20.00     0.012 C 
ENDBRANCH   3   8
TORSDOF 1
ENDMDL
MODEL 2
REMARK VINA RESULT:      -4.4      1.539      4.009
REMARK  1 active torsions:
REMARK  status: ('A' for Active; 'I' for Inactive)
REMARK    1  A    between atoms: C3_3  and  C7_7 
ROOT
HETATM    1  C1  UNL     1     -33.853   4.585   3.939  1.00 20.00     0.111 C 
HETATM    2  C2  UNL     1     -34.567   5.807   4.513  1.00 20.00     0.227 C 
HETATM    3  C3  UNL     1     -33.399   6.911   2.785  1.00 20.00     0.285 C 
HETATM    4  C4  UNL     1     -34.781   5.676   6.016  1.00 20.00     0.043 C 
HETATM    5  N8  UNL     1     -33.733   6.984   4.214  1.00 20.00     0.102 N 
HETATM    6  S9  UNL     1     -33.234   5.154   2.339  1.00 20.00    -0.131 SA
HETATM    7  H24 UNL     1     -34.238   7.846   4.420  1.00 20.00     0.317 HD
ENDROOT
BRANCH   3   8
HETATM    8  C7  UNL     1     -32.114   7.667   2.480  1.00 20.00     0.021 C 
HETATM    9  C5  UNL     1     -32.375   8.803   1.490  1.00 20.00     0.012 C 
HETATM   10  C6  UNL     1     -31.487   8.214   3.764  1.00 20.00     0.012 C 
ENDBRANCH   3   8
TORSDOF 1
ENDMDL
MODEL 3
REMARK VINA RESULT:      -4.1      1.774      4.251
REMARK  1 active torsions:
REMARK  status: ('A' for Active; 'I' for Inactive)
REMARK    1  A    between atoms: C3_3  and  C7_7 
ROOT
HETATM    1  C1  UNL     1     -32.713   7.590   4.136  1.00 20.00     0.111 C 
HETATM    2  C2  UNL     1     -33.211   6.671   3.022  1.00 20.00     0.227 C 
HETATM    3  C3  UNL     1     -32.030   8.196   1.663  1.00 20.00     0.285 C 
HETATM    4  C4  UNL     1     -34.565   6.062   3.363  1.00 20.00     0.043 C 
HETATM    5  N8  UNL     1     -33.305   7.480   1.794  1.00 20.00     0.102 N 
HETATM    6  S9  UNL     1     -31.433   8.586   3.338  1.00 20.00    -0.131 SA
HETATM    7  H24 UNL     1     -33.468   6.884   0.983  1.00 20.00     0.317 HD
ENDROOT
BRANCH   3   8
HETATM    8  C7  UNL     1     -32.193   9.465   0.839  1.00 20.00     0.021 C 
HETATM    9  C5  UNL     1     -33.006   9.190  -0.427  1.00 20.00     0.012 C 
HETATM   10  C6  UNL     1     -32.855  10.569   1.667  1.00 20.00     0.012 C 
ENDBRANCH   3   8
TORSDOF 1
ENDMDL
MODEL 4
REMARK VINA RESULT:      -3.7      1.013      1.535
REMARK  1 active torsions:
REMARK  status: ('A' for Active; 'I' for Inactive)
REMARK    1  A    between atoms: C3_3  and  C7_7 
ROOT
HETATM    1  C1  UNL     1     -31.463   8.695   3.280  1.00 20.00     0.111 C 
HETATM    2  C2  UNL     1     -32.342   8.574   2.036  1.00 20.00     0.227 C 
HETATM    3  C3  UNL     1     -33.598   7.158   3.445  1.00 20.00     0.285 C 
HETATM    4  C4  UNL     1     -31.521   8.686   0.758  1.00 20.00     0.043 C 
HETATM    5  N8  UNL     1     -33.017   7.266   2.100  1.00 20.00     0.102 N 
HETATM    6  S9  UNL     1     -32.489   8.016   4.605  1.00 20.00    -0.131 SA
HETATM    7  H24 UNL     1     -33.745   7.201   1.389  1.00 20.00     0.317 HD
ENDROOT
BRANCH   3   8
HETATM    8  C7  UNL     1     -33.782   5.703   3.850  1.00 20.00     0.021 C 
HETATM    9  C5  UNL     1     -35.236   5.426   4.236  1.00 20.00     0.012 C 
HETATM   10  C6  UNL     1     -33.343   4.765   2.725  1.00 20.00     0.012 C 
ENDBRANCH   3   8
TORSDOF 1
ENDMDL
MODEL 5
REMARK VINA RESULT:      -3.7     11.541     12.394
REMARK  1 active torsions:
REMARK  status: ('A' for Active; 'I' for Inactive)
REMARK    1  A    between atoms: C3_3  and  C7_7 
ROOT
HETATM    1  C1  UNL     1     -36.666  14.532  -6.034  1.00 20.00     0.111 C 
HETATM    2  C2  UNL     1     -35.602  13.437  -6.061  1.00 20.00     0.227 C 
HETATM    3  C3  UNL     1     -34.843  14.563  -4.132  1.00 20.00     0.285 C 
HETATM    4  C4  UNL     1     -35.279  13.005  -7.486  1.00 20.00     0.043 C 
HETATM    5  N8  UNL     1     -34.399  13.977  -5.403  1.00 20.00     0.102 N 
HETATM    6  S9  UNL     1     -36.508  15.252  -4.384  1.00 20.00    -0.131 SA
HETATM    7  H24 UNL     1     -33.716  13.238  -5.239  1.00 20.00     0.317 HD
ENDROOT
BRANCH   3   8
HETATM    8  C7  UNL     1     -33.879  15.642  -3.657  1.00 20.00     0.021 C 
HETATM    9  C5  UNL     1     -33.438  16.527  -4.823  1.00 20.00     0.012 C 
HETATM   10  C6  UNL     1     -34.514  16.491  -2.554  1.00 20.00     0.012 C 
ENDBRANCH   3   8
TORSDOF 1
ENDMDL
MODEL 6
REMARK VINA RESULT:      -3.6     11.648     12.266
REMARK  1 active torsions:
REMARK  status: ('A' for Active; 'I' for Inactive)
REMARK    1  A    between atoms: C3_3  and  C7_7 
ROOT
HETATM    1  C1  UNL     1     -35.090  14.137  -4.807  1.00 20.00     0.111 C 
HETATM    2  C2  UNL     1     -36.185  15.202  -4.818  1.00 20.00     0.227 C 
HETATM    3  C3  UNL     1     -34.605  16.394  -3.535  1.00 20.00     0.285 C 
HETATM    4  C4  UNL     1     -37.574  14.575  -4.857  1.00 20.00     0.043 C 
HETATM    5  N8  UNL     1     -36.022  16.014  -3.599  1.00 20.00     0.102 N 
HETATM    6  S9  UNL     1     -33.626  15.026  -4.230  1.00 20.00    -0.131 SA
HETATM    7  H24 UNL     1     -36.614  16.842  -3.637  1.00 20.00     0.317 HD
ENDROOT
BRANCH   3   8
HETATM    8  C7  UNL     1     -34.178  16.690  -2.104  1.00 20.00     0.021 C 
HETATM    9  C5  UNL     1     -33.190  17.856  -2.063  1.00 20.00     0.012 C 
HETATM   10  C6  UNL     1     -35.394  16.991  -1.226  1.00 20.00     0.012 C 
ENDBRANCH   3   8
TORSDOF 1
ENDMDL
MODEL 7
REMARK VINA RESULT:      -3.5     11.952     12.576
REMARK  1 active torsions:
REMARK  status: ('A' for Active; 'I' for Inactive)
REMARK    1  A    between atoms: C3_3  and  C7_7 
ROOT
HETATM    1  C1  UNL     1     -33.711  16.921  -4.529  1.00 20.00     0.111 C 
HETATM    2  C2  UNL     1     -33.998  15.925  -3.407  1.00 20.00     0.227 C 
HETATM    3  C3  UNL     1     -34.106  14.405  -5.208  1.00 20.00     0.285 C 
HETATM    4  C4  UNL     1     -34.750  16.582  -2.256  1.00 20.00     0.043 C 
HETATM    5  N8  UNL     1     -34.798  14.831  -3.985  1.00 20.00     0.102 N 
HETATM    6  S9  UNL     1     -33.331  15.874  -5.953  1.00 20.00    -0.131 SA
HETATM    7  H24 UNL     1     -34.875  14.055  -3.328  1.00 20.00     0.317 HD
ENDROOT
BRANCH   3   8
HETATM    8  C7  UNL     1     -35.071  13.750  -6.187  1.00 20.00     0.021 C 
HETATM    9  C5  UNL     1     -36.419  14.471  -6.185  1.00 20.00     0.012 C 
HETATM   10  C6  UNL     1     -34.481  13.727  -7.598  1.00 20.00     0.012 C 
ENDBRANCH   3   8
TORSDOF 1
ENDMDL
MODEL 8
REMARK VINA RESULT:      -3.4     11.364     12.256
REMARK  1 active torsions:
REMARK  status: ('A' for Active; 'I' for Inactive)
REMARK    1  A    between atoms: C3_3  and  C7_7 
ROOT
HETATM    1  C1  UNL     1     -35.651  17.114  -1.445  1.00 20.00     0.111 C 
HETATM    2  C2  UNL     1     -34.338  17.892  -1.502  1.00 20.00     0.227 C 
HETATM    3  C3  UNL     1     -34.080  16.698  -3.519  1.00 20.00     0.285 C 
HETATM    4  C4  UNL     1     -33.785  18.159  -0.107  1.00 20.00     0.043 C 
HETATM    5  N8  UNL     1     -33.384  17.089  -2.287  1.00 20.00     0.102 N 
HETATM    6  S9  UNL     1     -35.838  16.455  -3.118  1.00 20.00    -0.131 SA
HETATM    7  H24 UNL     1     -32.549  17.632  -2.503  1.00 20.00     0.317 HD
ENDROOT
BRANCH   3   8
HETATM    8  C7  UNL     1     -33.481  15.429  -4.111  1.00 20.00     0.021 C 
HETATM    9  C5  UNL     1     -34.495  14.284  -4.077  1.00 20.00     0.012 C 
HETATM   10  C6  UNL     1     -32.999  15.672  -5.542  1.00 20.00     0.012 C 
ENDBRANCH   3   8
TORSDOF 1
ENDMDL
MODEL 9
REMARK VINA RESULT:      -3.4     11.990     12.525
REMARK  1 active torsions:
REMARK  status: ('A' for Active; 'I' for Inactive)
REMARK    1  A    between atoms: C3_3  and  C7_7 
ROOT
HETATM    1  C1  UNL     1     -33.548  16.754  -5.249  1.00 20.00     0.111 C 
HETATM    2  C2  UNL     1     -34.685  15.774  -4.968  1.00 20.00     0.227 C 
HETATM    3  C3  UNL     1     -34.794  16.970  -2.937  1.00 20.00     0.285 C 
HETATM    4  C4  UNL     1     -34.440  14.426  -5.633  1.00 20.00     0.043 C 
HETATM    5  N8  UNL     1     -34.778  15.616  -3.506  1.00 20.00     0.102 N 
HETATM    6  S9  UNL     1     -33.750  18.031  -3.986  1.00 20.00    -0.131 SA
HETATM    7  H24 UNL     1     -35.625  15.110  -3.251  1.00 20.00     0.317 HD
ENDROOT
BRANCH   3   8
HETATM    8  C7  UNL     1     -34.290  16.970  -1.500  1.00 20.00     0.021 C 
HETATM    9  C5  UNL     1     -33.072  17.882  -1.352  1.00 20.00     0.012 C 
HETATM   10  C6  UNL     1     -35.397  17.401  -0.537  1.00 20.00     0.012 C 
ENDBRANCH   3   8
TORSDOF 1
ENDMDL
