MODEL 1
REMARK VINA RESULT:      -4.4      0.000      0.000
REMARK  1 active torsions:
REMARK  status: ('A' for Active; 'I' for Inactive)
REMARK    1  A    between atoms: C3_3  and  C7_7 
ROOT
HETATM    1  C1  UNL     1     -34.010   7.161   5.857  1.00 20.00     0.284 C 
HETATM    2  C2  UNL     1     -33.583   6.446   2.982  1.00 20.00     0.109 C 
HETATM    3  C3  UNL     1     -33.015   7.676   3.698  1.00 20.00     0.229 C 
HETATM    4  C4  UNL     1     -34.724   5.871   5.439  1.00 20.00     0.071 C 
HETATM    5  C5  UNL     1     -33.905   4.616   5.734  1.00 20.00     0.023 C 
HETATM    6  N8  UNL     1     -32.771   7.421   5.123  1.00 20.00     0.089 N 
HETATM    7  S9  UNL     1     -35.185   5.936   3.671  1.00 20.00    -0.161 SA
HETATM    8  H24 UNL     1     -32.310   8.234   5.535  1.00 20.00     0.316 HD
ENDROOT
BRANCH   3   9
HETATM    9  C7  UNL     1     -31.688   8.081   3.049  1.00 20.00     0.032 C 
HETATM   10  C6  UNL     1     -31.891   8.605   1.667  1.00 20.00     0.007 C 
ENDBRANCH   3   9
TORSDOF 1
ENDMDL
MODEL 2
REMARK VINA RESULT:      -3.7      1.594      2.166
REMARK  1 active torsions:
REMARK  status: ('A' for Active; 'I' for Inactive)
REMARK    1  A    between atoms: C3_3  and  C7_7 
ROOT
HETATM    1  C1  UNL     1     -33.430   5.243   3.132  1.00 20.00     0.284 C 
HETATM    2  C2  UNL     1     -33.232   7.780   4.708  1.00 20.00     0.109 C 
HETATM    3  C3  UNL     1     -32.259   7.319   3.618  1.00 20.00     0.229 C 
HETATM    4  C4  UNL     1     -34.555   5.410   4.160  1.00 20.00     0.071 C 
HETATM    5  C5  UNL     1     -35.816   6.034   3.565  1.00 20.00     0.023 C 
HETATM    6  N8  UNL     1     -32.924   6.506   2.593  1.00 20.00     0.089 N 
HETATM    7  S9  UNL     1     -33.975   6.379   5.596  1.00 20.00    -0.161 SA
HETATM    8  H24 UNL     1     -32.260   6.300   1.845  1.00 20.00     0.316 HD
ENDROOT
BRANCH   3   9
HETATM    9  C7  UNL     1     -31.638   8.541   2.934  1.00 20.00     0.032 C 
HETATM   10  C6  UNL     1     -32.139   8.700   1.538  1.00 20.00     0.007 C 
ENDBRANCH   3   9
TORSDOF 1
ENDMDL
MODEL 3
REMARK VINA RESULT:      -3.7     11.988     12.760
REMARK  1 active torsions:
REMARK  status: ('A' for Active; 'I' for Inactive)
REMARK    1  A    between atoms: C3_3  and  C7_7 
ROOT
HETATM    1  C1  UNL     1     -35.866  13.308  -5.309  1.00 20.00     0.284 C 
HETATM    2  C2  UNL     1     -35.090  16.195  -5.478  1.00 20.00     0.109 C 
HETATM    3  C3  UNL     1     -35.198  15.365  -4.194  1.00 20.00     0.229 C 
HETATM    4  C4  UNL     1     -35.861  13.854  -6.741  1.00 20.00     0.071 C 
HETATM    5  C5  UNL     1     -34.545  13.595  -7.472  1.00 20.00     0.023 C 
HETATM    6  N8  UNL     1     -34.890  13.948  -4.425  1.00 20.00     0.089 N 
HETATM    7  S9  UNL     1     -36.262  15.637  -6.751  1.00 20.00    -0.161 SA
HETATM    8  H24 UNL     1     -34.886  13.456  -3.530  1.00 20.00     0.316 HD
ENDROOT
BRANCH   3   9
HETATM    9  C7  UNL     1     -34.218  15.905  -3.149  1.00 20.00     0.032 C 
HETATM   10  C6  UNL     1     -34.928  16.626  -2.053  1.00 20.00     0.007 C 
ENDBRANCH   3   9
TORSDOF 1
ENDMDL
MODEL 4
REMARK VINA RESULT:      -3.7     12.099     13.117
REMARK  1 active torsions:
REMARK  status: ('A' for Active; 'I' for Inactive)
REMARK    1  A    between atoms: C3_3  and  C7_7 
ROOT
HETATM    1  C1  UNL     1     -32.943  14.719  -4.399  1.00 20.00     0.284 C 
HETATM    2  C2  UNL     1     -34.449  16.253  -6.482  1.00 20.00     0.109 C 
HETATM    3  C3  UNL     1     -33.677  14.948  -6.707  1.00 20.00     0.229 C 
HETATM    4  C4  UNL     1     -33.601  15.993  -3.859  1.00 20.00     0.071 C 
HETATM    5  C5  UNL     1     -34.976  15.737  -3.244  1.00 20.00     0.023 C 
HETATM    6  N8  UNL     1     -33.667  14.099  -5.510  1.00 20.00     0.089 N 
HETATM    7  S9  UNL     1     -33.709  17.265  -5.166  1.00 20.00    -0.161 SA
HETATM    8  H24 UNL     1     -33.223  13.208  -5.734  1.00 20.00     0.316 HD
ENDROOT
BRANCH   3   9
HETATM    9  C7  UNL     1     -34.322  14.160  -7.850  1.00 20.00     0.032 C 
HETATM   10  C6  UNL     1     -35.181  13.054  -7.336  1.00 20.00     0.007 C 
ENDBRANCH   3   9
TORSDOF 1
ENDMDL
MODEL 5
REMARK VINA RESULT:      -3.5     11.969     12.897
REMARK  1 active torsions:
REMARK  status: ('A' for Active; 'I' for Inactive)
REMARK    1  A    between atoms: C3_3  and  C7_7 
ROOT
HETATM    1  C1  UNL     1     -32.989  15.512  -5.333  1.00 20.00     0.284 C 
HETATM    2  C2  UNL     1     -35.772  15.205  -4.274  1.00 20.00     0.109 C 
HETATM    3  C3  UNL     1     -34.540  15.617  -3.462  1.00 20.00     0.229 C 
HETATM    4  C4  UNL     1     -34.000  15.075  -6.399  1.00 20.00     0.071 C 
HETATM    5  C5  UNL     1     -34.573  16.250  -7.190  1.00 20.00     0.023 C 
HETATM    6  N8  UNL     1     -33.561  16.347  -4.276  1.00 20.00     0.089 N 
HETATM    7  S9  UNL     1     -35.344  14.092  -5.645  1.00 20.00    -0.161 SA
HETATM    8  H24 UNL     1     -32.804  16.678  -3.675  1.00 20.00     0.316 HD
ENDROOT
BRANCH   3   9
HETATM    9  C7  UNL     1     -34.968  16.520  -2.301  1.00 20.00     0.032 C 
HETATM   10  C6  UNL     1     -33.801  17.227  -1.698  1.00 20.00     0.007 C 
ENDBRANCH   3   9
TORSDOF 1
ENDMDL
MODEL 6
REMARK VINA RESULT:      -3.4     12.004     12.570
REMARK  1 active torsions:
REMARK  status: ('A' for Active; 'I' for Inactive)
REMARK    1  A    between atoms: C3_3  and  C7_7 
ROOT
HETATM    1  C1  UNL     1     -36.378  15.892  -4.998  1.00 20.00     0.284 C 
HETATM    2  C2  UNL     1     -33.495  15.553  -4.269  1.00 20.00     0.109 C 
HETATM    3  C3  UNL     1     -34.477  16.538  -3.626  1.00 20.00     0.229 C 
HETATM    4  C4  UNL     1     -35.660  14.829  -5.837  1.00 20.00     0.071 C 
HETATM    5  C5  UNL     1     -35.829  13.417  -5.279  1.00 20.00     0.023 C 
HETATM    6  N8  UNL     1     -35.855  16.033  -3.639  1.00 20.00     0.089 N 
HETATM    7  S9  UNL     1     -33.888  15.241  -6.015  1.00 20.00    -0.161 SA
HETATM    8  H24 UNL     1     -36.454  16.678  -3.122  1.00 20.00     0.316 HD
ENDROOT
BRANCH   3   9
HETATM    9  C7  UNL     1     -34.072  16.791  -2.171  1.00 20.00     0.032 C 
HETATM   10  C6  UNL     1     -35.264  16.986  -1.296  1.00 20.00     0.007 C 
ENDBRANCH   3   9
TORSDOF 1
ENDMDL
MODEL 7
REMARK VINA RESULT:      -3.4     11.963     12.519
REMARK  1 active torsions:
REMARK  status: ('A' for Active; 'I' for Inactive)
REMARK    1  A    between atoms: C3_3  and  C7_7 
ROOT
HETATM    1  C1  UNL     1     -36.702  16.105  -4.597  1.00 20.00     0.284 C 
HETATM    2  C2  UNL     1     -34.068  16.178  -3.177  1.00 20.00     0.109 C 
HETATM    3  C3  UNL     1     -35.355  16.871  -2.721  1.00 20.00     0.229 C 
HETATM    4  C4  UNL     1     -35.602  15.318  -5.316  1.00 20.00     0.071 C 
HETATM    5  C5  UNL     1     -35.603  13.832  -4.959  1.00 20.00     0.023 C 
HETATM    6  N8  UNL     1     -36.556  16.138  -3.141  1.00 20.00     0.089 N 
HETATM    7  S9  UNL     1     -33.963  16.057  -4.988  1.00 20.00    -0.161 SA
HETATM    8  H24 UNL     1     -37.381  16.586  -2.739  1.00 20.00     0.316 HD
ENDROOT
BRANCH   3   9
HETATM    9  C7  UNL     1     -35.368  16.978  -1.193  1.00 20.00     0.032 C 
HETATM   10  C6  UNL     1     -34.175  17.717  -0.686  1.00 20.00     0.007 C 
ENDBRANCH   3   9
TORSDOF 1
ENDMDL
MODEL 8
REMARK VINA RESULT:      -3.3     12.070     12.911
REMARK  1 active torsions:
REMARK  status: ('A' for Active; 'I' for Inactive)
REMARK    1  A    between atoms: C3_3  and  C7_7 
ROOT
HETATM    1  C1  UNL     1     -34.776  14.455  -4.709  1.00 20.00     0.284 C 
HETATM    2  C2  UNL     1     -35.551  17.304  -4.217  1.00 20.00     0.109 C 
HETATM    3  C3  UNL     1     -35.497  16.191  -3.166  1.00 20.00     0.229 C 
HETATM    4  C4  UNL     1     -34.742  15.321  -5.973  1.00 20.00     0.071 C 
HETATM    5  C5  UNL     1     -33.354  15.889  -6.268  1.00 20.00     0.023 C 
HETATM    6  N8  UNL     1     -34.473  15.186  -3.478  1.00 20.00     0.089 N 
HETATM    7  S9  UNL     1     -35.976  16.665  -5.865  1.00 20.00    -0.161 SA
HETATM    8  H24 UNL     1     -34.413  14.518  -2.707  1.00 20.00     0.316 HD
ENDROOT
BRANCH   3   9
HETATM    9  C7  UNL     1     -35.174  16.795  -1.795  1.00 20.00     0.032 C 
HETATM   10  C6  UNL     1     -33.749  17.227  -1.709  1.00 20.00     0.007 C 
ENDBRANCH   3   9
TORSDOF 1
ENDMDL
MODEL 9
REMARK VINA RESULT:      -3.2     11.676     12.995
REMARK  1 active torsions:
REMARK  status: ('A' for Active; 'I' for Inactive)
REMARK    1  A    between atoms: C3_3  and  C7_7 
ROOT
HETATM    1  C1  UNL     1     -34.429  14.086  -4.182  1.00 20.00     0.284 C 
HETATM    2  C2  UNL     1     -35.229  16.159  -6.188  1.00 20.00     0.109 C 
HETATM    3  C3  UNL     1     -35.919  14.809  -5.963  1.00 20.00     0.229 C 
HETATM    4  C4  UNL     1     -33.528  15.326  -4.167  1.00 20.00     0.071 C 
HETATM    5  C5  UNL     1     -33.956  16.359  -3.127  1.00 20.00     0.023 C 
HETATM    6  N8  UNL     1     -35.813  14.360  -4.570  1.00 20.00     0.089 N 
HETATM    7  S9  UNL     1     -33.449  16.082  -5.829  1.00 20.00    -0.161 SA
HETATM    8  H24 UNL     1     -36.362  13.508  -4.450  1.00 20.00     0.316 HD
ENDROOT
BRANCH   3   9
HETATM    9  C7  UNL     1     -37.404  14.927  -6.319  1.00 20.00     0.032 C 
HETATM   10  C6  UNL     1     -38.274  14.536  -5.172  1.00 20.00     0.007 C 
ENDBRANCH   3   9
TORSDOF 1
ENDMDL
