MODEL 1
REMARK VINA RESULT:      -4.8      0.000      0.000
REMARK  3 active torsions:
REMARK  status: ('A' for Active; 'I' for Inactive)
REMARK    1  A    between atoms: C3_3  and  C6_6 
REMARK    2  A    between atoms: C6_6  and  C8_8 
REMARK    3  A    between atoms: C7_7  and  C8_8 
ROOT
HETATM    1  C1  UNL     1     -33.979   6.677   5.447  1.00 20.00     0.111 C 
HETATM    2  C2  UNL     1     -34.294   5.925   4.155  1.00 20.00     0.227 C 
HETATM    3  C3  UNL     1     -32.479   7.223   3.349  1.00 20.00     0.282 C 
HETATM    4  C4  UNL     1     -34.802   4.515   4.440  1.00 20.00     0.043 C 
HETATM    5  N9  UNL     1     -33.056   5.870   3.356  1.00 20.00     0.102 N 
HETATM    6  S10 UNL     1     -32.919   8.038   4.912  1.00 20.00    -0.132 SA
HETATM    7  H27 UNL     1     -32.399   5.249   3.831  1.00 20.00     0.317 HD
ENDROOT
BRANCH   3   8
HETATM    8  C6  UNL     1     -32.996   8.030   2.163  1.00 20.00     0.046 C 
BRANCH   8   9
HETATM    9  C8  UNL     1     -31.914   8.950   1.602  1.00 20.00     0.002 C 
BRANCH   9  10
HETATM   10  C7  UNL     1     -32.520  10.040   0.719  1.00 20.00    -0.004 C 
HETATM   11  C5  UNL     1     -33.185   9.451  -0.515  1.00 20.00     0.005 C 
ENDBRANCH   9  10
ENDBRANCH   8   9
ENDBRANCH   3   8
TORSDOF 3
ENDMDL
MODEL 2
REMARK VINA RESULT:      -4.6      1.519      1.764
REMARK  3 active torsions:
REMARK  status: ('A' for Active; 'I' for Inactive)
REMARK    1  A    between atoms: C3_3  and  C6_6 
REMARK    2  A    between atoms: C6_6  and  C8_8 
REMARK    3  A    between atoms: C7_7  and  C8_8 
ROOT
HETATM    1  C1  UNL     1     -33.953   4.914   3.843  1.00 20.00     0.111 C 
HETATM    2  C2  UNL     1     -33.815   6.070   4.831  1.00 20.00     0.227 C 
HETATM    3  C3  UNL     1     -33.423   7.291   2.834  1.00 20.00     0.282 C 
HETATM    4  C4  UNL     1     -34.735   5.890   6.034  1.00 20.00     0.043 C 
HETATM    5  N9  UNL     1     -34.149   7.314   4.113  1.00 20.00     0.102 N 
HETATM    6  S10 UNL     1     -33.245   5.559   2.312  1.00 20.00    -0.132 SA
HETATM    7  H27 UNL     1     -35.150   7.304   3.909  1.00 20.00     0.317 HD
ENDROOT
BRANCH   3   8
HETATM    8  C6  UNL     1     -32.055   7.950   2.972  1.00 20.00     0.046 C 
BRANCH   8   9
HETATM    9  C8  UNL     1     -31.608   8.583   1.656  1.00 20.00     0.002 C 
BRANCH   9  10
HETATM   10  C7  UNL     1     -32.602   9.647   1.191  1.00 20.00    -0.004 C 
HETATM   11  C5  UNL     1     -32.992   9.447  -0.264  1.00 20.00     0.005 C 
ENDBRANCH   9  10
ENDBRANCH   8   9
ENDBRANCH   3   8
TORSDOF 3
ENDMDL
MODEL 3
REMARK VINA RESULT:      -4.2     10.559     11.636
REMARK  3 active torsions:
REMARK  status: ('A' for Active; 'I' for Inactive)
REMARK    1  A    between atoms: C3_3  and  C6_6 
REMARK    2  A    between atoms: C6_6  and  C8_8 
REMARK    3  A    between atoms: C7_7  and  C8_8 
ROOT
HETATM    1  C1  UNL     1     -35.954  14.576  -6.340  1.00 20.00     0.111 C 
HETATM    2  C2  UNL     1     -34.451  14.713  -6.569  1.00 20.00     0.227 C 
HETATM    3  C3  UNL     1     -34.403  14.442  -4.213  1.00 20.00     0.282 C 
HETATM    4  C4  UNL     1     -34.034  14.120  -7.911  1.00 20.00     0.043 C 
HETATM    5  N9  UNL     1     -33.765  14.015  -5.467  1.00 20.00     0.102 N 
HETATM    6  S10 UNL     1     -36.148  14.812  -4.559  1.00 20.00    -0.132 SA
HETATM    7  H27 UNL     1     -33.924  13.012  -5.577  1.00 20.00     0.317 HD
ENDROOT
BRANCH   3   8
HETATM    8  C6  UNL     1     -33.704  15.667  -3.634  1.00 20.00     0.046 C 
BRANCH   8   9
HETATM    9  C8  UNL     1     -34.704  16.629  -2.997  1.00 20.00     0.002 C 
BRANCH   9  10
HETATM   10  C7  UNL     1     -34.281  17.004  -1.577  1.00 20.00    -0.004 C 
HETATM   11  C5  UNL     1     -32.964  17.762  -1.570  1.00 20.00     0.005 C 
ENDBRANCH   9  10
ENDBRANCH   8   9
ENDBRANCH   3   8
TORSDOF 3
ENDMDL
MODEL 4
REMARK VINA RESULT:      -4.2      1.409      4.765
REMARK  3 active torsions:
REMARK  status: ('A' for Active; 'I' for Inactive)
REMARK    1  A    between atoms: C3_3  and  C6_6 
REMARK    2  A    between atoms: C6_6  and  C8_8 
REMARK    3  A    between atoms: C7_7  and  C8_8 
ROOT
HETATM    1  C1  UNL     1     -31.527   9.222   2.404  1.00 20.00     0.111 C 
HETATM    2  C2  UNL     1     -32.373   8.641   1.272  1.00 20.00     0.227 C 
HETATM    3  C3  UNL     1     -33.184   7.271   3.032  1.00 20.00     0.282 C 
HETATM    4  C4  UNL     1     -32.732   9.704   0.240  1.00 20.00     0.043 C 
HETATM    5  N9  UNL     1     -33.596   8.077   1.873  1.00 20.00     0.102 N 
HETATM    6  S10 UNL     1     -31.677   8.007   3.731  1.00 20.00    -0.132 SA
HETATM    7  H27 UNL     1     -34.168   8.851   2.214  1.00 20.00     0.317 HD
ENDROOT
BRANCH   3   8
HETATM    8  C6  UNL     1     -32.930   5.823   2.626  1.00 20.00     0.046 C 
BRANCH   8   9
HETATM    9  C8  UNL     1     -33.792   4.859   3.439  1.00 20.00     0.002 C 
BRANCH   9  10
HETATM   10  C7  UNL     1     -34.773   5.617   4.334  1.00 20.00    -0.004 C 
HETATM   11  C5  UNL     1     -34.621   5.215   5.792  1.00 20.00     0.005 C 
ENDBRANCH   9  10
ENDBRANCH   8   9
ENDBRANCH   3   8
TORSDOF 3
ENDMDL
MODEL 5
REMARK VINA RESULT:      -4.1      1.649      2.211
REMARK  3 active torsions:
REMARK  status: ('A' for Active; 'I' for Inactive)
REMARK    1  A    between atoms: C3_3  and  C6_6 
REMARK    2  A    between atoms: C6_6  and  C8_8 
REMARK    3  A    between atoms: C7_7  and  C8_8 
ROOT
HETATM    1  C1  UNL     1     -34.323   5.465   5.440  1.00 20.00     0.111 C 
HETATM    2  C2  UNL     1     -33.653   6.837   5.441  1.00 20.00     0.227 C 
HETATM    3  C3  UNL     1     -33.876   6.579   3.094  1.00 20.00     0.282 C 
HETATM    4  C4  UNL     1     -34.062   7.658   6.661  1.00 20.00     0.043 C 
HETATM    5  N9  UNL     1     -34.049   7.530   4.202  1.00 20.00     0.102 N 
HETATM    6  S10 UNL     1     -34.165   4.902   3.731  1.00 20.00    -0.132 SA
HETATM    7  H27 UNL     1     -35.042   7.759   4.270  1.00 20.00     0.317 HD
ENDROOT
BRANCH   3   8
HETATM    8  C6  UNL     1     -32.478   6.688   2.495  1.00 20.00     0.046 C 
BRANCH   8   9
HETATM    9  C8  UNL     1     -31.953   8.121   2.565  1.00 20.00     0.002 C 
BRANCH   9  10
HETATM   10  C7  UNL     1     -31.886   8.752   1.175  1.00 20.00    -0.004 C 
HETATM   11  C5  UNL     1     -32.664  10.056   1.117  1.00 20.00     0.005 C 
ENDBRANCH   9  10
ENDBRANCH   8   9
ENDBRANCH   3   8
TORSDOF 3
ENDMDL
MODEL 6
REMARK VINA RESULT:      -3.9      1.716      4.899
REMARK  3 active torsions:
REMARK  status: ('A' for Active; 'I' for Inactive)
REMARK    1  A    between atoms: C3_3  and  C6_6 
REMARK    2  A    between atoms: C6_6  and  C8_8 
REMARK    3  A    between atoms: C7_7  and  C8_8 
ROOT
HETATM    1  C1  UNL     1     -32.941   7.880   1.160  1.00 20.00     0.111 C 
HETATM    2  C2  UNL     1     -32.736   9.174   1.944  1.00 20.00     0.227 C 
HETATM    3  C3  UNL     1     -32.003   7.655   3.613  1.00 20.00     0.282 C 
HETATM    4  C4  UNL     1     -32.332  10.324   1.027  1.00 20.00     0.043 C 
HETATM    5  N9  UNL     1     -31.684   8.927   2.948  1.00 20.00     0.102 N 
HETATM    6  S10 UNL     1     -32.864   6.588   2.420  1.00 20.00    -0.132 SA
HETATM    7  H27 UNL     1     -30.796   8.812   2.456  1.00 20.00     0.317 HD
ENDROOT
BRANCH   3   8
HETATM    8  C6  UNL     1     -32.873   7.887   4.844  1.00 20.00     0.046 C 
BRANCH   8   9
HETATM    9  C8  UNL     1     -34.194   7.128   4.743  1.00 20.00     0.002 C 
BRANCH   9  10
HETATM   10  C7  UNL     1     -34.329   6.104   5.870  1.00 20.00    -0.004 C 
HETATM   11  C5  UNL     1     -34.601   4.711   5.326  1.00 20.00     0.005 C 
ENDBRANCH   9  10
ENDBRANCH   8   9
ENDBRANCH   3   8
TORSDOF 3
ENDMDL
MODEL 7
REMARK VINA RESULT:      -3.8     11.182     11.600
REMARK  3 active torsions:
REMARK  status: ('A' for Active; 'I' for Inactive)
REMARK    1  A    between atoms: C3_3  and  C6_6 
REMARK    2  A    between atoms: C6_6  and  C8_8 
REMARK    3  A    between atoms: C7_7  and  C8_8 
ROOT
HETATM    1  C1  UNL     1     -34.583  14.426  -6.021  1.00 20.00     0.111 C 
HETATM    2  C2  UNL     1     -35.571  14.556  -4.863  1.00 20.00     0.227 C 
HETATM    3  C3  UNL     1     -34.288  16.503  -4.426  1.00 20.00     0.282 C 
HETATM    4  C4  UNL     1     -36.947  14.015  -5.239  1.00 20.00     0.043 C 
HETATM    5  N9  UNL     1     -35.662  15.984  -4.511  1.00 20.00     0.102 N 
HETATM    6  S10 UNL     1     -33.254  15.570  -5.592  1.00 20.00    -0.132 SA
HETATM    7  H27 UNL     1     -36.136  16.470  -5.274  1.00 20.00     0.317 HD
ENDROOT
BRANCH   3   8
HETATM    8  C6  UNL     1     -33.743  16.372  -3.008  1.00 20.00     0.046 C 
BRANCH   8   9
HETATM    9  C8  UNL     1     -34.760  16.853  -1.974  1.00 20.00     0.002 C 
BRANCH   9  10
HETATM   10  C7  UNL     1     -34.072  17.595  -0.828  1.00 20.00    -0.004 C 
HETATM   11  C5  UNL     1     -32.755  18.209  -1.273  1.00 20.00     0.005 C 
ENDBRANCH   9  10
ENDBRANCH   8   9
ENDBRANCH   3   8
TORSDOF 3
ENDMDL
MODEL 8
REMARK VINA RESULT:      -3.8     11.215     11.922
REMARK  3 active torsions:
REMARK  status: ('A' for Active; 'I' for Inactive)
REMARK    1  A    between atoms: C3_3  and  C6_6 
REMARK    2  A    between atoms: C6_6  and  C8_8 
REMARK    3  A    between atoms: C7_7  and  C8_8 
ROOT
HETATM    1  C1  UNL     1     -33.418  15.920  -6.252  1.00 20.00     0.111 C 
HETATM    2  C2  UNL     1     -34.283  14.808  -5.662  1.00 20.00     0.227 C 
HETATM    3  C3  UNL     1     -35.073  16.593  -4.314  1.00 20.00     0.282 C 
HETATM    4  C4  UNL     1     -34.653  13.770  -6.717  1.00 20.00     0.043 C 
HETATM    5  N9  UNL     1     -35.499  15.432  -5.110  1.00 20.00     0.102 N 
HETATM    6  S10 UNL     1     -33.553  17.262  -5.051  1.00 20.00    -0.132 SA
HETATM    7  H27 UNL     1     -36.063  15.773  -5.889  1.00 20.00     0.317 HD
ENDROOT
BRANCH   3   8
HETATM    8  C6  UNL     1     -34.832  16.199  -2.860  1.00 20.00     0.046 C 
BRANCH   8   9
HETATM    9  C8  UNL     1     -33.617  16.922  -2.283  1.00 20.00     0.002 C 
BRANCH   9  10
HETATM   10  C7  UNL     1     -33.969  17.635  -0.978  1.00 20.00    -0.004 C 
HETATM   11  C5  UNL     1     -35.388  17.319  -0.536  1.00 20.00     0.005 C 
ENDBRANCH   9  10
ENDBRANCH   8   9
ENDBRANCH   3   8
TORSDOF 3
ENDMDL
MODEL 9
REMARK VINA RESULT:      -3.6     11.158     11.582
REMARK  3 active torsions:
REMARK  status: ('A' for Active; 'I' for Inactive)
REMARK    1  A    between atoms: C3_3  and  C6_6 
REMARK    2  A    between atoms: C6_6  and  C8_8 
REMARK    3  A    between atoms: C7_7  and  C8_8 
ROOT
HETATM    1  C1  UNL     1     -33.082  19.056   2.867  1.00 20.00     0.111 C 
HETATM    2  C2  UNL     1     -32.076  18.602   1.811  1.00 20.00     0.227 C 
HETATM    3  C3  UNL     1     -33.881  19.103   0.355  1.00 20.00     0.282 C 
HETATM    4  C4  UNL     1     -30.647  18.958   2.211  1.00 20.00     0.043 C 
HETATM    5  N9  UNL     1     -32.431  19.262   0.542  1.00 20.00     0.102 N 
HETATM    6  S10 UNL     1     -34.663  19.051   1.995  1.00 20.00    -0.132 SA
HETATM    7  H27 UNL     1     -32.231  20.259   0.635  1.00 20.00     0.317 HD
ENDROOT
BRANCH   3   8
HETATM    8  C6  UNL     1     -34.195  17.832  -0.426  1.00 20.00     0.046 C 
BRANCH   8   9
HETATM    9  C8  UNL     1     -33.235  17.649  -1.599  1.00 20.00     0.002 C 
BRANCH   9  10
HETATM   10  C7  UNL     1     -33.799  16.666  -2.625  1.00 20.00    -0.004 C 
HETATM   11  C5  UNL     1     -35.296  16.474  -2.448  1.00 20.00     0.005 C 
ENDBRANCH   9  10
ENDBRANCH   8   9
ENDBRANCH   3   8
TORSDOF 3
ENDMDL
