MODEL 1
REMARK VINA RESULT:      -4.5      0.000      0.000
REMARK  0 active torsions:
REMARK  status: ('A' for Active; 'I' for Inactive)
ROOT
HETATM    1  C1  UNL     1     -32.483   8.223   2.228  1.00 20.00     0.125 C 
HETATM    2  C2  UNL     1     -33.593   7.201   4.282  1.00 20.00     0.074 A 
HETATM    3  C3  UNL     1     -33.815   5.184   3.354  1.00 20.00     0.167 A 
HETATM    4  C4  UNL     1     -33.085   7.208   3.002  1.00 20.00     0.156 A 
HETATM    5  C5  UNL     1     -34.067   5.887   4.509  1.00 20.00     0.059 A 
HETATM    6  N6  UNL     1     -31.989   9.058   1.591  1.00 20.00    -0.189 NA
HETATM    7  O7  UNL     1     -33.217   5.982   2.431  1.00 20.00    -0.310 OA
HETATM    8 CL8  UNL     1     -34.793   5.325   5.932  1.00 20.00    -0.082 Cl
ENDROOT
TORSDOF 0
ENDMDL
MODEL 2
REMARK VINA RESULT:      -4.5      1.199      1.522
REMARK  0 active torsions:
REMARK  status: ('A' for Active; 'I' for Inactive)
ROOT
HETATM    1  C1  UNL     1     -32.282   8.160   2.046  1.00 20.00     0.125 C 
HETATM    2  C2  UNL     1     -33.478   6.087   2.921  1.00 20.00     0.074 A 
HETATM    3  C3  UNL     1     -33.744   6.915   4.976  1.00 20.00     0.167 A 
HETATM    4  C4  UNL     1     -32.938   7.351   2.998  1.00 20.00     0.156 A 
HETATM    5  C5  UNL     1     -34.001   5.805   4.205  1.00 20.00     0.059 A 
HETATM    6  N6  UNL     1     -31.742   8.824   1.262  1.00 20.00    -0.189 NA
HETATM    7  O7  UNL     1     -33.097   7.861   4.248  1.00 20.00    -0.310 OA
HETATM    8 CL8  UNL     1     -34.783   4.375   4.668  1.00 20.00    -0.082 Cl
ENDROOT
TORSDOF 0
ENDMDL
MODEL 3
REMARK VINA RESULT:      -4.3      3.423      4.131
REMARK  0 active torsions:
REMARK  status: ('A' for Active; 'I' for Inactive)
ROOT
HETATM    1  C1  UNL     1     -34.174   6.210   4.316  1.00 20.00     0.125 C 
HETATM    2  C2  UNL     1     -33.162   7.314   2.254  1.00 20.00     0.074 A 
HETATM    3  C3  UNL     1     -31.605   8.415   3.412  1.00 20.00     0.167 A 
HETATM    4  C4  UNL     1     -33.280   7.032   3.596  1.00 20.00     0.156 A 
HETATM    5  C5  UNL     1     -32.075   8.212   2.135  1.00 20.00     0.059 A 
HETATM    6  N6  UNL     1     -34.908   5.533   4.907  1.00 20.00    -0.189 NA
HETATM    7  O7  UNL     1     -32.335   7.700   4.308  1.00 20.00    -0.310 OA
HETATM    8 CL8  UNL     1     -31.492   8.882   0.694  1.00 20.00    -0.082 Cl
ENDROOT
TORSDOF 0
ENDMDL
MODEL 4
REMARK VINA RESULT:      -3.8     11.469     11.730
REMARK  0 active torsions:
REMARK  status: ('A' for Active; 'I' for Inactive)
ROOT
HETATM    1  C1  UNL     1     -35.601  13.727  -4.916  1.00 20.00     0.125 C 
HETATM    2  C2  UNL     1     -34.086  15.294  -3.595  1.00 20.00     0.074 A 
HETATM    3  C3  UNL     1     -35.766  16.583  -2.892  1.00 20.00     0.167 A 
HETATM    4  C4  UNL     1     -35.282  14.825  -4.087  1.00 20.00     0.156 A 
HETATM    5  C5  UNL     1     -34.400  16.435  -2.819  1.00 20.00     0.059 A 
HETATM    6  N6  UNL     1     -35.862  12.825  -5.597  1.00 20.00    -0.189 NA
HETATM    7  O7  UNL     1     -36.311  15.606  -3.663  1.00 20.00    -0.310 OA
HETATM    8 CL8  UNL     1     -33.292  17.403  -1.981  1.00 20.00    -0.082 Cl
ENDROOT
TORSDOF 0
ENDMDL
MODEL 5
REMARK VINA RESULT:      -3.7     11.677     12.156
REMARK  0 active torsions:
REMARK  status: ('A' for Active; 'I' for Inactive)
ROOT
HETATM    1  C1  UNL     1     -35.381  13.813  -4.938  1.00 20.00     0.125 C 
HETATM    2  C2  UNL     1     -34.551  15.594  -3.315  1.00 20.00     0.074 A 
HETATM    3  C3  UNL     1     -33.364  16.678  -4.863  1.00 20.00     0.167 A 
HETATM    4  C4  UNL     1     -34.671  14.965  -4.533  1.00 20.00     0.156 A 
HETATM    5  C5  UNL     1     -33.702  16.706  -3.530  1.00 20.00     0.059 A 
HETATM    6  N6  UNL     1     -35.964  12.866  -5.270  1.00 20.00    -0.189 NA
HETATM    7  O7  UNL     1     -33.950  15.619  -5.482  1.00 20.00    -0.310 OA
HETATM    8 CL8  UNL     1     -33.219  17.829  -2.358  1.00 20.00    -0.082 Cl
ENDROOT
TORSDOF 0
ENDMDL
MODEL 6
REMARK VINA RESULT:      -3.5     11.758     12.152
REMARK  0 active torsions:
REMARK  status: ('A' for Active; 'I' for Inactive)
ROOT
HETATM    1  C1  UNL     1     -38.749  15.340  -4.450  1.00 20.00     0.125 C 
HETATM    2  C2  UNL     1     -36.219  15.315  -4.143  1.00 20.00     0.074 A 
HETATM    3  C3  UNL     1     -35.944  13.399  -5.255  1.00 20.00     0.167 A 
HETATM    4  C4  UNL     1     -37.435  14.841  -4.582  1.00 20.00     0.156 A 
HETATM    5  C5  UNL     1     -35.252  14.379  -4.580  1.00 20.00     0.059 A 
HETATM    6  N6  UNL     1     -39.829  15.750  -4.341  1.00 20.00    -0.189 NA
HETATM    7  O7  UNL     1     -37.275  13.674  -5.260  1.00 20.00    -0.310 OA
HETATM    8 CL8  UNL     1     -33.583  14.475  -4.311  1.00 20.00    -0.082 Cl
ENDROOT
TORSDOF 0
ENDMDL
MODEL 7
REMARK VINA RESULT:      -3.4      1.900      2.299
REMARK  0 active torsions:
REMARK  status: ('A' for Active; 'I' for Inactive)
ROOT
HETATM    1  C1  UNL     1     -32.518   8.900   0.753  1.00 20.00     0.125 C 
HETATM    2  C2  UNL     1     -33.532   7.700   2.760  1.00 20.00     0.074 A 
HETATM    3  C3  UNL     1     -31.777   8.094   4.082  1.00 20.00     0.167 A 
HETATM    4  C4  UNL     1     -32.571   8.410   2.076  1.00 20.00     0.156 A 
HETATM    5  C5  UNL     1     -33.016   7.495   4.062  1.00 20.00     0.059 A 
HETATM    6  N6  UNL     1     -32.475   9.302  -0.335  1.00 20.00    -0.189 NA
HETATM    7  O7  UNL     1     -31.499   8.654   2.876  1.00 20.00    -0.310 OA
HETATM    8 CL8  UNL     1     -33.794   6.673   5.321  1.00 20.00    -0.082 Cl
ENDROOT
TORSDOF 0
ENDMDL
MODEL 8
REMARK VINA RESULT:      -3.4     11.825     11.949
REMARK  0 active torsions:
REMARK  status: ('A' for Active; 'I' for Inactive)
ROOT
HETATM    1  C1  UNL     1     -32.306  18.080  -0.815  1.00 20.00     0.125 C 
HETATM    2  C2  UNL     1     -33.692  16.815  -2.539  1.00 20.00     0.074 A 
HETATM    3  C3  UNL     1     -35.592  17.004  -1.384  1.00 20.00     0.167 A 
HETATM    4  C4  UNL     1     -33.470  17.506  -1.370  1.00 20.00     0.156 A 
HETATM    5  C5  UNL     1     -35.069  16.489  -2.548  1.00 20.00     0.059 A 
HETATM    6  N6  UNL     1     -31.348  18.551  -0.360  1.00 20.00    -0.189 NA
HETATM    7  O7  UNL     1     -34.624  17.625  -0.660  1.00 20.00    -0.310 OA
HETATM    8 CL8  UNL     1     -35.881  15.636  -3.764  1.00 20.00    -0.082 Cl
ENDROOT
TORSDOF 0
ENDMDL
MODEL 9
REMARK VINA RESULT:      -3.2     12.200     12.393
REMARK  0 active torsions:
REMARK  status: ('A' for Active; 'I' for Inactive)
ROOT
HETATM    1  C1  UNL     1     -31.398  18.908   0.816  1.00 20.00     0.125 C 
HETATM    2  C2  UNL     1     -33.739  18.151   0.152  1.00 20.00     0.074 A 
HETATM    3  C3  UNL     1     -33.224  17.917  -2.006  1.00 20.00     0.167 A 
HETATM    4  C4  UNL     1     -32.418  18.476  -0.059  1.00 20.00     0.156 A 
HETATM    5  C5  UNL     1     -34.261  17.788  -1.112  1.00 20.00     0.059 A 
HETATM    6  N6  UNL     1     -30.560  19.263   1.535  1.00 20.00    -0.189 NA
HETATM    7  O7  UNL     1     -32.097  18.336  -1.372  1.00 20.00    -0.310 OA
HETATM    8 CL8  UNL     1     -35.851  17.297  -1.427  1.00 20.00    -0.082 Cl
ENDROOT
TORSDOF 0
ENDMDL
