MODEL 1
REMARK VINA RESULT:      -4.5      0.000      0.000
REMARK  2 active torsions:
REMARK  status: ('A' for Active; 'I' for Inactive)
REMARK    1  A    between atoms: C3_3  and  C7_7 
REMARK    2  A    between atoms: C7_7  and  C8_8 
ROOT
HETATM    1  C1  UNL     1     -34.769   5.074   6.061  1.00 20.00     0.012 C 
HETATM    2  C2  UNL     1     -34.267   6.019   5.516  1.00 20.00    -0.116 C 
HETATM    3  C8  UNL     1     -33.657   7.179   4.860  1.00 20.00     0.113 C 
ENDROOT
BRANCH   3   4
HETATM    4  C7  UNL     1     -33.235   6.840   3.403  1.00 20.00     0.058 C 
HETATM    5  C5  UNL     1     -34.396   6.389   2.462  1.00 20.00     0.021 C 
HETATM    6  C4  UNL     1     -33.474   5.287   1.912  1.00 20.00     0.003 C 
HETATM    7  C6  UNL     1     -32.639   5.412   3.197  1.00 20.00     0.021 C 
BRANCH   4   8
HETATM    8  C3  UNL     1     -32.368   7.953   2.810  1.00 20.00     0.182 C 
HETATM    9  O9  UNL     1     -32.807   8.470   1.745  1.00 20.00    -0.647 OA
HETATM   10  O10 UNL     1     -31.320   8.214   3.464  1.00 20.00    -0.647 OA
ENDBRANCH   4   8
ENDBRANCH   3   4
TORSDOF 2
ENDMDL
MODEL 2
REMARK VINA RESULT:      -4.4      2.367      3.691
REMARK  2 active torsions:
REMARK  status: ('A' for Active; 'I' for Inactive)
REMARK    1  A    between atoms: C3_3  and  C7_7 
REMARK    2  A    between atoms: C7_7  and  C8_8 
ROOT
HETATM    1  C1  UNL     1     -31.436   8.396   3.236  1.00 20.00     0.012 C 
HETATM    2  C2  UNL     1     -32.377   7.715   2.929  1.00 20.00    -0.116 C 
HETATM    3  C8  UNL     1     -33.526   6.889   2.545  1.00 20.00     0.113 C 
ENDROOT
BRANCH   3   4
HETATM    4  C7  UNL     1     -33.931   5.925   3.695  1.00 20.00     0.058 C 
HETATM    5  C5  UNL     1     -35.407   6.058   4.186  1.00 20.00     0.021 C 
HETATM    6  C4  UNL     1     -34.897   5.948   5.634  1.00 20.00     0.003 C 
HETATM    7  C6  UNL     1     -33.511   6.383   5.128  1.00 20.00     0.021 C 
BRANCH   4   8
HETATM    8  C3  UNL     1     -33.524   4.485   3.372  1.00 20.00     0.182 C 
HETATM    9  O9  UNL     1     -32.695   4.359   2.428  1.00 20.00    -0.647 OA
HETATM   10  O10 UNL     1     -34.071   3.605   4.093  1.00 20.00    -0.647 OA
ENDBRANCH   4   8
ENDBRANCH   3   4
TORSDOF 2
ENDMDL
MODEL 3
REMARK VINA RESULT:      -4.4      1.646      2.637
REMARK  2 active torsions:
REMARK  status: ('A' for Active; 'I' for Inactive)
REMARK    1  A    between atoms: C3_3  and  C7_7 
REMARK    2  A    between atoms: C7_7  and  C8_8 
ROOT
HETATM    1  C1  UNL     1     -34.697   5.062   5.602  1.00 20.00     0.012 C 
HETATM    2  C2  UNL     1     -34.219   6.105   5.248  1.00 20.00    -0.116 C 
HETATM    3  C8  UNL     1     -33.639   7.383   4.826  1.00 20.00     0.113 C 
ENDROOT
BRANCH   3   4
HETATM    4  C7  UNL     1     -33.086   7.295   3.376  1.00 20.00     0.058 C 
HETATM    5  C5  UNL     1     -31.576   7.657   3.216  1.00 20.00     0.021 C 
HETATM    6  C4  UNL     1     -31.938   8.454   1.951  1.00 20.00     0.003 C 
HETATM    7  C6  UNL     1     -33.383   8.533   2.473  1.00 20.00     0.021 C 
BRANCH   4   8
HETATM    8  C3  UNL     1     -33.464   5.961   2.725  1.00 20.00     0.182 C 
HETATM    9  O9  UNL     1     -32.589   5.055   2.806  1.00 20.00    -0.647 OA
HETATM   10  O10 UNL     1     -34.607   5.939   2.189  1.00 20.00    -0.647 OA
ENDBRANCH   4   8
ENDBRANCH   3   4
TORSDOF 2
ENDMDL
MODEL 4
REMARK VINA RESULT:      -4.4     11.400     12.392
REMARK  2 active torsions:
REMARK  status: ('A' for Active; 'I' for Inactive)
REMARK    1  A    between atoms: C3_3  and  C7_7 
REMARK    2  A    between atoms: C7_7  and  C8_8 
ROOT
HETATM    1  C1  UNL     1     -35.236  16.707  -2.231  1.00 20.00     0.012 C 
HETATM    2  C2  UNL     1     -34.827  15.891  -3.011  1.00 20.00    -0.116 C 
HETATM    3  C8  UNL     1     -34.318  14.894  -3.958  1.00 20.00     0.113 C 
ENDROOT
BRANCH   3   4
HETATM    4  C7  UNL     1     -35.209  14.824  -5.230  1.00 20.00     0.058 C 
HETATM    5  C5  UNL     1     -34.435  14.819  -6.585  1.00 20.00     0.021 C 
HETATM    6  C4  UNL     1     -35.474  15.808  -7.142  1.00 20.00     0.003 C 
HETATM    7  C6  UNL     1     -35.820  16.185  -5.691  1.00 20.00     0.021 C 
BRANCH   4   8
HETATM    8  C3  UNL     1     -36.242  13.700  -5.114  1.00 20.00     0.182 C 
HETATM    9  O9  UNL     1     -35.812  12.543  -5.379  1.00 20.00    -0.647 OA
HETATM   10  O10 UNL     1     -37.397  14.075  -4.768  1.00 20.00    -0.647 OA
ENDBRANCH   4   8
ENDBRANCH   3   4
TORSDOF 2
ENDMDL
MODEL 5
REMARK VINA RESULT:      -4.3     11.454     12.160
REMARK  2 active torsions:
REMARK  status: ('A' for Active; 'I' for Inactive)
REMARK    1  A    between atoms: C3_3  and  C7_7 
REMARK    2  A    between atoms: C7_7  and  C8_8 
ROOT
HETATM    1  C1  UNL     1     -34.054  17.112  -1.724  1.00 20.00     0.012 C 
HETATM    2  C2  UNL     1     -34.764  16.465  -2.445  1.00 20.00    -0.116 C 
HETATM    3  C8  UNL     1     -35.638  15.676  -3.317  1.00 20.00     0.113 C 
ENDROOT
BRANCH   3   4
HETATM    4  C7  UNL     1     -34.879  15.196  -4.585  1.00 20.00     0.058 C 
HETATM    5  C5  UNL     1     -33.403  14.747  -4.346  1.00 20.00     0.021 C 
HETATM    6  C4  UNL     1     -33.003  15.502  -5.626  1.00 20.00     0.003 C 
HETATM    7  C6  UNL     1     -34.290  16.333  -5.479  1.00 20.00     0.021 C 
BRANCH   4   8
HETATM    8  C3  UNL     1     -35.708  14.174  -5.367  1.00 20.00     0.182 C 
HETATM    9  O9  UNL     1     -36.446  14.656  -6.270  1.00 20.00    -0.647 OA
HETATM   10  O10 UNL     1     -35.546  12.974  -5.007  1.00 20.00    -0.647 OA
ENDBRANCH   4   8
ENDBRANCH   3   4
TORSDOF 2
ENDMDL
MODEL 6
REMARK VINA RESULT:      -4.3     11.484     12.222
REMARK  2 active torsions:
REMARK  status: ('A' for Active; 'I' for Inactive)
REMARK    1  A    between atoms: C3_3  and  C7_7 
REMARK    2  A    between atoms: C7_7  and  C8_8 
ROOT
HETATM    1  C1  UNL     1     -34.101  17.041  -1.851  1.00 20.00     0.012 C 
HETATM    2  C2  UNL     1     -34.799  16.364  -2.554  1.00 20.00    -0.116 C 
HETATM    3  C8  UNL     1     -35.660  15.537  -3.405  1.00 20.00     0.113 C 
ENDROOT
BRANCH   3   4
HETATM    4  C7  UNL     1     -34.918  15.106  -4.701  1.00 20.00     0.058 C 
HETATM    5  C5  UNL     1     -33.426  14.692  -4.507  1.00 20.00     0.021 C 
HETATM    6  C4  UNL     1     -33.077  15.485  -5.778  1.00 20.00     0.003 C 
HETATM    7  C6  UNL     1     -34.381  16.277  -5.582  1.00 20.00     0.021 C 
BRANCH   4   8
HETATM    8  C3  UNL     1     -35.738  14.078  -5.486  1.00 20.00     0.182 C 
HETATM    9  O9  UNL     1     -35.622  12.884  -5.095  1.00 20.00    -0.647 OA
HETATM   10  O10 UNL     1     -36.427  14.559  -6.429  1.00 20.00    -0.647 OA
ENDBRANCH   4   8
ENDBRANCH   3   4
TORSDOF 2
ENDMDL
MODEL 7
REMARK VINA RESULT:      -4.3      1.966      3.566
REMARK  2 active torsions:
REMARK  status: ('A' for Active; 'I' for Inactive)
REMARK    1  A    between atoms: C3_3  and  C7_7 
REMARK    2  A    between atoms: C7_7  and  C8_8 
ROOT
HETATM    1  C1  UNL     1     -31.775   8.767   1.167  1.00 20.00     0.012 C 
HETATM    2  C2  UNL     1     -31.948   8.416   2.302  1.00 20.00    -0.116 C 
HETATM    3  C8  UNL     1     -32.150   7.993   3.691  1.00 20.00     0.113 C 
ENDROOT
BRANCH   3   4
HETATM    4  C7  UNL     1     -33.249   6.899   3.788  1.00 20.00     0.058 C 
HETATM    5  C5  UNL     1     -32.906   5.547   3.089  1.00 20.00     0.021 C 
HETATM    6  C4  UNL     1     -34.341   5.509   2.535  1.00 20.00     0.003 C 
HETATM    7  C6  UNL     1     -34.413   7.030   2.755  1.00 20.00     0.021 C 
BRANCH   4   8
HETATM    8  C3  UNL     1     -33.731   6.734   5.232  1.00 20.00     0.182 C 
HETATM    9  O9  UNL     1     -34.440   5.712   5.449  1.00 20.00    -0.647 OA
HETATM   10  O10 UNL     1     -33.358   7.644   6.023  1.00 20.00    -0.647 OA
ENDBRANCH   4   8
ENDBRANCH   3   4
TORSDOF 2
ENDMDL
MODEL 8
REMARK VINA RESULT:      -4.1     11.007     12.601
REMARK  2 active torsions:
REMARK  status: ('A' for Active; 'I' for Inactive)
REMARK    1  A    between atoms: C3_3  and  C7_7 
REMARK    2  A    between atoms: C7_7  and  C8_8 
ROOT
HETATM    1  C1  UNL     1     -34.309  15.626  -7.806  1.00 20.00     0.012 C 
HETATM    2  C2  UNL     1     -33.849  15.970  -6.752  1.00 20.00    -0.116 C 
HETATM    3  C8  UNL     1     -33.279  16.395  -5.470  1.00 20.00     0.113 C 
ENDROOT
BRANCH   3   4
HETATM    4  C7  UNL     1     -34.035  15.744  -4.278  1.00 20.00     0.058 C 
HETATM    5  C5  UNL     1     -35.511  16.215  -4.090  1.00 20.00     0.021 C 
HETATM    6  C4  UNL     1     -35.256  16.291  -2.574  1.00 20.00     0.003 C 
HETATM    7  C6  UNL     1     -33.752  16.382  -2.881  1.00 20.00     0.021 C 
BRANCH   4   8
HETATM    8  C3  UNL     1     -33.878  14.222  -4.296  1.00 20.00     0.182 C 
HETATM    9  O9  UNL     1     -32.693  13.800  -4.190  1.00 20.00    -0.647 OA
HETATM   10  O10 UNL     1     -34.959  13.579  -4.416  1.00 20.00    -0.647 OA
ENDBRANCH   4   8
ENDBRANCH   3   4
TORSDOF 2
ENDMDL
MODEL 9
REMARK VINA RESULT:      -4.1     11.511     13.078
REMARK  2 active torsions:
REMARK  status: ('A' for Active; 'I' for Inactive)
REMARK    1  A    between atoms: C3_3  and  C7_7 
REMARK    2  A    between atoms: C7_7  and  C8_8 
ROOT
HETATM    1  C1  UNL     1     -33.823  17.311  -7.380  1.00 20.00     0.012 C 
HETATM    2  C2  UNL     1     -34.558  16.385  -7.172  1.00 20.00    -0.116 C 
HETATM    3  C8  UNL     1     -35.459  15.255  -6.927  1.00 20.00     0.113 C 
ENDROOT
BRANCH   3   4
HETATM    4  C7  UNL     1     -35.484  14.874  -5.421  1.00 20.00     0.058 C 
HETATM    5  C5  UNL     1     -35.737  16.060  -4.439  1.00 20.00     0.021 C 
HETATM    6  C4  UNL     1     -34.635  15.493  -3.526  1.00 20.00     0.003 C 
HETATM    7  C6  UNL     1     -34.083  14.736  -4.745  1.00 20.00     0.021 C 
BRANCH   4   8
HETATM    8  C3  UNL     1     -36.400  13.673  -5.174  1.00 20.00     0.182 C 
HETATM    9  O9  UNL     1     -37.601  13.957  -4.909  1.00 20.00    -0.647 OA
HETATM   10  O10 UNL     1     -35.835  12.547  -5.266  1.00 20.00    -0.647 OA
ENDBRANCH   4   8
ENDBRANCH   3   4
TORSDOF 2
ENDMDL
