MODEL 1
REMARK VINA RESULT:      -3.9      0.000      0.000
REMARK  1 active torsions:
REMARK  status: ('A' for Active; 'I' for Inactive)
REMARK    1  A    between atoms: C2_2  and  C8_8 
ROOT
HETATM    1  C1  UNL     1     -34.993  14.085  -5.008  1.00 20.00     0.284 C 
HETATM    2  C2  UNL     1     -34.504  16.158  -3.817  1.00 20.00     0.233 C 
HETATM    3  C3  UNL     1     -34.103  14.361  -6.222  1.00 20.00     0.071 C 
HETATM    4  C4  UNL     1     -33.541  16.724  -4.885  1.00 20.00     0.076 C 
HETATM    5  C5  UNL     1     -34.637  13.650  -7.462  1.00 20.00     0.023 C 
HETATM    6  C6  UNL     1     -33.513  18.252  -4.918  1.00 20.00     0.023 C 
HETATM    7  N9  UNL     1     -34.482  14.688  -3.779  1.00 20.00     0.090 N 
HETATM    8  S10 UNL     1     -34.027  16.152  -6.557  1.00 20.00    -0.156 SA
HETATM    9  H27 UNL     1     -35.051  14.363  -2.996  1.00 20.00     0.316 HD
ENDROOT
BRANCH   2  10
HETATM   10  C8  UNL     1     -34.141  16.635  -2.406  1.00 20.00     0.032 C 
HETATM   11  C7  UNL     1     -35.359  16.825  -1.567  1.00 20.00     0.007 C 
ENDBRANCH   2  10
TORSDOF 1
ENDMDL
MODEL 2
REMARK VINA RESULT:      -3.9      2.251      2.881
REMARK  1 active torsions:
REMARK  status: ('A' for Active; 'I' for Inactive)
REMARK    1  A    between atoms: C2_2  and  C8_8 
ROOT
HETATM    1  C1  UNL     1     -37.374  16.295  -3.982  1.00 20.00     0.284 C 
HETATM    2  C2  UNL     1     -34.990  16.304  -3.459  1.00 20.00     0.233 C 
HETATM    3  C3  UNL     1     -37.446  14.846  -4.469  1.00 20.00     0.071 C 
HETATM    4  C4  UNL     1     -34.736  14.840  -3.886  1.00 20.00     0.076 C 
HETATM    5  C5  UNL     1     -38.570  14.668  -5.486  1.00 20.00     0.023 C 
HETATM    6  C6  UNL     1     -33.308  14.599  -4.380  1.00 20.00     0.023 C 
HETATM    7  N9  UNL     1     -36.357  16.499  -2.952  1.00 20.00     0.090 N 
HETATM    8  S10 UNL     1     -35.869  14.361  -5.245  1.00 20.00    -0.156 SA
HETATM    9  H27 UNL     1     -36.449  17.449  -2.589  1.00 20.00     0.316 HD
ENDROOT
BRANCH   2  10
HETATM   10  C8  UNL     1     -34.044  16.747  -2.339  1.00 20.00     0.032 C 
HETATM   11  C7  UNL     1     -34.797  17.145  -1.116  1.00 20.00     0.007 C 
ENDBRANCH   2  10
TORSDOF 1
ENDMDL
MODEL 3
REMARK VINA RESULT:      -3.8      1.635      4.101
REMARK  1 active torsions:
REMARK  status: ('A' for Active; 'I' for Inactive)
REMARK    1  A    between atoms: C2_2  and  C8_8 
ROOT
HETATM    1  C1  UNL     1     -33.162  14.971  -4.291  1.00 20.00     0.284 C 
HETATM    2  C2  UNL     1     -33.961  14.941  -6.597  1.00 20.00     0.233 C 
HETATM    3  C3  UNL     1     -34.267  15.869  -3.730  1.00 20.00     0.071 C 
HETATM    4  C4  UNL     1     -35.184  15.851  -6.346  1.00 20.00     0.076 C 
HETATM    5  C5  UNL     1     -33.769  16.654  -2.519  1.00 20.00     0.023 C 
HETATM    6  C6  UNL     1     -35.593  16.660  -7.578  1.00 20.00     0.023 C 
HETATM    7  N9  UNL     1     -33.614  14.145  -5.409  1.00 20.00     0.090 N 
HETATM    8  S10 UNL     1     -34.831  17.047  -5.002  1.00 20.00    -0.156 SA
HETATM    9  H27 UNL     1     -32.870  13.489  -5.650  1.00 20.00     0.316 HD
ENDROOT
BRANCH   2  10
HETATM   10  C8  UNL     1     -34.211  13.942  -7.731  1.00 20.00     0.032 C 
HETATM   11  C7  UNL     1     -35.238  12.930  -7.348  1.00 20.00     0.007 C 
ENDBRANCH   2  10
TORSDOF 1
ENDMDL
MODEL 4
REMARK VINA RESULT:      -3.8     11.670     12.571
REMARK  1 active torsions:
REMARK  status: ('A' for Active; 'I' for Inactive)
REMARK    1  A    between atoms: C2_2  and  C8_8 
ROOT
HETATM    1  C1  UNL     1     -33.360   7.057   1.759  1.00 20.00     0.284 C 
HETATM    2  C2  UNL     1     -34.344   6.470   3.914  1.00 20.00     0.233 C 
HETATM    3  C3  UNL     1     -32.069   7.665   2.311  1.00 20.00     0.071 C 
HETATM    4  C4  UNL     1     -33.174   7.011   4.767  1.00 20.00     0.076 C 
HETATM    5  C5  UNL     1     -31.516   8.724   1.360  1.00 20.00     0.023 C 
HETATM    6  C6  UNL     1     -33.612   7.483   6.155  1.00 20.00     0.023 C 
HETATM    7  N9  UNL     1     -33.890   5.986   2.601  1.00 20.00     0.090 N 
HETATM    8  S10 UNL     1     -32.376   8.435   3.935  1.00 20.00    -0.156 SA
HETATM    9  H27 UNL     1     -34.673   5.547   2.115  1.00 20.00     0.316 HD
ENDROOT
BRANCH   2  10
HETATM   10  C8  UNL     1     -35.051   5.291   4.591  1.00 20.00     0.032 C 
HETATM   11  C7  UNL     1     -34.252   4.037   4.473  1.00 20.00     0.007 C 
ENDBRANCH   2  10
TORSDOF 1
ENDMDL
MODEL 5
REMARK VINA RESULT:      -3.6      1.590      1.933
REMARK  1 active torsions:
REMARK  status: ('A' for Active; 'I' for Inactive)
REMARK    1  A    between atoms: C2_2  and  C8_8 
ROOT
HETATM    1  C1  UNL     1     -33.717  14.444  -4.807  1.00 20.00     0.284 C 
HETATM    2  C2  UNL     1     -35.021  15.801  -3.253  1.00 20.00     0.233 C 
HETATM    3  C3  UNL     1     -34.376  14.957  -6.089  1.00 20.00     0.071 C 
HETATM    4  C4  UNL     1     -35.871  16.501  -4.338  1.00 20.00     0.076 C 
HETATM    5  C5  UNL     1     -34.322  13.900  -7.189  1.00 20.00     0.023 C 
HETATM    6  C6  UNL     1     -37.256  16.915  -3.841  1.00 20.00     0.023 C 
HETATM    7  N9  UNL     1     -33.681  15.449  -3.745  1.00 20.00     0.090 N 
HETATM    8  S10 UNL     1     -36.119  15.391  -5.775  1.00 20.00    -0.156 SA
HETATM    9  H27 UNL     1     -33.123  15.084  -2.972  1.00 20.00     0.316 HD
ENDROOT
BRANCH   2  10
HETATM   10  C8  UNL     1     -34.813  16.693  -2.024  1.00 20.00     0.032 C 
HETATM   11  C7  UNL     1     -33.445  17.286  -2.009  1.00 20.00     0.007 C 
ENDBRANCH   2  10
TORSDOF 1
ENDMDL
MODEL 6
REMARK VINA RESULT:      -3.6      1.709      4.495
REMARK  1 active torsions:
REMARK  status: ('A' for Active; 'I' for Inactive)
REMARK    1  A    between atoms: C2_2  and  C8_8 
ROOT
HETATM    1  C1  UNL     1     -33.427  16.033  -4.313  1.00 20.00     0.284 C 
HETATM    2  C2  UNL     1     -35.006  14.840  -5.740  1.00 20.00     0.233 C 
HETATM    3  C3  UNL     1     -34.257  15.965  -3.030  1.00 20.00     0.071 C 
HETATM    4  C4  UNL     1     -36.065  14.613  -4.638  1.00 20.00     0.076 C 
HETATM    5  C5  UNL     1     -33.942  17.144  -2.113  1.00 20.00     0.023 C 
HETATM    6  C6  UNL     1     -37.490  14.520  -5.186  1.00 20.00     0.023 C 
HETATM    7  N9  UNL     1     -33.642  14.885  -5.192  1.00 20.00     0.090 N 
HETATM    8  S10 UNL     1     -36.037  15.987  -3.426  1.00 20.00    -0.156 SA
HETATM    9  H27 UNL     1     -32.972  14.934  -5.960  1.00 20.00     0.316 HD
ENDROOT
BRANCH   2  10
HETATM   10  C8  UNL     1     -35.017  13.720  -6.786  1.00 20.00     0.032 C 
HETATM   11  C7  UNL     1     -34.095  14.024  -7.918  1.00 20.00     0.007 C 
ENDBRANCH   2  10
TORSDOF 1
ENDMDL
MODEL 7
REMARK VINA RESULT:      -3.4      1.948      2.386
REMARK  1 active torsions:
REMARK  status: ('A' for Active; 'I' for Inactive)
REMARK    1  A    between atoms: C2_2  and  C8_8 
ROOT
HETATM    1  C1  UNL     1     -36.617  16.614  -5.230  1.00 20.00     0.284 C 
HETATM    2  C2  UNL     1     -34.601  16.299  -3.890  1.00 20.00     0.233 C 
HETATM    3  C3  UNL     1     -36.673  15.197  -5.806  1.00 20.00     0.071 C 
HETATM    4  C4  UNL     1     -34.379  14.824  -4.296  1.00 20.00     0.076 C 
HETATM    5  C5  UNL     1     -37.364  15.189  -7.167  1.00 20.00     0.023 C 
HETATM    6  C6  UNL     1     -32.907  14.408  -4.262  1.00 20.00     0.023 C 
HETATM    7  N9  UNL     1     -36.027  16.661  -3.893  1.00 20.00     0.090 N 
HETATM    8  S10 UNL     1     -34.989  14.526  -5.998  1.00 20.00    -0.156 SA
HETATM    9  H27 UNL     1     -36.135  17.607  -3.524  1.00 20.00     0.316 HD
ENDROOT
BRANCH   2  10
HETATM   10  C8  UNL     1     -34.081  16.591  -2.479  1.00 20.00     0.032 C 
HETATM   11  C7  UNL     1     -35.202  16.818  -1.523  1.00 20.00     0.007 C 
ENDBRANCH   2  10
TORSDOF 1
ENDMDL
MODEL 8
REMARK VINA RESULT:      -3.4      1.925      4.004
REMARK  1 active torsions:
REMARK  status: ('A' for Active; 'I' for Inactive)
REMARK    1  A    between atoms: C2_2  and  C8_8 
ROOT
HETATM    1  C1  UNL     1     -35.664  16.168  -2.765  1.00 20.00     0.284 C 
HETATM    2  C2  UNL     1     -36.120  14.711  -4.669  1.00 20.00     0.233 C 
HETATM    3  C3  UNL     1     -34.377  16.785  -3.315  1.00 20.00     0.071 C 
HETATM    4  C4  UNL     1     -34.876  15.133  -5.483  1.00 20.00     0.076 C 
HETATM    5  C5  UNL     1     -33.452  17.219  -2.180  1.00 20.00     0.023 C 
HETATM    6  C6  UNL     1     -34.365  14.030  -6.412  1.00 20.00     0.023 C 
HETATM    7  N9  UNL     1     -36.613  15.802  -3.814  1.00 20.00     0.090 N 
HETATM    8  S10 UNL     1     -33.496  15.582  -4.364  1.00 20.00    -0.156 SA
HETATM    9  H27 UNL     1     -37.489  15.515  -3.375  1.00 20.00     0.316 HD
ENDROOT
BRANCH   2  10
HETATM   10  C8  UNL     1     -37.288  14.306  -5.574  1.00 20.00     0.032 C 
HETATM   11  C7  UNL     1     -38.593  14.755  -5.011  1.00 20.00     0.007 C 
ENDBRANCH   2  10
TORSDOF 1
ENDMDL
MODEL 9
REMARK VINA RESULT:      -3.4      2.310      3.075
REMARK  1 active torsions:
REMARK  status: ('A' for Active; 'I' for Inactive)
REMARK    1  A    between atoms: C2_2  and  C8_8 
ROOT
HETATM    1  C1  UNL     1     -36.384  16.477  -3.450  1.00 20.00     0.284 C 
HETATM    2  C2  UNL     1     -35.292  17.901  -1.796  1.00 20.00     0.233 C 
HETATM    3  C3  UNL     1     -35.212  15.515  -3.660  1.00 20.00     0.071 C 
HETATM    4  C4  UNL     1     -33.955  17.126  -1.787  1.00 20.00     0.076 C 
HETATM    5  C5  UNL     1     -35.246  14.913  -5.062  1.00 20.00     0.023 C 
HETATM    6  C6  UNL     1     -32.754  18.006  -1.438  1.00 20.00     0.023 C 
HETATM    7  N9  UNL     1     -36.434  17.024  -2.096  1.00 20.00     0.090 N 
HETATM    8  S10 UNL     1     -33.628  16.389  -3.433  1.00 20.00    -0.156 SA
HETATM    9  H27 UNL     1     -37.301  17.553  -1.991  1.00 20.00     0.316 HD
ENDROOT
BRANCH   2  10
HETATM   10  C8  UNL     1     -35.587  18.552  -0.440  1.00 20.00     0.032 C 
HETATM   11  C7  UNL     1     -35.708  17.530   0.638  1.00 20.00     0.007 C 
ENDBRANCH   2  10
TORSDOF 1
ENDMDL
