MODEL 1
REMARK VINA RESULT:      -4.1      0.000      0.000
REMARK  1 active torsions:
REMARK  status: ('A' for Active; 'I' for Inactive)
REMARK    1  A    between atoms: C4_4  and  C7_7 
ROOT
HETATM    1  C1  UNL     1     -34.975   5.970   3.933  1.00 20.00     0.109 C 
HETATM    2  C2  UNL     1     -32.631   5.919   2.463  1.00 20.00     0.109 C 
HETATM    3  C3  UNL     1     -34.320   7.116   4.723  1.00 20.00     0.226 C 
HETATM    4  C4  UNL     1     -32.944   7.402   2.708  1.00 20.00     0.230 C 
HETATM    5  C5  UNL     1     -34.037   6.703   6.173  1.00 20.00     0.043 C 
HETATM    6  N8  UNL     1     -33.097   7.683   4.136  1.00 20.00     0.093 N 
HETATM    7  S9  UNL     1     -33.774   4.768   3.294  1.00 20.00    -0.165 SA
HETATM    8  H24 UNL     1     -33.096   8.698   4.284  1.00 20.00     0.316 HD
ENDROOT
BRANCH   4   9
HETATM    9  C7  UNL     1     -31.805   8.270   2.167  1.00 20.00     0.032 C 
HETATM   10  C6  UNL     1     -32.261   9.126   1.033  1.00 20.00     0.007 C 
ENDBRANCH   4   9
TORSDOF 1
ENDMDL
MODEL 2
REMARK VINA RESULT:      -3.6     11.488     12.365
REMARK  1 active torsions:
REMARK  status: ('A' for Active; 'I' for Inactive)
REMARK    1  A    between atoms: C4_4  and  C7_7 
ROOT
HETATM    1  C1  UNL     1     -34.041  14.434  -5.660  1.00 20.00     0.109 C 
HETATM    2  C2  UNL     1     -35.234  15.598  -3.451  1.00 20.00     0.109 C 
HETATM    3  C3  UNL     1     -33.315  15.778  -5.833  1.00 20.00     0.226 C 
HETATM    4  C4  UNL     1     -33.771  16.066  -3.436  1.00 20.00     0.230 C 
HETATM    5  C5  UNL     1     -33.767  16.496  -7.112  1.00 20.00     0.043 C 
HETATM    6  N8  UNL     1     -33.408  16.710  -4.699  1.00 20.00     0.093 N 
HETATM    7  S9  UNL     1     -35.686  14.604  -4.910  1.00 20.00    -0.165 SA
HETATM    8  H24 UNL     1     -32.509  17.190  -4.589  1.00 20.00     0.316 HD
ENDROOT
BRANCH   4   9
HETATM    9  C7  UNL     1     -33.558  17.073  -2.304  1.00 20.00     0.032 C 
HETATM   10  C6  UNL     1     -34.705  17.075  -1.351  1.00 20.00     0.007 C 
ENDBRANCH   4   9
TORSDOF 1
ENDMDL
MODEL 3
REMARK VINA RESULT:      -3.5     11.509     12.229
REMARK  1 active torsions:
REMARK  status: ('A' for Active; 'I' for Inactive)
REMARK    1  A    between atoms: C4_4  and  C7_7 
ROOT
HETATM    1  C1  UNL     1     -35.547  15.700  -6.322  1.00 20.00     0.109 C 
HETATM    2  C2  UNL     1     -33.246  16.351  -4.928  1.00 20.00     0.109 C 
HETATM    3  C3  UNL     1     -35.954  14.923  -5.060  1.00 20.00     0.226 C 
HETATM    4  C4  UNL     1     -34.394  16.433  -3.911  1.00 20.00     0.230 C 
HETATM    5  C5  UNL     1     -35.996  13.412  -5.325  1.00 20.00     0.043 C 
HETATM    6  N8  UNL     1     -35.146  15.179  -3.858  1.00 20.00     0.093 N 
HETATM    7  S9  UNL     1     -33.750  15.756  -6.576  1.00 20.00    -0.165 SA
HETATM    8  H24 UNL     1     -35.762  15.187  -3.038  1.00 20.00     0.316 HD
ENDROOT
BRANCH   4   9
HETATM    9  C7  UNL     1     -33.833  16.716  -2.516  1.00 20.00     0.032 C 
HETATM   10  C6  UNL     1     -34.923  16.912  -1.517  1.00 20.00     0.007 C 
ENDBRANCH   4   9
TORSDOF 1
ENDMDL
MODEL 4
REMARK VINA RESULT:      -3.5     11.443     12.082
REMARK  1 active torsions:
REMARK  status: ('A' for Active; 'I' for Inactive)
REMARK    1  A    between atoms: C4_4  and  C7_7 
ROOT
HETATM    1  C1  UNL     1     -35.776  13.327  -5.694  1.00 20.00     0.109 C 
HETATM    2  C2  UNL     1     -36.345  15.522  -4.107  1.00 20.00     0.109 C 
HETATM    3  C3  UNL     1     -34.465  14.056  -6.032  1.00 20.00     0.226 C 
HETATM    4  C4  UNL     1     -34.849  15.237  -3.912  1.00 20.00     0.230 C 
HETATM    5  C5  UNL     1     -34.423  14.474  -7.508  1.00 20.00     0.043 C 
HETATM    6  N8  UNL     1     -34.141  15.220  -5.194  1.00 20.00     0.093 N 
HETATM    7  S9  UNL     1     -37.152  14.460  -5.349  1.00 20.00    -0.165 SA
HETATM    8  H24 UNL     1     -33.130  15.236  -5.023  1.00 20.00     0.316 HD
ENDROOT
BRANCH   4   9
HETATM    9  C7  UNL     1     -34.223  16.321  -3.032  1.00 20.00     0.032 C 
HETATM   10  C6  UNL     1     -35.123  16.697  -1.904  1.00 20.00     0.007 C 
ENDBRANCH   4   9
TORSDOF 1
ENDMDL
MODEL 5
REMARK VINA RESULT:      -3.4     11.032     11.907
REMARK  1 active torsions:
REMARK  status: ('A' for Active; 'I' for Inactive)
REMARK    1  A    between atoms: C4_4  and  C7_7 
ROOT
HETATM    1  C1  UNL     1     -36.660  15.098  -5.950  1.00 20.00     0.109 C 
HETATM    2  C2  UNL     1     -34.745  14.456  -4.057  1.00 20.00     0.109 C 
HETATM    3  C3  UNL     1     -37.380  15.832  -4.806  1.00 20.00     0.226 C 
HETATM    4  C4  UNL     1     -35.153  15.908  -3.770  1.00 20.00     0.230 C 
HETATM    5  C5  UNL     1     -38.710  15.152  -4.456  1.00 20.00     0.043 C 
HETATM    6  N8  UNL     1     -36.599  16.024  -3.574  1.00 20.00     0.093 N 
HETATM    7  S9  UNL     1     -35.707  13.659  -5.385  1.00 20.00    -0.165 SA
HETATM    8  H24 UNL     1     -36.815  16.947  -3.184  1.00 20.00     0.316 HD
ENDROOT
BRANCH   4   9
HETATM    9  C7  UNL     1     -34.455  16.402  -2.501  1.00 20.00     0.032 C 
HETATM   10  C6  UNL     1     -35.439  16.876  -1.485  1.00 20.00     0.007 C 
ENDBRANCH   4   9
TORSDOF 1
ENDMDL
MODEL 6
REMARK VINA RESULT:      -3.3     11.474     12.091
REMARK  1 active torsions:
REMARK  status: ('A' for Active; 'I' for Inactive)
REMARK    1  A    between atoms: C4_4  and  C7_7 
ROOT
HETATM    1  C1  UNL     1     -33.214  17.978  -2.312  1.00 20.00     0.109 C 
HETATM    2  C2  UNL     1     -33.585  17.057  -4.895  1.00 20.00     0.109 C 
HETATM    3  C3  UNL     1     -34.196  16.869  -1.898  1.00 20.00     0.226 C 
HETATM    4  C4  UNL     1     -33.517  15.807  -4.006  1.00 20.00     0.230 C 
HETATM    5  C5  UNL     1     -35.506  17.457  -1.358  1.00 20.00     0.043 C 
HETATM    6  N8  UNL     1     -34.506  15.867  -2.928  1.00 20.00     0.093 N 
HETATM    7  S9  UNL     1     -33.537  18.630  -3.976  1.00 20.00    -0.165 SA
HETATM    8  H24 UNL     1     -34.581  14.946  -2.485  1.00 20.00     0.316 HD
ENDROOT
BRANCH   4   9
HETATM    9  C7  UNL     1     -33.797  14.557  -4.844  1.00 20.00     0.032 C 
HETATM   10  C6  UNL     1     -35.171  14.031  -4.601  1.00 20.00     0.007 C 
ENDBRANCH   4   9
TORSDOF 1
ENDMDL
MODEL 7
REMARK VINA RESULT:      -3.2     11.437     12.274
REMARK  1 active torsions:
REMARK  status: ('A' for Active; 'I' for Inactive)
REMARK    1  A    between atoms: C4_4  and  C7_7 
ROOT
HETATM    1  C1  UNL     1     -33.183  15.054  -4.711  1.00 20.00     0.109 C 
HETATM    2  C2  UNL     1     -35.158  15.403  -6.617  1.00 20.00     0.109 C 
HETATM    3  C3  UNL     1     -34.316  15.179  -3.679  1.00 20.00     0.226 C 
HETATM    4  C4  UNL     1     -35.767  14.495  -5.539  1.00 20.00     0.230 C 
HETATM    5  C5  UNL     1     -34.167  16.454  -2.839  1.00 20.00     0.043 C 
HETATM    6  N8  UNL     1     -35.684  15.112  -4.215  1.00 20.00     0.093 N 
HETATM    7  S9  UNL     1     -33.487  16.012  -6.222  1.00 20.00    -0.165 SA
HETATM    8  H24 UNL     1     -36.273  14.590  -3.559  1.00 20.00     0.316 HD
ENDROOT
BRANCH   4   9
HETATM    9  C7  UNL     1     -37.241  14.230  -5.854  1.00 20.00     0.032 C 
HETATM   10  C6  UNL     1     -38.134  14.778  -4.792  1.00 20.00     0.007 C 
ENDBRANCH   4   9
TORSDOF 1
ENDMDL
MODEL 8
REMARK VINA RESULT:      -3.2      1.665      2.188
REMARK  1 active torsions:
REMARK  status: ('A' for Active; 'I' for Inactive)
REMARK    1  A    between atoms: C4_4  and  C7_7 
ROOT
HETATM    1  C1  UNL     1     -33.907   5.678   5.005  1.00 20.00     0.109 C 
HETATM    2  C2  UNL     1     -32.588   8.086   4.660  1.00 20.00     0.109 C 
HETATM    3  C3  UNL     1     -34.341   5.836   3.539  1.00 20.00     0.226 C 
HETATM    4  C4  UNL     1     -32.374   7.297   3.360  1.00 20.00     0.230 C 
HETATM    5  C5  UNL     1     -35.856   6.048   3.426  1.00 20.00     0.043 C 
HETATM    6  N8  UNL     1     -33.650   6.885   2.774  1.00 20.00     0.093 N 
HETATM    7  S9  UNL     1     -33.687   7.265   5.860  1.00 20.00    -0.165 SA
HETATM    8  H24 UNL     1     -33.491   6.549   1.818  1.00 20.00     0.316 HD
ENDROOT
BRANCH   4   9
HETATM    9  C7  UNL     1     -31.634   8.166   2.341  1.00 20.00     0.032 C 
HETATM   10  C6  UNL     1     -32.578   9.024   1.567  1.00 20.00     0.007 C 
ENDBRANCH   4   9
TORSDOF 1
ENDMDL
MODEL 9
REMARK VINA RESULT:      -3.2     11.170     11.998
REMARK  1 active torsions:
REMARK  status: ('A' for Active; 'I' for Inactive)
REMARK    1  A    between atoms: C4_4  and  C7_7 
ROOT
HETATM    1  C1  UNL     1     -35.529  14.293  -4.915  1.00 20.00     0.109 C 
HETATM    2  C2  UNL     1     -36.446  16.868  -4.479  1.00 20.00     0.109 C 
HETATM    3  C3  UNL     1     -34.412  14.645  -3.918  1.00 20.00     0.226 C 
HETATM    4  C4  UNL     1     -35.992  16.344  -3.109  1.00 20.00     0.230 C 
HETATM    5  C5  UNL     1     -33.042  14.687  -4.607  1.00 20.00     0.043 C 
HETATM    6  N8  UNL     1     -34.602  15.885  -3.150  1.00 20.00     0.093 N 
HETATM    7  S9  UNL     1     -36.116  15.727  -5.862  1.00 20.00    -0.165 SA
HETATM    8  H24 UNL     1     -34.265  15.739  -2.193  1.00 20.00     0.316 HD
ENDROOT
BRANCH   4   9
HETATM    9  C7  UNL     1     -36.099  17.457  -2.065  1.00 20.00     0.032 C 
HETATM   10  C6  UNL     1     -35.313  17.136  -0.839  1.00 20.00     0.007 C 
ENDBRANCH   4   9
TORSDOF 1
ENDMDL
