MODEL 1
REMARK VINA RESULT:      -5.3      0.000      0.000
REMARK  3 active torsions:
REMARK  status: ('A' for Active; 'I' for Inactive)
REMARK    1  A    between atoms: C4_4  and  C7_7 
REMARK    2  A    between atoms: C7_7  and  O10_10 
REMARK    3  A    between atoms: C8_8  and  O10_10 
ROOT
HETATM    1  C1  UNL     1     -33.800   6.885   5.252  1.00 20.00     0.071 C 
HETATM    2  C2  UNL     1     -34.475   4.599   4.431  1.00 20.00     0.028 A 
HETATM    3  C3  UNL     1     -35.509   5.572   3.944  1.00 20.00     0.028 A 
HETATM    4  C4  UNL     1     -34.078   6.028   4.129  1.00 20.00     0.070 A 
HETATM    5  N9  UNL     1     -33.576   7.577   6.156  1.00 20.00    -0.196 NA
ENDROOT
BRANCH   4   6
HETATM    6  C7  UNL     1     -33.254   6.288   2.900  1.00 20.00     0.192 C 
BRANCH   6   7
HETATM    7  O10 UNL     1     -33.343   7.665   2.554  1.00 20.00    -0.385 OA
BRANCH   7   8
HETATM    8  C8  UNL     1     -32.087   8.177   2.133  1.00 20.00     0.113 C 
HETATM    9  C5  UNL     1     -32.312   9.427   1.295  1.00 20.00     0.039 C 
HETATM   10  C6  UNL     1     -31.226   8.461   3.354  1.00 20.00     0.039 C 
ENDBRANCH   7   8
ENDBRANCH   6   7
ENDBRANCH   4   6
TORSDOF 3
ENDMDL
MODEL 2
REMARK VINA RESULT:      -5.0      1.032      1.128
REMARK  3 active torsions:
REMARK  status: ('A' for Active; 'I' for Inactive)
REMARK    1  A    between atoms: C4_4  and  C7_7 
REMARK    2  A    between atoms: C7_7  and  O10_10 
REMARK    3  A    between atoms: C8_8  and  O10_10 
ROOT
HETATM    1  C1  UNL     1     -33.599   7.120   5.045  1.00 20.00     0.071 C 
HETATM    2  C2  UNL     1     -34.097   5.002   3.771  1.00 20.00     0.028 A 
HETATM    3  C3  UNL     1     -35.131   6.015   3.375  1.00 20.00     0.028 A 
HETATM    4  C4  UNL     1     -33.743   6.473   3.767  1.00 20.00     0.070 A 
HETATM    5  N9  UNL     1     -33.483   7.642   6.074  1.00 20.00    -0.196 NA
ENDROOT
BRANCH   4   6
HETATM    6  C7  UNL     1     -32.833   6.978   2.683  1.00 20.00     0.192 C 
BRANCH   6   7
HETATM    7  O10 UNL     1     -32.835   8.401   2.688  1.00 20.00    -0.385 OA
BRANCH   7   8
HETATM    8  C8  UNL     1     -32.690   8.925   1.376  1.00 20.00     0.113 C 
HETATM    9  C5  UNL     1     -32.905  10.430   1.412  1.00 20.00     0.039 C 
HETATM   10  C6  UNL     1     -31.314   8.561   0.839  1.00 20.00     0.039 C 
ENDBRANCH   7   8
ENDBRANCH   6   7
ENDBRANCH   4   6
TORSDOF 3
ENDMDL
MODEL 3
REMARK VINA RESULT:      -4.8      1.237      1.791
REMARK  3 active torsions:
REMARK  status: ('A' for Active; 'I' for Inactive)
REMARK    1  A    between atoms: C4_4  and  C7_7 
REMARK    2  A    between atoms: C7_7  and  O10_10 
REMARK    3  A    between atoms: C8_8  and  O10_10 
ROOT
HETATM    1  C1  UNL     1     -33.495   7.067   4.637  1.00 20.00     0.071 C 
HETATM    2  C2  UNL     1     -33.113   5.204   2.981  1.00 20.00     0.028 A 
HETATM    3  C3  UNL     1     -34.312   5.977   2.515  1.00 20.00     0.028 A 
HETATM    4  C4  UNL     1     -33.213   6.684   3.277  1.00 20.00     0.070 A 
HETATM    5  N9  UNL     1     -33.722   7.377   5.731  1.00 20.00    -0.196 NA
ENDROOT
BRANCH   4   6
HETATM    6  C7  UNL     1     -32.315   7.620   2.518  1.00 20.00     0.192 C 
BRANCH   6   7
HETATM    7  O10 UNL     1     -33.072   8.733   2.057  1.00 20.00    -0.385 OA
BRANCH   7   8
HETATM    8  C8  UNL     1     -32.369   9.463   1.062  1.00 20.00     0.113 C 
HETATM    9  C5  UNL     1     -33.001   9.196  -0.295  1.00 20.00     0.039 C 
HETATM   10  C6  UNL     1     -32.391  10.943   1.416  1.00 20.00     0.039 C 
ENDBRANCH   7   8
ENDBRANCH   6   7
ENDBRANCH   4   6
TORSDOF 3
ENDMDL
MODEL 4
REMARK VINA RESULT:      -4.8      1.797      2.075
REMARK  3 active torsions:
REMARK  status: ('A' for Active; 'I' for Inactive)
REMARK    1  A    between atoms: C4_4  and  C7_7 
REMARK    2  A    between atoms: C7_7  and  O10_10 
REMARK    3  A    between atoms: C8_8  and  O10_10 
ROOT
HETATM    1  C1  UNL     1     -33.302   4.981   2.959  1.00 20.00     0.071 C 
HETATM    2  C2  UNL     1     -35.472   5.769   3.972  1.00 20.00     0.028 A 
HETATM    3  C3  UNL     1     -34.497   5.581   5.096  1.00 20.00     0.028 A 
HETATM    4  C4  UNL     1     -33.995   5.983   3.727  1.00 20.00     0.070 A 
HETATM    5  N9  UNL     1     -32.743   4.175   2.340  1.00 20.00    -0.196 NA
ENDROOT
BRANCH   4   6
HETATM    6  C7  UNL     1     -33.506   7.392   3.538  1.00 20.00     0.192 C 
BRANCH   6   7
HETATM    7  O10 UNL     1     -33.223   7.614   2.162  1.00 20.00    -0.385 OA
BRANCH   7   8
HETATM    8  C8  UNL     1     -32.017   8.345   1.991  1.00 20.00     0.113 C 
HETATM    9  C5  UNL     1     -32.336   9.697   1.371  1.00 20.00     0.039 C 
HETATM   10  C6  UNL     1     -31.322   8.488   3.336  1.00 20.00     0.039 C 
ENDBRANCH   7   8
ENDBRANCH   6   7
ENDBRANCH   4   6
TORSDOF 3
ENDMDL
MODEL 5
REMARK VINA RESULT:      -4.6      1.995      2.710
REMARK  3 active torsions:
REMARK  status: ('A' for Active; 'I' for Inactive)
REMARK    1  A    between atoms: C4_4  and  C7_7 
REMARK    2  A    between atoms: C7_7  and  O10_10 
REMARK    3  A    between atoms: C8_8  and  O10_10 
ROOT
HETATM    1  C1  UNL     1     -33.018   5.709   2.999  1.00 20.00     0.071 C 
HETATM    2  C2  UNL     1     -34.364   7.505   4.149  1.00 20.00     0.028 A 
HETATM    3  C3  UNL     1     -33.142   7.258   4.985  1.00 20.00     0.028 A 
HETATM    4  C4  UNL     1     -33.078   7.063   3.486  1.00 20.00     0.070 A 
HETATM    5  N9  UNL     1     -32.968   4.619   2.608  1.00 20.00    -0.196 NA
ENDROOT
BRANCH   4   6
HETATM    6  C7  UNL     1     -32.318   8.074   2.674  1.00 20.00     0.192 C 
BRANCH   6   7
HETATM    7  O10 UNL     1     -32.958   8.246   1.415  1.00 20.00    -0.385 OA
BRANCH   7   8
HETATM    8  C8  UNL     1     -32.432   9.363   0.713  1.00 20.00     0.113 C 
HETATM    9  C5  UNL     1     -33.059   9.425  -0.671  1.00 20.00     0.039 C 
HETATM   10  C6  UNL     1     -32.699  10.630   1.513  1.00 20.00     0.039 C 
ENDBRANCH   7   8
ENDBRANCH   6   7
ENDBRANCH   4   6
TORSDOF 3
ENDMDL
MODEL 6
REMARK VINA RESULT:      -4.5      2.019      4.181
REMARK  3 active torsions:
REMARK  status: ('A' for Active; 'I' for Inactive)
REMARK    1  A    between atoms: C4_4  and  C7_7 
REMARK    2  A    between atoms: C7_7  and  O10_10 
REMARK    3  A    between atoms: C8_8  and  O10_10 
ROOT
HETATM    1  C1  UNL     1     -32.821   5.796   2.575  1.00 20.00     0.071 C 
HETATM    2  C2  UNL     1     -31.583   7.946   3.025  1.00 20.00     0.028 A 
HETATM    3  C3  UNL     1     -32.479   8.185   1.845  1.00 20.00     0.028 A 
HETATM    4  C4  UNL     1     -32.891   7.195   2.912  1.00 20.00     0.070 A 
HETATM    5  N9  UNL     1     -32.766   4.670   2.303  1.00 20.00    -0.196 NA
ENDROOT
BRANCH   4   6
HETATM    6  C7  UNL     1     -34.010   7.578   3.839  1.00 20.00     0.192 C 
BRANCH   6   7
HETATM    7  O10 UNL     1     -34.831   6.443   4.085  1.00 20.00    -0.385 OA
BRANCH   7   8
HETATM    8  C8  UNL     1     -34.819   6.082   5.459  1.00 20.00     0.113 C 
HETATM    9  C5  UNL     1     -34.419   4.620   5.589  1.00 20.00     0.039 C 
HETATM   10  C6  UNL     1     -33.866   6.998   6.211  1.00 20.00     0.039 C 
ENDBRANCH   7   8
ENDBRANCH   6   7
ENDBRANCH   4   6
TORSDOF 3
ENDMDL
MODEL 7
REMARK VINA RESULT:      -4.4      1.496      2.000
REMARK  3 active torsions:
REMARK  status: ('A' for Active; 'I' for Inactive)
REMARK    1  A    between atoms: C4_4  and  C7_7 
REMARK    2  A    between atoms: C7_7  and  O10_10 
REMARK    3  A    between atoms: C8_8  and  O10_10 
ROOT
HETATM    1  C1  UNL     1     -34.185   4.850   4.201  1.00 20.00     0.071 C 
HETATM    2  C2  UNL     1     -34.772   7.301   4.276  1.00 20.00     0.028 A 
HETATM    3  C3  UNL     1     -33.655   7.078   5.253  1.00 20.00     0.028 A 
HETATM    4  C4  UNL     1     -33.754   6.211   4.017  1.00 20.00     0.070 A 
HETATM    5  N9  UNL     1     -34.531   3.753   4.349  1.00 20.00    -0.196 NA
ENDROOT
BRANCH   4   6
HETATM    6  C7  UNL     1     -32.751   6.427   2.919  1.00 20.00     0.192 C 
BRANCH   6   7
HETATM    7  O10 UNL     1     -33.135   7.554   2.141  1.00 20.00    -0.385 OA
BRANCH   7   8
HETATM    8  C8  UNL     1     -32.026   8.397   1.864  1.00 20.00     0.113 C 
HETATM    9  C5  UNL     1     -32.527   9.702   1.265  1.00 20.00     0.039 C 
HETATM   10  C6  UNL     1     -31.239   8.627   3.145  1.00 20.00     0.039 C 
ENDBRANCH   7   8
ENDBRANCH   6   7
ENDBRANCH   4   6
TORSDOF 3
ENDMDL
MODEL 8
REMARK VINA RESULT:      -4.3     11.176     11.802
REMARK  3 active torsions:
REMARK  status: ('A' for Active; 'I' for Inactive)
REMARK    1  A    between atoms: C4_4  and  C7_7 
REMARK    2  A    between atoms: C7_7  and  O10_10 
REMARK    3  A    between atoms: C8_8  and  O10_10 
ROOT
HETATM    1  C1  UNL     1     -35.293  13.862  -4.976  1.00 20.00     0.071 C 
HETATM    2  C2  UNL     1     -33.026  14.789  -4.378  1.00 20.00     0.028 A 
HETATM    3  C3  UNL     1     -33.428  15.402  -5.688  1.00 20.00     0.028 A 
HETATM    4  C4  UNL     1     -34.490  15.020  -4.680  1.00 20.00     0.070 A 
HETATM    5  N9  UNL     1     -35.941  12.930  -5.215  1.00 20.00    -0.196 NA
ENDROOT
BRANCH   4   6
HETATM    6  C7  UNL     1     -35.198  16.124  -3.946  1.00 20.00     0.192 C 
BRANCH   6   7
HETATM    7  O10 UNL     1     -34.975  15.981  -2.548  1.00 20.00    -0.385 OA
BRANCH   7   8
HETATM    8  C8  UNL     1     -34.757  17.240  -1.926  1.00 20.00     0.113 C 
HETATM    9  C5  UNL     1     -35.413  17.239  -0.554  1.00 20.00     0.039 C 
HETATM   10  C6  UNL     1     -33.262  17.505  -1.839  1.00 20.00     0.039 C 
ENDBRANCH   7   8
ENDBRANCH   6   7
ENDBRANCH   4   6
TORSDOF 3
ENDMDL
MODEL 9
REMARK VINA RESULT:      -4.2      2.133      4.354
REMARK  3 active torsions:
REMARK  status: ('A' for Active; 'I' for Inactive)
REMARK    1  A    between atoms: C4_4  and  C7_7 
REMARK    2  A    between atoms: C7_7  and  O10_10 
REMARK    3  A    between atoms: C8_8  and  O10_10 
ROOT
HETATM    1  C1  UNL     1     -32.741   9.089   1.495  1.00 20.00     0.071 C 
HETATM    2  C2  UNL     1     -31.499   7.230   2.659  1.00 20.00     0.028 A 
HETATM    3  C3  UNL     1     -31.519   8.406   3.591  1.00 20.00     0.028 A 
HETATM    4  C4  UNL     1     -32.662   8.197   2.622  1.00 20.00     0.070 A 
HETATM    5  N9  UNL     1     -32.805   9.809   0.587  1.00 20.00    -0.196 NA
ENDROOT
BRANCH   4   6
HETATM    6  C7  UNL     1     -33.982   7.737   3.173  1.00 20.00     0.192 C 
BRANCH   6   7
HETATM    7  O10 UNL     1     -33.968   6.321   3.316  1.00 20.00    -0.385 OA
BRANCH   7   8
HETATM    8  C8  UNL     1     -34.649   5.911   4.493  1.00 20.00     0.113 C 
HETATM    9  C5  UNL     1     -34.505   4.405   4.655  1.00 20.00     0.039 C 
HETATM   10  C6  UNL     1     -34.086   6.666   5.687  1.00 20.00     0.039 C 
ENDBRANCH   7   8
ENDBRANCH   6   7
ENDBRANCH   4   6
TORSDOF 3
ENDMDL
