MODEL 1
REMARK VINA RESULT:      -4.0      0.000      0.000
REMARK  1 active torsions:
REMARK  status: ('A' for Active; 'I' for Inactive)
REMARK    1  A    between atoms: C2_2  and  C6_6 
ROOT
HETATM    1  C1  UNL     1     -32.150   7.808   4.239  1.00 20.00     0.111 C 
HETATM    2  C2  UNL     1     -32.337   7.353   2.792  1.00 20.00     0.231 C 
HETATM    3  C3  UNL     1     -34.199   6.224   3.753  1.00 20.00     0.278 C 
HETATM    4  C4  UNL     1     -34.605   4.876   4.336  1.00 20.00     0.054 C 
HETATM    5  N7  UNL     1     -33.077   6.078   2.815  1.00 20.00     0.102 N 
HETATM    6  S8  UNL     1     -33.691   7.366   5.075  1.00 20.00    -0.132 SA
HETATM    7  H21 UNL     1     -33.463   5.918   1.882  1.00 20.00     0.317 HD
ENDROOT
BRANCH   2   8
HETATM    8  C6  UNL     1     -33.034   8.394   1.914  1.00 20.00     0.032 C 
HETATM    9  C5  UNL     1     -32.071   9.084   1.001  1.00 20.00     0.007 C 
ENDBRANCH   2   8
TORSDOF 1
ENDMDL
MODEL 2
REMARK VINA RESULT:      -3.7     11.080     11.937
REMARK  1 active torsions:
REMARK  status: ('A' for Active; 'I' for Inactive)
REMARK    1  A    between atoms: C2_2  and  C6_6 
ROOT
HETATM    1  C1  UNL     1     -35.852  14.520  -4.562  1.00 20.00     0.111 C 
HETATM    2  C2  UNL     1     -34.362  14.400  -4.245  1.00 20.00     0.231 C 
HETATM    3  C3  UNL     1     -34.185  14.835  -6.579  1.00 20.00     0.278 C 
HETATM    4  C4  UNL     1     -34.061  14.120  -7.918  1.00 20.00     0.054 C 
HETATM    5  N7  UNL     1     -33.671  14.000  -5.484  1.00 20.00     0.102 N 
HETATM    6  S8  UNL     1     -35.925  15.229  -6.223  1.00 20.00    -0.132 SA
HETATM    7  H21 UNL     1     -32.675  14.205  -5.371  1.00 20.00     0.317 HD
ENDROOT
BRANCH   2   8
HETATM    8  C6  UNL     1     -33.765  15.679  -3.653  1.00 20.00     0.032 C 
HETATM    9  C5  UNL     1     -34.688  16.316  -2.664  1.00 20.00     0.007 C 
ENDBRANCH   2   8
TORSDOF 1
ENDMDL
MODEL 3
REMARK VINA RESULT:      -3.6      1.018      3.694
REMARK  1 active torsions:
REMARK  status: ('A' for Active; 'I' for Inactive)
REMARK    1  A    between atoms: C2_2  and  C6_6 
ROOT
HETATM    1  C1  UNL     1     -34.594   6.988   4.562  1.00 20.00     0.111 C 
HETATM    2  C2  UNL     1     -34.519   5.976   3.420  1.00 20.00     0.231 C 
HETATM    3  C3  UNL     1     -32.471   7.117   3.007  1.00 20.00     0.278 C 
HETATM    4  C4  UNL     1     -31.885   8.250   2.176  1.00 20.00     0.054 C 
HETATM    5  N7  UNL     1     -33.667   6.553   2.365  1.00 20.00     0.102 N 
HETATM    6  S8  UNL     1     -32.941   7.713   4.660  1.00 20.00    -0.132 SA
HETATM    7  H21 UNL     1     -33.367   5.794   1.749  1.00 20.00     0.317 HD
ENDROOT
BRANCH   2   8
HETATM    8  C6  UNL     1     -34.015   4.600   3.863  1.00 20.00     0.032 C 
HETATM    9  C5  UNL     1     -34.424   4.285   5.266  1.00 20.00     0.007 C 
ENDBRANCH   2   8
TORSDOF 1
ENDMDL
MODEL 4
REMARK VINA RESULT:      -3.4     11.052     11.580
REMARK  1 active torsions:
REMARK  status: ('A' for Active; 'I' for Inactive)
REMARK    1  A    between atoms: C2_2  and  C6_6 
ROOT
HETATM    1  C1  UNL     1     -33.554  16.913  -4.624  1.00 20.00     0.111 C 
HETATM    2  C2  UNL     1     -34.644  16.951  -3.554  1.00 20.00     0.231 C 
HETATM    3  C3  UNL     1     -34.785  14.640  -4.110  1.00 20.00     0.278 C 
HETATM    4  C4  UNL     1     -35.553  13.673  -5.002  1.00 20.00     0.054 C 
HETATM    5  N7  UNL     1     -35.579  15.844  -3.827  1.00 20.00     0.102 N 
HETATM    6  S8  UNL     1     -33.236  15.156  -4.911  1.00 20.00    -0.132 SA
HETATM    7  H21 UNL     1     -36.123  15.672  -2.978  1.00 20.00     0.317 HD
ENDROOT
BRANCH   2   8
HETATM    8  C6  UNL     1     -34.094  16.885  -2.127  1.00 20.00     0.032 C 
HETATM    9  C5  UNL     1     -35.178  17.029  -1.108  1.00 20.00     0.007 C 
ENDBRANCH   2   8
TORSDOF 1
ENDMDL
MODEL 5
REMARK VINA RESULT:      -3.3      1.786      2.114
REMARK  1 active torsions:
REMARK  status: ('A' for Active; 'I' for Inactive)
REMARK    1  A    between atoms: C2_2  and  C6_6 
ROOT
HETATM    1  C1  UNL     1     -33.966   6.179   2.393  1.00 20.00     0.111 C 
HETATM    2  C2  UNL     1     -33.637   7.388   3.268  1.00 20.00     0.231 C 
HETATM    3  C3  UNL     1     -33.762   5.742   4.984  1.00 20.00     0.278 C 
HETATM    4  C4  UNL     1     -34.732   5.146   5.995  1.00 20.00     0.054 C 
HETATM    5  N7  UNL     1     -34.150   7.113   4.623  1.00 20.00     0.102 N 
HETATM    6  S8  UNL     1     -33.728   4.743   3.465  1.00 20.00    -0.132 SA
HETATM    7  H21 UNL     1     -33.688   7.753   5.273  1.00 20.00     0.317 HD
ENDROOT
BRANCH   2   8
HETATM    8  C6  UNL     1     -32.146   7.733   3.289  1.00 20.00     0.032 C 
HETATM    9  C5  UNL     1     -31.734   8.484   2.062  1.00 20.00     0.007 C 
ENDBRANCH   2   8
TORSDOF 1
ENDMDL
MODEL 6
REMARK VINA RESULT:      -3.2     10.824     11.843
REMARK  1 active torsions:
REMARK  status: ('A' for Active; 'I' for Inactive)
REMARK    1  A    between atoms: C2_2  and  C6_6 
ROOT
HETATM    1  C1  UNL     1     -35.622  13.948  -6.785  1.00 20.00     0.111 C 
HETATM    2  C2  UNL     1     -36.200  13.510  -5.440  1.00 20.00     0.231 C 
HETATM    3  C3  UNL     1     -34.230  14.580  -4.638  1.00 20.00     0.278 C 
HETATM    4  C4  UNL     1     -32.792  14.280  -4.233  1.00 20.00     0.054 C 
HETATM    5  N7  UNL     1     -35.080  13.390  -4.488  1.00 20.00     0.102 N 
HETATM    6  S8  UNL     1     -34.306  15.117  -6.374  1.00 20.00    -0.132 SA
HETATM    7  H21 UNL     1     -35.467  13.395  -3.541  1.00 20.00     0.317 HD
ENDROOT
BRANCH   2   8
HETATM    8  C6  UNL     1     -37.289  14.449  -4.914  1.00 20.00     0.032 C 
HETATM    9  C5  UNL     1     -38.107  15.025  -6.025  1.00 20.00     0.007 C 
ENDBRANCH   2   8
TORSDOF 1
ENDMDL
MODEL 7
REMARK VINA RESULT:      -3.1     11.374     11.867
REMARK  1 active torsions:
REMARK  status: ('A' for Active; 'I' for Inactive)
REMARK    1  A    between atoms: C2_2  and  C6_6 
ROOT
HETATM    1  C1  UNL     1     -32.939  15.610  -5.435  1.00 20.00     0.111 C 
HETATM    2  C2  UNL     1     -33.888  14.432  -5.218  1.00 20.00     0.231 C 
HETATM    3  C3  UNL     1     -34.977  16.016  -3.814  1.00 20.00     0.278 C 
HETATM    4  C4  UNL     1     -35.049  16.472  -2.362  1.00 20.00     0.054 C 
HETATM    5  N7  UNL     1     -34.539  14.616  -3.908  1.00 20.00     0.102 N 
HETATM    6  S8  UNL     1     -33.803  17.043  -4.749  1.00 20.00    -0.132 SA
HETATM    7  H21 UNL     1     -35.371  14.022  -3.881  1.00 20.00     0.317 HD
ENDROOT
BRANCH   2   8
HETATM    8  C6  UNL     1     -34.915  14.266  -6.340  1.00 20.00     0.032 C 
HETATM    9  C5  UNL     1     -34.256  14.079  -7.670  1.00 20.00     0.007 C 
ENDBRANCH   2   8
TORSDOF 1
ENDMDL
MODEL 8
REMARK VINA RESULT:      -3.1     10.994     11.651
REMARK  1 active torsions:
REMARK  status: ('A' for Active; 'I' for Inactive)
REMARK    1  A    between atoms: C2_2  and  C6_6 
ROOT
HETATM    1  C1  UNL     1     -35.942  16.835  -3.066  1.00 20.00     0.111 C 
HETATM    2  C2  UNL     1     -34.737  16.406  -3.902  1.00 20.00     0.231 C 
HETATM    3  C3  UNL     1     -33.572  17.087  -1.940  1.00 20.00     0.278 C 
HETATM    4  C4  UNL     1     -32.854  18.287  -1.337  1.00 20.00     0.054 C 
HETATM    5  N7  UNL     1     -33.562  17.148  -3.409  1.00 20.00     0.102 N 
HETATM    6  S8  UNL     1     -35.304  17.033  -1.386  1.00 20.00    -0.132 SA
HETATM    7  H21 UNL     1     -32.722  16.667  -3.739  1.00 20.00     0.317 HD
ENDROOT
BRANCH   2   8
HETATM    8  C6  UNL     1     -34.497  14.894  -3.886  1.00 20.00     0.032 C 
HETATM    9  C5  UNL     1     -33.172  14.537  -4.481  1.00 20.00     0.007 C 
ENDBRANCH   2   8
TORSDOF 1
ENDMDL
MODEL 9
REMARK VINA RESULT:      -3.1     10.899     11.652
REMARK  1 active torsions:
REMARK  status: ('A' for Active; 'I' for Inactive)
REMARK    1  A    between atoms: C2_2  and  C6_6 
ROOT
HETATM    1  C1  UNL     1     -35.744  16.406  -4.724  1.00 20.00     0.111 C 
HETATM    2  C2  UNL     1     -34.510  15.506  -4.674  1.00 20.00     0.231 C 
HETATM    3  C3  UNL     1     -34.372  16.406  -2.474  1.00 20.00     0.278 C 
HETATM    4  C4  UNL     1     -33.710  17.528  -1.685  1.00 20.00     0.054 C 
HETATM    5  N7  UNL     1     -33.587  16.066  -3.670  1.00 20.00     0.102 N 
HETATM    6  S8  UNL     1     -36.039  16.897  -3.010  1.00 20.00    -0.132 SA
HETATM    7  H21 UNL     1     -32.918  15.337  -3.412  1.00 20.00     0.317 HD
ENDROOT
BRANCH   2   8
HETATM    8  C6  UNL     1     -34.841  14.041  -4.381  1.00 20.00     0.032 C 
HETATM    9  C5  UNL     1     -35.973  13.548  -5.226  1.00 20.00     0.007 C 
ENDBRANCH   2   8
TORSDOF 1
ENDMDL
