MODEL 1
REMARK VINA RESULT:      -4.6      0.000      0.000
REMARK  2 active torsions:
REMARK  status: ('A' for Active; 'I' for Inactive)
REMARK    1  A    between atoms: C3_3  and  C7_7 
REMARK    2  A    between atoms: C7_7  and  C8_8 
ROOT
HETATM    1  C1  UNL     1     -33.952   6.677   5.462  1.00 20.00     0.111 C 
HETATM    2  C2  UNL     1     -34.304   5.938   4.173  1.00 20.00     0.227 C 
HETATM    3  C3  UNL     1     -32.534   7.269   3.320  1.00 20.00     0.282 C 
HETATM    4  C4  UNL     1     -34.786   4.519   4.456  1.00 20.00     0.043 C 
HETATM    5  N9  UNL     1     -33.094   5.910   3.329  1.00 20.00     0.102 N 
HETATM    6  S10 UNL     1     -32.927   8.057   4.909  1.00 20.00    -0.132 SA
HETATM    7  H27 UNL     1     -32.414   5.290   3.772  1.00 20.00     0.317 HD
ENDROOT
BRANCH   3   8
HETATM    8  C7  UNL     1     -33.102   8.085   2.164  1.00 20.00     0.050 C 
BRANCH   8   9
HETATM    9  C8  UNL     1     -32.130   9.149   1.629  1.00 20.00    -0.020 C 
HETATM   10  C5  UNL     1     -31.319   8.650   0.433  1.00 20.00     0.009 C 
HETATM   11  C6  UNL     1     -32.906  10.409   1.238  1.00 20.00     0.009 C 
ENDBRANCH   8   9
ENDBRANCH   3   8
TORSDOF 2
ENDMDL
MODEL 2
REMARK VINA RESULT:      -4.2      1.438      4.634
REMARK  2 active torsions:
REMARK  status: ('A' for Active; 'I' for Inactive)
REMARK    1  A    between atoms: C3_3  and  C7_7 
REMARK    2  A    between atoms: C7_7  and  C8_8 
ROOT
HETATM    1  C1  UNL     1     -31.319   8.895   1.893  1.00 20.00     0.111 C 
HETATM    2  C2  UNL     1     -32.582   8.475   1.142  1.00 20.00     0.227 C 
HETATM    3  C3  UNL     1     -33.225   7.749   3.308  1.00 20.00     0.282 C 
HETATM    4  C4  UNL     1     -32.890   9.429  -0.007  1.00 20.00     0.043 C 
HETATM    5  N9  UNL     1     -33.694   8.463   2.111  1.00 20.00     0.102 N 
HETATM    6  S10 UNL     1     -31.436   8.020   3.469  1.00 20.00    -0.132 SA
HETATM    7  H27 UNL     1     -33.894   9.428   2.377  1.00 20.00     0.317 HD
ENDROOT
BRANCH   3   8
HETATM    8  C7  UNL     1     -33.533   6.258   3.208  1.00 20.00     0.050 C 
BRANCH   8   9
HETATM    9  C8  UNL     1     -34.498   5.758   4.295  1.00 20.00    -0.020 C 
HETATM   10  C5  UNL     1     -34.401   4.247   4.513  1.00 20.00     0.009 C 
HETATM   11  C6  UNL     1     -34.218   6.489   5.611  1.00 20.00     0.009 C 
ENDBRANCH   8   9
ENDBRANCH   3   8
TORSDOF 2
ENDMDL
MODEL 3
REMARK VINA RESULT:      -4.1      1.610      2.030
REMARK  2 active torsions:
REMARK  status: ('A' for Active; 'I' for Inactive)
REMARK    1  A    between atoms: C3_3  and  C7_7 
REMARK    2  A    between atoms: C7_7  and  C8_8 
ROOT
HETATM    1  C1  UNL     1     -33.661   5.712   3.962  1.00 20.00     0.111 C 
HETATM    2  C2  UNL     1     -33.275   7.060   4.568  1.00 20.00     0.227 C 
HETATM    3  C3  UNL     1     -33.375   7.735   2.295  1.00 20.00     0.282 C 
HETATM    4  C4  UNL     1     -33.872   7.239   5.960  1.00 20.00     0.043 C 
HETATM    5  N9  UNL     1     -33.764   8.115   3.661  1.00 20.00     0.102 N 
HETATM    6  S10 UNL     1     -33.346   5.921   2.196  1.00 20.00    -0.132 SA
HETATM    7  H27 UNL     1     -34.784   8.125   3.708  1.00 20.00     0.317 HD
ENDROOT
BRANCH   3   8
HETATM    8  C7  UNL     1     -32.009   8.311   1.937  1.00 20.00     0.050 C 
BRANCH   8   9
HETATM    9  C8  UNL     1     -32.070   9.406   0.860  1.00 20.00    -0.020 C 
HETATM   10  C5  UNL     1     -32.919   8.995  -0.344  1.00 20.00     0.009 C 
HETATM   11  C6  UNL     1     -32.625  10.698   1.466  1.00 20.00     0.009 C 
ENDBRANCH   8   9
ENDBRANCH   3   8
TORSDOF 2
ENDMDL
MODEL 4
REMARK VINA RESULT:      -4.0     11.107     12.117
REMARK  2 active torsions:
REMARK  status: ('A' for Active; 'I' for Inactive)
REMARK    1  A    between atoms: C3_3  and  C7_7 
REMARK    2  A    between atoms: C7_7  and  C8_8 
ROOT
HETATM    1  C1  UNL     1     -34.819  14.496  -5.988  1.00 20.00     0.111 C 
HETATM    2  C2  UNL     1     -34.306  15.869  -6.419  1.00 20.00     0.227 C 
HETATM    3  C3  UNL     1     -33.350  15.823  -4.247  1.00 20.00     0.282 C 
HETATM    4  C4  UNL     1     -34.022  15.914  -7.917  1.00 20.00     0.043 C 
HETATM    5  N9  UNL     1     -33.075  16.145  -5.655  1.00 20.00     0.102 N 
HETATM    6  S10 UNL     1     -34.571  14.478  -4.200  1.00 20.00    -0.132 SA
HETATM    7  H27 UNL     1     -32.346  15.512  -5.988  1.00 20.00     0.317 HD
ENDROOT
BRANCH   3   8
HETATM    8  C7  UNL     1     -33.875  17.046  -3.500  1.00 20.00     0.050 C 
BRANCH   8   9
HETATM    9  C8  UNL     1     -33.758  16.926  -1.973  1.00 20.00    -0.020 C 
HETATM   10  C5  UNL     1     -32.875  18.018  -1.366  1.00 20.00     0.009 C 
HETATM   11  C6  UNL     1     -35.152  16.979  -1.342  1.00 20.00     0.009 C 
ENDBRANCH   8   9
ENDBRANCH   3   8
TORSDOF 2
ENDMDL
MODEL 5
REMARK VINA RESULT:      -3.9     11.015     11.534
REMARK  2 active torsions:
REMARK  status: ('A' for Active; 'I' for Inactive)
REMARK    1  A    between atoms: C3_3  and  C7_7 
REMARK    2  A    between atoms: C7_7  and  C8_8 
ROOT
HETATM    1  C1  UNL     1     -34.135  14.778  -5.961  1.00 20.00     0.111 C 
HETATM    2  C2  UNL     1     -35.042  14.315  -4.822  1.00 20.00     0.227 C 
HETATM    3  C3  UNL     1     -34.607  16.509  -4.030  1.00 20.00     0.282 C 
HETATM    4  C4  UNL     1     -36.110  13.346  -5.317  1.00 20.00     0.043 C 
HETATM    5  N9  UNL     1     -35.669  15.514  -4.235  1.00 20.00     0.102 N 
HETATM    6  S10 UNL     1     -33.343  16.266  -5.313  1.00 20.00    -0.132 SA
HETATM    7  H27 UNL     1     -36.329  15.891  -4.916  1.00 20.00     0.317 HD
ENDROOT
BRANCH   3   8
HETATM    8  C7  UNL     1     -33.991  16.372  -2.641  1.00 20.00     0.050 C 
BRANCH   8   9
HETATM    9  C8  UNL     1     -34.227  17.596  -1.743  1.00 20.00    -0.020 C 
HETATM   10  C5  UNL     1     -35.171  17.294  -0.578  1.00 20.00     0.009 C 
HETATM   11  C6  UNL     1     -32.888  18.108  -1.203  1.00 20.00     0.009 C 
ENDBRANCH   8   9
ENDBRANCH   3   8
TORSDOF 2
ENDMDL
MODEL 6
REMARK VINA RESULT:      -3.8     10.814     11.569
REMARK  2 active torsions:
REMARK  status: ('A' for Active; 'I' for Inactive)
REMARK    1  A    between atoms: C3_3  and  C7_7 
REMARK    2  A    between atoms: C7_7  and  C8_8 
ROOT
HETATM    1  C1  UNL     1     -35.072  14.028  -4.504  1.00 20.00     0.111 C 
HETATM    2  C2  UNL     1     -36.235  15.019  -4.491  1.00 20.00     0.227 C 
HETATM    3  C3  UNL     1     -34.469  16.581  -4.766  1.00 20.00     0.282 C 
HETATM    4  C4  UNL     1     -37.489  14.416  -5.115  1.00 20.00     0.043 C 
HETATM    5  N9  UNL     1     -35.811  16.215  -5.243  1.00 20.00     0.102 N 
HETATM    6  S10 UNL     1     -33.613  15.062  -4.254  1.00 20.00    -0.132 SA
HETATM    7  H27 UNL     1     -35.738  15.959  -6.229  1.00 20.00     0.317 HD
ENDROOT
BRANCH   3   8
HETATM    8  C7  UNL     1     -34.554  17.564  -3.602  1.00 20.00     0.050 C 
BRANCH   8   9
HETATM    9  C8  UNL     1     -34.102  16.964  -2.261  1.00 20.00    -0.020 C 
HETATM   10  C5  UNL     1     -32.985  17.776  -1.604  1.00 20.00     0.009 C 
HETATM   11  C6  UNL     1     -35.298  16.867  -1.309  1.00 20.00     0.009 C 
ENDBRANCH   8   9
ENDBRANCH   3   8
TORSDOF 2
ENDMDL
MODEL 7
REMARK VINA RESULT:      -3.8     11.057     11.678
REMARK  2 active torsions:
REMARK  status: ('A' for Active; 'I' for Inactive)
REMARK    1  A    between atoms: C3_3  and  C7_7 
REMARK    2  A    between atoms: C7_7  and  C8_8 
ROOT
HETATM    1  C1  UNL     1     -35.618  17.483  -3.748  1.00 20.00     0.111 C 
HETATM    2  C2  UNL     1     -35.085  16.434  -2.774  1.00 20.00     0.227 C 
HETATM    3  C3  UNL     1     -33.591  16.010  -4.568  1.00 20.00     0.282 C 
HETATM    4  C4  UNL     1     -35.212  16.899  -1.327  1.00 20.00     0.043 C 
HETATM    5  N9  UNL     1     -33.671  16.188  -3.111  1.00 20.00     0.102 N 
HETATM    6  S10 UNL     1     -34.900  17.009  -5.336  1.00 20.00    -0.132 SA
HETATM    7  H27 UNL     1     -33.137  17.023  -2.865  1.00 20.00     0.317 HD
ENDROOT
BRANCH   3   8
HETATM    8  C7  UNL     1     -33.750  14.540  -4.947  1.00 20.00     0.050 C 
BRANCH   8   9
HETATM    9  C8  UNL     1     -34.906  14.283  -5.927  1.00 20.00    -0.020 C 
HETATM   10  C5  UNL     1     -34.438  13.616  -7.221  1.00 20.00     0.009 C 
HETATM   11  C6  UNL     1     -35.971  13.413  -5.253  1.00 20.00     0.009 C 
ENDBRANCH   8   9
ENDBRANCH   3   8
TORSDOF 2
ENDMDL
MODEL 8
REMARK VINA RESULT:      -3.7     11.337     12.287
REMARK  2 active torsions:
REMARK  status: ('A' for Active; 'I' for Inactive)
REMARK    1  A    between atoms: C3_3  and  C7_7 
REMARK    2  A    between atoms: C7_7  and  C8_8 
ROOT
HETATM    1  C1  UNL     1     -34.018  16.219  -7.185  1.00 20.00     0.111 C 
HETATM    2  C2  UNL     1     -34.014  14.878  -6.454  1.00 20.00     0.227 C 
HETATM    3  C3  UNL     1     -34.659  16.249  -4.628  1.00 20.00     0.282 C 
HETATM    4  C4  UNL     1     -34.429  13.738  -7.377  1.00 20.00     0.043 C 
HETATM    5  N9  UNL     1     -34.950  14.985  -5.319  1.00 20.00     0.102 N 
HETATM    6  S10 UNL     1     -34.048  17.441  -5.855  1.00 20.00    -0.132 SA
HETATM    7  H27 UNL     1     -35.898  15.040  -5.694  1.00 20.00     0.317 HD
ENDROOT
BRANCH   3   8
HETATM    8  C7  UNL     1     -33.626  16.043  -3.524  1.00 20.00     0.050 C 
BRANCH   8   9
HETATM    9  C8  UNL     1     -34.045  16.646  -2.174  1.00 20.00    -0.020 C 
HETATM   10  C5  UNL     1     -33.362  17.986  -1.895  1.00 20.00     0.009 C 
HETATM   11  C6  UNL     1     -35.565  16.823  -2.135  1.00 20.00     0.009 C 
ENDBRANCH   8   9
ENDBRANCH   3   8
TORSDOF 2
ENDMDL
MODEL 9
REMARK VINA RESULT:      -3.7      1.739      2.462
REMARK  2 active torsions:
REMARK  status: ('A' for Active; 'I' for Inactive)
REMARK    1  A    between atoms: C3_3  and  C7_7 
REMARK    2  A    between atoms: C7_7  and  C8_8 
ROOT
HETATM    1  C1  UNL     1     -34.295   5.037   5.533  1.00 20.00     0.111 C 
HETATM    2  C2  UNL     1     -33.835   6.494   5.506  1.00 20.00     0.227 C 
HETATM    3  C3  UNL     1     -34.145   6.199   3.171  1.00 20.00     0.282 C 
HETATM    4  C4  UNL     1     -34.295   7.248   6.749  1.00 20.00     0.043 C 
HETATM    5  N9  UNL     1     -34.397   7.116   4.292  1.00 20.00     0.102 N 
HETATM    6  S10 UNL     1     -34.148   4.500   3.815  1.00 20.00    -0.132 SA
HETATM    7  H27 UNL     1     -35.407   7.196   4.415  1.00 20.00     0.317 HD
ENDROOT
BRANCH   3   8
HETATM    8  C7  UNL     1     -32.812   6.512   2.498  1.00 20.00     0.050 C 
BRANCH   8   9
HETATM    9  C8  UNL     1     -32.435   8.001   2.551  1.00 20.00    -0.020 C 
HETATM   10  C5  UNL     1     -31.321   8.287   3.559  1.00 20.00     0.009 C 
HETATM   11  C6  UNL     1     -32.007   8.476   1.160  1.00 20.00     0.009 C 
ENDBRANCH   8   9
ENDBRANCH   3   8
TORSDOF 2
ENDMDL
