MODEL 1
REMARK VINA RESULT:      -5.2      0.000      0.000
REMARK  3 active torsions:
REMARK  status: ('A' for Active; 'I' for Inactive)
REMARK    1  A    between atoms: C3_3  and  C6_6 
REMARK    2  A    between atoms: C6_6  and  C8_8 
REMARK    3  A    between atoms: C7_7  and  C8_8 
ROOT
HETATM    1  C1  UNL     1     -35.402   5.849   3.822  1.00 20.00     0.285 C 
HETATM    2  C2  UNL     1     -34.838   5.715   5.238  1.00 20.00     0.073 C 
HETATM    3  C3  UNL     1     -33.575   7.311   3.543  1.00 20.00     0.282 C 
HETATM    4  C4  UNL     1     -34.090   4.407   5.464  1.00 20.00     0.023 C 
HETATM    5  N9  UNL     1     -34.291   6.190   2.930  1.00 20.00     0.098 N 
HETATM    6  S10 UNL     1     -33.684   7.115   5.352  1.00 20.00    -0.128 SA
HETATM    7  H27 UNL     1     -33.667   5.386   2.861  1.00 20.00     0.317 HD
ENDROOT
BRANCH   3   8
HETATM    8  C6  UNL     1     -32.126   7.325   3.085  1.00 20.00     0.046 C 
BRANCH   8   9
HETATM    9  C8  UNL     1     -31.703   8.715   2.613  1.00 20.00     0.002 C 
BRANCH   9  10
HETATM   10  C7  UNL     1     -31.962   8.895   1.118  1.00 20.00    -0.004 C 
HETATM   11  C5  UNL     1     -32.639  10.225   0.826  1.00 20.00     0.005 C 
ENDBRANCH   9  10
ENDBRANCH   8   9
ENDBRANCH   3   8
TORSDOF 3
ENDMDL
MODEL 2
REMARK VINA RESULT:      -4.6      1.526      1.954
REMARK  3 active torsions:
REMARK  status: ('A' for Active; 'I' for Inactive)
REMARK    1  A    between atoms: C3_3  and  C6_6 
REMARK    2  A    between atoms: C6_6  and  C8_8 
REMARK    3  A    between atoms: C7_7  and  C8_8 
ROOT
HETATM    1  C1  UNL     1     -33.685   6.831   5.066  1.00 20.00     0.285 C 
HETATM    2  C2  UNL     1     -34.235   5.640   4.279  1.00 20.00     0.073 C 
HETATM    3  C3  UNL     1     -32.467   7.209   3.085  1.00 20.00     0.282 C 
HETATM    4  C4  UNL     1     -35.650   5.867   3.759  1.00 20.00     0.023 C 
HETATM    5  N9  UNL     1     -33.295   7.862   4.101  1.00 20.00     0.098 N 
HETATM    6  S10 UNL     1     -33.079   5.504   2.883  1.00 20.00    -0.128 SA
HETATM    7  H27 UNL     1     -34.137   8.236   3.662  1.00 20.00     0.317 HD
ENDROOT
BRANCH   3   8
HETATM    8  C6  UNL     1     -32.544   7.971   1.772  1.00 20.00     0.046 C 
BRANCH   8   9
HETATM    9  C8  UNL     1     -32.172   9.442   1.958  1.00 20.00     0.002 C 
BRANCH   9  10
HETATM   10  C7  UNL     1     -32.600  10.278   0.753  1.00 20.00    -0.004 C 
HETATM   11  C5  UNL     1     -33.101   9.401  -0.384  1.00 20.00     0.005 C 
ENDBRANCH   9  10
ENDBRANCH   8   9
ENDBRANCH   3   8
TORSDOF 3
ENDMDL
MODEL 3
REMARK VINA RESULT:      -4.2     11.613     12.258
REMARK  3 active torsions:
REMARK  status: ('A' for Active; 'I' for Inactive)
REMARK    1  A    between atoms: C3_3  and  C6_6 
REMARK    2  A    between atoms: C6_6  and  C8_8 
REMARK    3  A    between atoms: C7_7  and  C8_8 
ROOT
HETATM    1  C1  UNL     1     -35.205  13.290  -7.082  1.00 20.00     0.285 C 
HETATM    2  C2  UNL     1     -36.312  14.247  -6.636  1.00 20.00     0.073 C 
HETATM    3  C3  UNL     1     -33.815  15.129  -6.590  1.00 20.00     0.282 C 
HETATM    4  C4  UNL     1     -36.842  13.942  -5.240  1.00 20.00     0.023 C 
HETATM    5  N9  UNL     1     -33.971  13.685  -6.397  1.00 20.00     0.098 N 
HETATM    6  S10 UNL     1     -35.482  15.864  -6.643  1.00 20.00    -0.128 SA
HETATM    7  H27 UNL     1     -34.070  13.485  -5.402  1.00 20.00     0.317 HD
ENDROOT
BRANCH   3   8
HETATM    8  C6  UNL     1     -32.994  15.726  -5.459  1.00 20.00     0.046 C 
BRANCH   8   9
HETATM    9  C8  UNL     1     -33.485  15.239  -4.096  1.00 20.00     0.002 C 
BRANCH   9  10
HETATM   10  C7  UNL     1     -33.718  16.409  -3.141  1.00 20.00    -0.004 C 
HETATM   11  C5  UNL     1     -35.128  16.391  -2.571  1.00 20.00     0.005 C 
ENDBRANCH   9  10
ENDBRANCH   8   9
ENDBRANCH   3   8
TORSDOF 3
ENDMDL
MODEL 4
REMARK VINA RESULT:      -4.1      1.424      4.734
REMARK  3 active torsions:
REMARK  status: ('A' for Active; 'I' for Inactive)
REMARK    1  A    between atoms: C3_3  and  C6_6 
REMARK    2  A    between atoms: C6_6  and  C8_8 
REMARK    3  A    between atoms: C7_7  and  C8_8 
ROOT
HETATM    1  C1  UNL     1     -32.600   7.477   1.369  1.00 20.00     0.285 C 
HETATM    2  C2  UNL     1     -31.828   8.738   1.762  1.00 20.00     0.073 C 
HETATM    3  C3  UNL     1     -32.791   7.215   3.703  1.00 20.00     0.282 C 
HETATM    4  C4  UNL     1     -32.636  10.017   1.579  1.00 20.00     0.023 C 
HETATM    5  N9  UNL     1     -33.545   7.178   2.448  1.00 20.00     0.098 N 
HETATM    6  S10 UNL     1     -31.483   8.472   3.527  1.00 20.00    -0.128 SA
HETATM    7  H27 UNL     1     -34.265   7.901   2.463  1.00 20.00     0.317 HD
ENDROOT
BRANCH   3   8
HETATM    8  C6  UNL     1     -33.715   7.551   4.862  1.00 20.00     0.046 C 
BRANCH   8   9
HETATM    9  C8  UNL     1     -34.047   6.309   5.689  1.00 20.00     0.002 C 
BRANCH   9  10
HETATM   10  C7  UNL     1     -34.980   5.369   4.928  1.00 20.00    -0.004 C 
HETATM   11  C5  UNL     1     -34.262   4.099   4.498  1.00 20.00     0.005 C 
ENDBRANCH   9  10
ENDBRANCH   8   9
ENDBRANCH   3   8
TORSDOF 3
ENDMDL
MODEL 5
REMARK VINA RESULT:      -4.1     11.306     11.677
REMARK  3 active torsions:
REMARK  status: ('A' for Active; 'I' for Inactive)
REMARK    1  A    between atoms: C3_3  and  C6_6 
REMARK    2  A    between atoms: C6_6  and  C8_8 
REMARK    3  A    between atoms: C7_7  and  C8_8 
ROOT
HETATM    1  C1  UNL     1     -35.924  13.272  -5.456  1.00 20.00     0.285 C 
HETATM    2  C2  UNL     1     -36.747  14.528  -5.748  1.00 20.00     0.073 C 
HETATM    3  C3  UNL     1     -34.249  14.842  -4.929  1.00 20.00     0.282 C 
HETATM    4  C4  UNL     1     -37.757  14.851  -4.653  1.00 20.00     0.023 C 
HETATM    5  N9  UNL     1     -34.911  13.624  -4.458  1.00 20.00     0.098 N 
HETATM    6  S10 UNL     1     -35.485  15.833  -5.830  1.00 20.00    -0.128 SA
HETATM    7  H27 UNL     1     -35.377  13.814  -3.571  1.00 20.00     0.317 HD
ENDROOT
BRANCH   3   8
HETATM    8  C6  UNL     1     -33.680  15.621  -3.755  1.00 20.00     0.046 C 
BRANCH   8   9
HETATM    9  C8  UNL     1     -34.790  16.231  -2.900  1.00 20.00     0.002 C 
BRANCH   9  10
HETATM   10  C7  UNL     1     -34.214  16.989  -1.704  1.00 20.00    -0.004 C 
HETATM   11  C5  UNL     1     -35.280  17.262  -0.653  1.00 20.00     0.005 C 
ENDBRANCH   9  10
ENDBRANCH   8   9
ENDBRANCH   3   8
TORSDOF 3
ENDMDL
MODEL 6
REMARK VINA RESULT:      -3.8      1.995      5.076
REMARK  3 active torsions:
REMARK  status: ('A' for Active; 'I' for Inactive)
REMARK    1  A    between atoms: C3_3  and  C6_6 
REMARK    2  A    between atoms: C6_6  and  C8_8 
REMARK    3  A    between atoms: C7_7  and  C8_8 
ROOT
HETATM    1  C1  UNL     1     -31.163   8.730   0.600  1.00 20.00     0.285 C 
HETATM    2  C2  UNL     1     -32.209   9.820   0.358  1.00 20.00     0.073 C 
HETATM    3  C3  UNL     1     -32.261   8.540   2.676  1.00 20.00     0.282 C 
HETATM    4  C4  UNL     1     -33.333   9.376  -0.571  1.00 20.00     0.023 C 
HETATM    5  N9  UNL     1     -31.731   7.769   1.549  1.00 20.00     0.098 N 
HETATM    6  S10 UNL     1     -32.868  10.129   2.023  1.00 20.00    -0.128 SA
HETATM    7  H27 UNL     1     -32.493   7.268   1.092  1.00 20.00     0.317 HD
ENDROOT
BRANCH   3   8
HETATM    8  C6  UNL     1     -33.380   7.771   3.360  1.00 20.00     0.046 C 
BRANCH   8   9
HETATM    9  C8  UNL     1     -33.361   6.293   2.970  1.00 20.00     0.002 C 
BRANCH   9  10
HETATM   10  C7  UNL     1     -34.403   5.500   3.757  1.00 20.00    -0.004 C 
HETATM   11  C5  UNL     1     -34.457   5.939   5.212  1.00 20.00     0.005 C 
ENDBRANCH   9  10
ENDBRANCH   8   9
ENDBRANCH   3   8
TORSDOF 3
ENDMDL
MODEL 7
REMARK VINA RESULT:      -3.7     11.560     12.193
REMARK  3 active torsions:
REMARK  status: ('A' for Active; 'I' for Inactive)
REMARK    1  A    between atoms: C3_3  and  C6_6 
REMARK    2  A    between atoms: C6_6  and  C8_8 
REMARK    3  A    between atoms: C7_7  and  C8_8 
ROOT
HETATM    1  C1  UNL     1     -35.855  15.688  -6.098  1.00 20.00     0.285 C 
HETATM    2  C2  UNL     1     -34.545  14.903  -6.008  1.00 20.00     0.073 C 
HETATM    3  C3  UNL     1     -35.718  15.626  -3.747  1.00 20.00     0.282 C 
HETATM    4  C4  UNL     1     -33.317  15.751  -6.317  1.00 20.00     0.023 C 
HETATM    5  N9  UNL     1     -35.969  16.507  -4.889  1.00 20.00     0.098 N 
HETATM    6  S10 UNL     1     -34.507  14.369  -4.271  1.00 20.00    -0.128 SA
HETATM    7  H27 UNL     1     -35.255  17.235  -4.918  1.00 20.00     0.317 HD
ENDROOT
BRANCH   3   8
HETATM    8  C6  UNL     1     -35.191  16.428  -2.568  1.00 20.00     0.046 C 
BRANCH   8   9
HETATM    9  C8  UNL     1     -33.710  16.763  -2.738  1.00 20.00     0.002 C 
BRANCH   9  10
HETATM   10  C7  UNL     1     -33.197  17.609  -1.574  1.00 20.00    -0.004 C 
HETATM   11  C5  UNL     1     -34.281  17.841  -0.533  1.00 20.00     0.005 C 
ENDBRANCH   9  10
ENDBRANCH   8   9
ENDBRANCH   3   8
TORSDOF 3
ENDMDL
MODEL 8
REMARK VINA RESULT:      -3.7     11.278     12.123
REMARK  3 active torsions:
REMARK  status: ('A' for Active; 'I' for Inactive)
REMARK    1  A    between atoms: C3_3  and  C6_6 
REMARK    2  A    between atoms: C6_6  and  C8_8 
REMARK    3  A    between atoms: C7_7  and  C8_8 
ROOT
HETATM    1  C1  UNL     1     -35.631  15.092  -5.590  1.00 20.00     0.285 C 
HETATM    2  C2  UNL     1     -34.198  14.861  -6.073  1.00 20.00     0.073 C 
HETATM    3  C3  UNL     1     -34.568  15.447  -3.517  1.00 20.00     0.282 C 
HETATM    4  C4  UNL     1     -33.633  16.039  -6.858  1.00 20.00     0.023 C 
HETATM    5  N9  UNL     1     -35.573  15.990  -4.434  1.00 20.00     0.098 N 
HETATM    6  S10 UNL     1     -33.273  14.652  -4.522  1.00 20.00    -0.128 SA
HETATM    7  H27 UNL     1     -35.279  16.914  -4.751  1.00 20.00     0.317 HD
ENDROOT
BRANCH   3   8
HETATM    8  C6  UNL     1     -33.984  16.557  -2.658  1.00 20.00     0.046 C 
BRANCH   8   9
HETATM    9  C8  UNL     1     -34.941  16.957  -1.536  1.00 20.00     0.002 C 
BRANCH   9  10
HETATM   10  C7  UNL     1     -34.229  17.791  -0.472  1.00 20.00    -0.004 C 
HETATM   11  C5  UNL     1     -32.891  18.311  -0.975  1.00 20.00     0.005 C 
ENDBRANCH   9  10
ENDBRANCH   8   9
ENDBRANCH   3   8
TORSDOF 3
ENDMDL
MODEL 9
REMARK VINA RESULT:      -3.7     10.911     12.358
REMARK  3 active torsions:
REMARK  status: ('A' for Active; 'I' for Inactive)
REMARK    1  A    between atoms: C3_3  and  C6_6 
REMARK    2  A    between atoms: C6_6  and  C8_8 
REMARK    3  A    between atoms: C7_7  and  C8_8 
ROOT
HETATM    1  C1  UNL     1     -32.757  14.976  -4.537  1.00 20.00     0.285 C 
HETATM    2  C2  UNL     1     -33.577  16.264  -4.456  1.00 20.00     0.073 C 
HETATM    3  C3  UNL     1     -34.880  13.959  -4.440  1.00 20.00     0.282 C 
HETATM    4  C4  UNL     1     -33.697  16.984  -5.794  1.00 20.00     0.023 C 
HETATM    5  N9  UNL     1     -33.601  13.947  -5.151  1.00 20.00     0.098 N 
HETATM    6  S10 UNL     1     -35.212  15.675  -3.923  1.00 20.00    -0.128 SA
HETATM    7  H27 UNL     1     -33.755  14.192  -6.130  1.00 20.00     0.317 HD
ENDROOT
BRANCH   3   8
HETATM    8  C6  UNL     1     -35.989  13.439  -5.340  1.00 20.00     0.046 C 
BRANCH   8   9
HETATM    9  C8  UNL     1     -35.505  13.269  -6.780  1.00 20.00     0.002 C 
BRANCH   9  10
HETATM   10  C7  UNL     1     -36.111  14.330  -7.697  1.00 20.00    -0.004 C 
HETATM   11  C5  UNL     1     -37.317  14.998  -7.055  1.00 20.00     0.005 C 
ENDBRANCH   9  10
ENDBRANCH   8   9
ENDBRANCH   3   8
TORSDOF 3
ENDMDL
