MODEL 1
REMARK VINA RESULT:      -4.4      0.000      0.000
REMARK  1 active torsions:
REMARK  status: ('A' for Active; 'I' for Inactive)
REMARK    1  A    between atoms: C4_4  and  C5_5 
ROOT
HETATM    1  C3  UNL     1     -33.936   6.406   5.449  1.00 20.00     0.116 C 
HETATM    2  C5  UNL     1     -32.510   7.227   3.403  1.00 20.00     0.286 C 
HETATM    3  C6  UNL     1     -34.209   5.662   4.135  1.00 20.00     0.160 C 
HETATM    4  C7  UNL     1     -34.314   4.152   4.405  1.00 20.00     0.049 C 
HETATM    5  C8  UNL     1     -35.520   6.125   3.474  1.00 20.00     0.049 C 
HETATM    6  N9  UNL     1     -33.048   5.875   3.256  1.00 20.00     0.107 N 
HETATM    7  S10 UNL     1     -33.103   7.932   4.961  1.00 20.00    -0.131 SA
HETATM    8  H25 UNL     1     -33.361   5.754   2.284  1.00 20.00     0.318 HD
ENDROOT
BRANCH   2   9
HETATM    9  C4  UNL     1     -32.859   8.122   2.252  1.00 20.00     0.029 A 
HETATM   10  C1  UNL     1     -32.206   9.469   2.114  1.00 20.00     0.008 A 
HETATM   11  C2  UNL     1     -31.861   8.365   1.153  1.00 20.00     0.008 A 
ENDBRANCH   2   9
TORSDOF 1
ENDMDL
MODEL 2
REMARK VINA RESULT:      -4.2     11.589     12.461
REMARK  1 active torsions:
REMARK  status: ('A' for Active; 'I' for Inactive)
REMARK    1  A    between atoms: C4_4  and  C5_5 
ROOT
HETATM    1  C3  UNL     1     -34.542  15.123  -6.650  1.00 20.00     0.116 C 
HETATM    2  C5  UNL     1     -34.468  16.541  -4.442  1.00 20.00     0.286 C 
HETATM    3  C6  UNL     1     -35.790  15.001  -5.765  1.00 20.00     0.160 C 
HETATM    4  C7  UNL     1     -37.054  15.058  -6.638  1.00 20.00     0.049 C 
HETATM    5  C8  UNL     1     -35.810  13.679  -4.977  1.00 20.00     0.049 C 
HETATM    6  N9  UNL     1     -35.816  16.171  -4.873  1.00 20.00     0.107 N 
HETATM    7  S10 UNL     1     -33.262  15.797  -5.569  1.00 20.00    -0.131 SA
HETATM    8  H25 UNL     1     -36.365  15.922  -4.040  1.00 20.00     0.318 HD
ENDROOT
BRANCH   2   9
HETATM    9  C4  UNL     1     -34.180  16.148  -3.024  1.00 20.00     0.029 A 
HETATM   10  C1  UNL     1     -33.648  17.162  -2.049  1.00 20.00     0.008 A 
HETATM   11  C2  UNL     1     -35.054  16.648  -1.907  1.00 20.00     0.008 A 
ENDBRANCH   2   9
TORSDOF 1
ENDMDL
MODEL 3
REMARK VINA RESULT:      -4.0     11.151     12.218
REMARK  1 active torsions:
REMARK  status: ('A' for Active; 'I' for Inactive)
REMARK    1  A    between atoms: C4_4  and  C5_5 
ROOT
HETATM    1  C3  UNL     1     -34.923  15.844  -5.860  1.00 20.00     0.116 C 
HETATM    2  C5  UNL     1     -34.642  17.149  -3.600  1.00 20.00     0.286 C 
HETATM    3  C6  UNL     1     -35.516  15.139  -4.632  1.00 20.00     0.160 C 
HETATM    4  C7  UNL     1     -36.894  14.556  -4.983  1.00 20.00     0.049 C 
HETATM    5  C8  UNL     1     -34.618  13.989  -4.141  1.00 20.00     0.049 C 
HETATM    6  N9  UNL     1     -35.718  16.159  -3.591  1.00 20.00     0.107 N 
HETATM    7  S10 UNL     1     -33.784  17.075  -5.192  1.00 20.00    -0.131 SA
HETATM    8  H25 UNL     1     -35.715  15.684  -2.679  1.00 20.00     0.318 HD
ENDROOT
BRANCH   2   9
HETATM    9  C4  UNL     1     -33.674  16.969  -2.469  1.00 20.00     0.029 A 
HETATM   10  C1  UNL     1     -33.030  18.165  -1.823  1.00 20.00     0.008 A 
HETATM   11  C2  UNL     1     -34.060  17.368  -1.071  1.00 20.00     0.008 A 
ENDBRANCH   2   9
TORSDOF 1
ENDMDL
MODEL 4
REMARK VINA RESULT:      -4.0     11.482     12.331
REMARK  1 active torsions:
REMARK  status: ('A' for Active; 'I' for Inactive)
REMARK    1  A    between atoms: C4_4  and  C5_5 
ROOT
HETATM    1  C3  UNL     1     -36.646  14.329  -6.183  1.00 20.00     0.116 C 
HETATM    2  C5  UNL     1     -35.477  15.042  -3.943  1.00 20.00     0.286 C 
HETATM    3  C6  UNL     1     -35.145  14.627  -6.307  1.00 20.00     0.160 C 
HETATM    4  C7  UNL     1     -34.474  13.558  -7.184  1.00 20.00     0.049 C 
HETATM    5  C8  UNL     1     -34.884  16.004  -6.943  1.00 20.00     0.049 C 
HETATM    6  N9  UNL     1     -34.561  14.526  -4.961  1.00 20.00     0.107 N 
HETATM    7  S10 UNL     1     -37.151  15.097  -4.629  1.00 20.00    -0.131 SA
HETATM    8  H25 UNL     1     -33.704  15.094  -4.944  1.00 20.00     0.318 HD
ENDROOT
BRANCH   2   9
HETATM    9  C4  UNL     1     -35.073  16.389  -3.425  1.00 20.00     0.029 A 
HETATM   10  C1  UNL     1     -34.956  16.628  -1.944  1.00 20.00     0.008 A 
HETATM   11  C2  UNL     1     -33.720  16.585  -2.799  1.00 20.00     0.008 A 
ENDBRANCH   2   9
TORSDOF 1
ENDMDL
MODEL 5
REMARK VINA RESULT:      -3.8     11.571     12.481
REMARK  1 active torsions:
REMARK  status: ('A' for Active; 'I' for Inactive)
REMARK    1  A    between atoms: C4_4  and  C5_5 
ROOT
HETATM    1  C3  UNL     1     -35.431  15.925  -5.219  1.00 20.00     0.116 C 
HETATM    2  C5  UNL     1     -35.207  16.231  -2.621  1.00 20.00     0.286 C 
HETATM    3  C6  UNL     1     -34.042  16.371  -4.741  1.00 20.00     0.160 C 
HETATM    4  C7  UNL     1     -32.957  15.580  -5.490  1.00 20.00     0.049 C 
HETATM    5  C8  UNL     1     -33.802  17.871  -4.991  1.00 20.00     0.049 C 
HETATM    6  N9  UNL     1     -33.934  16.029  -3.314  1.00 20.00     0.107 N 
HETATM    7  S10 UNL     1     -36.541  16.289  -3.843  1.00 20.00    -0.131 SA
HETATM    8  H25 UNL     1     -33.233  16.652  -2.892  1.00 20.00     0.318 HD
ENDROOT
BRANCH   2   9
HETATM    9  C4  UNL     1     -35.217  17.463  -1.767  1.00 20.00     0.029 A 
HETATM   10  C1  UNL     1     -35.460  17.357  -0.287  1.00 20.00     0.008 A 
HETATM   11  C2  UNL     1     -34.095  17.722  -0.800  1.00 20.00     0.008 A 
ENDBRANCH   2   9
TORSDOF 1
ENDMDL
MODEL 6
REMARK VINA RESULT:      -3.8     11.164     12.374
REMARK  1 active torsions:
REMARK  status: ('A' for Active; 'I' for Inactive)
REMARK    1  A    between atoms: C4_4  and  C5_5 
ROOT
HETATM    1  C3  UNL     1     -34.607  18.828  -2.863  1.00 20.00     0.116 C 
HETATM    2  C5  UNL     1     -34.327  16.594  -4.213  1.00 20.00     0.286 C 
HETATM    3  C6  UNL     1     -34.072  17.645  -2.045  1.00 20.00     0.160 C 
HETATM    4  C7  UNL     1     -32.917  18.115  -1.145  1.00 20.00     0.049 C 
HETATM    5  C8  UNL     1     -35.159  17.028  -1.147  1.00 20.00     0.049 C 
HETATM    6  N9  UNL     1     -33.522  16.664  -2.993  1.00 20.00     0.107 N 
HETATM    7  S10 UNL     1     -35.343  18.087  -4.336  1.00 20.00    -0.131 SA
HETATM    8  H25 UNL     1     -33.540  15.741  -2.539  1.00 20.00     0.318 HD
ENDROOT
BRANCH   2   9
HETATM    9  C4  UNL     1     -35.182  15.365  -4.277  1.00 20.00     0.029 A 
HETATM   10  C1  UNL     1     -35.102  14.446  -5.465  1.00 20.00     0.008 A 
HETATM   11  C2  UNL     1     -34.563  14.002  -4.134  1.00 20.00     0.008 A 
ENDBRANCH   2   9
TORSDOF 1
ENDMDL
MODEL 7
REMARK VINA RESULT:      -3.7     11.621     12.493
REMARK  1 active torsions:
REMARK  status: ('A' for Active; 'I' for Inactive)
REMARK    1  A    between atoms: C4_4  and  C5_5 
ROOT
HETATM    1  C3  UNL     1     -33.618  17.615  -4.401  1.00 20.00     0.116 C 
HETATM    2  C5  UNL     1     -34.174  15.198  -5.264  1.00 20.00     0.286 C 
HETATM    3  C6  UNL     1     -34.450  16.762  -3.434  1.00 20.00     0.160 C 
HETATM    4  C7  UNL     1     -33.918  16.932  -2.002  1.00 20.00     0.049 C 
HETATM    5  C8  UNL     1     -35.936  17.164  -3.445  1.00 20.00     0.049 C 
HETATM    6  N9  UNL     1     -34.261  15.353  -3.812  1.00 20.00     0.107 N 
HETATM    7  S10 UNL     1     -33.783  16.803  -6.006  1.00 20.00    -0.131 SA
HETATM    8  H25 UNL     1     -35.078  14.824  -3.478  1.00 20.00     0.318 HD
ENDROOT
BRANCH   2   9
HETATM    9  C4  UNL     1     -35.422  14.627  -5.866  1.00 20.00     0.029 A 
HETATM   10  C1  UNL     1     -35.365  13.353  -6.664  1.00 20.00     0.008 A 
HETATM   11  C2  UNL     1     -36.021  13.365  -5.311  1.00 20.00     0.008 A 
ENDBRANCH   2   9
TORSDOF 1
ENDMDL
MODEL 8
REMARK VINA RESULT:      -3.6     11.809     12.778
REMARK  1 active torsions:
REMARK  status: ('A' for Active; 'I' for Inactive)
REMARK    1  A    between atoms: C4_4  and  C5_5 
ROOT
HETATM    1  C3  UNL     1     -36.302  14.295  -7.038  1.00 20.00     0.116 C 
HETATM    2  C5  UNL     1     -34.937  15.649  -5.250  1.00 20.00     0.286 C 
HETATM    3  C6  UNL     1     -37.147  15.211  -6.142  1.00 20.00     0.160 C 
HETATM    4  C7  UNL     1     -38.189  15.953  -6.994  1.00 20.00     0.049 C 
HETATM    5  C8  UNL     1     -37.892  14.420  -5.052  1.00 20.00     0.049 C 
HETATM    6  N9  UNL     1     -36.245  16.221  -5.567  1.00 20.00     0.107 N 
HETATM    7  S10 UNL     1     -34.733  14.101  -6.166  1.00 20.00    -0.131 SA
HETATM    8  H25 UNL     1     -36.670  16.564  -4.695  1.00 20.00     0.318 HD
ENDROOT
BRANCH   2   9
HETATM    9  C4  UNL     1     -34.739  15.424  -3.781  1.00 20.00     0.029 A 
HETATM   10  C1  UNL     1     -33.849  16.341  -2.988  1.00 20.00     0.008 A 
HETATM   11  C2  UNL     1     -35.338  16.376  -2.783  1.00 20.00     0.008 A 
ENDBRANCH   2   9
TORSDOF 1
ENDMDL
MODEL 9
REMARK VINA RESULT:      -3.6     11.559     12.348
REMARK  1 active torsions:
REMARK  status: ('A' for Active; 'I' for Inactive)
REMARK    1  A    between atoms: C4_4  and  C5_5 
ROOT
HETATM    1  C3  UNL     1     -33.689  16.151  -3.398  1.00 20.00     0.116 C 
HETATM    2  C5  UNL     1     -34.663  14.337  -5.026  1.00 20.00     0.286 C 
HETATM    3  C6  UNL     1     -35.159  16.358  -3.786  1.00 20.00     0.160 C 
HETATM    4  C7  UNL     1     -35.975  16.751  -2.544  1.00 20.00     0.049 C 
HETATM    5  C8  UNL     1     -35.325  17.469  -4.840  1.00 20.00     0.049 C 
HETATM    6  N9  UNL     1     -35.677  15.067  -4.265  1.00 20.00     0.107 N 
HETATM    7  S10 UNL     1     -33.030  15.015  -4.637  1.00 20.00    -0.131 SA
HETATM    8  H25 UNL     1     -36.474  15.257  -4.887  1.00 20.00     0.318 HD
ENDROOT
BRANCH   2   9
HETATM    9  C4  UNL     1     -34.910  14.367  -6.505  1.00 20.00     0.029 A 
HETATM   10  C1  UNL     1     -35.176  13.091  -7.255  1.00 20.00     0.008 A 
HETATM   11  C2  UNL     1     -36.283  14.088  -7.049  1.00 20.00     0.008 A 
ENDBRANCH   2   9
TORSDOF 1
ENDMDL
