MODEL 1
REMARK VINA RESULT:      -3.6      0.000      0.000
REMARK  0 active torsions:
REMARK  status: ('A' for Active; 'I' for Inactive)
ROOT
HETATM    1  C1  UNL     1     -35.252  13.818  -5.528  1.00 20.00     0.080 C 
HETATM    2  C2  UNL     1     -33.747  15.822  -3.648  1.00 20.00     0.013 C 
HETATM    3  C3  UNL     1     -33.235  15.123  -4.902  1.00 20.00     0.036 C 
HETATM    4  C4  UNL     1     -34.494  17.056  -4.120  1.00 20.00     0.076 C 
HETATM    5  C5  UNL     1     -34.421  14.987  -5.867  1.00 20.00     0.093 C 
HETATM    6  C6  UNL     1     -33.953  14.892  -7.318  1.00 20.00     0.043 C 
HETATM    7  N7  UNL     1     -35.905  12.898  -5.260  1.00 20.00    -0.196 NA
HETATM    8  S8  UNL     1     -35.376  16.533  -5.617  1.00 20.00    -0.144 SA
ENDROOT
TORSDOF 0
ENDMDL
MODEL 2
REMARK VINA RESULT:      -3.6      1.407      1.514
REMARK  0 active torsions:
REMARK  status: ('A' for Active; 'I' for Inactive)
ROOT
HETATM    1  C1  UNL     1     -36.892  14.147  -5.262  1.00 20.00     0.080 C 
HETATM    2  C2  UNL     1     -34.636  15.477  -3.544  1.00 20.00     0.013 C 
HETATM    3  C3  UNL     1     -34.585  14.183  -4.347  1.00 20.00     0.036 C 
HETATM    4  C4  UNL     1     -34.348  16.600  -4.523  1.00 20.00     0.076 C 
HETATM    5  C5  UNL     1     -35.473  14.377  -5.584  1.00 20.00     0.093 C 
HETATM    6  C6  UNL     1     -35.043  13.461  -6.729  1.00 20.00     0.043 C 
HETATM    7  N7  UNL     1     -38.010  13.967  -5.008  1.00 20.00    -0.196 NA
HETATM    8  S8  UNL     1     -35.207  16.130  -6.051  1.00 20.00    -0.144 SA
ENDROOT
TORSDOF 0
ENDMDL
MODEL 3
REMARK VINA RESULT:      -3.6      1.360      1.813
REMARK  0 active torsions:
REMARK  status: ('A' for Active; 'I' for Inactive)
ROOT
HETATM    1  C1  UNL     1     -35.293  13.820  -4.920  1.00 20.00     0.080 C 
HETATM    2  C2  UNL     1     -36.173  16.544  -3.647  1.00 20.00     0.013 C 
HETATM    3  C3  UNL     1     -34.993  15.653  -3.274  1.00 20.00     0.036 C 
HETATM    4  C4  UNL     1     -35.710  17.405  -4.807  1.00 20.00     0.076 C 
HETATM    5  C5  UNL     1     -34.485  15.001  -4.567  1.00 20.00     0.093 C 
HETATM    6  C6  UNL     1     -33.012  14.612  -4.456  1.00 20.00     0.043 C 
HETATM    7  N7  UNL     1     -35.929  12.891  -5.198  1.00 20.00    -0.196 NA
HETATM    8  S8  UNL     1     -34.693  16.310  -5.836  1.00 20.00    -0.144 SA
ENDROOT
TORSDOF 0
ENDMDL
MODEL 4
REMARK VINA RESULT:      -3.5      1.565      2.645
REMARK  0 active torsions:
REMARK  status: ('A' for Active; 'I' for Inactive)
ROOT
HETATM    1  C1  UNL     1     -35.424  13.980  -5.038  1.00 20.00     0.080 C 
HETATM    2  C2  UNL     1     -35.330  16.419  -7.003  1.00 20.00     0.013 C 
HETATM    3  C3  UNL     1     -35.787  16.382  -5.549  1.00 20.00     0.036 C 
HETATM    4  C4  UNL     1     -33.821  16.574  -6.974  1.00 20.00     0.076 C 
HETATM    5  C5  UNL     1     -34.917  15.347  -4.822  1.00 20.00     0.093 C 
HETATM    6  C6  UNL     1     -34.832  15.641  -3.325  1.00 20.00     0.043 C 
HETATM    7  N7  UNL     1     -35.822  12.904  -5.209  1.00 20.00    -0.196 NA
HETATM    8  S8  UNL     1     -33.264  15.537  -5.592  1.00 20.00    -0.144 SA
ENDROOT
TORSDOF 0
ENDMDL
MODEL 5
REMARK VINA RESULT:      -3.5      1.801      2.366
REMARK  0 active torsions:
REMARK  status: ('A' for Active; 'I' for Inactive)
ROOT
HETATM    1  C1  UNL     1     -34.440  14.785  -4.069  1.00 20.00     0.080 C 
HETATM    2  C2  UNL     1     -35.080  16.707  -1.679  1.00 20.00     0.013 C 
HETATM    3  C3  UNL     1     -33.872  16.711  -2.609  1.00 20.00     0.036 C 
HETATM    4  C4  UNL     1     -36.175  17.475  -2.396  1.00 20.00     0.076 C 
HETATM    5  C5  UNL     1     -34.358  16.255  -3.992  1.00 20.00     0.093 C 
HETATM    6  C6  UNL     1     -33.455  16.785  -5.104  1.00 20.00     0.043 C 
HETATM    7  N7  UNL     1     -34.505  13.629  -4.129  1.00 20.00    -0.196 NA
HETATM    8  S8  UNL     1     -36.032  16.989  -4.139  1.00 20.00    -0.144 SA
ENDROOT
TORSDOF 0
ENDMDL
MODEL 6
REMARK VINA RESULT:      -3.4      1.038      1.324
REMARK  0 active torsions:
REMARK  status: ('A' for Active; 'I' for Inactive)
ROOT
HETATM    1  C1  UNL     1     -35.586  13.883  -5.680  1.00 20.00     0.080 C 
HETATM    2  C2  UNL     1     -32.949  15.530  -5.299  1.00 20.00     0.013 C 
HETATM    3  C3  UNL     1     -33.715  15.239  -6.584  1.00 20.00     0.036 C 
HETATM    4  C4  UNL     1     -33.618  16.735  -4.664  1.00 20.00     0.076 C 
HETATM    5  C5  UNL     1     -35.207  15.197  -6.228  1.00 20.00     0.093 C 
HETATM    6  C6  UNL     1     -36.080  15.529  -7.437  1.00 20.00     0.043 C 
HETATM    7  N7  UNL     1     -35.884  12.849  -5.247  1.00 20.00    -0.196 NA
HETATM    8  S8  UNL     1     -35.395  16.494  -4.945  1.00 20.00    -0.144 SA
ENDROOT
TORSDOF 0
ENDMDL
MODEL 7
REMARK VINA RESULT:      -3.3      2.387      3.095
REMARK  0 active torsions:
REMARK  status: ('A' for Active; 'I' for Inactive)
ROOT
HETATM    1  C1  UNL     1     -35.186  16.239  -2.661  1.00 20.00     0.080 C 
HETATM    2  C2  UNL     1     -33.060  14.769  -4.432  1.00 20.00     0.013 C 
HETATM    3  C3  UNL     1     -34.482  14.336  -4.091  1.00 20.00     0.036 C 
HETATM    4  C4  UNL     1     -33.171  15.716  -5.612  1.00 20.00     0.076 C 
HETATM    5  C5  UNL     1     -35.334  15.609  -3.985  1.00 20.00     0.093 C 
HETATM    6  C6  UNL     1     -36.808  15.319  -4.263  1.00 20.00     0.043 C 
HETATM    7  N7  UNL     1     -35.069  16.735  -1.620  1.00 20.00    -0.196 NA
HETATM    8  S8  UNL     1     -34.656  16.708  -5.287  1.00 20.00    -0.144 SA
ENDROOT
TORSDOF 0
ENDMDL
MODEL 8
REMARK VINA RESULT:      -3.2      2.026      3.245
REMARK  0 active torsions:
REMARK  status: ('A' for Active; 'I' for Inactive)
ROOT
HETATM    1  C1  UNL     1     -34.072  15.948  -5.524  1.00 20.00     0.080 C 
HETATM    2  C2  UNL     1     -35.990  13.477  -5.346  1.00 20.00     0.013 C 
HETATM    3  C3  UNL     1     -34.943  13.946  -4.342  1.00 20.00     0.036 C 
HETATM    4  C4  UNL     1     -37.244  14.284  -5.065  1.00 20.00     0.076 C 
HETATM    5  C5  UNL     1     -34.906  15.479  -4.402  1.00 20.00     0.093 C 
HETATM    6  C6  UNL     1     -34.400  16.078  -3.091  1.00 20.00     0.043 C 
HETATM    7  N7  UNL     1     -33.416  16.316  -6.407  1.00 20.00    -0.196 NA
HETATM    8  S8  UNL     1     -36.656  15.956  -4.675  1.00 20.00    -0.144 SA
ENDROOT
TORSDOF 0
ENDMDL
MODEL 9
REMARK VINA RESULT:      -3.2      3.639      4.740
REMARK  0 active torsions:
REMARK  status: ('A' for Active; 'I' for Inactive)
ROOT
HETATM    1  C1  UNL     1     -33.023  17.905  -1.579  1.00 20.00     0.080 C 
HETATM    2  C2  UNL     1     -33.471  16.707  -4.439  1.00 20.00     0.013 C 
HETATM    3  C3  UNL     1     -33.939  16.165  -3.093  1.00 20.00     0.036 C 
HETATM    4  C4  UNL     1     -34.501  17.734  -4.870  1.00 20.00     0.076 C 
HETATM    5  C5  UNL     1     -34.250  17.371  -2.197  1.00 20.00     0.093 C 
HETATM    6  C6  UNL     1     -35.267  17.016  -1.114  1.00 20.00     0.043 C 
HETATM    7  N7  UNL     1     -32.057  18.326  -1.094  1.00 20.00    -0.196 NA
HETATM    8  S8  UNL     1     -34.966  18.607  -3.348  1.00 20.00    -0.144 SA
ENDROOT
TORSDOF 0
ENDMDL
