MODEL 1
REMARK VINA RESULT:      -4.7      0.000      0.000
REMARK  0 active torsions:
REMARK  status: ('A' for Active; 'I' for Inactive)
ROOT
HETATM    1  C1  UNL     1     -33.659   7.401   5.918  1.00 20.00     0.019 A 
HETATM    2  C2  UNL     1     -32.953   8.023   4.832  1.00 20.00     0.031 A 
HETATM    3  C3  UNL     1     -34.196   6.187   5.753  1.00 20.00     0.094 A 
HETATM    4  C4  UNL     1     -32.825   7.401   3.654  1.00 20.00     0.102 A 
HETATM    5  C5  UNL     1     -33.418   6.039   3.445  1.00 20.00     0.268 A 
HETATM    6  C6  UNL     1     -34.698   4.182   4.441  1.00 20.00     0.159 C 
HETATM    7  N7  UNL     1     -34.090   5.503   4.555  1.00 20.00    -0.328 N 
HETATM    8  O8  UNL     1     -33.298   5.471   2.360  1.00 20.00    -0.266 OA
HETATM    9 CL9  UNL     1     -31.984   8.124   2.339  1.00 20.00    -0.078 Cl
ENDROOT
TORSDOF 0
ENDMDL
MODEL 2
REMARK VINA RESULT:      -4.6      2.088      2.948
REMARK  0 active torsions:
REMARK  status: ('A' for Active; 'I' for Inactive)
ROOT
HETATM    1  C1  UNL     1     -33.650   7.459   5.938  1.00 20.00     0.019 A 
HETATM    2  C2  UNL     1     -34.216   6.151   5.750  1.00 20.00     0.031 A 
HETATM    3  C3  UNL     1     -32.973   8.039   4.942  1.00 20.00     0.094 A 
HETATM    4  C4  UNL     1     -34.074   5.504   4.587  1.00 20.00     0.102 A 
HETATM    5  C5  UNL     1     -33.319   6.135   3.455  1.00 20.00     0.268 A 
HETATM    6  C6  UNL     1     -32.051   8.101   2.675  1.00 20.00     0.159 C 
HETATM    7  N7  UNL     1     -32.799   7.412   3.720  1.00 20.00    -0.328 N 
HETATM    8  O8  UNL     1     -33.190   5.537   2.387  1.00 20.00    -0.266 OA
HETATM    9 CL9  UNL     1     -34.741   3.939   4.338  1.00 20.00    -0.078 Cl
ENDROOT
TORSDOF 0
ENDMDL
MODEL 3
REMARK VINA RESULT:      -4.2      2.664      3.817
REMARK  0 active torsions:
REMARK  status: ('A' for Active; 'I' for Inactive)
ROOT
HETATM    1  C1  UNL     1     -33.648   5.477   2.535  1.00 20.00     0.019 A 
HETATM    2  C2  UNL     1     -34.352   5.178   3.752  1.00 20.00     0.031 A 
HETATM    3  C3  UNL     1     -32.819   6.525   2.488  1.00 20.00     0.094 A 
HETATM    4  C4  UNL     1     -34.187   5.937   4.843  1.00 20.00     0.102 A 
HETATM    5  C5  UNL     1     -33.262   7.117   4.814  1.00 20.00     0.268 A 
HETATM    6  C6  UNL     1     -31.696   8.466   3.470  1.00 20.00     0.159 C 
HETATM    7  N7  UNL     1     -32.614   7.340   3.588  1.00 20.00    -0.328 N 
HETATM    8  O8  UNL     1     -33.113   7.812   5.818  1.00 20.00    -0.266 OA
HETATM    9 CL9  UNL     1     -35.017   5.598   6.310  1.00 20.00    -0.078 Cl
ENDROOT
TORSDOF 0
ENDMDL
MODEL 4
REMARK VINA RESULT:      -4.2      1.655      2.475
REMARK  0 active torsions:
REMARK  status: ('A' for Active; 'I' for Inactive)
ROOT
HETATM    1  C1  UNL     1     -33.588   5.200   2.633  1.00 20.00     0.019 A 
HETATM    2  C2  UNL     1     -32.770   6.371   2.475  1.00 20.00     0.031 A 
HETATM    3  C3  UNL     1     -34.228   4.987   3.787  1.00 20.00     0.094 A 
HETATM    4  C4  UNL     1     -32.641   7.255   3.472  1.00 20.00     0.102 A 
HETATM    5  C5  UNL     1     -33.349   7.038   4.776  1.00 20.00     0.268 A 
HETATM    6  C6  UNL     1     -34.852   5.580   6.079  1.00 20.00     0.159 C 
HETATM    7  N7  UNL     1     -34.127   5.871   4.848  1.00 20.00    -0.328 N 
HETATM    8  O8  UNL     1     -33.227   7.852   5.690  1.00 20.00    -0.266 OA
HETATM    9 CL9  UNL     1     -31.667   8.663   3.308  1.00 20.00    -0.078 Cl
ENDROOT
TORSDOF 0
ENDMDL
MODEL 5
REMARK VINA RESULT:      -3.9      1.661      2.815
REMARK  0 active torsions:
REMARK  status: ('A' for Active; 'I' for Inactive)
ROOT
HETATM    1  C1  UNL     1     -34.742   4.793   5.503  1.00 20.00     0.019 A 
HETATM    2  C2  UNL     1     -34.295   4.257   4.247  1.00 20.00     0.031 A 
HETATM    3  C3  UNL     1     -34.427   6.049   5.839  1.00 20.00     0.094 A 
HETATM    4  C4  UNL     1     -33.567   5.001   3.405  1.00 20.00     0.102 A 
HETATM    5  C5  UNL     1     -33.202   6.411   3.760  1.00 20.00     0.268 A 
HETATM    6  C6  UNL     1     -33.369   8.218   5.430  1.00 20.00     0.159 C 
HETATM    7  N7  UNL     1     -33.677   6.858   5.004  1.00 20.00    -0.328 N 
HETATM    8  O8  UNL     1     -32.531   7.091   2.984  1.00 20.00    -0.266 OA
HETATM    9 CL9  UNL     1     -33.021   4.381   1.897  1.00 20.00    -0.078 Cl
ENDROOT
TORSDOF 0
ENDMDL
MODEL 6
REMARK VINA RESULT:      -3.9     11.770     12.125
REMARK  0 active torsions:
REMARK  status: ('A' for Active; 'I' for Inactive)
ROOT
HETATM    1  C1  UNL     1     -35.698  16.487  -3.249  1.00 20.00     0.019 A 
HETATM    2  C2  UNL     1     -34.431  15.817  -3.357  1.00 20.00     0.031 A 
HETATM    3  C3  UNL     1     -36.778  15.966  -3.842  1.00 20.00     0.094 A 
HETATM    4  C4  UNL     1     -34.318  14.674  -4.045  1.00 20.00     0.102 A 
HETATM    5  C5  UNL     1     -35.515  14.071  -4.717  1.00 20.00     0.268 A 
HETATM    6  C6  UNL     1     -37.928  14.272  -5.184  1.00 20.00     0.159 C 
HETATM    7  N7  UNL     1     -36.713  14.787  -4.564  1.00 20.00    -0.328 N 
HETATM    8  O8  UNL     1     -35.407  13.020  -5.349  1.00 20.00    -0.266 OA
HETATM    9 CL9  UNL     1     -32.814  13.853  -4.188  1.00 20.00    -0.078 Cl
ENDROOT
TORSDOF 0
ENDMDL
MODEL 7
REMARK VINA RESULT:      -3.9      1.737      2.524
REMARK  0 active torsions:
REMARK  status: ('A' for Active; 'I' for Inactive)
ROOT
HETATM    1  C1  UNL     1     -34.753   4.577   5.377  1.00 20.00     0.019 A 
HETATM    2  C2  UNL     1     -34.495   5.882   5.921  1.00 20.00     0.031 A 
HETATM    3  C3  UNL     1     -34.292   4.260   4.162  1.00 20.00     0.094 A 
HETATM    4  C4  UNL     1     -33.795   6.787   5.226  1.00 20.00     0.102 A 
HETATM    5  C5  UNL     1     -33.267   6.455   3.862  1.00 20.00     0.268 A 
HETATM    6  C6  UNL     1     -33.088   4.752   2.088  1.00 20.00     0.159 C 
HETATM    7  N7  UNL     1     -33.563   5.161   3.404  1.00 20.00    -0.328 N 
HETATM    8  O8  UNL     1     -32.625   7.290   3.227  1.00 20.00    -0.266 OA
HETATM    9 CL9  UNL     1     -33.473   8.354   5.857  1.00 20.00    -0.078 Cl
ENDROOT
TORSDOF 0
ENDMDL
MODEL 8
REMARK VINA RESULT:      -3.8      1.920      2.525
REMARK  0 active torsions:
REMARK  status: ('A' for Active; 'I' for Inactive)
ROOT
HETATM    1  C1  UNL     1     -32.946   7.514   3.491  1.00 20.00     0.019 A 
HETATM    2  C2  UNL     1     -32.701   6.435   2.573  1.00 20.00     0.031 A 
HETATM    3  C3  UNL     1     -33.649   7.291   4.606  1.00 20.00     0.094 A 
HETATM    4  C4  UNL     1     -33.169   5.206   2.822  1.00 20.00     0.102 A 
HETATM    5  C5  UNL     1     -33.959   4.931   4.066  1.00 20.00     0.268 A 
HETATM    6  C6  UNL     1     -34.911   5.862   6.142  1.00 20.00     0.159 C 
HETATM    7  N7  UNL     1     -34.153   6.038   4.909  1.00 20.00    -0.328 N 
HETATM    8  O8  UNL     1     -34.388   3.800   4.291  1.00 20.00    -0.266 OA
HETATM    9 CL9  UNL     1     -32.888   3.899   1.739  1.00 20.00    -0.078 Cl
ENDROOT
TORSDOF 0
ENDMDL
MODEL 9
REMARK VINA RESULT:      -3.7     12.447     13.350
REMARK  0 active torsions:
REMARK  status: ('A' for Active; 'I' for Inactive)
ROOT
HETATM    1  C1  UNL     1     -33.700  16.443  -7.056  1.00 20.00     0.019 A 
HETATM    2  C2  UNL     1     -33.592  16.705  -5.647  1.00 20.00     0.031 A 
HETATM    3  C3  UNL     1     -34.163  15.262  -7.479  1.00 20.00     0.094 A 
HETATM    4  C4  UNL     1     -33.952  15.780  -4.749  1.00 20.00     0.102 A 
HETATM    5  C5  UNL     1     -34.475  14.448  -5.199  1.00 20.00     0.268 A 
HETATM    6  C6  UNL     1     -35.047  13.008  -7.117  1.00 20.00     0.159 C 
HETATM    7  N7  UNL     1     -34.549  14.273  -6.590  1.00 20.00    -0.328 N 
HETATM    8  O8  UNL     1     -34.804  13.600  -4.371  1.00 20.00    -0.266 OA
HETATM    9 CL9  UNL     1     -33.832  16.070  -3.058  1.00 20.00    -0.078 Cl
ENDROOT
TORSDOF 0
ENDMDL
