MODEL 1
REMARK VINA RESULT:      -4.7      0.000      0.000
REMARK  2 active torsions:
REMARK  status: ('A' for Active; 'I' for Inactive)
REMARK    1  A    between atoms: C3_3  and  C6_6 
REMARK    2  A    between atoms: C6_6  and  C7_7 
ROOT
HETATM    1  C1  UNL     1     -33.641   7.085   5.162  1.00 20.00     0.285 C 
HETATM    2  C2  UNL     1     -34.469   6.011   4.458  1.00 20.00     0.073 C 
HETATM    3  C3  UNL     1     -32.523   7.158   3.092  1.00 20.00     0.282 C 
HETATM    4  C4  UNL     1     -34.712   4.791   5.328  1.00 20.00     0.023 C 
HETATM    5  N8  UNL     1     -33.147   7.992   4.124  1.00 20.00     0.098 N 
HETATM    6  S9  UNL     1     -33.476   5.609   2.992  1.00 20.00    -0.128 SA
HETATM    7  H24 UNL     1     -33.944   8.482   3.719  1.00 20.00     0.317 HD
ENDROOT
BRANCH   3   8
HETATM    8  C6  UNL     1     -32.523   7.883   1.756  1.00 20.00     0.046 C 
BRANCH   8   9
HETATM    9  C7  UNL     1     -32.184   9.362   1.924  1.00 20.00    -0.002 C 
HETATM   10  C5  UNL     1     -32.603  10.171   0.706  1.00 20.00     0.005 C 
ENDBRANCH   8   9
ENDBRANCH   3   8
TORSDOF 2
ENDMDL
MODEL 2
REMARK VINA RESULT:      -4.5      1.458      1.609
REMARK  2 active torsions:
REMARK  status: ('A' for Active; 'I' for Inactive)
REMARK    1  A    between atoms: C3_3  and  C6_6 
REMARK    2  A    between atoms: C6_6  and  C7_7 
ROOT
HETATM    1  C1  UNL     1     -34.121   5.440   3.366  1.00 20.00     0.285 C 
HETATM    2  C2  UNL     1     -33.721   5.658   4.825  1.00 20.00     0.073 C 
HETATM    3  C3  UNL     1     -33.170   7.577   3.098  1.00 20.00     0.282 C 
HETATM    4  C4  UNL     1     -34.812   5.255   5.801  1.00 20.00     0.023 C 
HETATM    5  N8  UNL     1     -33.189   6.218   2.548  1.00 20.00     0.098 N 
HETATM    6  S9  UNL     1     -33.371   7.438   4.902  1.00 20.00    -0.128 SA
HETATM    7  H24 UNL     1     -32.259   5.809   2.642  1.00 20.00     0.317 HD
ENDROOT
BRANCH   3   8
HETATM    8  C6  UNL     1     -31.865   8.272   2.747  1.00 20.00     0.046 C 
BRANCH   8   9
HETATM    9  C7  UNL     1     -31.868   8.771   1.304  1.00 20.00    -0.002 C 
HETATM   10  C5  UNL     1     -32.642  10.073   1.168  1.00 20.00     0.005 C 
ENDBRANCH   8   9
ENDBRANCH   3   8
TORSDOF 2
ENDMDL
MODEL 3
REMARK VINA RESULT:      -4.2      1.195      4.359
REMARK  2 active torsions:
REMARK  status: ('A' for Active; 'I' for Inactive)
REMARK    1  A    between atoms: C3_3  and  C6_6 
REMARK    2  A    between atoms: C6_6  and  C7_7 
ROOT
HETATM    1  C1  UNL     1     -31.882   8.572   4.122  1.00 20.00     0.285 C 
HETATM    2  C2  UNL     1     -32.015   7.702   2.873  1.00 20.00     0.073 C 
HETATM    3  C3  UNL     1     -33.822   7.409   4.775  1.00 20.00     0.282 C 
HETATM    4  C4  UNL     1     -31.801   8.482   1.588  1.00 20.00     0.023 C 
HETATM    5  N8  UNL     1     -32.492   7.829   5.226  1.00 20.00     0.098 N 
HETATM    6  S9  UNL     1     -33.706   7.051   2.993  1.00 20.00    -0.128 SA
HETATM    7  H24 UNL     1     -31.925   7.000   5.408  1.00 20.00     0.317 HD
ENDROOT
BRANCH   3   8
HETATM    8  C6  UNL     1     -34.280   6.184   5.548  1.00 20.00     0.046 C 
BRANCH   8   9
HETATM    9  C7  UNL     1     -34.980   5.179   4.637  1.00 20.00    -0.002 C 
HETATM   10  C5  UNL     1     -34.154   3.914   4.467  1.00 20.00     0.005 C 
ENDBRANCH   8   9
ENDBRANCH   3   8
TORSDOF 2
ENDMDL
MODEL 4
REMARK VINA RESULT:      -3.7     11.144     11.816
REMARK  2 active torsions:
REMARK  status: ('A' for Active; 'I' for Inactive)
REMARK    1  A    between atoms: C3_3  and  C6_6 
REMARK    2  A    between atoms: C6_6  and  C7_7 
ROOT
HETATM    1  C1  UNL     1     -35.080  13.970  -5.240  1.00 20.00     0.285 C 
HETATM    2  C2  UNL     1     -34.630  14.911  -6.357  1.00 20.00     0.073 C 
HETATM    3  C3  UNL     1     -33.694  15.349  -3.928  1.00 20.00     0.282 C 
HETATM    4  C4  UNL     1     -34.252  14.174  -7.630  1.00 20.00     0.023 C 
HETATM    5  N8  UNL     1     -35.023  14.733  -3.992  1.00 20.00     0.098 N 
HETATM    6  S9  UNL     1     -33.209  15.776  -5.631  1.00 20.00    -0.128 SA
HETATM    7  H24 UNL     1     -35.730  15.469  -4.032  1.00 20.00     0.317 HD
ENDROOT
BRANCH   3   8
HETATM    8  C6  UNL     1     -33.726  16.585  -3.045  1.00 20.00     0.046 C 
BRANCH   8   9
HETATM    9  C7  UNL     1     -34.979  16.616  -2.173  1.00 20.00    -0.002 C 
HETATM   10  C5  UNL     1     -34.732  17.362  -0.871  1.00 20.00     0.005 C 
ENDBRANCH   8   9
ENDBRANCH   3   8
TORSDOF 2
ENDMDL
MODEL 5
REMARK VINA RESULT:      -3.6     11.291     12.084
REMARK  2 active torsions:
REMARK  status: ('A' for Active; 'I' for Inactive)
REMARK    1  A    between atoms: C3_3  and  C6_6 
REMARK    2  A    between atoms: C6_6  and  C7_7 
ROOT
HETATM    1  C1  UNL     1     -33.606  15.790  -6.615  1.00 20.00     0.285 C 
HETATM    2  C2  UNL     1     -33.920  14.363  -6.164  1.00 20.00     0.073 C 
HETATM    3  C3  UNL     1     -34.268  16.311  -4.417  1.00 20.00     0.282 C 
HETATM    4  C4  UNL     1     -34.709  13.580  -7.198  1.00 20.00     0.023 C 
HETATM    5  N8  UNL     1     -33.222  16.540  -5.418  1.00 20.00     0.098 N 
HETATM    6  S9  UNL     1     -34.869  14.606  -4.634  1.00 20.00    -0.128 SA
HETATM    7  H24 UNL     1     -32.340  16.162  -5.070  1.00 20.00     0.317 HD
ENDROOT
BRANCH   3   8
HETATM    8  C6  UNL     1     -33.714  16.519  -3.017  1.00 20.00     0.046 C 
BRANCH   8   9
HETATM    9  C7  UNL     1     -34.833  16.665  -1.989  1.00 20.00    -0.002 C 
HETATM   10  C5  UNL     1     -34.405  17.539  -0.821  1.00 20.00     0.005 C 
ENDBRANCH   8   9
ENDBRANCH   3   8
TORSDOF 2
ENDMDL
MODEL 6
REMARK VINA RESULT:      -3.6     11.168     11.880
REMARK  2 active torsions:
REMARK  status: ('A' for Active; 'I' for Inactive)
REMARK    1  A    between atoms: C3_3  and  C6_6 
REMARK    2  A    between atoms: C6_6  and  C7_7 
ROOT
HETATM    1  C1  UNL     1     -35.901  13.392  -5.724  1.00 20.00     0.285 C 
HETATM    2  C2  UNL     1     -36.383  14.757  -6.212  1.00 20.00     0.073 C 
HETATM    3  C3  UNL     1     -34.051  14.644  -4.981  1.00 20.00     0.282 C 
HETATM    4  C4  UNL     1     -36.956  14.711  -7.617  1.00 20.00     0.023 C 
HETATM    5  N8  UNL     1     -35.031  13.634  -4.571  1.00 20.00     0.098 N 
HETATM    6  S9  UNL     1     -34.890  15.786  -6.125  1.00 20.00    -0.128 SA
HETATM    7  H24 UNL     1     -35.600  14.011  -3.813  1.00 20.00     0.317 HD
ENDROOT
BRANCH   3   8
HETATM    8  C6  UNL     1     -33.516  15.385  -3.767  1.00 20.00     0.046 C 
BRANCH   8   9
HETATM    9  C7  UNL     1     -34.636  16.086  -3.003  1.00 20.00    -0.002 C 
HETATM   10  C5  UNL     1     -34.085  16.978  -1.902  1.00 20.00     0.005 C 
ENDBRANCH   8   9
ENDBRANCH   3   8
TORSDOF 2
ENDMDL
MODEL 7
REMARK VINA RESULT:      -3.5     11.354     12.424
REMARK  2 active torsions:
REMARK  status: ('A' for Active; 'I' for Inactive)
REMARK    1  A    between atoms: C3_3  and  C6_6 
REMARK    2  A    between atoms: C6_6  and  C7_7 
ROOT
HETATM    1  C1  UNL     1     -34.881  13.754  -7.377  1.00 20.00     0.285 C 
HETATM    2  C2  UNL     1     -36.064  14.552  -6.830  1.00 20.00     0.073 C 
HETATM    3  C3  UNL     1     -33.661  15.117  -5.896  1.00 20.00     0.282 C 
HETATM    4  C4  UNL     1     -37.021  15.006  -7.918  1.00 20.00     0.023 C 
HETATM    5  N8  UNL     1     -33.861  13.730  -6.328  1.00 20.00     0.098 N 
HETATM    6  S9  UNL     1     -35.273  15.958  -5.998  1.00 20.00    -0.128 SA
HETATM    7  H24 UNL     1     -34.219  13.185  -5.542  1.00 20.00     0.317 HD
ENDROOT
BRANCH   3   8
HETATM    8  C6  UNL     1     -33.115  15.155  -4.478  1.00 20.00     0.046 C 
BRANCH   8   9
HETATM    9  C7  UNL     1     -34.181  15.606  -3.481  1.00 20.00    -0.002 C 
HETATM   10  C5  UNL     1     -33.658  16.700  -2.565  1.00 20.00     0.005 C 
ENDBRANCH   8   9
ENDBRANCH   3   8
TORSDOF 2
ENDMDL
MODEL 8
REMARK VINA RESULT:      -3.5     11.040     11.562
REMARK  2 active torsions:
REMARK  status: ('A' for Active; 'I' for Inactive)
REMARK    1  A    between atoms: C3_3  and  C6_6 
REMARK    2  A    between atoms: C6_6  and  C7_7 
ROOT
HETATM    1  C1  UNL     1     -33.848  14.724  -5.488  1.00 20.00     0.285 C 
HETATM    2  C2  UNL     1     -34.961  14.212  -4.574  1.00 20.00     0.073 C 
HETATM    3  C3  UNL     1     -34.111  16.685  -4.213  1.00 20.00     0.282 C 
HETATM    4  C4  UNL     1     -36.040  13.456  -5.329  1.00 20.00     0.023 C 
HETATM    5  N8  UNL     1     -33.116  15.745  -4.738  1.00 20.00     0.098 N 
HETATM    6  S9  UNL     1     -35.607  15.727  -3.811  1.00 20.00    -0.128 SA
HETATM    7  H24 UNL     1     -32.642  15.291  -3.956  1.00 20.00     0.317 HD
ENDROOT
BRANCH   3   8
HETATM    8  C6  UNL     1     -33.572  17.394  -2.982  1.00 20.00     0.046 C 
BRANCH   8   9
HETATM    9  C7  UNL     1     -34.311  16.961  -1.719  1.00 20.00    -0.002 C 
HETATM   10  C5  UNL     1     -34.062  17.926  -0.570  1.00 20.00     0.005 C 
ENDBRANCH   8   9
ENDBRANCH   3   8
TORSDOF 2
ENDMDL
MODEL 9
REMARK VINA RESULT:      -3.5      1.315      4.485
REMARK  2 active torsions:
REMARK  status: ('A' for Active; 'I' for Inactive)
REMARK    1  A    between atoms: C3_3  and  C6_6 
REMARK    2  A    between atoms: C6_6  and  C7_7 
ROOT
HETATM    1  C1  UNL     1     -31.721   8.777   3.032  1.00 20.00     0.285 C 
HETATM    2  C2  UNL     1     -32.034   8.617   1.545  1.00 20.00     0.073 C 
HETATM    3  C3  UNL     1     -33.378   7.120   3.253  1.00 20.00     0.282 C 
HETATM    4  C4  UNL     1     -32.156   9.948   0.823  1.00 20.00     0.023 C 
HETATM    5  N8  UNL     1     -32.024   7.495   3.672  1.00 20.00     0.098 N 
HETATM    6  S9  UNL     1     -33.601   7.701   1.542  1.00 20.00    -0.128 SA
HETATM    7  H24 UNL     1     -31.364   6.799   3.325  1.00 20.00     0.317 HD
ENDROOT
BRANCH   3   8
HETATM    8  C6  UNL     1     -33.561   5.614   3.345  1.00 20.00     0.046 C 
BRANCH   8   9
HETATM    9  C7  UNL     1     -34.744   5.249   4.237  1.00 20.00    -0.002 C 
HETATM   10  C5  UNL     1     -34.494   5.648   5.683  1.00 20.00     0.005 C 
ENDBRANCH   8   9
ENDBRANCH   3   8
TORSDOF 2
ENDMDL
