MODEL 1
REMARK VINA RESULT:      -4.6      0.000      0.000
REMARK  1 active torsions:
REMARK  status: ('A' for Active; 'I' for Inactive)
REMARK    1  A    between atoms: C2_2  and  C6_6 
ROOT
HETATM    1  C1  UNL     1     -32.874   7.760   4.645  1.00 20.00     0.111 C 
HETATM    2  C2  UNL     1     -33.278   7.534   3.188  1.00 20.00     0.231 C 
HETATM    3  C3  UNL     1     -34.497   5.748   4.133  1.00 20.00     0.278 C 
HETATM    4  C4  UNL     1     -34.417   4.263   4.457  1.00 20.00     0.054 C 
HETATM    5  N7  UNL     1     -33.587   6.101   3.035  1.00 20.00     0.102 N 
HETATM    6  S8  UNL     1     -34.042   6.750   5.583  1.00 20.00    -0.132 SA
HETATM    7  H21 UNL     1     -34.025   5.921   2.133  1.00 20.00     0.317 HD
ENDROOT
BRANCH   2   8
HETATM    8  C6  UNL     1     -32.168   7.944   2.229  1.00 20.00     0.032 C 
HETATM    9  C5  UNL     1     -32.526   9.172   1.456  1.00 20.00     0.007 C 
ENDBRANCH   2   8
TORSDOF 1
ENDMDL
MODEL 2
REMARK VINA RESULT:      -4.0      1.466      3.827
REMARK  1 active torsions:
REMARK  status: ('A' for Active; 'I' for Inactive)
REMARK    1  A    between atoms: C2_2  and  C6_6 
ROOT
HETATM    1  C1  UNL     1     -32.926   7.436   4.520  1.00 20.00     0.111 C 
HETATM    2  C2  UNL     1     -33.411   6.514   3.403  1.00 20.00     0.231 C 
HETATM    3  C3  UNL     1     -32.183   8.015   2.059  1.00 20.00     0.278 C 
HETATM    4  C4  UNL     1     -32.313   9.280   1.224  1.00 20.00     0.054 C 
HETATM    5  N7  UNL     1     -33.469   7.314   2.166  1.00 20.00     0.102 N 
HETATM    6  S8  UNL     1     -31.618   8.410   3.744  1.00 20.00    -0.132 SA
HETATM    7  H21 UNL     1     -33.620   6.716   1.356  1.00 20.00     0.317 HD
ENDROOT
BRANCH   2   8
HETATM    8  C6  UNL     1     -34.780   5.924   3.718  1.00 20.00     0.032 C 
HETATM    9  C5  UNL     1     -34.780   5.180   5.014  1.00 20.00     0.007 C 
ENDBRANCH   2   8
TORSDOF 1
ENDMDL
MODEL 3
REMARK VINA RESULT:      -3.5      1.738      2.044
REMARK  1 active torsions:
REMARK  status: ('A' for Active; 'I' for Inactive)
REMARK    1  A    between atoms: C2_2  and  C6_6 
ROOT
HETATM    1  C1  UNL     1     -33.616   7.040   2.287  1.00 20.00     0.111 C 
HETATM    2  C2  UNL     1     -32.269   7.466   2.871  1.00 20.00     0.231 C 
HETATM    3  C3  UNL     1     -33.262   6.722   4.879  1.00 20.00     0.278 C 
HETATM    4  C4  UNL     1     -34.061   7.195   6.085  1.00 20.00     0.054 C 
HETATM    5  N7  UNL     1     -32.497   7.825   4.283  1.00 20.00     0.102 N 
HETATM    6  S8  UNL     1     -34.366   6.049   3.598  1.00 20.00    -0.132 SA
HETATM    7  H21 UNL     1     -31.611   7.952   4.769  1.00 20.00     0.317 HD
ENDROOT
BRANCH   2   8
HETATM    8  C6  UNL     1     -31.677   8.646   2.111  1.00 20.00     0.032 C 
HETATM    9  C5  UNL     1     -32.535   9.051   0.957  1.00 20.00     0.007 C 
ENDBRANCH   2   8
TORSDOF 1
ENDMDL
MODEL 4
REMARK VINA RESULT:      -3.5      1.883      4.062
REMARK  1 active torsions:
REMARK  status: ('A' for Active; 'I' for Inactive)
REMARK    1  A    between atoms: C2_2  and  C6_6 
ROOT
HETATM    1  C1  UNL     1     -33.954   5.576   3.283  1.00 20.00     0.111 C 
HETATM    2  C2  UNL     1     -34.288   6.566   4.397  1.00 20.00     0.231 C 
HETATM    3  C3  UNL     1     -32.775   7.931   3.208  1.00 20.00     0.278 C 
HETATM    4  C4  UNL     1     -31.311   8.339   3.132  1.00 20.00     0.054 C 
HETATM    5  N7  UNL     1     -33.126   7.460   4.554  1.00 20.00     0.102 N 
HETATM    6  S8  UNL     1     -33.131   6.587   2.033  1.00 20.00    -0.132 SA
HETATM    7  H21 UNL     1     -33.356   8.246   5.161  1.00 20.00     0.317 HD
ENDROOT
BRANCH   2   8
HETATM    8  C6  UNL     1     -34.590   5.853   5.709  1.00 20.00     0.032 C 
HETATM    9  C5  UNL     1     -34.554   4.367   5.555  1.00 20.00     0.007 C 
ENDBRANCH   2   8
TORSDOF 1
ENDMDL
MODEL 5
REMARK VINA RESULT:      -3.4     11.597     11.950
REMARK  1 active torsions:
REMARK  status: ('A' for Active; 'I' for Inactive)
REMARK    1  A    between atoms: C2_2  and  C6_6 
ROOT
HETATM    1  C1  UNL     1     -33.499  16.438  -5.120  1.00 20.00     0.111 C 
HETATM    2  C2  UNL     1     -33.604  15.830  -3.723  1.00 20.00     0.231 C 
HETATM    3  C3  UNL     1     -34.786  14.151  -4.886  1.00 20.00     0.278 C 
HETATM    4  C4  UNL     1     -36.185  13.719  -5.301  1.00 20.00     0.054 C 
HETATM    5  N7  UNL     1     -34.827  15.007  -3.693  1.00 20.00     0.102 N 
HETATM    6  S8  UNL     1     -33.978  15.088  -6.221  1.00 20.00    -0.132 SA
HETATM    7  H21 UNL     1     -34.860  14.441  -2.846  1.00 20.00     0.317 HD
ENDROOT
BRANCH   2   8
HETATM    8  C6  UNL     1     -33.662  16.906  -2.646  1.00 20.00     0.032 C 
HETATM    9  C5  UNL     1     -34.871  16.760  -1.779  1.00 20.00     0.007 C 
ENDBRANCH   2   8
TORSDOF 1
ENDMDL
MODEL 6
REMARK VINA RESULT:      -3.2     12.037     12.857
REMARK  1 active torsions:
REMARK  status: ('A' for Active; 'I' for Inactive)
REMARK    1  A    between atoms: C2_2  and  C6_6 
ROOT
HETATM    1  C1  UNL     1     -34.006  16.446  -6.130  1.00 20.00     0.111 C 
HETATM    2  C2  UNL     1     -33.275  15.295  -5.439  1.00 20.00     0.231 C 
HETATM    3  C3  UNL     1     -34.157  14.065  -7.251  1.00 20.00     0.278 C 
HETATM    4  C4  UNL     1     -35.341  13.208  -7.672  1.00 20.00     0.054 C 
HETATM    5  N7  UNL     1     -33.983  14.050  -5.792  1.00 20.00     0.102 N 
HETATM    6  S8  UNL     1     -34.394  15.794  -7.770  1.00 20.00    -0.132 SA
HETATM    7  H21 UNL     1     -33.444  13.235  -5.503  1.00 20.00     0.317 HD
ENDROOT
BRANCH   2   8
HETATM    8  C6  UNL     1     -33.244  15.478  -3.927  1.00 20.00     0.032 C 
HETATM    9  C5  UNL     1     -34.606  15.744  -3.372  1.00 20.00     0.007 C 
ENDBRANCH   2   8
TORSDOF 1
ENDMDL
MODEL 7
REMARK VINA RESULT:      -3.1     11.457     12.323
REMARK  1 active torsions:
REMARK  status: ('A' for Active; 'I' for Inactive)
REMARK    1  A    between atoms: C2_2  and  C6_6 
ROOT
HETATM    1  C1  UNL     1     -36.274  14.878  -5.946  1.00 20.00     0.111 C 
HETATM    2  C2  UNL     1     -35.145  13.851  -5.869  1.00 20.00     0.231 C 
HETATM    3  C3  UNL     1     -34.642  15.021  -3.881  1.00 20.00     0.278 C 
HETATM    4  C4  UNL     1     -33.797  16.157  -3.324  1.00 20.00     0.054 C 
HETATM    5  N7  UNL     1     -34.045  14.464  -5.102  1.00 20.00     0.102 N 
HETATM    6  S8  UNL     1     -36.317  15.604  -4.292  1.00 20.00    -0.132 SA
HETATM    7  H21 UNL     1     -33.336  13.770  -4.871  1.00 20.00     0.317 HD
ENDROOT
BRANCH   2   8
HETATM    8  C6  UNL     1     -34.664  13.442  -7.255  1.00 20.00     0.032 C 
HETATM    9  C5  UNL     1     -33.887  14.533  -7.918  1.00 20.00     0.007 C 
ENDBRANCH   2   8
TORSDOF 1
ENDMDL
MODEL 8
REMARK VINA RESULT:      -3.1     11.540     11.998
REMARK  1 active torsions:
REMARK  status: ('A' for Active; 'I' for Inactive)
REMARK    1  A    between atoms: C2_2  and  C6_6 
ROOT
HETATM    1  C1  UNL     1     -34.255  14.589  -5.342  1.00 20.00     0.111 C 
HETATM    2  C2  UNL     1     -34.807  14.950  -3.963  1.00 20.00     0.231 C 
HETATM    3  C3  UNL     1     -36.847  14.308  -4.961  1.00 20.00     0.278 C 
HETATM    4  C4  UNL     1     -38.054  14.852  -5.711  1.00 20.00     0.054 C 
HETATM    5  N7  UNL     1     -36.213  15.353  -4.146  1.00 20.00     0.102 N 
HETATM    6  S8  UNL     1     -35.600  13.670  -6.123  1.00 20.00    -0.132 SA
HETATM    7  H21 UNL     1     -36.683  15.440  -3.246  1.00 20.00     0.317 HD
ENDROOT
BRANCH   2   8
HETATM    8  C6  UNL     1     -34.011  16.078  -3.319  1.00 20.00     0.032 C 
HETATM    9  C5  UNL     1     -34.698  16.622  -2.108  1.00 20.00     0.007 C 
ENDBRANCH   2   8
TORSDOF 1
ENDMDL
MODEL 9
REMARK VINA RESULT:      -3.1     11.946     12.464
REMARK  1 active torsions:
REMARK  status: ('A' for Active; 'I' for Inactive)
REMARK    1  A    between atoms: C2_2  and  C6_6 
ROOT
HETATM    1  C1  UNL     1     -34.240  16.722  -5.404  1.00 20.00     0.111 C 
HETATM    2  C2  UNL     1     -34.031  15.669  -4.317  1.00 20.00     0.231 C 
HETATM    3  C3  UNL     1     -34.221  14.194  -6.149  1.00 20.00     0.278 C 
HETATM    4  C4  UNL     1     -35.219  13.352  -6.930  1.00 20.00     0.054 C 
HETATM    5  N7  UNL     1     -34.684  14.429  -4.775  1.00 20.00     0.102 N 
HETATM    6  S8  UNL     1     -33.983  15.814  -6.945  1.00 20.00    -0.132 SA
HETATM    7  H21 UNL     1     -34.433  13.646  -4.173  1.00 20.00     0.317 HD
ENDROOT
BRANCH   2   8
HETATM    8  C6  UNL     1     -34.618  16.116  -2.984  1.00 20.00     0.032 C 
HETATM    9  C5  UNL     1     -33.671  16.987  -2.224  1.00 20.00     0.007 C 
ENDBRANCH   2   8
TORSDOF 1
ENDMDL
