MODEL 1
REMARK VINA RESULT:      -4.1      0.000      0.000
REMARK  2 active torsions:
REMARK  status: ('A' for Active; 'I' for Inactive)
REMARK    1  A    between atoms: C6_6  and  C8_8 
REMARK    2  A    between atoms: C8_8  and  O9_9 
ROOT
HETATM    1  C1  UNL     1     -34.658   4.948   5.870  1.00 20.00    -0.004 C 
HETATM    2  C2  UNL     1     -34.144   4.143   4.791  1.00 20.00    -0.003 C 
HETATM    3  C3  UNL     1     -34.480   6.276   5.891  1.00 20.00    -0.025 C 
HETATM    4  C4  UNL     1     -33.671   4.702   3.668  1.00 20.00    -0.003 C 
HETATM    5  C5  UNL     1     -33.741   7.002   4.797  1.00 20.00     0.054 C 
HETATM    6  C6  UNL     1     -33.619   6.199   3.476  1.00 20.00     0.060 C 
HETATM    7 BR10 UNL     1     -35.196   6.628   2.348  1.00 20.00    -0.079 Br
ENDROOT
BRANCH   6   8
HETATM    8  C8  UNL     1     -32.380   6.632   2.693  1.00 20.00     0.192 C 
BRANCH   8   9
HETATM    9  O9  UNL     1     -32.067   7.964   3.052  1.00 20.00    -0.394 OA
HETATM   10  C7  UNL     1     -32.059   8.828   1.920  1.00 20.00     0.201 C 
ENDBRANCH   8   9
ENDBRANCH   6   8
TORSDOF 2
ENDMDL
MODEL 2
REMARK VINA RESULT:      -3.9     11.870     12.557
REMARK  2 active torsions:
REMARK  status: ('A' for Active; 'I' for Inactive)
REMARK    1  A    between atoms: C6_6  and  C8_8 
REMARK    2  A    between atoms: C8_8  and  O9_9 
ROOT
HETATM    1  C1  UNL     1     -34.483  18.161   0.381  1.00 20.00    -0.004 C 
HETATM    2  C2  UNL     1     -35.464  17.310  -0.245  1.00 20.00    -0.003 C 
HETATM    3  C3  UNL     1     -33.308  18.418  -0.210  1.00 20.00    -0.025 C 
HETATM    4  C4  UNL     1     -35.340  16.928  -1.524  1.00 20.00    -0.003 C 
HETATM    5  C5  UNL     1     -32.945  17.842  -1.553  1.00 20.00     0.054 C 
HETATM    6  C6  UNL     1     -34.159  17.336  -2.374  1.00 20.00     0.060 C 
HETATM    7 BR10 UNL     1     -34.822  18.843  -3.484  1.00 20.00    -0.079 Br
ENDROOT
BRANCH   6   8
HETATM    8  C8  UNL     1     -33.738  16.225  -3.336  1.00 20.00     0.192 C 
BRANCH   8   9
HETATM    9  O9  UNL     1     -34.803  15.302  -3.447  1.00 20.00    -0.394 OA
HETATM   10  C7  UNL     1     -34.446  14.175  -4.241  1.00 20.00     0.201 C 
ENDBRANCH   8   9
ENDBRANCH   6   8
TORSDOF 2
ENDMDL
MODEL 3
REMARK VINA RESULT:      -3.8     12.253     12.657
REMARK  2 active torsions:
REMARK  status: ('A' for Active; 'I' for Inactive)
REMARK    1  A    between atoms: C6_6  and  C8_8 
REMARK    2  A    between atoms: C8_8  and  O9_9 
ROOT
HETATM    1  C1  UNL     1     -34.507  16.549  -2.581  1.00 20.00    -0.004 C 
HETATM    2  C2  UNL     1     -35.939  16.504  -2.747  1.00 20.00    -0.003 C 
HETATM    3  C3  UNL     1     -33.698  15.773  -3.314  1.00 20.00    -0.025 C 
HETATM    4  C4  UNL     1     -36.500  15.861  -3.780  1.00 20.00    -0.003 C 
HETATM    5  C5  UNL     1     -34.229  14.816  -4.350  1.00 20.00     0.054 C 
HETATM    6  C6  UNL     1     -35.678  15.123  -4.811  1.00 20.00     0.060 C 
HETATM    7 BR10 UNL     1     -35.580  16.354  -6.367  1.00 20.00    -0.079 Br
ENDROOT
BRANCH   6   8
HETATM    8  C8  UNL     1     -36.374  13.850  -5.293  1.00 20.00     0.192 C 
BRANCH   8   9
HETATM    9  O9  UNL     1     -35.383  12.921  -5.686  1.00 20.00    -0.394 OA
HETATM   10  C7  UNL     1     -35.301  12.802  -7.102  1.00 20.00     0.201 C 
ENDBRANCH   8   9
ENDBRANCH   6   8
TORSDOF 2
ENDMDL
MODEL 4
REMARK VINA RESULT:      -3.7     12.401     13.424
REMARK  2 active torsions:
REMARK  status: ('A' for Active; 'I' for Inactive)
REMARK    1  A    between atoms: C6_6  and  C8_8 
REMARK    2  A    between atoms: C8_8  and  O9_9 
ROOT
HETATM    1  C1  UNL     1     -34.494  14.085  -7.917  1.00 20.00    -0.004 C 
HETATM    2  C2  UNL     1     -35.171  13.054  -7.171  1.00 20.00    -0.003 C 
HETATM    3  C3  UNL     1     -34.543  15.368  -7.531  1.00 20.00    -0.025 C 
HETATM    4  C4  UNL     1     -35.681  13.295  -5.955  1.00 20.00    -0.003 C 
HETATM    5  C5  UNL     1     -35.298  15.806  -6.304  1.00 20.00     0.054 C 
HETATM    6  C6  UNL     1     -35.606  14.658  -5.308  1.00 20.00     0.060 C 
HETATM    7 BR10 UNL     1     -34.095  14.535  -4.024  1.00 20.00    -0.079 Br
ENDROOT
BRANCH   6   8
HETATM    8  C8  UNL     1     -36.860  14.972  -4.491  1.00 20.00     0.192 C 
BRANCH   8   9
HETATM    9  O9  UNL     1     -37.884  14.079  -4.884  1.00 20.00    -0.394 OA
HETATM   10  C7  UNL     1     -39.070  14.770  -5.263  1.00 20.00     0.201 C 
ENDBRANCH   8   9
ENDBRANCH   6   8
TORSDOF 2
ENDMDL
MODEL 5
REMARK VINA RESULT:      -3.7     11.884     13.083
REMARK  2 active torsions:
REMARK  status: ('A' for Active; 'I' for Inactive)
REMARK    1  A    between atoms: C6_6  and  C8_8 
REMARK    2  A    between atoms: C8_8  and  O9_9 
ROOT
HETATM    1  C1  UNL     1     -32.994  15.595  -5.305  1.00 20.00    -0.004 C 
HETATM    2  C2  UNL     1     -33.659  14.493  -4.656  1.00 20.00    -0.003 C 
HETATM    3  C3  UNL     1     -33.600  16.781  -5.456  1.00 20.00    -0.025 C 
HETATM    4  C4  UNL     1     -34.805  14.669  -3.984  1.00 20.00    -0.003 C 
HETATM    5  C5  UNL     1     -34.999  17.033  -4.957  1.00 20.00     0.054 C 
HETATM    6  C6  UNL     1     -35.484  16.015  -3.892  1.00 20.00     0.060 C 
HETATM    7 BR10 UNL     1     -34.990  16.718  -2.101  1.00 20.00    -0.079 Br
ENDROOT
BRANCH   6   8
HETATM    8  C8  UNL     1     -37.007  15.890  -3.917  1.00 20.00     0.192 C 
BRANCH   8   9
HETATM    9  O9  UNL     1     -37.341  14.578  -4.326  1.00 20.00    -0.394 OA
HETATM   10  C7  UNL     1     -38.425  14.572  -5.249  1.00 20.00     0.201 C 
ENDBRANCH   8   9
ENDBRANCH   6   8
TORSDOF 2
ENDMDL
MODEL 6
REMARK VINA RESULT:      -3.6      1.829      2.584
REMARK  2 active torsions:
REMARK  status: ('A' for Active; 'I' for Inactive)
REMARK    1  A    between atoms: C6_6  and  C8_8 
REMARK    2  A    between atoms: C8_8  and  O9_9 
ROOT
HETATM    1  C1  UNL     1     -34.019   4.949   4.227  1.00 20.00    -0.004 C 
HETATM    2  C2  UNL     1     -34.562   6.223   4.629  1.00 20.00    -0.003 C 
HETATM    3  C3  UNL     1     -33.281   4.828   3.116  1.00 20.00    -0.025 C 
HETATM    4  C4  UNL     1     -34.171   7.363   4.043  1.00 20.00    -0.003 C 
HETATM    5  C5  UNL     1     -32.972   6.006   2.228  1.00 20.00     0.054 C 
HETATM    6  C6  UNL     1     -33.168   7.383   2.913  1.00 20.00     0.060 C 
HETATM    7 BR10 UNL     1     -31.447   7.896   3.763  1.00 20.00    -0.079 Br
ENDROOT
BRANCH   6   8
HETATM    8  C8  UNL     1     -33.494   8.461   1.880  1.00 20.00     0.192 C 
BRANCH   8   9
HETATM    9  O9  UNL     1     -32.313   9.192   1.610  1.00 20.00    -0.394 OA
HETATM   10  C7  UNL     1     -32.565  10.310   0.766  1.00 20.00     0.201 C 
ENDBRANCH   8   9
ENDBRANCH   6   8
TORSDOF 2
ENDMDL
MODEL 7
REMARK VINA RESULT:      -3.6     12.258     13.104
REMARK  2 active torsions:
REMARK  status: ('A' for Active; 'I' for Inactive)
REMARK    1  A    between atoms: C6_6  and  C8_8 
REMARK    2  A    between atoms: C8_8  and  O9_9 
ROOT
HETATM    1  C1  UNL     1     -34.248  17.207  -1.295  1.00 20.00    -0.004 C 
HETATM    2  C2  UNL     1     -33.308  17.472  -2.355  1.00 20.00    -0.003 C 
HETATM    3  C3  UNL     1     -35.493  16.788  -1.560  1.00 20.00    -0.025 C 
HETATM    4  C4  UNL     1     -33.559  17.100  -3.618  1.00 20.00    -0.003 C 
HETATM    5  C5  UNL     1     -35.980  16.565  -2.968  1.00 20.00     0.054 C 
HETATM    6  C6  UNL     1     -34.845  16.414  -4.013  1.00 20.00     0.060 C 
HETATM    7 BR10 UNL     1     -34.381  14.487  -4.141  1.00 20.00    -0.079 Br
ENDROOT
BRANCH   6   8
HETATM    8  C8  UNL     1     -35.323  16.849  -5.398  1.00 20.00     0.192 C 
BRANCH   8   9
HETATM    9  O9  UNL     1     -34.787  15.956  -6.356  1.00 20.00    -0.394 OA
HETATM   10  C7  UNL     1     -34.012  16.637  -7.337  1.00 20.00     0.201 C 
ENDBRANCH   8   9
ENDBRANCH   6   8
TORSDOF 2
ENDMDL
MODEL 8
REMARK VINA RESULT:      -3.6     11.940     13.255
REMARK  2 active torsions:
REMARK  status: ('A' for Active; 'I' for Inactive)
REMARK    1  A    between atoms: C6_6  and  C8_8 
REMARK    2  A    between atoms: C8_8  and  O9_9 
ROOT
HETATM    1  C1  UNL     1     -33.663  15.863  -4.195  1.00 20.00    -0.004 C 
HETATM    2  C2  UNL     1     -34.300  16.657  -5.216  1.00 20.00    -0.003 C 
HETATM    3  C3  UNL     1     -34.064  14.611  -3.938  1.00 20.00    -0.025 C 
HETATM    4  C4  UNL     1     -35.155  16.110  -6.092  1.00 20.00    -0.003 C 
HETATM    5  C5  UNL     1     -35.191  13.960  -4.696  1.00 20.00     0.054 C 
HETATM    6  C6  UNL     1     -35.525  14.646  -6.046  1.00 20.00     0.060 C 
HETATM    7 BR10 UNL     1     -34.420  13.792  -7.459  1.00 20.00    -0.079 Br
ENDROOT
BRANCH   6   8
HETATM    8  C8  UNL     1     -36.988  14.415  -6.424  1.00 20.00     0.192 C 
BRANCH   8   9
HETATM    9  O9  UNL     1     -37.677  13.951  -5.279  1.00 20.00    -0.394 OA
HETATM   10  C7  UNL     1     -38.845  14.721  -5.018  1.00 20.00     0.201 C 
ENDBRANCH   8   9
ENDBRANCH   6   8
TORSDOF 2
ENDMDL
MODEL 9
REMARK VINA RESULT:      -3.6     12.319     13.054
REMARK  2 active torsions:
REMARK  status: ('A' for Active; 'I' for Inactive)
REMARK    1  A    between atoms: C6_6  and  C8_8 
REMARK    2  A    between atoms: C8_8  and  O9_9 
ROOT
HETATM    1  C1  UNL     1     -35.515  17.026  -1.532  1.00 20.00    -0.004 C 
HETATM    2  C2  UNL     1     -34.077  17.031  -1.637  1.00 20.00    -0.003 C 
HETATM    3  C3  UNL     1     -36.290  16.956  -2.622  1.00 20.00    -0.025 C 
HETATM    4  C4  UNL     1     -33.461  16.742  -2.791  1.00 20.00    -0.003 C 
HETATM    5  C5  UNL     1     -35.712  16.874  -4.011  1.00 20.00     0.054 C 
HETATM    6  C6  UNL     1     -34.228  16.426  -4.054  1.00 20.00     0.060 C 
HETATM    7 BR10 UNL     1     -34.189  14.445  -4.196  1.00 20.00    -0.079 Br
ENDROOT
BRANCH   6   8
HETATM    8  C8  UNL     1     -33.532  16.976  -5.298  1.00 20.00     0.192 C 
BRANCH   8   9
HETATM    9  O9  UNL     1     -33.439  15.936  -6.254  1.00 20.00    -0.394 OA
HETATM   10  C7  UNL     1     -33.987  16.322  -7.510  1.00 20.00     0.201 C 
ENDBRANCH   8   9
ENDBRANCH   6   8
TORSDOF 2
ENDMDL
