MODEL 1
REMARK VINA RESULT:      -5.3      0.000      0.000
REMARK  1 active torsions:
REMARK  status: ('A' for Active; 'I' for Inactive)
REMARK    1  A    between atoms: C3_3  and  C7_7 
ROOT
HETATM    1  C1  UNL     1     -34.001   5.919   3.010  1.00 20.00    -0.011 C 
HETATM    2  C2  UNL     1     -33.888   6.167   4.324  1.00 20.00    -0.015 C 
HETATM    3  C4  UNL     1     -33.460   6.835   1.950  1.00 20.00     0.040 C 
HETATM    4  C5  UNL     1     -33.175   7.373   4.870  1.00 20.00     0.047 C 
HETATM    5  C6  UNL     1     -32.310   8.079   3.821  1.00 20.00     0.017 C 
HETATM    6  C7  UNL     1     -33.053   8.210   2.493  1.00 20.00     0.058 C 
HETATM    7 BR10 UNL     1     -34.600   5.014   5.611  1.00 20.00    -0.056 Br
ENDROOT
BRANCH   6   8
HETATM    8  C3  UNL     1     -32.192   8.909   1.486  1.00 20.00     0.127 C 
HETATM    9  C8  UNL     1     -32.630  10.282   1.057  1.00 20.00     0.091 C 
HETATM   10  O9  UNL     1     -31.174   8.385   1.034  1.00 20.00    -0.298 OA
ENDBRANCH   6   8
TORSDOF 1
ENDMDL
MODEL 2
REMARK VINA RESULT:      -5.1      0.410      1.640
REMARK  1 active torsions:
REMARK  status: ('A' for Active; 'I' for Inactive)
REMARK    1  A    between atoms: C3_3  and  C7_7 
ROOT
HETATM    1  C1  UNL     1     -33.154   7.384   4.790  1.00 20.00    -0.011 C 
HETATM    2  C2  UNL     1     -33.805   6.270   4.423  1.00 20.00    -0.015 C 
HETATM    3  C4  UNL     1     -32.454   8.286   3.814  1.00 20.00     0.040 C 
HETATM    4  C5  UNL     1     -33.931   5.830   2.990  1.00 20.00     0.047 C 
HETATM    5  C6  UNL     1     -33.561   6.933   1.994  1.00 20.00     0.017 C 
HETATM    6  C7  UNL     1     -32.288   7.659   2.425  1.00 20.00     0.058 C 
HETATM    7 BR10 UNL     1     -34.641   5.158   5.672  1.00 20.00    -0.056 Br
ENDROOT
BRANCH   6   8
HETATM    8  C3  UNL     1     -31.942   8.728   1.434  1.00 20.00     0.127 C 
HETATM    9  C8  UNL     1     -32.734  10.004   1.510  1.00 20.00     0.091 C 
HETATM   10  O9  UNL     1     -31.051   8.569   0.600  1.00 20.00    -0.298 OA
ENDBRANCH   6   8
TORSDOF 1
ENDMDL
MODEL 3
REMARK VINA RESULT:      -5.0      3.207      4.762
REMARK  1 active torsions:
REMARK  status: ('A' for Active; 'I' for Inactive)
REMARK    1  A    between atoms: C3_3  and  C7_7 
ROOT
HETATM    1  C1  UNL     1     -32.201   8.268   3.438  1.00 20.00    -0.011 C 
HETATM    2  C2  UNL     1     -32.447   8.021   2.142  1.00 20.00    -0.015 C 
HETATM    3  C4  UNL     1     -32.875   7.529   4.559  1.00 20.00     0.040 C 
HETATM    4  C5  UNL     1     -33.397   6.951   1.679  1.00 20.00     0.047 C 
HETATM    5  C6  UNL     1     -33.772   5.966   2.791  1.00 20.00     0.017 C 
HETATM    6  C7  UNL     1     -34.079   6.700   4.096  1.00 20.00     0.058 C 
HETATM    7 BR10 UNL     1     -31.608   8.984   0.777  1.00 20.00    -0.056 Br
ENDROOT
BRANCH   6   8
HETATM    8  C3  UNL     1     -34.449   5.718   5.165  1.00 20.00     0.127 C 
HETATM    9  C8  UNL     1     -34.478   4.267   4.771  1.00 20.00     0.091 C 
HETATM   10  O9  UNL     1     -34.713   6.081   6.310  1.00 20.00    -0.298 OA
ENDBRANCH   6   8
TORSDOF 1
ENDMDL
MODEL 4
REMARK VINA RESULT:      -4.6      3.169      4.466
REMARK  1 active torsions:
REMARK  status: ('A' for Active; 'I' for Inactive)
REMARK    1  A    between atoms: C3_3  and  C7_7 
ROOT
HETATM    1  C1  UNL     1     -33.418   6.968   1.615  1.00 20.00    -0.011 C 
HETATM    2  C2  UNL     1     -32.639   7.939   2.117  1.00 20.00    -0.015 C 
HETATM    3  C4  UNL     1     -34.017   5.878   2.456  1.00 20.00     0.040 C 
HETATM    4  C5  UNL     1     -32.318   8.055   3.581  1.00 20.00     0.047 C 
HETATM    5  C6  UNL     1     -33.228   7.193   4.462  1.00 20.00     0.017 C 
HETATM    6  C7  UNL     1     -33.411   5.799   3.863  1.00 20.00     0.058 C 
HETATM    7 BR10 UNL     1     -31.889   9.263   1.031  1.00 20.00    -0.056 Br
ENDROOT
BRANCH   6   8
HETATM    8  C3  UNL     1     -34.298   4.972   4.742  1.00 20.00     0.127 C 
HETATM    9  C8  UNL     1     -34.747   5.600   6.033  1.00 20.00     0.091 C 
HETATM   10  O9  UNL     1     -34.645   3.836   4.422  1.00 20.00    -0.298 OA
ENDBRANCH   6   8
TORSDOF 1
ENDMDL
MODEL 5
REMARK VINA RESULT:      -4.6     10.525     11.198
REMARK  1 active torsions:
REMARK  status: ('A' for Active; 'I' for Inactive)
REMARK    1  A    between atoms: C3_3  and  C7_7 
ROOT
HETATM    1  C1  UNL     1     -35.527  16.664  -2.626  1.00 20.00    -0.011 C 
HETATM    2  C2  UNL     1     -34.186  16.647  -2.679  1.00 20.00    -0.015 C 
HETATM    3  C4  UNL     1     -36.394  15.773  -3.468  1.00 20.00     0.040 C 
HETATM    4  C5  UNL     1     -33.414  15.707  -3.562  1.00 20.00     0.047 C 
HETATM    5  C6  UNL     1     -34.273  14.563  -4.111  1.00 20.00     0.017 C 
HETATM    6  C7  UNL     1     -35.627  15.079  -4.599  1.00 20.00     0.058 C 
HETATM    7 BR10 UNL     1     -33.142  17.793  -1.633  1.00 20.00    -0.056 Br
ENDROOT
BRANCH   6   8
HETATM    8  C3  UNL     1     -36.447  13.946  -5.137  1.00 20.00     0.127 C 
HETATM    9  C8  UNL     1     -37.863  14.264  -5.530  1.00 20.00     0.091 C 
HETATM   10  O9  UNL     1     -35.983  12.813  -5.254  1.00 20.00    -0.298 OA
ENDBRANCH   6   8
TORSDOF 1
ENDMDL
MODEL 6
REMARK VINA RESULT:      -4.5     10.668     11.184
REMARK  1 active torsions:
REMARK  status: ('A' for Active; 'I' for Inactive)
REMARK    1  A    between atoms: C3_3  and  C7_7 
ROOT
HETATM    1  C1  UNL     1     -33.329  15.906  -3.736  1.00 20.00    -0.011 C 
HETATM    2  C2  UNL     1     -34.047  16.591  -2.832  1.00 20.00    -0.015 C 
HETATM    3  C4  UNL     1     -33.922  14.860  -4.635  1.00 20.00     0.040 C 
HETATM    4  C5  UNL     1     -35.529  16.406  -2.654  1.00 20.00     0.047 C 
HETATM    5  C6  UNL     1     -36.178  15.641  -3.812  1.00 20.00     0.017 C 
HETATM    6  C7  UNL     1     -35.333  14.432  -4.214  1.00 20.00     0.058 C 
HETATM    7 BR10 UNL     1     -33.265  17.867  -1.712  1.00 20.00    -0.056 Br
ENDROOT
BRANCH   6   8
HETATM    8  C3  UNL     1     -35.989  13.697  -5.343  1.00 20.00     0.127 C 
HETATM    9  C8  UNL     1     -37.212  14.333  -5.945  1.00 20.00     0.091 C 
HETATM   10  O9  UNL     1     -35.547  12.627  -5.758  1.00 20.00    -0.298 OA
ENDBRANCH   6   8
TORSDOF 1
ENDMDL
MODEL 7
REMARK VINA RESULT:      -4.3     10.891     11.599
REMARK  1 active torsions:
REMARK  status: ('A' for Active; 'I' for Inactive)
REMARK    1  A    between atoms: C3_3  and  C7_7 
ROOT
HETATM    1  C1  UNL     1     -35.052  14.462  -4.899  1.00 20.00    -0.011 C 
HETATM    2  C2  UNL     1     -34.286  14.772  -5.957  1.00 20.00    -0.015 C 
HETATM    3  C4  UNL     1     -34.944  15.158  -3.573  1.00 20.00     0.040 C 
HETATM    4  C5  UNL     1     -33.264  15.874  -5.931  1.00 20.00     0.047 C 
HETATM    5  C6  UNL     1     -33.430  16.813  -4.731  1.00 20.00     0.017 C 
HETATM    6  C7  UNL     1     -33.685  16.024  -3.448  1.00 20.00     0.058 C 
HETATM    7 BR10 UNL     1     -34.433  13.862  -7.583  1.00 20.00    -0.056 Br
ENDROOT
BRANCH   6   8
HETATM    8  C3  UNL     1     -33.837  16.960  -2.288  1.00 20.00     0.127 C 
HETATM    9  C8  UNL     1     -35.115  16.861  -1.501  1.00 20.00     0.091 C 
HETATM   10  O9  UNL     1     -32.958  17.768  -1.993  1.00 20.00    -0.298 OA
ENDBRANCH   6   8
TORSDOF 1
ENDMDL
MODEL 8
REMARK VINA RESULT:      -4.3     10.780     11.259
REMARK  1 active torsions:
REMARK  status: ('A' for Active; 'I' for Inactive)
REMARK    1  A    between atoms: C3_3  and  C7_7 
ROOT
HETATM    1  C1  UNL     1     -33.258  18.521  -0.306  1.00 20.00    -0.011 C 
HETATM    2  C2  UNL     1     -34.353  18.268   0.428  1.00 20.00    -0.015 C 
HETATM    3  C4  UNL     1     -33.017  17.914  -1.658  1.00 20.00     0.040 C 
HETATM    4  C5  UNL     1     -35.469  17.379  -0.046  1.00 20.00     0.047 C 
HETATM    5  C6  UNL     1     -35.399  17.085  -1.548  1.00 20.00     0.017 C 
HETATM    6  C7  UNL     1     -33.970  16.757  -1.978  1.00 20.00     0.058 C 
HETATM    7 BR10 UNL     1     -34.602  19.023   2.121  1.00 20.00    -0.056 Br
ENDROOT
BRANCH   6   8
HETATM    8  C3  UNL     1     -33.927  16.467  -3.447  1.00 20.00     0.127 C 
HETATM    9  C8  UNL     1     -34.498  15.149  -3.894  1.00 20.00     0.091 C 
HETATM   10  O9  UNL     1     -33.451  17.269  -4.249  1.00 20.00    -0.298 OA
ENDBRANCH   6   8
TORSDOF 1
ENDMDL
MODEL 9
REMARK VINA RESULT:      -4.2     10.821     11.276
REMARK  1 active torsions:
REMARK  status: ('A' for Active; 'I' for Inactive)
REMARK    1  A    between atoms: C3_3  and  C7_7 
ROOT
HETATM    1  C1  UNL     1     -33.194  17.573  -1.794  1.00 20.00    -0.011 C 
HETATM    2  C2  UNL     1     -34.095  17.723  -0.811  1.00 20.00    -0.015 C 
HETATM    3  C4  UNL     1     -33.476  16.815  -3.060  1.00 20.00     0.040 C 
HETATM    4  C5  UNL     1     -35.494  17.178  -0.893  1.00 20.00     0.047 C 
HETATM    5  C6  UNL     1     -35.887  16.758  -2.313  1.00 20.00     0.017 C 
HETATM    6  C7  UNL     1     -34.759  15.979  -2.988  1.00 20.00     0.058 C 
HETATM    7 BR10 UNL     1     -33.695  18.650   0.762  1.00 20.00    -0.056 Br
ENDROOT
BRANCH   6   8
HETATM    8  C3  UNL     1     -35.168  15.573  -4.371  1.00 20.00     0.127 C 
HETATM    9  C8  UNL     1     -35.249  14.097  -4.647  1.00 20.00     0.091 C 
HETATM   10  O9  UNL     1     -35.427  16.407  -5.238  1.00 20.00    -0.298 OA
ENDBRANCH   6   8
TORSDOF 1
ENDMDL
