MODEL 1
REMARK VINA RESULT:      -4.3      0.000      0.000
REMARK  3 active torsions:
REMARK  status: ('A' for Active; 'I' for Inactive)
REMARK    1  A    between atoms: C1_1  and  C6_6 
REMARK    2  A    between atoms: C1_1  and  O9_9 
REMARK    3  A    between atoms: C7_7  and  O9_9 
ROOT
HETATM    1  C1  UNL     1     -32.683   7.824   2.891  1.00 20.00     0.274 C 
HETATM    2  O8  UNL     1     -31.592   8.100   3.376  1.00 20.00    -0.264 OA
ENDROOT
BRANCH   1   3
HETATM    3  C6  UNL     1     -33.872   7.297   3.678  1.00 20.00     0.154 C 
HETATM    4  C2  UNL     1     -34.164   5.850   3.285  1.00 20.00     0.033 C 
HETATM    5  S10 UNL     1     -33.461   7.376   5.455  1.00 20.00    -0.082 SA
ENDBRANCH   1   3
BRANCH   1   6
HETATM    6  O9  UNL     1     -33.015   7.933   1.568  1.00 20.00    -0.310 OA
BRANCH   6   7
HETATM    7  C7  UNL     1     -32.477   9.069   0.888  1.00 20.00     0.060 C 
HETATM    8  C3  UNL     1     -30.989   8.826   0.641  1.00 20.00     0.045 C 
HETATM    9  C4  UNL     1     -33.226   9.210  -0.435  1.00 20.00     0.045 C 
HETATM   10  C5  UNL     1     -32.690  10.305   1.761  1.00 20.00     0.045 C 
ENDBRANCH   6   7
ENDBRANCH   1   6
TORSDOF 3
ENDMDL
MODEL 2
REMARK VINA RESULT:      -4.3      0.015      1.377
REMARK  3 active torsions:
REMARK  status: ('A' for Active; 'I' for Inactive)
REMARK    1  A    between atoms: C1_1  and  C6_6 
REMARK    2  A    between atoms: C1_1  and  O9_9 
REMARK    3  A    between atoms: C7_7  and  O9_9 
ROOT
HETATM    1  C1  UNL     1     -32.674   7.826   2.894  1.00 20.00     0.274 C 
HETATM    2  O8  UNL     1     -31.590   8.115   3.388  1.00 20.00    -0.264 OA
ENDROOT
BRANCH   1   3
HETATM    3  C6  UNL     1     -33.869   7.302   3.673  1.00 20.00     0.154 C 
HETATM    4  C2  UNL     1     -34.166   5.858   3.273  1.00 20.00     0.033 C 
HETATM    5  S10 UNL     1     -33.466   7.372   5.452  1.00 20.00    -0.082 SA
ENDBRANCH   1   3
BRANCH   1   6
HETATM    6  O9  UNL     1     -32.992   7.919   1.566  1.00 20.00    -0.310 OA
BRANCH   6   7
HETATM    7  C7  UNL     1     -32.480   9.066   0.887  1.00 20.00     0.060 C 
HETATM    8  C3  UNL     1     -32.694  10.292   1.775  1.00 20.00     0.045 C 
HETATM    9  C4  UNL     1     -30.990   8.832   0.645  1.00 20.00     0.045 C 
HETATM   10  C5  UNL     1     -33.222   9.219  -0.440  1.00 20.00     0.045 C 
ENDBRANCH   6   7
ENDBRANCH   1   6
TORSDOF 3
ENDMDL
MODEL 3
REMARK VINA RESULT:      -4.1      2.574      4.608
REMARK  3 active torsions:
REMARK  status: ('A' for Active; 'I' for Inactive)
REMARK    1  A    between atoms: C1_1  and  C6_6 
REMARK    2  A    between atoms: C1_1  and  O9_9 
REMARK    3  A    between atoms: C7_7  and  O9_9 
ROOT
HETATM    1  C1  UNL     1     -33.254   6.710   2.672  1.00 20.00     0.274 C 
HETATM    2  O8  UNL     1     -33.737   6.256   1.641  1.00 20.00    -0.264 OA
ENDROOT
BRANCH   1   3
HETATM    3  C6  UNL     1     -32.741   8.132   2.835  1.00 20.00     0.154 C 
HETATM    4  C2  UNL     1     -31.483   8.140   3.703  1.00 20.00     0.033 C 
HETATM    5  S10 UNL     1     -32.343   8.789   1.179  1.00 20.00    -0.082 SA
ENDBRANCH   1   3
BRANCH   1   6
HETATM    6  O9  UNL     1     -33.088   6.021   3.842  1.00 20.00    -0.310 OA
BRANCH   6   7
HETATM    7  C7  UNL     1     -34.281   5.771   4.587  1.00 20.00     0.060 C 
HETATM    8  C3  UNL     1     -34.327   4.286   4.946  1.00 20.00     0.045 C 
HETATM    9  C4  UNL     1     -34.223   6.628   5.850  1.00 20.00     0.045 C 
HETATM   10  C5  UNL     1     -35.482   6.162   3.727  1.00 20.00     0.045 C 
ENDBRANCH   6   7
ENDBRANCH   1   6
TORSDOF 3
ENDMDL
MODEL 4
REMARK VINA RESULT:      -3.9      9.477     10.627
REMARK  3 active torsions:
REMARK  status: ('A' for Active; 'I' for Inactive)
REMARK    1  A    between atoms: C1_1  and  C6_6 
REMARK    2  A    between atoms: C1_1  and  O9_9 
REMARK    3  A    between atoms: C7_7  and  O9_9 
ROOT
HETATM    1  C1  UNL     1     -35.516  13.633  -5.707  1.00 20.00     0.274 C 
HETATM    2  O8  UNL     1     -35.935  12.654  -5.101  1.00 20.00    -0.264 OA
ENDROOT
BRANCH   1   3
HETATM    3  C6  UNL     1     -36.392  14.659  -6.407  1.00 20.00     0.154 C 
HETATM    4  C2  UNL     1     -36.570  14.283  -7.877  1.00 20.00     0.033 C 
HETATM    5  S10 UNL     1     -38.020  14.678  -5.581  1.00 20.00    -0.082 SA
ENDBRANCH   1   3
BRANCH   1   6
HETATM    6  O9  UNL     1     -34.198  13.967  -5.862  1.00 20.00    -0.310 OA
BRANCH   6   7
HETATM    7  C7  UNL     1     -33.640  14.779  -4.828  1.00 20.00     0.060 C 
HETATM    8  C3  UNL     1     -32.460  14.032  -4.208  1.00 20.00     0.045 C 
HETATM    9  C4  UNL     1     -33.172  16.084  -5.469  1.00 20.00     0.045 C 
HETATM   10  C5  UNL     1     -34.722  15.051  -3.784  1.00 20.00     0.045 C 
ENDBRANCH   6   7
ENDBRANCH   1   6
TORSDOF 3
ENDMDL
MODEL 5
REMARK VINA RESULT:      -3.8      9.347     10.844
REMARK  3 active torsions:
REMARK  status: ('A' for Active; 'I' for Inactive)
REMARK    1  A    between atoms: C1_1  and  C6_6 
REMARK    2  A    between atoms: C1_1  and  O9_9 
REMARK    3  A    between atoms: C7_7  and  O9_9 
ROOT
HETATM    1  C1  UNL     1     -35.416  13.901  -5.022  1.00 20.00     0.274 C 
HETATM    2  O8  UNL     1     -35.853  12.766  -5.165  1.00 20.00    -0.264 OA
ENDROOT
BRANCH   1   3
HETATM    3  C6  UNL     1     -34.456  14.328  -3.923  1.00 20.00     0.154 C 
HETATM    4  C2  UNL     1     -33.037  14.439  -4.477  1.00 20.00     0.033 C 
HETATM    5  S10 UNL     1     -34.995  15.957  -3.297  1.00 20.00    -0.082 SA
ENDBRANCH   1   3
BRANCH   1   6
HETATM    6  O9  UNL     1     -35.717  14.975  -5.815  1.00 20.00    -0.310 OA
BRANCH   6   7
HETATM    7  C7  UNL     1     -35.495  14.791  -7.214  1.00 20.00     0.060 C 
HETATM    8  C3  UNL     1     -36.850  14.656  -7.908  1.00 20.00     0.045 C 
HETATM    9  C4  UNL     1     -34.749  16.021  -7.727  1.00 20.00     0.045 C 
HETATM   10  C5  UNL     1     -34.653  13.531  -7.412  1.00 20.00     0.045 C 
ENDBRANCH   6   7
ENDBRANCH   1   6
TORSDOF 3
ENDMDL
MODEL 6
REMARK VINA RESULT:      -3.8      9.578     10.380
REMARK  3 active torsions:
REMARK  status: ('A' for Active; 'I' for Inactive)
REMARK    1  A    between atoms: C1_1  and  C6_6 
REMARK    2  A    between atoms: C1_1  and  O9_9 
REMARK    3  A    between atoms: C7_7  and  O9_9 
ROOT
HETATM    1  C1  UNL     1     -34.841  14.110  -4.401  1.00 20.00     0.274 C 
HETATM    2  O8  UNL     1     -33.725  13.654  -4.182  1.00 20.00    -0.264 OA
ENDROOT
BRANCH   1   3
HETATM    3  C6  UNL     1     -35.886  13.455  -5.290  1.00 20.00     0.154 C 
HETATM    4  C2  UNL     1     -37.178  14.270  -5.271  1.00 20.00     0.033 C 
HETATM    5  S10 UNL     1     -35.228  13.395  -6.993  1.00 20.00    -0.082 SA
ENDBRANCH   1   3
BRANCH   1   6
HETATM    6  O9  UNL     1     -35.335  15.281  -3.893  1.00 20.00    -0.310 OA
BRANCH   6   7
HETATM    7  C7  UNL     1     -34.487  16.422  -4.036  1.00 20.00     0.060 C 
HETATM    8  C3  UNL     1     -33.518  16.165  -5.189  1.00 20.00     0.045 C 
HETATM    9  C4  UNL     1     -35.380  17.623  -4.342  1.00 20.00     0.045 C 
HETATM   10  C5  UNL     1     -33.731  16.635  -2.726  1.00 20.00     0.045 C 
ENDBRANCH   6   7
ENDBRANCH   1   6
TORSDOF 3
ENDMDL
MODEL 7
REMARK VINA RESULT:      -3.8      9.916     10.841
REMARK  3 active torsions:
REMARK  status: ('A' for Active; 'I' for Inactive)
REMARK    1  A    between atoms: C1_1  and  C6_6 
REMARK    2  A    between atoms: C1_1  and  O9_9 
REMARK    3  A    between atoms: C7_7  and  O9_9 
ROOT
HETATM    1  C1  UNL     1     -35.774  13.946  -5.631  1.00 20.00     0.274 C 
HETATM    2  O8  UNL     1     -35.576  12.903  -5.020  1.00 20.00    -0.264 OA
ENDROOT
BRANCH   1   3
HETATM    3  C6  UNL     1     -37.112  14.367  -6.216  1.00 20.00     0.154 C 
HETATM    4  C2  UNL     1     -38.145  14.534  -5.103  1.00 20.00     0.033 C 
HETATM    5  S10 UNL     1     -36.882  15.960  -7.078  1.00 20.00    -0.082 SA
ENDBRANCH   1   3
BRANCH   1   6
HETATM    6  O9  UNL     1     -34.832  14.903  -5.896  1.00 20.00    -0.310 OA
BRANCH   6   7
HETATM    7  C7  UNL     1     -34.109  15.389  -4.764  1.00 20.00     0.060 C 
HETATM    8  C3  UNL     1     -33.045  14.359  -4.389  1.00 20.00     0.045 C 
HETATM    9  C4  UNL     1     -33.459  16.711  -5.167  1.00 20.00     0.045 C 
HETATM   10  C5  UNL     1     -35.092  15.602  -3.614  1.00 20.00     0.045 C 
ENDBRANCH   6   7
ENDBRANCH   1   6
TORSDOF 3
ENDMDL
MODEL 8
REMARK VINA RESULT:      -3.8      2.107      4.144
REMARK  3 active torsions:
REMARK  status: ('A' for Active; 'I' for Inactive)
REMARK    1  A    between atoms: C1_1  and  C6_6 
REMARK    2  A    between atoms: C1_1  and  O9_9 
REMARK    3  A    between atoms: C7_7  and  O9_9 
ROOT
HETATM    1  C1  UNL     1     -32.595   8.314   2.723  1.00 20.00     0.274 C 
HETATM    2  O8  UNL     1     -31.538   8.224   3.336  1.00 20.00    -0.264 OA
ENDROOT
BRANCH   1   3
HETATM    3  C6  UNL     1     -32.738   8.881   1.320  1.00 20.00     0.154 C 
HETATM    4  C2  UNL     1     -32.979  10.389   1.383  1.00 20.00     0.033 C 
HETATM    5  S10 UNL     1     -31.190   8.549   0.411  1.00 20.00    -0.082 SA
ENDBRANCH   1   3
BRANCH   1   6
HETATM    6  O9  UNL     1     -33.822   7.930   3.193  1.00 20.00    -0.310 OA
BRANCH   6   7
HETATM    7  C7  UNL     1     -33.882   6.624   3.767  1.00 20.00     0.060 C 
HETATM    8  C3  UNL     1     -33.511   6.726   5.246  1.00 20.00     0.045 C 
HETATM    9  C4  UNL     1     -35.313   6.115   3.606  1.00 20.00     0.045 C 
HETATM   10  C5  UNL     1     -32.902   5.718   3.022  1.00 20.00     0.045 C 
ENDBRANCH   6   7
ENDBRANCH   1   6
TORSDOF 3
ENDMDL
MODEL 9
REMARK VINA RESULT:      -3.7      9.857     10.909
REMARK  3 active torsions:
REMARK  status: ('A' for Active; 'I' for Inactive)
REMARK    1  A    between atoms: C1_1  and  C6_6 
REMARK    2  A    between atoms: C1_1  and  O9_9 
REMARK    3  A    between atoms: C7_7  and  O9_9 
ROOT
HETATM    1  C1  UNL     1     -35.375  14.183  -5.396  1.00 20.00     0.274 C 
HETATM    2  O8  UNL     1     -35.529  13.015  -5.060  1.00 20.00    -0.264 OA
ENDROOT
BRANCH   1   3
HETATM    3  C6  UNL     1     -35.252  14.663  -6.833  1.00 20.00     0.154 C 
HETATM    4  C2  UNL     1     -34.414  13.678  -7.646  1.00 20.00     0.033 C 
HETATM    5  S10 UNL     1     -36.930  14.768  -7.545  1.00 20.00    -0.082 SA
ENDBRANCH   1   3
BRANCH   1   6
HETATM    6  O9  UNL     1     -35.281  15.250  -4.543  1.00 20.00    -0.310 OA
BRANCH   6   7
HETATM    7  C7  UNL     1     -33.954  15.662  -4.213  1.00 20.00     0.060 C 
HETATM    8  C3  UNL     1     -33.494  16.688  -5.247  1.00 20.00     0.045 C 
HETATM    9  C4  UNL     1     -33.999  16.286  -2.820  1.00 20.00     0.045 C 
HETATM   10  C5  UNL     1     -33.046  14.433  -4.223  1.00 20.00     0.045 C 
ENDBRANCH   6   7
ENDBRANCH   1   6
TORSDOF 3
ENDMDL
