MODEL 1
REMARK VINA RESULT:      -4.2      0.000      0.000
REMARK  1 active torsions:
REMARK  status: ('A' for Active; 'I' for Inactive)
REMARK    1  A    between atoms: C6_6  and  O10_10 
ROOT
HETATM    1  C1  UNL     1     -35.059  17.177  -0.819  1.00 20.00     0.001 C 
HETATM    2  C2  UNL     1     -33.811  17.887  -1.308  1.00 20.00     0.001 C 
HETATM    3  C3  UNL     1     -35.748  16.735  -2.107  1.00 20.00     0.013 C 
HETATM    4  C4  UNL     1     -33.313  16.960  -2.408  1.00 20.00     0.013 C 
HETATM    5  C5  UNL     1     -35.455  15.734  -4.941  1.00 20.00     0.053 C 
HETATM    6  C6  UNL     1     -34.891  17.115  -4.537  1.00 20.00     0.132 C 
HETATM    7  C7  UNL     1     -34.602  15.104  -3.819  1.00 20.00     0.095 C 
HETATM    8  C8  UNL     1     -34.596  16.508  -3.117  1.00 20.00     0.003 C 
HETATM    9 CL11 UNL     1     -33.032  14.350  -4.322  1.00 20.00    -0.124 Cl
ENDROOT
BRANCH   6  10
HETATM   10  O10 UNL     1     -33.763  17.574  -5.312  1.00 20.00    -0.390 OA
HETATM   11  C9  UNL     1     -33.992  17.391  -6.696  1.00 20.00     0.202 C 
ENDBRANCH   6  10
TORSDOF 1
ENDMDL
MODEL 2
REMARK VINA RESULT:      -4.1      1.938      2.671
REMARK  1 active torsions:
REMARK  status: ('A' for Active; 'I' for Inactive)
REMARK    1  A    between atoms: C6_6  and  O10_10 
ROOT
HETATM    1  C1  UNL     1     -34.097  17.642  -1.012  1.00 20.00     0.001 C 
HETATM    2  C2  UNL     1     -35.432  16.923  -1.065  1.00 20.00     0.001 C 
HETATM    3  C3  UNL     1     -33.319  17.042  -2.180  1.00 20.00     0.013 C 
HETATM    4  C4  UNL     1     -35.752  16.934  -2.553  1.00 20.00     0.013 C 
HETATM    5  C5  UNL     1     -33.390  15.934  -4.988  1.00 20.00     0.053 C 
HETATM    6  C6  UNL     1     -34.175  15.239  -3.854  1.00 20.00     0.132 C 
HETATM    7  C7  UNL     1     -34.154  17.236  -4.663  1.00 20.00     0.095 C 
HETATM    8  C8  UNL     1     -34.400  16.662  -3.223  1.00 20.00     0.003 C 
HETATM    9 CL11 UNL     1     -35.573  17.627  -5.722  1.00 20.00    -0.124 Cl
ENDROOT
BRANCH   6  10
HETATM   10  O10 UNL     1     -35.346  14.504  -4.270  1.00 20.00    -0.390 OA
HETATM   11  C9  UNL     1     -35.119  13.851  -5.505  1.00 20.00     0.202 C 
ENDBRANCH   6  10
TORSDOF 1
ENDMDL
MODEL 3
REMARK VINA RESULT:      -4.0     11.438     12.397
REMARK  1 active torsions:
REMARK  status: ('A' for Active; 'I' for Inactive)
REMARK    1  A    between atoms: C6_6  and  O10_10 
ROOT
HETATM    1  C1  UNL     1     -32.454   9.175   1.710  1.00 20.00     0.001 C 
HETATM    2  C2  UNL     1     -31.335   8.225   2.091  1.00 20.00     0.001 C 
HETATM    3  C3  UNL     1     -33.718   8.348   1.931  1.00 20.00     0.013 C 
HETATM    4  C4  UNL     1     -31.867   7.583   3.365  1.00 20.00     0.013 C 
HETATM    5  C5  UNL     1     -35.133   6.244   3.570  1.00 20.00     0.053 C 
HETATM    6  C6  UNL     1     -33.838   5.897   2.803  1.00 20.00     0.132 C 
HETATM    7  C7  UNL     1     -34.358   7.372   4.284  1.00 20.00     0.095 C 
HETATM    8  C8  UNL     1     -33.357   7.368   3.075  1.00 20.00     0.003 C 
HETATM    9 CL11 UNL     1     -33.746   7.004   5.951  1.00 20.00    -0.124 Cl
ENDROOT
BRANCH   6  10
HETATM   10  O10 UNL     1     -33.052   4.825   3.366  1.00 20.00    -0.390 OA
HETATM   11  C9  UNL     1     -33.872   3.914   4.072  1.00 20.00     0.202 C 
ENDBRANCH   6  10
TORSDOF 1
ENDMDL
MODEL 4
REMARK VINA RESULT:      -4.0      2.179      3.874
REMARK  1 active torsions:
REMARK  status: ('A' for Active; 'I' for Inactive)
REMARK    1  A    between atoms: C6_6  and  O10_10 
ROOT
HETATM    1  C1  UNL     1     -33.962  14.586  -5.319  1.00 20.00     0.001 C 
HETATM    2  C2  UNL     1     -33.017  15.741  -5.588  1.00 20.00     0.001 C 
HETATM    3  C3  UNL     1     -34.408  14.815  -3.877  1.00 20.00     0.013 C 
HETATM    4  C4  UNL     1     -33.758  16.922  -4.975  1.00 20.00     0.013 C 
HETATM    5  C5  UNL     1     -35.116  16.797  -1.713  1.00 20.00     0.053 C 
HETATM    6  C6  UNL     1     -33.698  16.782  -2.325  1.00 20.00     0.132 C 
HETATM    7  C7  UNL     1     -35.683  16.988  -3.136  1.00 20.00     0.095 C 
HETATM    8  C8  UNL     1     -34.358  16.351  -3.685  1.00 20.00     0.003 C 
HETATM    9 CL11 UNL     1     -36.123  18.682  -3.611  1.00 20.00    -0.124 Cl
ENDROOT
BRANCH   6  10
HETATM   10  O10 UNL     1     -32.997  18.043  -2.297  1.00 20.00    -0.390 OA
HETATM   11  C9  UNL     1     -32.619  18.382  -0.976  1.00 20.00     0.202 C 
ENDBRANCH   6  10
TORSDOF 1
ENDMDL
MODEL 5
REMARK VINA RESULT:      -3.9      1.493      1.828
REMARK  1 active torsions:
REMARK  status: ('A' for Active; 'I' for Inactive)
REMARK    1  A    between atoms: C6_6  and  O10_10 
ROOT
HETATM    1  C1  UNL     1     -35.112  16.761  -1.811  1.00 20.00     0.001 C 
HETATM    2  C2  UNL     1     -33.824  16.549  -2.582  1.00 20.00     0.001 C 
HETATM    3  C3  UNL     1     -36.174  16.849  -2.903  1.00 20.00     0.013 C 
HETATM    4  C4  UNL     1     -34.231  15.519  -3.626  1.00 20.00     0.013 C 
HETATM    5  C5  UNL     1     -37.140  15.898  -5.602  1.00 20.00     0.053 C 
HETATM    6  C6  UNL     1     -35.786  16.629  -5.469  1.00 20.00     0.132 C 
HETATM    7  C7  UNL     1     -36.637  14.869  -4.566  1.00 20.00     0.095 C 
HETATM    8  C8  UNL     1     -35.635  15.963  -4.053  1.00 20.00     0.003 C 
HETATM    9 CL11 UNL     1     -35.994  13.307  -5.225  1.00 20.00    -0.124 Cl
ENDROOT
BRANCH   6  10
HETATM   10  O10 UNL     1     -34.800  16.296  -6.469  1.00 20.00    -0.390 OA
HETATM   11  C9  UNL     1     -34.063  17.441  -6.854  1.00 20.00     0.202 C 
ENDBRANCH   6  10
TORSDOF 1
ENDMDL
MODEL 6
REMARK VINA RESULT:      -3.9      1.886      2.694
REMARK  1 active torsions:
REMARK  status: ('A' for Active; 'I' for Inactive)
REMARK    1  A    between atoms: C6_6  and  O10_10 
ROOT
HETATM    1  C1  UNL     1     -34.198  18.154  -2.117  1.00 20.00     0.001 C 
HETATM    2  C2  UNL     1     -35.536  18.203  -2.829  1.00 20.00     0.001 C 
HETATM    3  C3  UNL     1     -33.678  16.753  -2.428  1.00 20.00     0.013 C 
HETATM    4  C4  UNL     1     -35.219  17.561  -4.172  1.00 20.00     0.013 C 
HETATM    5  C5  UNL     1     -33.480  14.491  -4.419  1.00 20.00     0.053 C 
HETATM    6  C6  UNL     1     -34.857  14.946  -3.887  1.00 20.00     0.132 C 
HETATM    7  C7  UNL     1     -33.228  15.941  -4.886  1.00 20.00     0.095 C 
HETATM    8  C8  UNL     1     -34.277  16.405  -3.813  1.00 20.00     0.003 C 
HETATM    9 CL11 UNL     1     -33.529  16.291  -6.639  1.00 20.00    -0.124 Cl
ENDROOT
BRANCH   6  10
HETATM   10  O10 UNL     1     -35.971  14.718  -4.776  1.00 20.00    -0.390 OA
HETATM   11  C9  UNL     1     -35.943  13.401  -5.293  1.00 20.00     0.202 C 
ENDBRANCH   6  10
TORSDOF 1
ENDMDL
MODEL 7
REMARK VINA RESULT:      -3.8      2.451      3.182
REMARK  1 active torsions:
REMARK  status: ('A' for Active; 'I' for Inactive)
REMARK    1  A    between atoms: C6_6  and  O10_10 
ROOT
HETATM    1  C1  UNL     1     -33.657  17.046  -2.022  1.00 20.00     0.001 C 
HETATM    2  C2  UNL     1     -35.029  16.927  -1.386  1.00 20.00     0.001 C 
HETATM    3  C3  UNL     1     -33.813  16.314  -3.352  1.00 20.00     0.013 C 
HETATM    4  C4  UNL     1     -35.960  17.223  -2.554  1.00 20.00     0.013 C 
HETATM    5  C5  UNL     1     -35.596  15.632  -5.692  1.00 20.00     0.053 C 
HETATM    6  C6  UNL     1     -35.979  15.190  -4.262  1.00 20.00     0.132 C 
HETATM    7  C7  UNL     1     -35.534  17.087  -5.180  1.00 20.00     0.095 C 
HETATM    8  C8  UNL     1     -35.300  16.508  -3.740  1.00 20.00     0.003 C 
HETATM    9 CL11 UNL     1     -36.989  18.121  -5.502  1.00 20.00    -0.124 Cl
ENDROOT
BRANCH   6  10
HETATM   10  O10 UNL     1     -37.393  15.030  -4.021  1.00 20.00    -0.390 OA
HETATM   11  C9  UNL     1     -38.037  14.463  -5.146  1.00 20.00     0.202 C 
ENDBRANCH   6  10
TORSDOF 1
ENDMDL
MODEL 8
REMARK VINA RESULT:      -3.8      2.251      3.483
REMARK  1 active torsions:
REMARK  status: ('A' for Active; 'I' for Inactive)
REMARK    1  A    between atoms: C6_6  and  O10_10 
ROOT
HETATM    1  C1  UNL     1     -34.382  14.338  -4.211  1.00 20.00     0.001 C 
HETATM    2  C2  UNL     1     -35.742  14.977  -4.417  1.00 20.00     0.001 C 
HETATM    3  C3  UNL     1     -33.483  15.517  -3.848  1.00 20.00     0.013 C 
HETATM    4  C4  UNL     1     -35.833  15.943  -3.244  1.00 20.00     0.013 C 
HETATM    5  C5  UNL     1     -33.210  18.178  -2.447  1.00 20.00     0.053 C 
HETATM    6  C6  UNL     1     -34.206  18.008  -3.615  1.00 20.00     0.132 C 
HETATM    7  C7  UNL     1     -33.918  17.008  -1.730  1.00 20.00     0.095 C 
HETATM    8  C8  UNL     1     -34.419  16.526  -3.137  1.00 20.00     0.003 C 
HETATM    9 CL11 UNL     1     -35.128  17.453  -0.455  1.00 20.00    -0.124 Cl
ENDROOT
BRANCH   6  10
HETATM   10  O10 UNL     1     -35.351  18.887  -3.586  1.00 20.00    -0.390 OA
HETATM   11  C9  UNL     1     -35.733  19.262  -4.897  1.00 20.00     0.202 C 
ENDBRANCH   6  10
TORSDOF 1
ENDMDL
MODEL 9
REMARK VINA RESULT:      -3.8      1.798      3.976
REMARK  1 active torsions:
REMARK  status: ('A' for Active; 'I' for Inactive)
REMARK    1  A    between atoms: C6_6  and  O10_10 
ROOT
HETATM    1  C1  UNL     1     -36.593  14.497  -6.715  1.00 20.00     0.001 C 
HETATM    2  C2  UNL     1     -36.913  13.942  -5.340  1.00 20.00     0.001 C 
HETATM    3  C3  UNL     1     -35.638  15.651  -6.422  1.00 20.00     0.013 C 
HETATM    4  C4  UNL     1     -35.548  13.927  -4.665  1.00 20.00     0.013 C 
HETATM    5  C5  UNL     1     -33.403  16.739  -4.707  1.00 20.00     0.053 C 
HETATM    6  C6  UNL     1     -34.774  16.399  -4.082  1.00 20.00     0.132 C 
HETATM    7  C7  UNL     1     -33.327  15.287  -5.227  1.00 20.00     0.095 C 
HETATM    8  C8  UNL     1     -34.893  15.233  -5.130  1.00 20.00     0.003 C 
HETATM    9 CL11 UNL     1     -32.332  14.128  -4.249  1.00 20.00    -0.124 Cl
ENDROOT
BRANCH   6  10
HETATM   10  O10 UNL     1     -34.746  16.036  -2.685  1.00 20.00    -0.390 OA
HETATM   11  C9  UNL     1     -34.018  16.987  -1.931  1.00 20.00     0.202 C 
ENDBRANCH   6  10
TORSDOF 1
ENDMDL
