MODEL 1
REMARK VINA RESULT:      -4.1      0.000      0.000
REMARK  1 active torsions:
REMARK  status: ('A' for Active; 'I' for Inactive)
REMARK    1  A    between atoms: C2_2  and  O8_8 
ROOT
HETATM    1  C1  UNL     1     -33.206   7.505   4.892  1.00 20.00     0.053 C 
HETATM    2  C2  UNL     1     -32.742   7.301   3.431  1.00 20.00     0.131 C 
HETATM    3  C3  UNL     1     -33.515   5.993   4.948  1.00 20.00     0.095 C 
HETATM    4  C4  UNL     1     -33.656   6.029   3.387  1.00 20.00    -0.005 C 
HETATM    5  C5  UNL     1     -35.068   6.273   2.843  1.00 20.00     0.019 C 
HETATM    6  C6  UNL     1     -33.005   4.835   2.691  1.00 20.00     0.019 C 
HETATM    7 CL9  UNL     1     -34.872   5.438   5.980  1.00 20.00    -0.124 Cl
ENDROOT
BRANCH   2   8
HETATM    8  O8  UNL     1     -33.059   8.358   2.508  1.00 20.00    -0.390 OA
HETATM    9  C7  UNL     1     -31.964   8.629   1.656  1.00 20.00     0.202 C 
ENDBRANCH   2   8
TORSDOF 1
ENDMDL
MODEL 2
REMARK VINA RESULT:      -3.8      2.499      3.505
REMARK  1 active torsions:
REMARK  status: ('A' for Active; 'I' for Inactive)
REMARK    1  A    between atoms: C2_2  and  O8_8 
ROOT
HETATM    1  C1  UNL     1     -33.842   7.049   4.699  1.00 20.00     0.053 C 
HETATM    2  C2  UNL     1     -34.825   6.086   3.993  1.00 20.00     0.131 C 
HETATM    3  C3  UNL     1     -33.336   7.471   3.302  1.00 20.00     0.095 C 
HETATM    4  C4  UNL     1     -33.844   6.086   2.769  1.00 20.00    -0.005 C 
HETATM    5  C5  UNL     1     -32.820   4.947   2.769  1.00 20.00     0.019 C 
HETATM    6  C6  UNL     1     -34.554   6.178   1.421  1.00 20.00     0.019 C 
HETATM    7 CL9  UNL     1     -31.617   7.948   3.125  1.00 20.00    -0.124 Cl
ENDROOT
BRANCH   2   8
HETATM    8  O8  UNL     1     -35.052   4.822   4.638  1.00 20.00    -0.390 OA
HETATM    9  C7  UNL     1     -34.565   4.837   5.966  1.00 20.00     0.202 C 
ENDBRANCH   2   8
TORSDOF 1
ENDMDL
MODEL 3
REMARK VINA RESULT:      -3.6     11.285     12.260
REMARK  1 active torsions:
REMARK  status: ('A' for Active; 'I' for Inactive)
REMARK    1  A    between atoms: C2_2  and  O8_8 
ROOT
HETATM    1  C1  UNL     1     -36.033  14.950  -4.190  1.00 20.00     0.053 C 
HETATM    2  C2  UNL     1     -35.355  14.615  -5.539  1.00 20.00     0.131 C 
HETATM    3  C3  UNL     1     -35.008  16.092  -4.020  1.00 20.00     0.095 C 
HETATM    4  C4  UNL     1     -34.058  15.298  -4.983  1.00 20.00    -0.005 C 
HETATM    5  C5  UNL     1     -33.067  14.340  -4.314  1.00 20.00     0.019 C 
HETATM    6  C6  UNL     1     -33.351  16.184  -6.005  1.00 20.00     0.019 C 
HETATM    7 CL9  UNL     1     -34.480  16.524  -2.362  1.00 20.00    -0.124 Cl
ENDROOT
BRANCH   2   8
HETATM    8  O8  UNL     1     -35.259  13.220  -5.875  1.00 20.00    -0.390 OA
HETATM    9  C7  UNL     1     -35.111  13.046  -7.271  1.00 20.00     0.202 C 
ENDBRANCH   2   8
TORSDOF 1
ENDMDL
MODEL 4
REMARK VINA RESULT:      -3.5     11.106     12.553
REMARK  1 active torsions:
REMARK  status: ('A' for Active; 'I' for Inactive)
REMARK    1  A    between atoms: C2_2  and  O8_8 
ROOT
HETATM    1  C1  UNL     1     -34.399  14.081  -3.989  1.00 20.00     0.053 C 
HETATM    2  C2  UNL     1     -35.005  14.173  -5.410  1.00 20.00     0.131 C 
HETATM    3  C3  UNL     1     -34.731  15.578  -3.809  1.00 20.00     0.095 C 
HETATM    4  C4  UNL     1     -34.695  15.709  -5.371  1.00 20.00    -0.005 C 
HETATM    5  C5  UNL     1     -33.348  16.106  -5.984  1.00 20.00     0.019 C 
HETATM    6  C6  UNL     1     -35.822  16.572  -5.935  1.00 20.00     0.019 C 
HETATM    7 CL9  UNL     1     -33.652  16.573  -2.779  1.00 20.00    -0.124 Cl
ENDROOT
BRANCH   2   8
HETATM    8  O8  UNL     1     -34.348  13.406  -6.433  1.00 20.00    -0.390 OA
HETATM    9  C7  UNL     1     -35.214  13.181  -7.529  1.00 20.00     0.202 C 
ENDBRANCH   2   8
TORSDOF 1
ENDMDL
MODEL 5
REMARK VINA RESULT:      -3.5      1.217      2.117
REMARK  1 active torsions:
REMARK  status: ('A' for Active; 'I' for Inactive)
REMARK    1  A    between atoms: C2_2  and  O8_8 
ROOT
HETATM    1  C1  UNL     1     -32.629   5.437   2.892  1.00 20.00     0.053 C 
HETATM    2  C2  UNL     1     -33.421   6.753   2.713  1.00 20.00     0.131 C 
HETATM    3  C3  UNL     1     -33.924   4.795   3.437  1.00 20.00     0.095 C 
HETATM    4  C4  UNL     1     -34.401   6.238   3.822  1.00 20.00    -0.005 C 
HETATM    5  C5  UNL     1     -34.063   6.704   5.242  1.00 20.00     0.019 C 
HETATM    6  C6  UNL     1     -35.872   6.497   3.503  1.00 20.00     0.019 C 
HETATM    7 CL9  UNL     1     -33.781   3.513   4.682  1.00 20.00    -0.124 Cl
ENDROOT
BRANCH   2   8
HETATM    8  O8  UNL     1     -32.708   7.970   2.994  1.00 20.00    -0.390 OA
HETATM    9  C7  UNL     1     -32.238   8.567   1.801  1.00 20.00     0.202 C 
ENDBRANCH   2   8
TORSDOF 1
ENDMDL
MODEL 6
REMARK VINA RESULT:      -3.3     11.129     12.419
REMARK  1 active torsions:
REMARK  status: ('A' for Active; 'I' for Inactive)
REMARK    1  A    between atoms: C2_2  and  O8_8 
ROOT
HETATM    1  C1  UNL     1     -33.852  17.009  -4.873  1.00 20.00     0.053 C 
HETATM    2  C2  UNL     1     -33.180  15.841  -5.634  1.00 20.00     0.131 C 
HETATM    3  C3  UNL     1     -33.617  16.220  -3.566  1.00 20.00     0.095 C 
HETATM    4  C4  UNL     1     -33.580  14.915  -4.434  1.00 20.00    -0.005 C 
HETATM    5  C5  UNL     1     -34.915  14.183  -4.608  1.00 20.00     0.019 C 
HETATM    6  C6  UNL     1     -32.478  13.943  -4.022  1.00 20.00     0.019 C 
HETATM    7 CL9  UNL     1     -34.804  16.404  -2.235  1.00 20.00    -0.124 Cl
ENDROOT
BRANCH   2   8
HETATM    8  O8  UNL     1     -33.737  15.513  -6.918  1.00 20.00    -0.390 OA
HETATM    9  C7  UNL     1     -34.221  16.671  -7.570  1.00 20.00     0.202 C 
ENDBRANCH   2   8
TORSDOF 1
ENDMDL
MODEL 7
REMARK VINA RESULT:      -3.3     11.251     12.018
REMARK  1 active torsions:
REMARK  status: ('A' for Active; 'I' for Inactive)
REMARK    1  A    between atoms: C2_2  and  O8_8 
ROOT
HETATM    1  C1  UNL     1     -35.804  15.254  -4.194  1.00 20.00     0.053 C 
HETATM    2  C2  UNL     1     -34.490  15.621  -3.465  1.00 20.00     0.131 C 
HETATM    3  C3  UNL     1     -35.044  14.088  -4.862  1.00 20.00     0.095 C 
HETATM    4  C4  UNL     1     -33.721  14.895  -4.622  1.00 20.00    -0.005 C 
HETATM    5  C5  UNL     1     -33.273  15.811  -5.766  1.00 20.00     0.019 C 
HETATM    6  C6  UNL     1     -32.562  14.029  -4.134  1.00 20.00     0.019 C 
HETATM    7 CL9  UNL     1     -35.529  13.590  -6.515  1.00 20.00    -0.124 Cl
ENDROOT
BRANCH   2   8
HETATM    8  O8  UNL     1     -34.226  17.024  -3.293  1.00 20.00    -0.390 OA
HETATM    9  C7  UNL     1     -33.515  17.262  -2.094  1.00 20.00     0.202 C 
ENDBRANCH   2   8
TORSDOF 1
ENDMDL
MODEL 8
REMARK VINA RESULT:      -3.3     11.760     12.476
REMARK  1 active torsions:
REMARK  status: ('A' for Active; 'I' for Inactive)
REMARK    1  A    between atoms: C2_2  and  O8_8 
ROOT
HETATM    1  C1  UNL     1     -35.035  14.767  -4.268  1.00 20.00     0.053 C 
HETATM    2  C2  UNL     1     -33.998  14.525  -5.391  1.00 20.00     0.131 C 
HETATM    3  C3  UNL     1     -36.035  13.919  -5.084  1.00 20.00     0.095 C 
HETATM    4  C4  UNL     1     -35.204  14.283  -6.363  1.00 20.00    -0.005 C 
HETATM    5  C5  UNL     1     -35.663  15.524  -7.135  1.00 20.00     0.019 C 
HETATM    6  C6  UNL     1     -34.996  13.102  -7.308  1.00 20.00     0.019 C 
HETATM    7 CL9  UNL     1     -37.779  14.321  -4.977  1.00 20.00    -0.124 Cl
ENDROOT
BRANCH   2   8
HETATM    8  O8  UNL     1     -33.128  15.627  -5.702  1.00 20.00    -0.390 OA
HETATM    9  C7  UNL     1     -33.316  16.693  -4.792  1.00 20.00     0.202 C 
ENDBRANCH   2   8
TORSDOF 1
ENDMDL
MODEL 9
REMARK VINA RESULT:      -3.2     11.977     12.735
REMARK  1 active torsions:
REMARK  status: ('A' for Active; 'I' for Inactive)
REMARK    1  A    between atoms: C2_2  and  O8_8 
ROOT
HETATM    1  C1  UNL     1     -33.820  15.107  -5.989  1.00 20.00     0.053 C 
HETATM    2  C2  UNL     1     -34.015  14.564  -4.554  1.00 20.00     0.131 C 
HETATM    3  C3  UNL     1     -33.526  16.490  -5.367  1.00 20.00     0.095 C 
HETATM    4  C4  UNL     1     -34.348  16.031  -4.113  1.00 20.00    -0.005 C 
HETATM    5  C5  UNL     1     -35.841  16.378  -4.121  1.00 20.00     0.019 C 
HETATM    6  C6  UNL     1     -33.706  16.429  -2.787  1.00 20.00     0.019 C 
HETATM    7 CL9  UNL     1     -33.996  17.956  -6.287  1.00 20.00    -0.124 Cl
ENDROOT
BRANCH   2   8
HETATM    8  O8  UNL     1     -35.052  13.584  -4.379  1.00 20.00    -0.390 OA
HETATM    9  C7  UNL     1     -35.705  13.315  -5.604  1.00 20.00     0.202 C 
ENDBRANCH   2   8
TORSDOF 1
ENDMDL
