MODEL 1
REMARK VINA RESULT:      -6.3      0.000      0.000
REMARK  3 active torsions:
REMARK  status: ('A' for Active; 'I' for Inactive)
REMARK    1  A    between atoms: C4_4  and  O11_11 
REMARK    2  A    between atoms: C8_8  and  C10_10 
REMARK    3  A    between atoms: C10_10  and  O11_11 
ROOT
HETATM    1  C1  UNL     1     -34.543   4.289   4.595  1.00 20.00    -0.030 C 
HETATM    2  C2  UNL     1     -33.953   4.330   3.393  1.00 20.00    -0.030 C 
HETATM    3  C5  UNL     1     -34.529   5.440   5.554  1.00 20.00     0.031 C 
HETATM    4  C6  UNL     1     -33.244   5.543   2.873  1.00 20.00     0.034 C 
HETATM    5  C7  UNL     1     -33.500   6.533   5.193  1.00 20.00    -0.009 C 
HETATM    6  C8  UNL     1     -33.545   6.828   3.675  1.00 20.00     0.017 C 
HETATM    7  C9  UNL     1     -33.748   7.770   6.057  1.00 20.00     0.011 C 
ENDROOT
BRANCH   6   8
HETATM    8  C10 UNL     1     -32.579   7.934   3.246  1.00 20.00     0.179 C 
BRANCH   8   9
HETATM    9  O11 UNL     1     -32.583   8.007   1.833  1.00 20.00    -0.363 OA
BRANCH   9  10
HETATM   10  C4  UNL     1     -32.082   9.127   1.320  1.00 20.00     0.124 C 
HETATM   11  C3  UNL     1     -32.776  10.245   1.098  1.00 20.00     0.037 C 
ENDBRANCH   9  10
ENDBRANCH   8   9
ENDBRANCH   6   8
TORSDOF 3
ENDMDL
MODEL 2
REMARK VINA RESULT:      -5.9      0.988      2.379
REMARK  3 active torsions:
REMARK  status: ('A' for Active; 'I' for Inactive)
REMARK    1  A    between atoms: C4_4  and  O11_11 
REMARK    2  A    between atoms: C8_8  and  C10_10 
REMARK    3  A    between atoms: C10_10  and  O11_11 
ROOT
HETATM    1  C1  UNL     1     -34.452   6.134   5.741  1.00 20.00    -0.030 C 
HETATM    2  C2  UNL     1     -33.793   7.281   5.946  1.00 20.00    -0.030 C 
HETATM    3  C5  UNL     1     -34.439   5.404   4.432  1.00 20.00     0.031 C 
HETATM    4  C6  UNL     1     -32.951   7.937   4.895  1.00 20.00     0.034 C 
HETATM    5  C7  UNL     1     -33.899   6.249   3.259  1.00 20.00    -0.009 C 
HETATM    6  C8  UNL     1     -32.630   7.019   3.696  1.00 20.00     0.017 C 
HETATM    7  C9  UNL     1     -33.670   5.346   2.045  1.00 20.00     0.011 C 
ENDROOT
BRANCH   6   8
HETATM    8  C10 UNL     1     -32.010   7.850   2.570  1.00 20.00     0.179 C 
BRANCH   8   9
HETATM    9  O11 UNL     1     -32.953   8.825   2.165  1.00 20.00    -0.363 OA
BRANCH   9  10
HETATM   10  C4  UNL     1     -32.562   9.613   1.167  1.00 20.00     0.124 C 
HETATM   11  C3  UNL     1     -32.913   9.459  -0.111  1.00 20.00     0.037 C 
ENDBRANCH   9  10
ENDBRANCH   8   9
ENDBRANCH   6   8
TORSDOF 3
ENDMDL
MODEL 3
REMARK VINA RESULT:      -4.2     11.054     11.999
REMARK  3 active torsions:
REMARK  status: ('A' for Active; 'I' for Inactive)
REMARK    1  A    between atoms: C4_4  and  O11_11 
REMARK    2  A    between atoms: C8_8  and  C10_10 
REMARK    3  A    between atoms: C10_10  and  O11_11 
ROOT
HETATM    1  C1  UNL     1     -32.494  18.786   0.503  1.00 20.00    -0.030 C 
HETATM    2  C2  UNL     1     -32.157  18.418  -0.740  1.00 20.00    -0.030 C 
HETATM    3  C5  UNL     1     -33.867  18.593   1.071  1.00 20.00     0.031 C 
HETATM    4  C6  UNL     1     -33.111  17.746  -1.679  1.00 20.00     0.034 C 
HETATM    5  C7  UNL     1     -34.933  18.258   0.007  1.00 20.00    -0.009 C 
HETATM    6  C8  UNL     1     -34.384  17.209  -0.989  1.00 20.00     0.017 C 
HETATM    7  C9  UNL     1     -36.223  17.815   0.701  1.00 20.00     0.011 C 
ENDROOT
BRANCH   6   8
HETATM    8  C10 UNL     1     -35.403  16.794  -2.053  1.00 20.00     0.179 C 
BRANCH   8   9
HETATM    9  O11 UNL     1     -34.701  16.447  -3.231  1.00 20.00    -0.363 OA
BRANCH   9  10
HETATM   10  C4  UNL     1     -35.168  15.383  -3.878  1.00 20.00     0.124 C 
HETATM   11  C3  UNL     1     -34.460  14.286  -4.159  1.00 20.00     0.037 C 
ENDBRANCH   9  10
ENDBRANCH   8   9
ENDBRANCH   6   8
TORSDOF 3
ENDMDL
MODEL 4
REMARK VINA RESULT:      -4.2     11.601     12.198
REMARK  3 active torsions:
REMARK  status: ('A' for Active; 'I' for Inactive)
REMARK    1  A    between atoms: C4_4  and  O11_11 
REMARK    2  A    between atoms: C8_8  and  C10_10 
REMARK    3  A    between atoms: C10_10  and  O11_11 
ROOT
HETATM    1  C1  UNL     1     -34.223  16.699  -2.496  1.00 20.00    -0.030 C 
HETATM    2  C2  UNL     1     -35.453  16.702  -1.967  1.00 20.00    -0.030 C 
HETATM    3  C5  UNL     1     -33.059  17.406  -1.870  1.00 20.00     0.031 C 
HETATM    4  C6  UNL     1     -35.784  17.386  -0.676  1.00 20.00     0.034 C 
HETATM    5  C7  UNL     1     -33.466  18.408  -0.769  1.00 20.00    -0.009 C 
HETATM    6  C8  UNL     1     -34.542  17.783   0.151  1.00 20.00     0.017 C 
HETATM    7  C9  UNL     1     -32.217  18.866  -0.013  1.00 20.00     0.011 C 
ENDROOT
BRANCH   6   8
HETATM    8  C10 UNL     1     -34.966  18.705   1.296  1.00 20.00     0.179 C 
BRANCH   8   9
HETATM    9  O11 UNL     1     -34.574  18.108   2.518  1.00 20.00    -0.363 OA
BRANCH   9  10
HETATM   10  C4  UNL     1     -33.976  18.922   3.382  1.00 20.00     0.124 C 
HETATM   11  C3  UNL     1     -32.712  18.805   3.795  1.00 20.00     0.037 C 
ENDBRANCH   9  10
ENDBRANCH   8   9
ENDBRANCH   6   8
TORSDOF 3
ENDMDL
MODEL 5
REMARK VINA RESULT:      -4.1     11.482     12.300
REMARK  3 active torsions:
REMARK  status: ('A' for Active; 'I' for Inactive)
REMARK    1  A    between atoms: C4_4  and  O11_11 
REMARK    2  A    between atoms: C8_8  and  C10_10 
REMARK    3  A    between atoms: C10_10  and  O11_11 
ROOT
HETATM    1  C1  UNL     1     -34.292  17.171  -1.541  1.00 20.00    -0.030 C 
HETATM    2  C2  UNL     1     -35.620  17.022  -1.622  1.00 20.00    -0.030 C 
HETATM    3  C5  UNL     1     -33.357  16.807  -2.654  1.00 20.00     0.031 C 
HETATM    4  C6  UNL     1     -36.310  16.504  -2.847  1.00 20.00     0.034 C 
HETATM    5  C7  UNL     1     -34.010  15.937  -3.749  1.00 20.00    -0.009 C 
HETATM    6  C8  UNL     1     -35.413  16.487  -4.103  1.00 20.00     0.017 C 
HETATM    7  C9  UNL     1     -33.073  15.850  -4.956  1.00 20.00     0.011 C 
ENDROOT
BRANCH   6   8
HETATM    8  C10 UNL     1     -36.108  15.698  -5.215  1.00 20.00     0.179 C 
BRANCH   8   9
HETATM    9  O11 UNL     1     -36.497  14.442  -4.693  1.00 20.00    -0.363 OA
BRANCH   9  10
HETATM   10  C4  UNL     1     -36.060  13.385  -5.372  1.00 20.00     0.124 C 
HETATM   11  C3  UNL     1     -35.458  13.435  -6.562  1.00 20.00     0.037 C 
ENDBRANCH   9  10
ENDBRANCH   8   9
ENDBRANCH   6   8
TORSDOF 3
ENDMDL
MODEL 6
REMARK VINA RESULT:      -4.1      1.633      4.370
REMARK  3 active torsions:
REMARK  status: ('A' for Active; 'I' for Inactive)
REMARK    1  A    between atoms: C4_4  and  O11_11 
REMARK    2  A    between atoms: C8_8  and  C10_10 
REMARK    3  A    between atoms: C10_10  and  O11_11 
ROOT
HETATM    1  C1  UNL     1     -31.365   8.961   2.659  1.00 20.00    -0.030 C 
HETATM    2  C2  UNL     1     -31.906   8.338   1.605  1.00 20.00    -0.030 C 
HETATM    3  C5  UNL     1     -31.770   8.680   4.075  1.00 20.00     0.031 C 
HETATM    4  C6  UNL     1     -32.950   7.271   1.735  1.00 20.00     0.034 C 
HETATM    5  C7  UNL     1     -33.083   7.878   4.193  1.00 20.00    -0.009 C 
HETATM    6  C8  UNL     1     -33.095   6.718   3.169  1.00 20.00     0.017 C 
HETATM    7  C9  UNL     1     -33.265   7.411   5.638  1.00 20.00     0.011 C 
ENDROOT
BRANCH   6   8
HETATM    8  C10 UNL     1     -34.352   5.849   3.255  1.00 20.00     0.179 C 
BRANCH   8   9
HETATM    9  O11 UNL     1     -33.952   4.504   3.434  1.00 20.00    -0.363 OA
BRANCH   9  10
HETATM   10  C4  UNL     1     -34.257   3.973   4.615  1.00 20.00     0.124 C 
HETATM   11  C3  UNL     1     -34.754   4.650   5.653  1.00 20.00     0.037 C 
ENDBRANCH   9  10
ENDBRANCH   8   9
ENDBRANCH   6   8
TORSDOF 3
ENDMDL
MODEL 7
REMARK VINA RESULT:      -4.1     11.586     12.401
REMARK  3 active torsions:
REMARK  status: ('A' for Active; 'I' for Inactive)
REMARK    1  A    between atoms: C4_4  and  O11_11 
REMARK    2  A    between atoms: C8_8  and  C10_10 
REMARK    3  A    between atoms: C10_10  and  O11_11 
ROOT
HETATM    1  C1  UNL     1     -34.513  17.720  -0.263  1.00 20.00    -0.030 C 
HETATM    2  C2  UNL     1     -33.396  18.267  -0.759  1.00 20.00    -0.030 C 
HETATM    3  C5  UNL     1     -35.488  16.948  -1.099  1.00 20.00     0.031 C 
HETATM    4  C6  UNL     1     -32.991  18.137  -2.196  1.00 20.00     0.034 C 
HETATM    5  C7  UNL     1     -35.279  17.130  -2.617  1.00 20.00    -0.009 C 
HETATM    6  C8  UNL     1     -33.773  17.049  -2.963  1.00 20.00     0.017 C 
HETATM    7  C9  UNL     1     -36.129  16.107  -3.374  1.00 20.00     0.011 C 
ENDROOT
BRANCH   6   8
HETATM    8  C10 UNL     1     -33.489  17.179  -4.461  1.00 20.00     0.179 C 
BRANCH   8   9
HETATM    9  O11 UNL     1     -32.982  15.943  -4.927  1.00 20.00    -0.363 OA
BRANCH   9  10
HETATM   10  C4  UNL     1     -33.506  15.509  -6.070  1.00 20.00     0.124 C 
HETATM   11  C3  UNL     1     -34.231  14.396  -6.206  1.00 20.00     0.037 C 
ENDBRANCH   9  10
ENDBRANCH   8   9
ENDBRANCH   6   8
TORSDOF 3
ENDMDL
MODEL 8
REMARK VINA RESULT:      -4.1     11.331     12.899
REMARK  3 active torsions:
REMARK  status: ('A' for Active; 'I' for Inactive)
REMARK    1  A    between atoms: C4_4  and  O11_11 
REMARK    2  A    between atoms: C8_8  and  C10_10 
REMARK    3  A    between atoms: C10_10  and  O11_11 
ROOT
HETATM    1  C1  UNL     1     -33.213  16.598  -4.858  1.00 20.00    -0.030 C 
HETATM    2  C2  UNL     1     -33.822  16.072  -3.787  1.00 20.00    -0.030 C 
HETATM    3  C5  UNL     1     -33.417  16.086  -6.251  1.00 20.00     0.031 C 
HETATM    4  C6  UNL     1     -34.793  14.935  -3.877  1.00 20.00     0.034 C 
HETATM    5  C7  UNL     1     -34.104  14.704  -6.306  1.00 20.00    -0.009 C 
HETATM    6  C8  UNL     1     -35.290  14.657  -5.313  1.00 20.00     0.017 C 
HETATM    7  C9  UNL     1     -34.511  14.396  -7.748  1.00 20.00     0.011 C 
ENDROOT
BRANCH   6   8
HETATM    8  C10 UNL     1     -36.048  13.328  -5.341  1.00 20.00     0.179 C 
BRANCH   8   9
HETATM    9  O11 UNL     1     -37.376  13.565  -4.914  1.00 20.00    -0.363 OA
BRANCH   9  10
HETATM   10  C4  UNL     1     -38.014  14.539  -5.556  1.00 20.00     0.124 C 
HETATM   11  C3  UNL     1     -39.067  15.208  -5.079  1.00 20.00     0.037 C 
ENDBRANCH   9  10
ENDBRANCH   8   9
ENDBRANCH   6   8
TORSDOF 3
ENDMDL
MODEL 9
REMARK VINA RESULT:      -4.0     11.230     11.876
REMARK  3 active torsions:
REMARK  status: ('A' for Active; 'I' for Inactive)
REMARK    1  A    between atoms: C4_4  and  O11_11 
REMARK    2  A    between atoms: C8_8  and  C10_10 
REMARK    3  A    between atoms: C10_10  and  O11_11 
ROOT
HETATM    1  C1  UNL     1     -36.757  14.404  -4.905  1.00 20.00    -0.030 C 
HETATM    2  C2  UNL     1     -37.165  15.480  -4.220  1.00 20.00    -0.030 C 
HETATM    3  C5  UNL     1     -35.323  13.974  -4.977  1.00 20.00     0.031 C 
HETATM    4  C6  UNL     1     -36.233  16.346  -3.430  1.00 20.00     0.034 C 
HETATM    5  C7  UNL     1     -34.330  15.052  -4.492  1.00 20.00    -0.009 C 
HETATM    6  C8  UNL     1     -34.848  15.708  -3.190  1.00 20.00     0.017 C 
HETATM    7  C9  UNL     1     -32.939  14.432  -4.345  1.00 20.00     0.011 C 
ENDROOT
BRANCH   6   8
HETATM    8  C10 UNL     1     -33.893  16.762  -2.624  1.00 20.00     0.179 C 
BRANCH   8   9
HETATM    9  O11 UNL     1     -34.203  16.957  -1.258  1.00 20.00    -0.363 OA
BRANCH   9  10
HETATM   10  C4  UNL     1     -33.696  18.058  -0.711  1.00 20.00     0.124 C 
HETATM   11  C3  UNL     1     -32.420  18.440  -0.803  1.00 20.00     0.037 C 
ENDBRANCH   9  10
ENDBRANCH   8   9
ENDBRANCH   6   8
TORSDOF 3
ENDMDL
