MODEL 1
REMARK VINA RESULT:      -5.8      0.000      0.000
REMARK  3 active torsions:
REMARK  status: ('A' for Active; 'I' for Inactive)
REMARK    1  A    between atoms: C2_2  and  O10_10 
REMARK    2  A    between atoms: C7_7  and  C8_8 
REMARK    3  A    between atoms: C8_8  and  O10_10 
ROOT
HETATM    1  C3  UNL     1     -34.086   6.981   5.925  1.00 20.00     0.005 C 
HETATM    2  C4  UNL     1     -34.522   5.564   5.568  1.00 20.00     0.026 C 
HETATM    3  C5  UNL     1     -33.022   7.475   4.950  1.00 20.00     0.034 C 
HETATM    4  C6  UNL     1     -34.898   5.470   4.095  1.00 20.00     0.168 C 
HETATM    5  C7  UNL     1     -33.484   7.285   3.503  1.00 20.00     0.145 C 
HETATM    6  O9  UNL     1     -33.821   5.913   3.269  1.00 20.00    -0.384 OA
ENDROOT
BRANCH   5   7
HETATM    7  C8  UNL     1     -32.385   7.668   2.522  1.00 20.00     0.206 C 
BRANCH   7   8
HETATM    8  O10 UNL     1     -32.684   8.944   1.983  1.00 20.00    -0.361 OA
BRANCH   8   9
HETATM    9  C2  UNL     1     -32.254   9.150   0.742  1.00 20.00     0.124 C 
HETATM   10  C1  UNL     1     -33.025   9.515  -0.283  1.00 20.00     0.037 C 
ENDBRANCH   8   9
ENDBRANCH   7   8
ENDBRANCH   5   7
TORSDOF 3
ENDMDL
MODEL 2
REMARK VINA RESULT:      -5.4      1.126      1.735
REMARK  3 active torsions:
REMARK  status: ('A' for Active; 'I' for Inactive)
REMARK    1  A    between atoms: C2_2  and  O10_10 
REMARK    2  A    between atoms: C7_7  and  C8_8 
REMARK    3  A    between atoms: C8_8  and  O10_10 
ROOT
HETATM    1  C3  UNL     1     -34.019   4.598   4.024  1.00 20.00     0.005 C 
HETATM    2  C4  UNL     1     -34.732   5.161   5.249  1.00 20.00     0.026 C 
HETATM    3  C5  UNL     1     -33.845   5.680   2.962  1.00 20.00     0.034 C 
HETATM    4  C6  UNL     1     -34.054   6.438   5.728  1.00 20.00     0.168 C 
HETATM    5  C7  UNL     1     -33.203   6.931   3.566  1.00 20.00     0.145 C 
HETATM    6  O9  UNL     1     -33.980   7.398   4.674  1.00 20.00    -0.384 OA
ENDROOT
BRANCH   5   7
HETATM    7  C8  UNL     1     -33.128   8.057   2.543  1.00 20.00     0.206 C 
BRANCH   7   8
HETATM    8  O10 UNL     1     -31.816   8.099   2.012  1.00 20.00    -0.361 OA
BRANCH   8   9
HETATM    9  C2  UNL     1     -31.659   8.886   0.952  1.00 20.00     0.124 C 
HETATM   10  C1  UNL     1     -32.466   9.896   0.622  1.00 20.00     0.037 C 
ENDBRANCH   8   9
ENDBRANCH   7   8
ENDBRANCH   5   7
TORSDOF 3
ENDMDL
MODEL 3
REMARK VINA RESULT:      -4.1     10.674     11.426
REMARK  3 active torsions:
REMARK  status: ('A' for Active; 'I' for Inactive)
REMARK    1  A    between atoms: C2_2  and  O10_10 
REMARK    2  A    between atoms: C7_7  and  C8_8 
REMARK    3  A    between atoms: C8_8  and  O10_10 
ROOT
HETATM    1  C3  UNL     1     -33.959  15.902  -3.306  1.00 20.00     0.005 C 
HETATM    2  C4  UNL     1     -35.065  16.508  -2.449  1.00 20.00     0.026 C 
HETATM    3  C5  UNL     1     -34.451  14.632  -3.995  1.00 20.00     0.034 C 
HETATM    4  C6  UNL     1     -36.348  16.663  -3.254  1.00 20.00     0.168 C 
HETATM    5  C7  UNL     1     -35.769  14.892  -4.727  1.00 20.00     0.145 C 
HETATM    6  O9  UNL     1     -36.745  15.413  -3.818  1.00 20.00    -0.384 OA
ENDROOT
BRANCH   5   7
HETATM    7  C8  UNL     1     -36.328  13.606  -5.322  1.00 20.00     0.206 C 
BRANCH   7   8
HETATM    8  O10 UNL     1     -35.267  12.888  -5.926  1.00 20.00    -0.361 OA
BRANCH   8   9
HETATM    9  C2  UNL     1     -35.140  13.059  -7.238  1.00 20.00     0.124 C 
HETATM   10  C1  UNL     1     -34.267  13.881  -7.822  1.00 20.00     0.037 C 
ENDBRANCH   8   9
ENDBRANCH   7   8
ENDBRANCH   5   7
TORSDOF 3
ENDMDL
MODEL 4
REMARK VINA RESULT:      -4.1      1.367      4.574
REMARK  3 active torsions:
REMARK  status: ('A' for Active; 'I' for Inactive)
REMARK    1  A    between atoms: C2_2  and  O10_10 
REMARK    2  A    between atoms: C7_7  and  C8_8 
REMARK    3  A    between atoms: C8_8  and  O10_10 
ROOT
HETATM    1  C3  UNL     1     -31.404   8.436   3.678  1.00 20.00     0.005 C 
HETATM    2  C4  UNL     1     -31.718   9.280   2.447  1.00 20.00     0.026 C 
HETATM    3  C5  UNL     1     -32.582   7.530   4.020  1.00 20.00     0.034 C 
HETATM    4  C6  UNL     1     -32.215   8.404   1.305  1.00 20.00     0.168 C 
HETATM    5  C7  UNL     1     -33.030   6.738   2.790  1.00 20.00     0.145 C 
HETATM    6  O9  UNL     1     -33.344   7.631   1.715  1.00 20.00    -0.384 OA
ENDROOT
BRANCH   5   7
HETATM    7  C8  UNL     1     -34.276   5.916   3.090  1.00 20.00     0.206 C 
BRANCH   7   8
HETATM    8  O10 UNL     1     -33.875   4.628   3.522  1.00 20.00    -0.361 OA
BRANCH   8   9
HETATM    9  C2  UNL     1     -34.383   4.237   4.686  1.00 20.00     0.124 C 
HETATM   10  C1  UNL     1     -34.665   5.047   5.708  1.00 20.00     0.037 C 
ENDBRANCH   8   9
ENDBRANCH   7   8
ENDBRANCH   5   7
TORSDOF 3
ENDMDL
MODEL 5
REMARK VINA RESULT:      -3.8      1.268      4.810
REMARK  3 active torsions:
REMARK  status: ('A' for Active; 'I' for Inactive)
REMARK    1  A    between atoms: C2_2  and  O10_10 
REMARK    2  A    between atoms: C7_7  and  C8_8 
REMARK    3  A    between atoms: C8_8  and  O10_10 
ROOT
HETATM    1  C3  UNL     1     -32.898  10.514   1.171  1.00 20.00     0.005 C 
HETATM    2  C4  UNL     1     -32.528   9.697  -0.062  1.00 20.00     0.026 C 
HETATM    3  C5  UNL     1     -33.112   9.600   2.374  1.00 20.00     0.034 C 
HETATM    4  C6  UNL     1     -31.377   8.748   0.245  1.00 20.00     0.168 C 
HETATM    5  C7  UNL     1     -31.920   8.658   2.556  1.00 20.00     0.145 C 
HETATM    6  O9  UNL     1     -31.694   7.910   1.356  1.00 20.00    -0.384 OA
ENDROOT
BRANCH   5   7
HETATM    7  C8  UNL     1     -32.171   7.666   3.683  1.00 20.00     0.206 C 
BRANCH   7   8
HETATM    8  O10 UNL     1     -33.472   7.126   3.530  1.00 20.00    -0.361 OA
BRANCH   8   9
HETATM    9  C2  UNL     1     -34.077   6.777   4.660  1.00 20.00     0.124 C 
HETATM   10  C1  UNL     1     -33.760   7.237   5.872  1.00 20.00     0.037 C 
ENDBRANCH   8   9
ENDBRANCH   7   8
ENDBRANCH   5   7
TORSDOF 3
ENDMDL
MODEL 6
REMARK VINA RESULT:      -3.7      1.784      4.583
REMARK  3 active torsions:
REMARK  status: ('A' for Active; 'I' for Inactive)
REMARK    1  A    between atoms: C2_2  and  O10_10 
REMARK    2  A    between atoms: C7_7  and  C8_8 
REMARK    3  A    between atoms: C8_8  and  O10_10 
ROOT
HETATM    1  C3  UNL     1     -31.916   8.339   2.139  1.00 20.00     0.005 C 
HETATM    2  C4  UNL     1     -31.179   8.398   3.473  1.00 20.00     0.026 C 
HETATM    3  C5  UNL     1     -32.952   7.218   2.149  1.00 20.00     0.034 C 
HETATM    4  C6  UNL     1     -32.165   8.436   4.632  1.00 20.00     0.168 C 
HETATM    5  C7  UNL     1     -33.852   7.326   3.382  1.00 20.00     0.145 C 
HETATM    6  O9  UNL     1     -33.059   7.324   4.574  1.00 20.00    -0.384 OA
ENDROOT
BRANCH   5   7
HETATM    7  C8  UNL     1     -34.815   6.149   3.462  1.00 20.00     0.206 C 
BRANCH   7   8
HETATM    8  O10 UNL     1     -34.061   4.952   3.545  1.00 20.00    -0.361 OA
BRANCH   8   9
HETATM    9  C2  UNL     1     -34.323   4.190   4.602  1.00 20.00     0.124 C 
HETATM   10  C1  UNL     1     -34.599   4.646   5.825  1.00 20.00     0.037 C 
ENDBRANCH   8   9
ENDBRANCH   7   8
ENDBRANCH   5   7
TORSDOF 3
ENDMDL
MODEL 7
REMARK VINA RESULT:      -3.7     10.690     11.397
REMARK  3 active torsions:
REMARK  status: ('A' for Active; 'I' for Inactive)
REMARK    1  A    between atoms: C2_2  and  O10_10 
REMARK    2  A    between atoms: C7_7  and  C8_8 
REMARK    3  A    between atoms: C8_8  and  O10_10 
ROOT
HETATM    1  C3  UNL     1     -35.200  17.074  -0.751  1.00 20.00     0.005 C 
HETATM    2  C4  UNL     1     -34.398  18.335  -0.447  1.00 20.00     0.026 C 
HETATM    3  C5  UNL     1     -35.113  16.729  -2.234  1.00 20.00     0.034 C 
HETATM    4  C6  UNL     1     -32.986  18.223  -1.005  1.00 20.00     0.168 C 
HETATM    5  C7  UNL     1     -33.654  16.695  -2.696  1.00 20.00     0.145 C 
HETATM    6  O9  UNL     1     -33.015  17.942  -2.405  1.00 20.00    -0.384 OA
ENDROOT
BRANCH   5   7
HETATM    7  C8  UNL     1     -33.560  16.463  -4.198  1.00 20.00     0.206 C 
BRANCH   7   8
HETATM    8  O10 UNL     1     -33.240  15.102  -4.427  1.00 20.00    -0.361 OA
BRANCH   8   9
HETATM    9  C2  UNL     1     -34.124  14.427  -5.156  1.00 20.00     0.124 C 
HETATM   10  C1  UNL     1     -35.277  13.937  -4.699  1.00 20.00     0.037 C 
ENDBRANCH   8   9
ENDBRANCH   7   8
ENDBRANCH   5   7
TORSDOF 3
ENDMDL
MODEL 8
REMARK VINA RESULT:      -3.6     10.892     11.767
REMARK  3 active torsions:
REMARK  status: ('A' for Active; 'I' for Inactive)
REMARK    1  A    between atoms: C2_2  and  O10_10 
REMARK    2  A    between atoms: C7_7  and  C8_8 
REMARK    3  A    between atoms: C8_8  and  O10_10 
ROOT
HETATM    1  C3  UNL     1     -34.699  16.003  -3.030  1.00 20.00     0.005 C 
HETATM    2  C4  UNL     1     -33.401  15.801  -3.805  1.00 20.00     0.026 C 
HETATM    3  C5  UNL     1     -35.904  15.757  -3.931  1.00 20.00     0.034 C 
HETATM    4  C6  UNL     1     -33.408  14.461  -4.528  1.00 20.00     0.168 C 
HETATM    5  C7  UNL     1     -35.779  14.409  -4.645  1.00 20.00     0.145 C 
HETATM    6  O9  UNL     1     -34.550  14.350  -5.377  1.00 20.00    -0.384 OA
ENDROOT
BRANCH   5   7
HETATM    7  C8  UNL     1     -36.920  14.204  -5.633  1.00 20.00     0.206 C 
BRANCH   7   8
HETATM    8  O10 UNL     1     -38.114  13.975  -4.906  1.00 20.00    -0.361 OA
BRANCH   8   9
HETATM    9  C2  UNL     1     -39.133  14.764  -5.229  1.00 20.00     0.124 C 
HETATM   10  C1  UNL     1     -39.535  15.823  -4.524  1.00 20.00     0.037 C 
ENDBRANCH   8   9
ENDBRANCH   7   8
ENDBRANCH   5   7
TORSDOF 3
ENDMDL
MODEL 9
REMARK VINA RESULT:      -3.6     10.877     11.402
REMARK  3 active torsions:
REMARK  status: ('A' for Active; 'I' for Inactive)
REMARK    1  A    between atoms: C2_2  and  O10_10 
REMARK    2  A    between atoms: C7_7  and  C8_8 
REMARK    3  A    between atoms: C8_8  and  O10_10 
ROOT
HETATM    1  C3  UNL     1     -33.663  17.251  -1.801  1.00 20.00     0.005 C 
HETATM    2  C4  UNL     1     -34.959  17.190  -0.999  1.00 20.00     0.026 C 
HETATM    3  C5  UNL     1     -33.732  16.313  -3.003  1.00 20.00     0.034 C 
HETATM    4  C6  UNL     1     -36.165  17.387  -1.907  1.00 20.00     0.168 C 
HETATM    5  C7  UNL     1     -35.007  16.565  -3.811  1.00 20.00     0.145 C 
HETATM    6  O9  UNL     1     -36.159  16.435  -2.971  1.00 20.00    -0.384 OA
ENDROOT
BRANCH   5   7
HETATM    7  C8  UNL     1     -35.143  15.560  -4.947  1.00 20.00     0.206 C 
BRANCH   7   8
HETATM    8  O10 UNL     1     -35.858  14.434  -4.472  1.00 20.00    -0.361 OA
BRANCH   8   9
HETATM    9  C2  UNL     1     -36.020  13.452  -5.354  1.00 20.00     0.124 C 
HETATM   10  C1  UNL     1     -35.438  13.397  -6.553  1.00 20.00     0.037 C 
ENDBRANCH   8   9
ENDBRANCH   7   8
ENDBRANCH   5   7
TORSDOF 3
ENDMDL
