MODEL 1
REMARK VINA RESULT:      -4.6      0.000      0.000
REMARK  2 active torsions:
REMARK  status: ('A' for Active; 'I' for Inactive)
REMARK    1  A    between atoms: C3_3  and  O11_11 
REMARK    2  A    between atoms: C9_9  and  O11_11 
ROOT
HETATM    1  C1  UNL     1     -32.926   7.393   4.539  1.00 20.00     0.069 C 
HETATM    2  C2  UNL     1     -34.249   6.624   4.338  1.00 20.00     0.173 C 
HETATM    3  C3  UNL     1     -32.746   7.383   2.999  1.00 20.00     0.135 C 
HETATM    4  C4  UNL     1     -33.691   6.127   2.957  1.00 20.00     0.008 C 
HETATM    5  C5  UNL     1     -34.748   6.146   1.850  1.00 20.00     0.020 C 
HETATM    6  C6  UNL     1     -32.886   4.820   2.898  1.00 20.00     0.020 C 
HETATM    7  O10 UNL     1     -34.461   5.619   5.292  1.00 20.00    -0.234 OA
ENDROOT
BRANCH   3   8
HETATM    8  O11 UNL     1     -33.212   8.566   2.318  1.00 20.00    -0.380 OA
BRANCH   8   9
HETATM    9  C9  UNL     1     -32.129   9.276   1.751  1.00 20.00     0.114 C 
HETATM   10  C7  UNL     1     -31.473   8.417   0.682  1.00 20.00     0.039 C 
HETATM   11  C8  UNL     1     -32.635  10.595   1.187  1.00 20.00     0.039 C 
ENDBRANCH   8   9
ENDBRANCH   3   8
TORSDOF 2
ENDMDL
MODEL 2
REMARK VINA RESULT:      -4.3      1.427      2.436
REMARK  2 active torsions:
REMARK  status: ('A' for Active; 'I' for Inactive)
REMARK    1  A    between atoms: C3_3  and  O11_11 
REMARK    2  A    between atoms: C9_9  and  O11_11 
ROOT
HETATM    1  C1  UNL     1     -33.249   4.777   2.525  1.00 20.00     0.069 C 
HETATM    2  C2  UNL     1     -33.511   4.657   4.041  1.00 20.00     0.173 C 
HETATM    3  C3  UNL     1     -33.374   6.315   2.677  1.00 20.00     0.135 C 
HETATM    4  C4  UNL     1     -34.219   6.057   3.977  1.00 20.00     0.008 C 
HETATM    5  C5  UNL     1     -33.869   6.952   5.167  1.00 20.00     0.020 C 
HETATM    6  C6  UNL     1     -35.727   6.125   3.690  1.00 20.00     0.020 C 
HETATM    7  O10 UNL     1     -34.345   3.582   4.379  1.00 20.00    -0.234 OA
ENDROOT
BRANCH   3   8
HETATM    8  O11 UNL     1     -32.127   7.019   2.844  1.00 20.00    -0.380 OA
BRANCH   8   9
HETATM    9  C9  UNL     1     -32.242   8.356   2.400  1.00 20.00     0.114 C 
HETATM   10  C7  UNL     1     -31.604   9.281   3.424  1.00 20.00     0.039 C 
HETATM   11  C8  UNL     1     -31.589   8.487   1.032  1.00 20.00     0.039 C 
ENDBRANCH   8   9
ENDBRANCH   3   8
TORSDOF 2
ENDMDL
MODEL 3
REMARK VINA RESULT:      -4.1     10.081     11.457
REMARK  2 active torsions:
REMARK  status: ('A' for Active; 'I' for Inactive)
REMARK    1  A    between atoms: C3_3  and  O11_11 
REMARK    2  A    between atoms: C9_9  and  O11_11 
ROOT
HETATM    1  C1  UNL     1     -34.346  13.993  -4.049  1.00 20.00     0.069 C 
HETATM    2  C2  UNL     1     -35.182  14.112  -5.341  1.00 20.00     0.173 C 
HETATM    3  C3  UNL     1     -34.384  15.540  -3.943  1.00 20.00     0.135 C 
HETATM    4  C4  UNL     1     -34.643  15.579  -5.493  1.00 20.00     0.008 C 
HETATM    5  C5  UNL     1     -35.725  16.562  -5.946  1.00 20.00     0.020 C 
HETATM    6  C6  UNL     1     -33.343  15.826  -6.275  1.00 20.00     0.020 C 
HETATM    7  O10 UNL     1     -34.782  13.222  -6.348  1.00 20.00    -0.234 OA
ENDROOT
BRANCH   3   8
HETATM    8  O11 UNL     1     -35.425  16.072  -3.099  1.00 20.00    -0.380 OA
BRANCH   8   9
HETATM    9  C9  UNL     1     -34.938  17.147  -2.321  1.00 20.00     0.114 C 
HETATM   10  C7  UNL     1     -35.513  17.049  -0.917  1.00 20.00     0.039 C 
HETATM   11  C8  UNL     1     -33.417  17.111  -2.314  1.00 20.00     0.039 C 
ENDBRANCH   8   9
ENDBRANCH   3   8
TORSDOF 2
ENDMDL
MODEL 4
REMARK VINA RESULT:      -4.0     10.161     11.606
REMARK  2 active torsions:
REMARK  status: ('A' for Active; 'I' for Inactive)
REMARK    1  A    between atoms: C3_3  and  O11_11 
REMARK    2  A    between atoms: C9_9  and  O11_11 
ROOT
HETATM    1  C1  UNL     1     -34.521  14.088  -4.142  1.00 20.00     0.069 C 
HETATM    2  C2  UNL     1     -35.668  13.854  -5.147  1.00 20.00     0.173 C 
HETATM    3  C3  UNL     1     -34.483  15.566  -4.609  1.00 20.00     0.135 C 
HETATM    4  C4  UNL     1     -35.145  15.095  -5.954  1.00 20.00     0.008 C 
HETATM    5  C5  UNL     1     -36.278  15.987  -6.467  1.00 20.00     0.020 C 
HETATM    6  C6  UNL     1     -34.094  14.888  -7.056  1.00 20.00     0.020 C 
HETATM    7  O10 UNL     1     -35.578  12.626  -5.819  1.00 20.00    -0.234 OA
ENDROOT
BRANCH   3   8
HETATM    8  O11 UNL     1     -35.244  16.486  -3.799  1.00 20.00    -0.380 OA
BRANCH   8   9
HETATM    9  C9  UNL     1     -34.432  17.556  -3.360  1.00 20.00     0.114 C 
HETATM   10  C7  UNL     1     -33.613  17.104  -2.162  1.00 20.00     0.039 C 
HETATM   11  C8  UNL     1     -33.548  18.019  -4.509  1.00 20.00     0.039 C 
ENDBRANCH   8   9
ENDBRANCH   3   8
TORSDOF 2
ENDMDL
MODEL 5
REMARK VINA RESULT:      -4.0     10.388     11.460
REMARK  2 active torsions:
REMARK  status: ('A' for Active; 'I' for Inactive)
REMARK    1  A    between atoms: C3_3  and  O11_11 
REMARK    2  A    between atoms: C9_9  and  O11_11 
ROOT
HETATM    1  C1  UNL     1     -35.760  13.911  -4.838  1.00 20.00     0.069 C 
HETATM    2  C2  UNL     1     -34.827  14.259  -6.017  1.00 20.00     0.173 C 
HETATM    3  C3  UNL     1     -35.152  15.113  -4.070  1.00 20.00     0.135 C 
HETATM    4  C4  UNL     1     -33.885  14.983  -4.991  1.00 20.00     0.008 C 
HETATM    5  C5  UNL     1     -33.334  16.307  -5.527  1.00 20.00     0.020 C 
HETATM    6  C6  UNL     1     -32.768  14.186  -4.301  1.00 20.00     0.020 C 
HETATM    7  O10 UNL     1     -34.273  13.131  -6.641  1.00 20.00    -0.234 OA
ENDROOT
BRANCH   3   8
HETATM    8  O11 UNL     1     -35.899  16.343  -4.165  1.00 20.00    -0.380 OA
BRANCH   8   9
HETATM    9  C9  UNL     1     -36.185  16.856  -2.879  1.00 20.00     0.114 C 
HETATM   10  C7  UNL     1     -34.974  16.658  -1.981  1.00 20.00     0.039 C 
HETATM   11  C8  UNL     1     -36.567  18.324  -2.999  1.00 20.00     0.039 C 
ENDBRANCH   8   9
ENDBRANCH   3   8
TORSDOF 2
ENDMDL
MODEL 6
REMARK VINA RESULT:      -3.9     10.549     11.691
REMARK  2 active torsions:
REMARK  status: ('A' for Active; 'I' for Inactive)
REMARK    1  A    between atoms: C3_3  and  O11_11 
REMARK    2  A    between atoms: C9_9  and  O11_11 
ROOT
HETATM    1  C1  UNL     1     -35.180  16.091  -2.833  1.00 20.00     0.069 C 
HETATM    2  C2  UNL     1     -33.694  16.409  -3.100  1.00 20.00     0.173 C 
HETATM    3  C3  UNL     1     -35.254  15.488  -4.259  1.00 20.00     0.135 C 
HETATM    4  C4  UNL     1     -34.017  16.382  -4.636  1.00 20.00     0.008 C 
HETATM    5  C5  UNL     1     -32.933  15.679  -5.456  1.00 20.00     0.020 C 
HETATM    6  C6  UNL     1     -34.453  17.679  -5.336  1.00 20.00     0.020 C 
HETATM    7  O10 UNL     1     -33.292  17.654  -2.597  1.00 20.00    -0.234 OA
ENDROOT
BRANCH   3   8
HETATM    8  O11 UNL     1     -35.067  14.059  -4.333  1.00 20.00    -0.380 OA
BRANCH   8   9
HETATM    9  C9  UNL     1     -36.025  13.473  -5.191  1.00 20.00     0.114 C 
HETATM   10  C7  UNL     1     -37.296  14.308  -5.168  1.00 20.00     0.039 C 
HETATM   11  C8  UNL     1     -35.444  13.365  -6.593  1.00 20.00     0.039 C 
ENDBRANCH   8   9
ENDBRANCH   3   8
TORSDOF 2
ENDMDL
MODEL 7
REMARK VINA RESULT:      -3.9     10.515     11.683
REMARK  2 active torsions:
REMARK  status: ('A' for Active; 'I' for Inactive)
REMARK    1  A    between atoms: C3_3  and  O11_11 
REMARK    2  A    between atoms: C9_9  and  O11_11 
ROOT
HETATM    1  C1  UNL     1     -35.022  16.933  -5.357  1.00 20.00     0.069 C 
HETATM    2  C2  UNL     1     -34.093  15.908  -6.041  1.00 20.00     0.173 C 
HETATM    3  C3  UNL     1     -34.601  16.327  -3.993  1.00 20.00     0.135 C 
HETATM    4  C4  UNL     1     -34.231  15.007  -4.763  1.00 20.00     0.008 C 
HETATM    5  C5  UNL     1     -32.906  14.364  -4.347  1.00 20.00     0.020 C 
HETATM    6  C6  UNL     1     -35.367  13.976  -4.687  1.00 20.00     0.020 C 
HETATM    7  O10 UNL     1     -34.634  15.363  -7.215  1.00 20.00    -0.234 OA
ENDROOT
BRANCH   3   8
HETATM    8  O11 UNL     1     -33.521  17.012  -3.325  1.00 20.00    -0.380 OA
BRANCH   8   9
HETATM    9  C9  UNL     1     -33.698  16.976  -1.923  1.00 20.00     0.114 C 
HETATM   10  C7  UNL     1     -33.044  18.202  -1.305  1.00 20.00     0.039 C 
HETATM   11  C8  UNL     1     -35.185  16.908  -1.607  1.00 20.00     0.039 C 
ENDBRANCH   8   9
ENDBRANCH   3   8
TORSDOF 2
ENDMDL
MODEL 8
REMARK VINA RESULT:      -3.7     10.004     11.600
REMARK  2 active torsions:
REMARK  status: ('A' for Active; 'I' for Inactive)
REMARK    1  A    between atoms: C3_3  and  O11_11 
REMARK    2  A    between atoms: C9_9  and  O11_11 
ROOT
HETATM    1  C1  UNL     1     -34.562  15.540  -3.616  1.00 20.00     0.069 C 
HETATM    2  C2  UNL     1     -34.243  14.115  -4.113  1.00 20.00     0.173 C 
HETATM    3  C3  UNL     1     -35.769  15.554  -4.590  1.00 20.00     0.135 C 
HETATM    4  C4  UNL     1     -35.024  14.455  -5.432  1.00 20.00     0.008 C 
HETATM    5  C5  UNL     1     -35.903  13.299  -5.913  1.00 20.00     0.020 C 
HETATM    6  C6  UNL     1     -34.266  15.073  -6.617  1.00 20.00     0.020 C 
HETATM    7  O10 UNL     1     -32.871  13.877  -4.278  1.00 20.00    -0.234 OA
ENDROOT
BRANCH   3   8
HETATM    8  O11 UNL     1     -37.033  15.177  -4.007  1.00 20.00    -0.380 OA
BRANCH   8   9
HETATM    9  C9  UNL     1     -38.072  16.008  -4.484  1.00 20.00     0.114 C 
HETATM   10  C7  UNL     1     -37.480  17.085  -5.379  1.00 20.00     0.039 C 
HETATM   11  C8  UNL     1     -39.097  15.158  -5.220  1.00 20.00     0.039 C 
ENDBRANCH   8   9
ENDBRANCH   3   8
TORSDOF 2
ENDMDL
MODEL 9
REMARK VINA RESULT:      -3.6     10.250     12.148
REMARK  2 active torsions:
REMARK  status: ('A' for Active; 'I' for Inactive)
REMARK    1  A    between atoms: C3_3  and  O11_11 
REMARK    2  A    between atoms: C9_9  and  O11_11 
ROOT
HETATM    1  C1  UNL     1     -36.856  14.834  -4.692  1.00 20.00     0.069 C 
HETATM    2  C2  UNL     1     -36.045  13.950  -5.663  1.00 20.00     0.173 C 
HETATM    3  C3  UNL     1     -35.821  15.962  -4.934  1.00 20.00     0.135 C 
HETATM    4  C4  UNL     1     -34.794  14.847  -5.351  1.00 20.00     0.008 C 
HETATM    5  C5  UNL     1     -33.966  15.162  -6.600  1.00 20.00     0.020 C 
HETATM    6  C6  UNL     1     -33.869  14.469  -4.184  1.00 20.00     0.020 C 
HETATM    7  O10 UNL     1     -35.940  12.616  -5.247  1.00 20.00    -0.234 OA
ENDROOT
BRANCH   3   8
HETATM    8  O11 UNL     1     -36.183  16.921  -5.948  1.00 20.00    -0.380 OA
BRANCH   8   9
HETATM    9  C9  UNL     1     -35.887  18.236  -5.522  1.00 20.00     0.114 C 
HETATM   10  C7  UNL     1     -35.482  18.208  -4.057  1.00 20.00     0.039 C 
HETATM   11  C8  UNL     1     -34.788  18.812  -6.403  1.00 20.00     0.039 C 
ENDBRANCH   8   9
ENDBRANCH   3   8
TORSDOF 2
ENDMDL
