MODEL 1
REMARK VINA RESULT:      -5.2      0.000      0.000
REMARK  4 active torsions:
REMARK  status: ('A' for Active; 'I' for Inactive)
REMARK    1  A    between atoms: C2_2  and  C6_6 
REMARK    2  A    between atoms: C6_6  and  S10_10 
REMARK    3  A    between atoms: C7_7  and  C8_8 
REMARK    4  A    between atoms: C7_7  and  S10_10 
ROOT
HETATM    1  C6  UNL     1     -32.934   6.608   2.931  1.00 20.00     0.113 C 
ENDROOT
BRANCH   1   2
HETATM    2  C2  UNL     1     -33.906   6.434   4.083  1.00 20.00     0.087 A 
HETATM    3  C1  UNL     1     -35.292   5.900   3.813  1.00 20.00     0.207 A 
HETATM    4  O9  UNL     1     -34.252   5.067   4.347  1.00 20.00    -0.375 OA
HETATM    5  C3  UNL     1     -33.655   7.239   5.317  1.00 20.00     0.049 C 
ENDBRANCH   1   2
BRANCH   1   6
HETATM    6  S10 UNL     1     -32.091   8.202   3.051  1.00 20.00    -0.166 SA
BRANCH   6   7
HETATM    7  C7  UNL     1     -31.672   8.406   1.292  1.00 20.00     0.077 C 
BRANCH   7   8
HETATM    8  C8  UNL     1     -32.216   9.684   0.629  1.00 20.00    -0.013 C 
HETATM    9  C4  UNL     1     -33.162   9.389  -0.536  1.00 20.00     0.010 C 
HETATM   10  C5  UNL     1     -32.875  10.634   1.630  1.00 20.00     0.010 C 
ENDBRANCH   7   8
ENDBRANCH   6   7
ENDBRANCH   1   6
TORSDOF 4
ENDMDL
MODEL 2
REMARK VINA RESULT:      -5.1      0.325      1.164
REMARK  4 active torsions:
REMARK  status: ('A' for Active; 'I' for Inactive)
REMARK    1  A    between atoms: C2_2  and  C6_6 
REMARK    2  A    between atoms: C6_6  and  S10_10 
REMARK    3  A    between atoms: C7_7  and  C8_8 
REMARK    4  A    between atoms: C7_7  and  S10_10 
ROOT
HETATM    1  C6  UNL     1     -32.995   6.552   2.983  1.00 20.00     0.113 C 
ENDROOT
BRANCH   1   2
HETATM    2  C2  UNL     1     -33.968   6.384   4.135  1.00 20.00     0.087 A 
HETATM    3  C1  UNL     1     -35.353   5.846   3.869  1.00 20.00     0.207 A 
HETATM    4  O9  UNL     1     -34.311   5.018   4.408  1.00 20.00    -0.375 OA
HETATM    5  C3  UNL     1     -33.717   7.198   5.364  1.00 20.00     0.049 C 
ENDBRANCH   1   2
BRANCH   1   6
HETATM    6  S10 UNL     1     -31.907   7.964   3.273  1.00 20.00    -0.166 SA
BRANCH   6   7
HETATM    7  C7  UNL     1     -31.729   8.514   1.548  1.00 20.00     0.077 C 
BRANCH   7   8
HETATM    8  C8  UNL     1     -32.831   9.462   1.042  1.00 20.00    -0.013 C 
HETATM    9  C4  UNL     1     -32.606  10.913   1.472  1.00 20.00     0.010 C 
HETATM   10  C5  UNL     1     -33.035   9.376  -0.472  1.00 20.00     0.010 C 
ENDBRANCH   7   8
ENDBRANCH   6   7
ENDBRANCH   1   6
TORSDOF 4
ENDMDL
MODEL 3
REMARK VINA RESULT:      -4.9      1.005      1.749
REMARK  4 active torsions:
REMARK  status: ('A' for Active; 'I' for Inactive)
REMARK    1  A    between atoms: C2_2  and  C6_6 
REMARK    2  A    between atoms: C6_6  and  S10_10 
REMARK    3  A    between atoms: C7_7  and  C8_8 
REMARK    4  A    between atoms: C7_7  and  S10_10 
ROOT
HETATM    1  C6  UNL     1     -33.687   7.565   3.291  1.00 20.00     0.113 C 
ENDROOT
BRANCH   1   2
HETATM    2  C2  UNL     1     -33.954   6.106   3.611  1.00 20.00     0.087 A 
HETATM    3  C1  UNL     1     -34.525   5.730   4.956  1.00 20.00     0.207 A 
HETATM    4  O9  UNL     1     -35.344   5.795   3.779  1.00 20.00    -0.375 OA
HETATM    5  C3  UNL     1     -33.201   5.085   2.819  1.00 20.00     0.049 C 
ENDBRANCH   1   2
BRANCH   1   6
HETATM    6  S10 UNL     1     -31.911   7.892   3.262  1.00 20.00    -0.166 SA
BRANCH   6   7
HETATM    7  C7  UNL     1     -31.774   8.429   1.528  1.00 20.00     0.077 C 
BRANCH   7   8
HETATM    8  C8  UNL     1     -32.855   9.417   1.057  1.00 20.00    -0.013 C 
HETATM    9  C4  UNL     1     -32.583  10.852   1.511  1.00 20.00     0.010 C 
HETATM   10  C5  UNL     1     -33.086   9.365  -0.454  1.00 20.00     0.010 C 
ENDBRANCH   7   8
ENDBRANCH   6   7
ENDBRANCH   1   6
TORSDOF 4
ENDMDL
MODEL 4
REMARK VINA RESULT:      -4.7      2.370      5.151
REMARK  4 active torsions:
REMARK  status: ('A' for Active; 'I' for Inactive)
REMARK    1  A    between atoms: C2_2  and  C6_6 
REMARK    2  A    between atoms: C6_6  and  S10_10 
REMARK    3  A    between atoms: C7_7  and  C8_8 
REMARK    4  A    between atoms: C7_7  and  S10_10 
ROOT
HETATM    1  C6  UNL     1     -33.294   8.626   2.119  1.00 20.00     0.113 C 
ENDROOT
BRANCH   1   2
HETATM    2  C2  UNL     1     -32.478   9.089   0.927  1.00 20.00     0.087 A 
HETATM    3  C1  UNL     1     -33.185   9.564  -0.320  1.00 20.00     0.207 A 
HETATM    4  O9  UNL     1     -32.627  10.484   0.631  1.00 20.00    -0.375 OA
HETATM    5  C3  UNL     1     -31.068   8.602   0.834  1.00 20.00     0.049 C 
ENDBRANCH   1   2
BRANCH   1   6
HETATM    6  S10 UNL     1     -32.353   7.444   3.110  1.00 20.00    -0.166 SA
BRANCH   6   7
HETATM    7  C7  UNL     1     -33.663   6.205   3.351  1.00 20.00     0.077 C 
BRANCH   7   8
HETATM    8  C8  UNL     1     -34.406   6.285   4.696  1.00 20.00    -0.013 C 
HETATM    9  C4  UNL     1     -34.634   4.911   5.329  1.00 20.00     0.010 C 
HETATM   10  C5  UNL     1     -33.728   7.229   5.691  1.00 20.00     0.010 C 
ENDBRANCH   7   8
ENDBRANCH   6   7
ENDBRANCH   1   6
TORSDOF 4
ENDMDL
MODEL 5
REMARK VINA RESULT:      -4.6      2.385      5.046
REMARK  4 active torsions:
REMARK  status: ('A' for Active; 'I' for Inactive)
REMARK    1  A    between atoms: C2_2  and  C6_6 
REMARK    2  A    between atoms: C6_6  and  S10_10 
REMARK    3  A    between atoms: C7_7  and  C8_8 
REMARK    4  A    between atoms: C7_7  and  S10_10 
ROOT
HETATM    1  C6  UNL     1     -33.470   7.652   2.063  1.00 20.00     0.113 C 
ENDROOT
BRANCH   1   2
HETATM    2  C2  UNL     1     -32.173   8.438   2.118  1.00 20.00     0.087 A 
HETATM    3  C1  UNL     1     -31.498   8.851   0.834  1.00 20.00     0.207 A 
HETATM    4  O9  UNL     1     -32.283   9.773   1.605  1.00 20.00    -0.375 OA
HETATM    5  C3  UNL     1     -31.370   8.341   3.375  1.00 20.00     0.049 C 
ENDBRANCH   1   2
BRANCH   1   6
HETATM    6  S10 UNL     1     -33.264   6.034   2.838  1.00 20.00    -0.166 SA
BRANCH   6   7
HETATM    7  C7  UNL     1     -34.869   5.948   3.692  1.00 20.00     0.077 C 
BRANCH   7   8
HETATM    8  C8  UNL     1     -34.798   5.936   5.229  1.00 20.00    -0.013 C 
HETATM    9  C4  UNL     1     -34.377   4.576   5.791  1.00 20.00     0.010 C 
HETATM   10  C5  UNL     1     -33.908   7.047   5.788  1.00 20.00     0.010 C 
ENDBRANCH   7   8
ENDBRANCH   6   7
ENDBRANCH   1   6
TORSDOF 4
ENDMDL
MODEL 6
REMARK VINA RESULT:      -4.4      1.817      4.737
REMARK  4 active torsions:
REMARK  status: ('A' for Active; 'I' for Inactive)
REMARK    1  A    between atoms: C2_2  and  C6_6 
REMARK    2  A    between atoms: C6_6  and  S10_10 
REMARK    3  A    between atoms: C7_7  and  C8_8 
REMARK    4  A    between atoms: C7_7  and  S10_10 
ROOT
HETATM    1  C6  UNL     1     -31.501   8.450   1.362  1.00 20.00     0.113 C 
ENDROOT
BRANCH   1   2
HETATM    2  C2  UNL     1     -32.476   9.432   0.738  1.00 20.00     0.087 A 
HETATM    3  C1  UNL     1     -32.724   9.392  -0.750  1.00 20.00     0.207 A 
HETATM    4  O9  UNL     1     -33.646   8.814   0.186  1.00 20.00    -0.375 OA
HETATM    5  C3  UNL     1     -32.760  10.688   1.498  1.00 20.00     0.049 C 
ENDBRANCH   1   2
BRANCH   1   6
HETATM    6  S10 UNL     1     -31.772   8.335   3.144  1.00 20.00    -0.166 SA
BRANCH   6   7
HETATM    7  C7  UNL     1     -32.872   6.885   3.147  1.00 20.00     0.077 C 
BRANCH   7   8
HETATM    8  C8  UNL     1     -34.061   6.962   4.121  1.00 20.00    -0.013 C 
HETATM    9  C4  UNL     1     -34.950   5.718   4.068  1.00 20.00     0.010 C 
HETATM   10  C5  UNL     1     -33.628   7.253   5.559  1.00 20.00     0.010 C 
ENDBRANCH   7   8
ENDBRANCH   6   7
ENDBRANCH   1   6
TORSDOF 4
ENDMDL
MODEL 7
REMARK VINA RESULT:      -4.1     10.293     10.862
REMARK  4 active torsions:
REMARK  status: ('A' for Active; 'I' for Inactive)
REMARK    1  A    between atoms: C2_2  and  C6_6 
REMARK    2  A    between atoms: C6_6  and  S10_10 
REMARK    3  A    between atoms: C7_7  and  C8_8 
REMARK    4  A    between atoms: C7_7  and  S10_10 
ROOT
HETATM    1  C6  UNL     1     -35.015  14.676  -4.204  1.00 20.00     0.113 C 
ENDROOT
BRANCH   1   2
HETATM    2  C2  UNL     1     -36.028  14.040  -5.137  1.00 20.00     0.087 A 
HETATM    3  C1  UNL     1     -35.566  13.447  -6.446  1.00 20.00     0.207 A 
HETATM    4  O9  UNL     1     -35.853  12.626  -5.304  1.00 20.00    -0.375 OA
HETATM    5  C3  UNL     1     -37.456  14.455  -4.980  1.00 20.00     0.049 C 
ENDBRANCH   1   2
BRANCH   1   6
HETATM    6  S10 UNL     1     -35.254  16.466  -4.134  1.00 20.00    -0.166 SA
BRANCH   6   7
HETATM    7  C7  UNL     1     -33.657  16.913  -3.385  1.00 20.00     0.077 C 
BRANCH   7   8
HETATM    8  C8  UNL     1     -33.664  17.048  -1.852  1.00 20.00    -0.013 C 
HETATM    9  C4  UNL     1     -32.876  18.266  -1.363  1.00 20.00     0.010 C 
HETATM   10  C5  UNL     1     -35.076  17.049  -1.265  1.00 20.00     0.010 C 
ENDBRANCH   7   8
ENDBRANCH   6   7
ENDBRANCH   1   6
TORSDOF 4
ENDMDL
MODEL 8
REMARK VINA RESULT:      -4.0      1.239      1.674
REMARK  4 active torsions:
REMARK  status: ('A' for Active; 'I' for Inactive)
REMARK    1  A    between atoms: C2_2  and  C6_6 
REMARK    2  A    between atoms: C6_6  and  S10_10 
REMARK    3  A    between atoms: C7_7  and  C8_8 
REMARK    4  A    between atoms: C7_7  and  S10_10 
ROOT
HETATM    1  C6  UNL     1     -34.388   6.612   3.503  1.00 20.00     0.113 C 
ENDROOT
BRANCH   1   2
HETATM    2  C2  UNL     1     -34.248   6.171   4.948  1.00 20.00     0.087 A 
HETATM    3  C1  UNL     1     -34.992   4.949   5.429  1.00 20.00     0.207 A 
HETATM    4  O9  UNL     1     -33.594   4.905   5.106  1.00 20.00    -0.375 OA
HETATM    5  C3  UNL     1     -33.809   7.203   5.937  1.00 20.00     0.049 C 
ENDBRANCH   1   2
BRANCH   1   6
HETATM    6  S10 UNL     1     -32.801   6.494   2.648  1.00 20.00    -0.166 SA
BRANCH   6   7
HETATM    7  C7  UNL     1     -32.395   8.267   2.608  1.00 20.00     0.077 C 
BRANCH   7   8
HETATM    8  C8  UNL     1     -32.483   8.932   1.222  1.00 20.00    -0.013 C 
HETATM    9  C4  UNL     1     -32.777  10.431   1.303  1.00 20.00     0.010 C 
HETATM   10  C5  UNL     1     -31.245   8.671   0.362  1.00 20.00     0.010 C 
ENDBRANCH   7   8
ENDBRANCH   6   7
ENDBRANCH   1   6
TORSDOF 4
ENDMDL
MODEL 9
REMARK VINA RESULT:      -3.9     10.220     10.828
REMARK  4 active torsions:
REMARK  status: ('A' for Active; 'I' for Inactive)
REMARK    1  A    between atoms: C2_2  and  C6_6 
REMARK    2  A    between atoms: C6_6  and  S10_10 
REMARK    3  A    between atoms: C7_7  and  C8_8 
REMARK    4  A    between atoms: C7_7  and  S10_10 
ROOT
HETATM    1  C6  UNL     1     -34.975  14.602  -4.168  1.00 20.00     0.113 C 
ENDROOT
BRANCH   1   2
HETATM    2  C2  UNL     1     -35.996  14.008  -5.120  1.00 20.00     0.087 A 
HETATM    3  C1  UNL     1     -35.538  13.418  -6.431  1.00 20.00     0.207 A 
HETATM    4  O9  UNL     1     -35.862  12.592  -5.303  1.00 20.00    -0.375 OA
HETATM    5  C3  UNL     1     -37.412  14.464  -4.973  1.00 20.00     0.049 C 
ENDBRANCH   1   2
BRANCH   1   6
HETATM    6  S10 UNL     1     -35.076  16.406  -4.175  1.00 20.00    -0.166 SA
BRANCH   6   7
HETATM    7  C7  UNL     1     -33.665  16.749  -3.078  1.00 20.00     0.077 C 
BRANCH   7   8
HETATM    8  C8  UNL     1     -33.963  17.691  -1.898  1.00 20.00    -0.013 C 
HETATM    9  C4  UNL     1     -35.017  17.128  -0.943  1.00 20.00     0.010 C 
HETATM   10  C5  UNL     1     -32.702  18.094  -1.131  1.00 20.00     0.010 C 
ENDBRANCH   7   8
ENDBRANCH   6   7
ENDBRANCH   1   6
TORSDOF 4
ENDMDL
