MODEL 1
REMARK VINA RESULT:      -5.5      0.000      0.000
REMARK  3 active torsions:
REMARK  status: ('A' for Active; 'I' for Inactive)
REMARK    1  A    between atoms: C2_2  and  O6_6 
REMARK    2  A    between atoms: C4_4  and  C5_5 
REMARK    3  A    between atoms: C4_4  and  O6_6 
ROOT
HETATM    1  C3  UNL     1     -33.615   7.342   5.865  1.00 20.00     0.049 C 
HETATM    2  C4  UNL     1     -34.002   6.989   4.461  1.00 20.00     0.231 C 
ENDROOT
BRANCH   2   3
HETATM    3  C5  UNL     1     -34.730   5.664   4.385  1.00 20.00     0.413 C 
HETATM    4  F7  UNL     1     -34.993   5.189   5.623  1.00 20.00    -0.168 F 
HETATM    5  F8  UNL     1     -35.914   5.796   3.745  1.00 20.00    -0.168 F 
HETATM    6  F9  UNL     1     -34.007   4.731   3.731  1.00 20.00    -0.168 F 
ENDBRANCH   2   3
BRANCH   2   7
HETATM    7  O6  UNL     1     -32.832   6.898   3.651  1.00 20.00    -0.350 OA
BRANCH   7   8
HETATM    8  C2  UNL     1     -32.860   7.630   2.547  1.00 20.00     0.125 C 
HETATM    9  C1  UNL     1     -31.866   8.414   2.124  1.00 20.00     0.037 C 
ENDBRANCH   7   8
ENDBRANCH   2   7
TORSDOF 3
ENDMDL
MODEL 2
REMARK VINA RESULT:      -5.5      0.047      1.243
REMARK  3 active torsions:
REMARK  status: ('A' for Active; 'I' for Inactive)
REMARK    1  A    between atoms: C2_2  and  O6_6 
REMARK    2  A    between atoms: C4_4  and  C5_5 
REMARK    3  A    between atoms: C4_4  and  O6_6 
ROOT
HETATM    1  C3  UNL     1     -33.613   7.326   5.881  1.00 20.00     0.049 C 
HETATM    2  C4  UNL     1     -33.996   6.985   4.474  1.00 20.00     0.231 C 
ENDROOT
BRANCH   2   3
HETATM    3  C5  UNL     1     -34.711   5.653   4.383  1.00 20.00     0.413 C 
HETATM    4  F7  UNL     1     -35.908   5.791   3.771  1.00 20.00    -0.168 F 
HETATM    5  F8  UNL     1     -33.992   4.763   3.664  1.00 20.00    -0.168 F 
HETATM    6  F9  UNL     1     -34.932   5.119   5.603  1.00 20.00    -0.168 F 
ENDBRANCH   2   3
BRANCH   2   7
HETATM    7  O6  UNL     1     -32.826   6.915   3.663  1.00 20.00    -0.350 OA
BRANCH   7   8
HETATM    8  C2  UNL     1     -32.857   7.669   2.573  1.00 20.00     0.125 C 
HETATM    9  C1  UNL     1     -31.840   8.410   2.127  1.00 20.00     0.037 C 
ENDBRANCH   7   8
ENDBRANCH   2   7
TORSDOF 3
ENDMDL
MODEL 3
REMARK VINA RESULT:      -5.5      0.015      1.263
REMARK  3 active torsions:
REMARK  status: ('A' for Active; 'I' for Inactive)
REMARK    1  A    between atoms: C2_2  and  O6_6 
REMARK    2  A    between atoms: C4_4  and  C5_5 
REMARK    3  A    between atoms: C4_4  and  O6_6 
ROOT
HETATM    1  C3  UNL     1     -33.604   7.343   5.874  1.00 20.00     0.049 C 
HETATM    2  C4  UNL     1     -33.995   6.993   4.471  1.00 20.00     0.231 C 
ENDROOT
BRANCH   2   3
HETATM    3  C5  UNL     1     -34.730   5.671   4.395  1.00 20.00     0.413 C 
HETATM    4  F7  UNL     1     -33.996   4.751   3.730  1.00 20.00    -0.168 F 
HETATM    5  F8  UNL     1     -34.972   5.177   5.630  1.00 20.00    -0.168 F 
HETATM    6  F9  UNL     1     -35.914   5.792   3.758  1.00 20.00    -0.168 F 
ENDBRANCH   2   3
BRANCH   2   7
HETATM    7  O6  UNL     1     -32.828   6.898   3.658  1.00 20.00    -0.350 OA
BRANCH   7   8
HETATM    8  C2  UNL     1     -32.858   7.626   2.551  1.00 20.00     0.125 C 
HETATM    9  C1  UNL     1     -31.869   8.417   2.130  1.00 20.00     0.037 C 
ENDBRANCH   7   8
ENDBRANCH   2   7
TORSDOF 3
ENDMDL
MODEL 4
REMARK VINA RESULT:      -5.1      1.194      1.984
REMARK  3 active torsions:
REMARK  status: ('A' for Active; 'I' for Inactive)
REMARK    1  A    between atoms: C2_2  and  O6_6 
REMARK    2  A    between atoms: C4_4  and  C5_5 
REMARK    3  A    between atoms: C4_4  and  O6_6 
ROOT
HETATM    1  C3  UNL     1     -33.164   5.016   2.645  1.00 20.00     0.049 C 
HETATM    2  C4  UNL     1     -33.478   5.858   3.844  1.00 20.00     0.231 C 
ENDROOT
BRANCH   2   3
HETATM    3  C5  UNL     1     -34.741   5.406   4.545  1.00 20.00     0.413 C 
HETATM    4  F7  UNL     1     -35.839   5.853   3.895  1.00 20.00    -0.168 F 
HETATM    5  F8  UNL     1     -34.819   4.057   4.585  1.00 20.00    -0.168 F 
HETATM    6  F9  UNL     1     -34.801   5.863   5.814  1.00 20.00    -0.168 F 
ENDBRANCH   2   3
BRANCH   2   7
HETATM    7  O6  UNL     1     -33.657   7.215   3.441  1.00 20.00    -0.350 OA
BRANCH   7   8
HETATM    8  C2  UNL     1     -32.673   7.712   2.706  1.00 20.00     0.125 C 
HETATM    9  C1  UNL     1     -31.599   8.339   3.189  1.00 20.00     0.037 C 
ENDBRANCH   7   8
ENDBRANCH   2   7
TORSDOF 3
ENDMDL
MODEL 5
REMARK VINA RESULT:      -5.1      1.173      1.895
REMARK  3 active torsions:
REMARK  status: ('A' for Active; 'I' for Inactive)
REMARK    1  A    between atoms: C2_2  and  O6_6 
REMARK    2  A    between atoms: C4_4  and  C5_5 
REMARK    3  A    between atoms: C4_4  and  O6_6 
ROOT
HETATM    1  C3  UNL     1     -33.190   5.026   2.617  1.00 20.00     0.049 C 
HETATM    2  C4  UNL     1     -33.490   5.842   3.837  1.00 20.00     0.231 C 
ENDROOT
BRANCH   2   3
HETATM    3  C5  UNL     1     -34.768   5.401   4.519  1.00 20.00     0.413 C 
HETATM    4  F7  UNL     1     -34.850   4.052   4.559  1.00 20.00    -0.168 F 
HETATM    5  F8  UNL     1     -34.817   5.845   5.795  1.00 20.00    -0.168 F 
HETATM    6  F9  UNL     1     -35.863   5.861   3.877  1.00 20.00    -0.168 F 
ENDBRANCH   2   3
BRANCH   2   7
HETATM    7  O6  UNL     1     -33.634   7.213   3.472  1.00 20.00    -0.350 OA
BRANCH   7   8
HETATM    8  C2  UNL     1     -32.717   7.664   2.628  1.00 20.00     0.125 C 
HETATM    9  C1  UNL     1     -31.644   8.377   2.975  1.00 20.00     0.037 C 
ENDBRANCH   7   8
ENDBRANCH   2   7
TORSDOF 3
ENDMDL
MODEL 6
REMARK VINA RESULT:      -4.9      1.278      1.718
REMARK  3 active torsions:
REMARK  status: ('A' for Active; 'I' for Inactive)
REMARK    1  A    between atoms: C2_2  and  O6_6 
REMARK    2  A    between atoms: C4_4  and  C5_5 
REMARK    3  A    between atoms: C4_4  and  O6_6 
ROOT
HETATM    1  C3  UNL     1     -33.664   7.232   5.147  1.00 20.00     0.049 C 
HETATM    2  C4  UNL     1     -33.495   7.211   3.658  1.00 20.00     0.231 C 
ENDROOT
BRANCH   2   3
HETATM    3  C5  UNL     1     -33.893   5.879   3.058  1.00 20.00     0.413 C 
HETATM    4  F7  UNL     1     -32.812   5.083   2.897  1.00 20.00    -0.168 F 
HETATM    5  F8  UNL     1     -34.760   5.222   3.860  1.00 20.00    -0.168 F 
HETATM    6  F9  UNL     1     -34.477   6.028   1.850  1.00 20.00    -0.168 F 
ENDBRANCH   2   3
BRANCH   2   7
HETATM    7  O6  UNL     1     -32.130   7.455   3.328  1.00 20.00    -0.350 OA
BRANCH   7   8
HETATM    8  C2  UNL     1     -31.937   8.064   2.167  1.00 20.00     0.125 C 
HETATM    9  C1  UNL     1     -32.530   9.199   1.792  1.00 20.00     0.037 C 
ENDBRANCH   7   8
ENDBRANCH   2   7
TORSDOF 3
ENDMDL
MODEL 7
REMARK VINA RESULT:      -4.8      2.439      3.733
REMARK  3 active torsions:
REMARK  status: ('A' for Active; 'I' for Inactive)
REMARK    1  A    between atoms: C2_2  and  O6_6 
REMARK    2  A    between atoms: C4_4  and  C5_5 
REMARK    3  A    between atoms: C4_4  and  O6_6 
ROOT
HETATM    1  C3  UNL     1     -32.966   4.807   2.622  1.00 20.00     0.049 C 
HETATM    2  C4  UNL     1     -33.900   5.978   2.591  1.00 20.00     0.231 C 
ENDROOT
BRANCH   2   3
HETATM    3  C5  UNL     1     -33.197   7.278   2.921  1.00 20.00     0.413 C 
HETATM    4  F7  UNL     1     -33.934   8.019   3.778  1.00 20.00    -0.168 F 
HETATM    5  F8  UNL     1     -32.003   7.050   3.511  1.00 20.00    -0.168 F 
HETATM    6  F9  UNL     1     -32.978   8.023   1.816  1.00 20.00    -0.168 F 
ENDBRANCH   2   3
BRANCH   2   7
HETATM    7  O6  UNL     1     -34.941   5.784   3.546  1.00 20.00    -0.350 OA
BRANCH   7   8
HETATM    8  C2  UNL     1     -34.660   4.918   4.509  1.00 20.00     0.125 C 
HETATM    9  C1  UNL     1     -34.592   5.216   5.808  1.00 20.00     0.037 C 
ENDBRANCH   7   8
ENDBRANCH   2   7
TORSDOF 3
ENDMDL
MODEL 8
REMARK VINA RESULT:      -4.7      2.380      3.463
REMARK  3 active torsions:
REMARK  status: ('A' for Active; 'I' for Inactive)
REMARK    1  A    between atoms: C2_2  and  O6_6 
REMARK    2  A    between atoms: C4_4  and  C5_5 
REMARK    3  A    between atoms: C4_4  and  O6_6 
ROOT
HETATM    1  C3  UNL     1     -33.511   7.616   5.737  1.00 20.00     0.049 C 
HETATM    2  C4  UNL     1     -33.391   6.786   4.495  1.00 20.00     0.231 C 
ENDROOT
BRANCH   2   3
HETATM    3  C5  UNL     1     -32.602   7.491   3.411  1.00 20.00     0.413 C 
HETATM    4  F7  UNL     1     -32.119   6.602   2.514  1.00 20.00    -0.168 F 
HETATM    5  F8  UNL     1     -33.379   8.364   2.734  1.00 20.00    -0.168 F 
HETATM    6  F9  UNL     1     -31.554   8.174   3.918  1.00 20.00    -0.168 F 
ENDBRANCH   2   3
BRANCH   2   7
HETATM    7  O6  UNL     1     -34.691   6.502   3.983  1.00 20.00    -0.350 OA
BRANCH   7   8
HETATM    8  C2  UNL     1     -35.137   5.281   4.241  1.00 20.00     0.125 C 
HETATM    9  C1  UNL     1     -34.365   4.222   4.488  1.00 20.00     0.037 C 
ENDBRANCH   7   8
ENDBRANCH   2   7
TORSDOF 3
ENDMDL
MODEL 9
REMARK VINA RESULT:      -4.7      2.296      3.060
REMARK  3 active torsions:
REMARK  status: ('A' for Active; 'I' for Inactive)
REMARK    1  A    between atoms: C2_2  and  O6_6 
REMARK    2  A    between atoms: C4_4  and  C5_5 
REMARK    3  A    between atoms: C4_4  and  O6_6 
ROOT
HETATM    1  C3  UNL     1     -34.231   4.210   4.735  1.00 20.00     0.049 C 
HETATM    2  C4  UNL     1     -34.635   5.311   3.802  1.00 20.00     0.231 C 
ENDROOT
BRANCH   2   3
HETATM    3  C5  UNL     1     -33.593   5.567   2.734  1.00 20.00     0.413 C 
HETATM    4  F7  UNL     1     -32.952   4.423   2.405  1.00 20.00    -0.168 F 
HETATM    5  F8  UNL     1     -34.160   6.049   1.606  1.00 20.00    -0.168 F 
HETATM    6  F9  UNL     1     -32.663   6.455   3.144  1.00 20.00    -0.168 F 
ENDBRANCH   2   3
BRANCH   2   7
HETATM    7  O6  UNL     1     -34.819   6.518   4.539  1.00 20.00    -0.350 OA
BRANCH   7   8
HETATM    8  C2  UNL     1     -34.199   6.556   5.710  1.00 20.00     0.125 C 
HETATM    9  C1  UNL     1     -33.447   7.570   6.143  1.00 20.00     0.037 C 
ENDBRANCH   7   8
ENDBRANCH   2   7
TORSDOF 3
ENDMDL
