MODEL 1
REMARK VINA RESULT:      -4.6      0.000      0.000
REMARK  2 active torsions:
REMARK  status: ('A' for Active; 'I' for Inactive)
REMARK    1  A    between atoms: C2_2  and  O10_10 
REMARK    2  A    between atoms: C9_9  and  O10_10 
ROOT
HETATM    1  C1  UNL     1     -33.332   7.365   4.986  1.00 20.00     0.053 C 
HETATM    2  C2  UNL     1     -33.436   7.744   3.490  1.00 20.00     0.132 C 
HETATM    3  C3  UNL     1     -34.399   6.280   4.730  1.00 20.00     0.095 C 
HETATM    4  C4  UNL     1     -33.958   6.288   3.225  1.00 20.00    -0.005 C 
HETATM    5  C5  UNL     1     -35.130   6.231   2.247  1.00 20.00     0.019 C 
HETATM    6  C6  UNL     1     -32.873   5.279   2.836  1.00 20.00     0.019 C 
HETATM    7 CL11 UNL     1     -34.332   4.771   5.699  1.00 20.00    -0.124 Cl
ENDROOT
BRANCH   2   8
HETATM    8  O10 UNL     1     -32.206   8.122   2.846  1.00 20.00    -0.381 OA
BRANCH   8   9
HETATM    9  C9  UNL     1     -32.457   8.699   1.579  1.00 20.00     0.114 C 
HETATM   10  C7  UNL     1     -32.789  10.173   1.757  1.00 20.00     0.039 C 
HETATM   11  C8  UNL     1     -31.243   8.495   0.686  1.00 20.00     0.039 C 
ENDBRANCH   8   9
ENDBRANCH   2   8
TORSDOF 2
ENDMDL
MODEL 2
REMARK VINA RESULT:      -4.3      1.217      2.119
REMARK  2 active torsions:
REMARK  status: ('A' for Active; 'I' for Inactive)
REMARK    1  A    between atoms: C2_2  and  O10_10 
REMARK    2  A    between atoms: C9_9  and  O10_10 
ROOT
HETATM    1  C1  UNL     1     -32.853   5.264   2.673  1.00 20.00     0.053 C 
HETATM    2  C2  UNL     1     -32.905   6.772   3.011  1.00 20.00     0.132 C 
HETATM    3  C3  UNL     1     -33.366   4.981   4.102  1.00 20.00     0.095 C 
HETATM    4  C4  UNL     1     -33.979   6.425   4.100  1.00 20.00    -0.005 C 
HETATM    5  C5  UNL     1     -33.776   7.173   5.416  1.00 20.00     0.019 C 
HETATM    6  C6  UNL     1     -35.432   6.538   3.627  1.00 20.00     0.019 C 
HETATM    7 CL11 UNL     1     -34.403   3.542   4.366  1.00 20.00    -0.124 Cl
ENDROOT
BRANCH   2   8
HETATM    8  O10 UNL     1     -33.317   7.646   1.945  1.00 20.00    -0.381 OA
BRANCH   8   9
HETATM    9  C9  UNL     1     -32.552   8.835   1.943  1.00 20.00     0.114 C 
HETATM   10  C7  UNL     1     -31.360   8.666   2.874  1.00 20.00     0.039 C 
HETATM   11  C8  UNL     1     -32.119   9.151   0.520  1.00 20.00     0.039 C 
ENDBRANCH   8   9
ENDBRANCH   2   8
TORSDOF 2
ENDMDL
MODEL 3
REMARK VINA RESULT:      -4.2     10.824     12.052
REMARK  2 active torsions:
REMARK  status: ('A' for Active; 'I' for Inactive)
REMARK    1  A    between atoms: C2_2  and  O10_10 
REMARK    2  A    between atoms: C9_9  and  O10_10 
ROOT
HETATM    1  C1  UNL     1     -33.245  14.725  -4.172  1.00 20.00     0.053 C 
HETATM    2  C2  UNL     1     -34.064  14.783  -5.483  1.00 20.00     0.132 C 
HETATM    3  C3  UNL     1     -33.676  16.183  -3.902  1.00 20.00     0.095 C 
HETATM    4  C4  UNL     1     -34.918  15.921  -4.823  1.00 20.00    -0.005 C 
HETATM    5  C5  UNL     1     -35.227  17.078  -5.771  1.00 20.00     0.019 C 
HETATM    6  C6  UNL     1     -36.190  15.441  -4.117  1.00 20.00     0.019 C 
HETATM    7 CL11 UNL     1     -33.888  16.708  -2.200  1.00 20.00    -0.124 Cl
ENDROOT
BRANCH   2   8
HETATM    8  O10 UNL     1     -34.757  13.578  -5.850  1.00 20.00    -0.381 OA
BRANCH   8   9
HETATM    9  C9  UNL     1     -34.882  13.476  -7.256  1.00 20.00     0.114 C 
HETATM   10  C7  UNL     1     -36.264  13.955  -7.673  1.00 20.00     0.039 C 
HETATM   11  C8  UNL     1     -33.778  14.285  -7.917  1.00 20.00     0.039 C 
ENDBRANCH   8   9
ENDBRANCH   2   8
TORSDOF 2
ENDMDL
MODEL 4
REMARK VINA RESULT:      -4.1     10.898     12.068
REMARK  2 active torsions:
REMARK  status: ('A' for Active; 'I' for Inactive)
REMARK    1  A    between atoms: C2_2  and  O10_10 
REMARK    2  A    between atoms: C9_9  and  O10_10 
ROOT
HETATM    1  C1  UNL     1     -33.839  16.944  -5.828  1.00 20.00     0.053 C 
HETATM    2  C2  UNL     1     -33.601  16.556  -4.350  1.00 20.00     0.132 C 
HETATM    3  C3  UNL     1     -33.260  15.569  -6.226  1.00 20.00     0.095 C 
HETATM    4  C4  UNL     1     -33.667  15.055  -4.801  1.00 20.00    -0.005 C 
HETATM    5  C5  UNL     1     -32.604  14.176  -4.145  1.00 20.00     0.019 C 
HETATM    6  C6  UNL     1     -35.053  14.412  -4.688  1.00 20.00     0.019 C 
HETATM    7 CL11 UNL     1     -33.891  14.773  -7.704  1.00 20.00    -0.124 Cl
ENDROOT
BRANCH   2   8
HETATM    8  O10 UNL     1     -34.597  16.999  -3.412  1.00 20.00    -0.381 OA
BRANCH   8   9
HETATM    9  C9  UNL     1     -34.147  16.832  -2.081  1.00 20.00     0.114 C 
HETATM   10  C7  UNL     1     -33.028  17.825  -1.803  1.00 20.00     0.039 C 
HETATM   11  C8  UNL     1     -35.318  17.016  -1.128  1.00 20.00     0.039 C 
ENDBRANCH   8   9
ENDBRANCH   2   8
TORSDOF 2
ENDMDL
MODEL 5
REMARK VINA RESULT:      -4.1     10.626     11.848
REMARK  2 active torsions:
REMARK  status: ('A' for Active; 'I' for Inactive)
REMARK    1  A    between atoms: C2_2  and  O10_10 
REMARK    2  A    between atoms: C9_9  and  O10_10 
ROOT
HETATM    1  C1  UNL     1     -34.591  14.044  -4.202  1.00 20.00     0.053 C 
HETATM    2  C2  UNL     1     -34.740  15.539  -3.836  1.00 20.00     0.132 C 
HETATM    3  C3  UNL     1     -35.225  14.372  -5.571  1.00 20.00     0.095 C 
HETATM    4  C4  UNL     1     -34.737  15.850  -5.373  1.00 20.00    -0.005 C 
HETATM    5  C5  UNL     1     -35.774  16.892  -5.785  1.00 20.00     0.019 C 
HETATM    6  C6  UNL     1     -33.362  16.188  -5.956  1.00 20.00     0.019 C 
HETATM    7 CL11 UNL     1     -34.710  13.418  -7.000  1.00 20.00    -0.124 Cl
ENDROOT
BRANCH   2   8
HETATM    8  O10 UNL     1     -33.675  16.109  -3.054  1.00 20.00    -0.381 OA
BRANCH   8   9
HETATM    9  C9  UNL     1     -34.125  17.243  -2.338  1.00 20.00     0.114 C 
HETATM   10  C7  UNL     1     -35.293  16.843  -1.449  1.00 20.00     0.039 C 
HETATM   11  C8  UNL     1     -32.970  17.817  -1.532  1.00 20.00     0.039 C 
ENDBRANCH   8   9
ENDBRANCH   2   8
TORSDOF 2
ENDMDL
MODEL 6
REMARK VINA RESULT:      -4.0     10.942     11.729
REMARK  2 active torsions:
REMARK  status: ('A' for Active; 'I' for Inactive)
REMARK    1  A    between atoms: C2_2  and  O10_10 
REMARK    2  A    between atoms: C9_9  and  O10_10 
ROOT
HETATM    1  C1  UNL     1     -36.051  14.730  -4.570  1.00 20.00     0.053 C 
HETATM    2  C2  UNL     1     -35.250  15.927  -4.006  1.00 20.00     0.132 C 
HETATM    3  C3  UNL     1     -35.245  14.877  -5.879  1.00 20.00     0.095 C 
HETATM    4  C4  UNL     1     -34.120  15.572  -5.035  1.00 20.00    -0.005 C 
HETATM    5  C5  UNL     1     -33.515  16.795  -5.720  1.00 20.00     0.019 C 
HETATM    6  C6  UNL     1     -33.023  14.653  -4.490  1.00 20.00     0.019 C 
HETATM    7 CL11 UNL     1     -34.896  13.400  -6.836  1.00 20.00    -0.124 Cl
ENDROOT
BRANCH   2   8
HETATM    8  O10 UNL     1     -34.905  15.857  -2.611  1.00 20.00    -0.381 OA
BRANCH   8   9
HETATM    9  C9  UNL     1     -34.751  17.152  -2.064  1.00 20.00     0.114 C 
HETATM   10  C7  UNL     1     -35.492  17.227  -0.737  1.00 20.00     0.039 C 
HETATM   11  C8  UNL     1     -33.270  17.455  -1.904  1.00 20.00     0.039 C 
ENDBRANCH   8   9
ENDBRANCH   2   8
TORSDOF 2
ENDMDL
MODEL 7
REMARK VINA RESULT:      -3.8     11.114     11.998
REMARK  2 active torsions:
REMARK  status: ('A' for Active; 'I' for Inactive)
REMARK    1  A    between atoms: C2_2  and  O10_10 
REMARK    2  A    between atoms: C9_9  and  O10_10 
ROOT
HETATM    1  C1  UNL     1     -35.643  16.446  -3.083  1.00 20.00     0.053 C 
HETATM    2  C2  UNL     1     -35.386  15.502  -4.281  1.00 20.00     0.132 C 
HETATM    3  C3  UNL     1     -34.152  16.292  -2.712  1.00 20.00     0.095 C 
HETATM    4  C4  UNL     1     -33.879  15.932  -4.214  1.00 20.00    -0.005 C 
HETATM    5  C5  UNL     1     -32.906  14.769  -4.394  1.00 20.00     0.019 C 
HETATM    6  C6  UNL     1     -33.506  17.102  -5.129  1.00 20.00     0.019 C 
HETATM    7 CL11 UNL     1     -33.319  17.676  -1.933  1.00 20.00    -0.124 Cl
ENDROOT
BRANCH   2   8
HETATM    8  O10 UNL     1     -36.098  15.809  -5.493  1.00 20.00    -0.381 OA
BRANCH   8   9
HETATM    9  C9  UNL     1     -36.332  14.638  -6.251  1.00 20.00     0.114 C 
HETATM   10  C7  UNL     1     -35.346  14.585  -7.409  1.00 20.00     0.039 C 
HETATM   11  C8  UNL     1     -36.209  13.421  -5.347  1.00 20.00     0.039 C 
ENDBRANCH   8   9
ENDBRANCH   2   8
TORSDOF 2
ENDMDL
MODEL 8
REMARK VINA RESULT:      -3.7     11.032     11.962
REMARK  2 active torsions:
REMARK  status: ('A' for Active; 'I' for Inactive)
REMARK    1  A    between atoms: C2_2  and  O10_10 
REMARK    2  A    between atoms: C9_9  and  O10_10 
ROOT
HETATM    1  C1  UNL     1     -35.642  16.316  -2.459  1.00 20.00     0.053 C 
HETATM    2  C2  UNL     1     -34.237  16.560  -3.056  1.00 20.00     0.132 C 
HETATM    3  C3  UNL     1     -35.172  17.057  -1.188  1.00 20.00     0.095 C 
HETATM    4  C4  UNL     1     -34.106  17.783  -2.082  1.00 20.00    -0.005 C 
HETATM    5  C5  UNL     1     -32.733  17.891  -1.423  1.00 20.00     0.019 C 
HETATM    6  C6  UNL     1     -34.532  19.127  -2.679  1.00 20.00     0.019 C 
HETATM    7 CL11 UNL     1     -36.379  17.997  -0.252  1.00 20.00    -0.124 Cl
ENDROOT
BRANCH   2   8
HETATM    8  O10 UNL     1     -34.189  16.843  -4.466  1.00 20.00    -0.381 OA
BRANCH   8   9
HETATM    9  C9  UNL     1     -33.182  16.077  -5.100  1.00 20.00     0.114 C 
HETATM   10  C7  UNL     1     -33.072  14.726  -4.411  1.00 20.00     0.039 C 
HETATM   11  C8  UNL     1     -33.516  15.936  -6.577  1.00 20.00     0.039 C 
ENDBRANCH   8   9
ENDBRANCH   2   8
TORSDOF 2
ENDMDL
MODEL 9
REMARK VINA RESULT:      -3.5     11.375     12.143
REMARK  2 active torsions:
REMARK  status: ('A' for Active; 'I' for Inactive)
REMARK    1  A    between atoms: C2_2  and  O10_10 
REMARK    2  A    between atoms: C9_9  and  O10_10 
ROOT
HETATM    1  C1  UNL     1     -33.305  15.354  -5.171  1.00 20.00     0.053 C 
HETATM    2  C2  UNL     1     -34.499  15.147  -4.211  1.00 20.00     0.132 C 
HETATM    3  C3  UNL     1     -34.003  14.396  -6.160  1.00 20.00     0.095 C 
HETATM    4  C4  UNL     1     -35.360  14.769  -5.467  1.00 20.00    -0.005 C 
HETATM    5  C5  UNL     1     -36.276  13.569  -5.238  1.00 20.00     0.019 C 
HETATM    6  C6  UNL     1     -36.134  15.936  -6.088  1.00 20.00     0.019 C 
HETATM    7 CL11 UNL     1     -33.766  14.662  -7.918  1.00 20.00    -0.124 Cl
ENDROOT
BRANCH   2   8
HETATM    8  O10 UNL     1     -34.915  16.301  -3.460  1.00 20.00    -0.381 OA
BRANCH   8   9
HETATM    9  C9  UNL     1     -33.858  17.234  -3.343  1.00 20.00     0.114 C 
HETATM   10  C7  UNL     1     -34.318  18.582  -3.879  1.00 20.00     0.039 C 
HETATM   11  C8  UNL     1     -33.424  17.320  -1.888  1.00 20.00     0.039 C 
ENDBRANCH   8   9
ENDBRANCH   2   8
TORSDOF 2
ENDMDL
