MODEL 1
REMARK VINA RESULT:      -3.7      0.000      0.000
REMARK  1 active torsions:
REMARK  status: ('A' for Active; 'I' for Inactive)
REMARK    1  A    between atoms: C2_2  and  O8_8 
ROOT
HETATM    1  C1  UNL     1     -33.536   7.505   5.078  1.00 20.00     0.049 C 
HETATM    2  C2  UNL     1     -33.275   7.591   3.555  1.00 20.00     0.131 C 
HETATM    3  C3  UNL     1     -33.493   5.967   4.950  1.00 20.00     0.070 C 
HETATM    4  C4  UNL     1     -33.854   6.138   3.434  1.00 20.00    -0.008 C 
HETATM    5  C5  UNL     1     -35.336   6.149   3.039  1.00 20.00     0.018 C 
HETATM    6  C6  UNL     1     -33.069   5.192   2.526  1.00 20.00     0.018 C 
HETATM    7 BR9  UNL     1     -34.715   4.986   6.079  1.00 20.00    -0.090 Br
ENDROOT
BRANCH   2   8
HETATM    8  O8  UNL     1     -31.894   7.772   3.177  1.00 20.00    -0.390 OA
HETATM    9  C7  UNL     1     -31.794   8.573   2.015  1.00 20.00     0.202 C 
ENDBRANCH   2   8
TORSDOF 1
ENDMDL
MODEL 2
REMARK VINA RESULT:      -3.5     11.755     12.539
REMARK  1 active torsions:
REMARK  status: ('A' for Active; 'I' for Inactive)
REMARK    1  A    between atoms: C2_2  and  O8_8 
ROOT
HETATM    1  C1  UNL     1     -33.275  15.370  -4.594  1.00 20.00     0.049 C 
HETATM    2  C2  UNL     1     -34.339  14.986  -5.650  1.00 20.00     0.131 C 
HETATM    3  C3  UNL     1     -34.410  15.458  -3.551  1.00 20.00     0.070 C 
HETATM    4  C4  UNL     1     -35.408  15.685  -4.739  1.00 20.00    -0.008 C 
HETATM    5  C5  UNL     1     -35.684  17.125  -5.188  1.00 20.00     0.018 C 
HETATM    6  C6  UNL     1     -36.721  14.922  -4.564  1.00 20.00     0.018 C 
HETATM    7 BR9  UNL     1     -34.235  16.847  -2.221  1.00 20.00    -0.090 Br
ENDROOT
BRANCH   2   8
HETATM    8  O8  UNL     1     -34.503  13.570  -5.872  1.00 20.00    -0.390 OA
HETATM    9  C7  UNL     1     -34.734  13.301  -7.241  1.00 20.00     0.202 C 
ENDBRANCH   2   8
TORSDOF 1
ENDMDL
MODEL 3
REMARK VINA RESULT:      -3.3     12.032     12.993
REMARK  1 active torsions:
REMARK  status: ('A' for Active; 'I' for Inactive)
REMARK    1  A    between atoms: C2_2  and  O8_8 
ROOT
HETATM    1  C1  UNL     1     -35.268  15.779  -6.285  1.00 20.00     0.049 C 
HETATM    2  C2  UNL     1     -35.041  14.453  -5.520  1.00 20.00     0.131 C 
HETATM    3  C3  UNL     1     -33.908  16.269  -5.741  1.00 20.00     0.070 C 
HETATM    4  C4  UNL     1     -34.066  15.235  -4.574  1.00 20.00    -0.008 C 
HETATM    5  C5  UNL     1     -34.766  15.694  -3.289  1.00 20.00     0.018 C 
HETATM    6  C6  UNL     1     -32.759  14.516  -4.238  1.00 20.00     0.018 C 
HETATM    7 BR9  UNL     1     -33.798  18.146  -5.297  1.00 20.00    -0.090 Br
ENDROOT
BRANCH   2   8
HETATM    8  O8  UNL     1     -34.468  13.383  -6.301  1.00 20.00    -0.390 OA
HETATM    9  C7  UNL     1     -35.220  13.165  -7.479  1.00 20.00     0.202 C 
ENDBRANCH   2   8
TORSDOF 1
ENDMDL
MODEL 4
REMARK VINA RESULT:      -3.3     11.457     12.113
REMARK  1 active torsions:
REMARK  status: ('A' for Active; 'I' for Inactive)
REMARK    1  A    between atoms: C2_2  and  O8_8 
ROOT
HETATM    1  C1  UNL     1     -35.512  15.962  -3.953  1.00 20.00     0.049 C 
HETATM    2  C2  UNL     1     -34.037  16.418  -3.850  1.00 20.00     0.131 C 
HETATM    3  C3  UNL     1     -35.001  14.537  -4.259  1.00 20.00     0.070 C 
HETATM    4  C4  UNL     1     -33.657  15.184  -4.741  1.00 20.00    -0.008 C 
HETATM    5  C5  UNL     1     -33.527  15.568  -6.220  1.00 20.00     0.018 C 
HETATM    6  C6  UNL     1     -32.425  14.400  -4.285  1.00 20.00     0.018 C 
HETATM    7 BR9  UNL     1     -36.038  13.519  -5.531  1.00 20.00    -0.090 Br
ENDROOT
BRANCH   2   8
HETATM    8  O8  UNL     1     -33.493  16.445  -2.514  1.00 20.00    -0.390 OA
HETATM    9  C7  UNL     1     -34.393  17.073  -1.621  1.00 20.00     0.202 C 
ENDBRANCH   2   8
TORSDOF 1
ENDMDL
MODEL 5
REMARK VINA RESULT:      -3.3     11.666     12.772
REMARK  1 active torsions:
REMARK  status: ('A' for Active; 'I' for Inactive)
REMARK    1  A    between atoms: C2_2  and  O8_8 
ROOT
HETATM    1  C1  UNL     1     -35.712  13.539  -5.625  1.00 20.00     0.049 C 
HETATM    2  C2  UNL     1     -36.900  14.528  -5.562  1.00 20.00     0.131 C 
HETATM    3  C3  UNL     1     -35.092  14.282  -4.421  1.00 20.00     0.070 C 
HETATM    4  C4  UNL     1     -35.948  15.532  -4.824  1.00 20.00    -0.008 C 
HETATM    5  C5  UNL     1     -35.334  16.550  -5.793  1.00 20.00     0.018 C 
HETATM    6  C6  UNL     1     -36.556  16.248  -3.617  1.00 20.00     0.018 C 
HETATM    7 BR9  UNL     1     -33.167  14.448  -4.426  1.00 20.00    -0.090 Br
ENDROOT
BRANCH   2   8
HETATM    8  O8  UNL     1     -38.049  14.062  -4.823  1.00 20.00    -0.390 OA
HETATM    9  C7  UNL     1     -39.217  14.749  -5.230  1.00 20.00     0.202 C 
ENDBRANCH   2   8
TORSDOF 1
ENDMDL
MODEL 6
REMARK VINA RESULT:      -3.3     11.723     12.752
REMARK  1 active torsions:
REMARK  status: ('A' for Active; 'I' for Inactive)
REMARK    1  A    between atoms: C2_2  and  O8_8 
ROOT
HETATM    1  C1  UNL     1     -36.045  14.728  -4.489  1.00 20.00     0.049 C 
HETATM    2  C2  UNL     1     -35.202  14.289  -5.711  1.00 20.00     0.131 C 
HETATM    3  C3  UNL     1     -35.139  15.974  -4.372  1.00 20.00     0.070 C 
HETATM    4  C4  UNL     1     -34.036  15.175  -5.149  1.00 20.00    -0.008 C 
HETATM    5  C5  UNL     1     -33.034  14.346  -4.337  1.00 20.00     0.018 C 
HETATM    6  C6  UNL     1     -33.304  16.029  -6.184  1.00 20.00     0.018 C 
HETATM    7 BR9  UNL     1     -34.747  16.572  -2.578  1.00 20.00    -0.090 Br
ENDROOT
BRANCH   2   8
HETATM    8  O8  UNL     1     -35.741  14.665  -6.996  1.00 20.00    -0.390 OA
HETATM    9  C7  UNL     1     -35.626  13.598  -7.918  1.00 20.00     0.202 C 
ENDBRANCH   2   8
TORSDOF 1
ENDMDL
MODEL 7
REMARK VINA RESULT:      -3.2     11.845     13.012
REMARK  1 active torsions:
REMARK  status: ('A' for Active; 'I' for Inactive)
REMARK    1  A    between atoms: C2_2  and  O8_8 
ROOT
HETATM    1  C1  UNL     1     -36.710  16.775  -4.922  1.00 20.00     0.049 C 
HETATM    2  C2  UNL     1     -36.773  15.532  -4.002  1.00 20.00     0.131 C 
HETATM    3  C3  UNL     1     -35.272  16.361  -5.304  1.00 20.00     0.070 C 
HETATM    4  C4  UNL     1     -35.205  15.561  -3.958  1.00 20.00    -0.008 C 
HETATM    5  C5  UNL     1     -34.685  16.285  -2.709  1.00 20.00     0.018 C 
HETATM    6  C6  UNL     1     -34.519  14.203  -4.109  1.00 20.00     0.018 C 
HETATM    7 BR9  UNL     1     -34.018  17.805  -5.577  1.00 20.00    -0.090 Br
ENDROOT
BRANCH   2   8
HETATM    8  O8  UNL     1     -37.383  14.363  -4.589  1.00 20.00    -0.390 OA
HETATM    9  C7  UNL     1     -38.632  14.688  -5.167  1.00 20.00     0.202 C 
ENDBRANCH   2   8
TORSDOF 1
ENDMDL
MODEL 8
REMARK VINA RESULT:      -3.2     11.561     12.763
REMARK  1 active torsions:
REMARK  status: ('A' for Active; 'I' for Inactive)
REMARK    1  A    between atoms: C2_2  and  O8_8 
ROOT
HETATM    1  C1  UNL     1     -34.521  14.219  -4.209  1.00 20.00     0.049 C 
HETATM    2  C2  UNL     1     -34.641  15.703  -3.787  1.00 20.00     0.131 C 
HETATM    3  C3  UNL     1     -34.013  14.701  -5.585  1.00 20.00     0.070 C 
HETATM    4  C4  UNL     1     -34.733  16.066  -5.310  1.00 20.00    -0.008 C 
HETATM    5  C5  UNL     1     -36.187  16.225  -5.770  1.00 20.00     0.018 C 
HETATM    6  C6  UNL     1     -33.902  17.273  -5.748  1.00 20.00     0.018 C 
HETATM    7 BR9  UNL     1     -34.576  13.658  -7.110  1.00 20.00    -0.090 Br
ENDROOT
BRANCH   2   8
HETATM    8  O8  UNL     1     -33.510  16.229  -3.061  1.00 20.00    -0.390 OA
HETATM    9  C7  UNL     1     -33.939  17.006  -1.960  1.00 20.00     0.202 C 
ENDBRANCH   2   8
TORSDOF 1
ENDMDL
MODEL 9
REMARK VINA RESULT:      -3.2     11.666     12.519
REMARK  1 active torsions:
REMARK  status: ('A' for Active; 'I' for Inactive)
REMARK    1  A    between atoms: C2_2  and  O8_8 
ROOT
HETATM    1  C1  UNL     1     -33.723  16.862  -3.521  1.00 20.00     0.049 C 
HETATM    2  C2  UNL     1     -34.796  16.116  -2.691  1.00 20.00     0.131 C 
HETATM    3  C3  UNL     1     -34.582  16.601  -4.777  1.00 20.00     0.070 C 
HETATM    4  C4  UNL     1     -35.231  15.396  -4.015  1.00 20.00    -0.008 C 
HETATM    5  C5  UNL     1     -34.579  14.015  -4.151  1.00 20.00     0.018 C 
HETATM    6  C6  UNL     1     -36.740  15.294  -4.241  1.00 20.00     0.018 C 
HETATM    7 BR9  UNL     1     -33.612  16.240  -6.408  1.00 20.00    -0.090 Br
ENDROOT
BRANCH   2   8
HETATM    8  O8  UNL     1     -35.781  16.960  -2.058  1.00 20.00    -0.390 OA
HETATM    9  C7  UNL     1     -35.370  17.316  -0.752  1.00 20.00     0.202 C 
ENDBRANCH   2   8
TORSDOF 1
ENDMDL
