MODEL 1
REMARK VINA RESULT:      -4.0      0.000      0.000
REMARK  2 active torsions:
REMARK  status: ('A' for Active; 'I' for Inactive)
REMARK    1  A    between atoms: C5_5  and  S10_10 
REMARK    2  A    between atoms: C8_8  and  S10_10 
ROOT
HETATM    1  C1  UNL     1     -33.621   7.134   5.185  1.00 20.00     0.080 C 
HETATM    2  C2  UNL     1     -34.572   4.395   4.418  1.00 20.00     0.009 C 
HETATM    3  C3  UNL     1     -35.338   5.672   4.014  1.00 20.00     0.037 C 
HETATM    4  C4  UNL     1     -33.294   5.019   3.791  1.00 20.00     0.014 C 
HETATM    5  C5  UNL     1     -33.979   6.417   3.980  1.00 20.00     0.100 C 
HETATM    6  C6  UNL     1     -32.965   4.457   2.411  1.00 20.00     0.012 C 
HETATM    7  N9  UNL     1     -33.332   7.708   6.151  1.00 20.00    -0.196 NA
ENDROOT
BRANCH   5   8
HETATM    8  S10 UNL     1     -33.844   7.534   2.541  1.00 20.00    -0.144 SA
BRANCH   8   9
HETATM    9  C8  UNL     1     -32.121   8.020   2.774  1.00 20.00     0.071 C 
HETATM   10  C7  UNL     1     -31.572   8.654   1.511  1.00 20.00     0.016 C 
ENDBRANCH   8   9
ENDBRANCH   5   8
TORSDOF 2
ENDMDL
MODEL 2
REMARK VINA RESULT:      -3.9     11.984     12.907
REMARK  2 active torsions:
REMARK  status: ('A' for Active; 'I' for Inactive)
REMARK    1  A    between atoms: C5_5  and  S10_10 
REMARK    2  A    between atoms: C8_8  and  S10_10 
ROOT
HETATM    1  C1  UNL     1     -34.971  13.540  -6.252  1.00 20.00     0.080 C 
HETATM    2  C2  UNL     1     -32.983  14.881  -4.451  1.00 20.00     0.009 C 
HETATM    3  C3  UNL     1     -33.411  15.495  -5.800  1.00 20.00     0.037 C 
HETATM    4  C4  UNL     1     -34.486  14.780  -4.072  1.00 20.00     0.014 C 
HETATM    5  C5  UNL     1     -34.796  14.825  -5.608  1.00 20.00     0.100 C 
HETATM    6  C6  UNL     1     -34.943  15.882  -3.120  1.00 20.00     0.012 C 
HETATM    7  N9  UNL     1     -35.111  12.510  -6.766  1.00 20.00    -0.196 NA
ENDROOT
BRANCH   5   8
HETATM    8  S10 UNL     1     -36.167  15.936  -6.078  1.00 20.00    -0.144 SA
BRANCH   8   9
HETATM    9  C8  UNL     1     -37.498  14.719  -6.009  1.00 20.00     0.071 C 
HETATM   10  C7  UNL     1     -38.314  14.894  -4.742  1.00 20.00     0.016 C 
ENDBRANCH   8   9
ENDBRANCH   5   8
TORSDOF 2
ENDMDL
MODEL 3
REMARK VINA RESULT:      -3.9     11.800     12.858
REMARK  2 active torsions:
REMARK  status: ('A' for Active; 'I' for Inactive)
REMARK    1  A    between atoms: C5_5  and  S10_10 
REMARK    2  A    between atoms: C8_8  and  S10_10 
ROOT
HETATM    1  C1  UNL     1     -35.615  13.875  -4.991  1.00 20.00     0.080 C 
HETATM    2  C2  UNL     1     -33.254  15.707  -4.734  1.00 20.00     0.009 C 
HETATM    3  C3  UNL     1     -34.487  16.072  -5.589  1.00 20.00     0.037 C 
HETATM    4  C4  UNL     1     -34.216  15.446  -3.543  1.00 20.00     0.014 C 
HETATM    5  C5  UNL     1     -35.352  15.245  -4.604  1.00 20.00     0.100 C 
HETATM    6  C6  UNL     1     -34.245  16.589  -2.531  1.00 20.00     0.012 C 
HETATM    7  N9  UNL     1     -35.825  12.776  -5.299  1.00 20.00    -0.196 NA
ENDROOT
BRANCH   5   8
HETATM    8  S10 UNL     1     -36.926  16.081  -4.205  1.00 20.00    -0.144 SA
BRANCH   8   9
HETATM    9  C8  UNL     1     -37.853  15.557  -5.663  1.00 20.00     0.071 C 
HETATM   10  C7  UNL     1     -39.192  14.971  -5.260  1.00 20.00     0.016 C 
ENDBRANCH   8   9
ENDBRANCH   5   8
TORSDOF 2
ENDMDL
MODEL 4
REMARK VINA RESULT:      -3.8     12.140     12.774
REMARK  2 active torsions:
REMARK  status: ('A' for Active; 'I' for Inactive)
REMARK    1  A    between atoms: C5_5  and  S10_10 
REMARK    2  A    between atoms: C8_8  and  S10_10 
ROOT
HETATM    1  C1  UNL     1     -36.936  14.519  -5.165  1.00 20.00     0.080 C 
HETATM    2  C2  UNL     1     -34.401  13.865  -6.629  1.00 20.00     0.009 C 
HETATM    3  C3  UNL     1     -35.238  15.119  -6.959  1.00 20.00     0.037 C 
HETATM    4  C4  UNL     1     -34.390  14.320  -5.143  1.00 20.00     0.014 C 
HETATM    5  C5  UNL     1     -35.673  15.158  -5.472  1.00 20.00     0.100 C 
HETATM    6  C6  UNL     1     -33.077  14.977  -4.725  1.00 20.00     0.012 C 
HETATM    7  N9  UNL     1     -37.947  14.006  -4.919  1.00 20.00    -0.196 NA
ENDROOT
BRANCH   5   8
HETATM    8  S10 UNL     1     -35.669  16.856  -4.799  1.00 20.00    -0.144 SA
BRANCH   8   9
HETATM    9  C8  UNL     1     -36.252  16.459  -3.137  1.00 20.00     0.071 C 
HETATM   10  C7  UNL     1     -35.130  16.613  -2.129  1.00 20.00     0.016 C 
ENDBRANCH   8   9
ENDBRANCH   5   8
TORSDOF 2
ENDMDL
MODEL 5
REMARK VINA RESULT:      -3.8     11.688     12.653
REMARK  2 active torsions:
REMARK  status: ('A' for Active; 'I' for Inactive)
REMARK    1  A    between atoms: C5_5  and  S10_10 
REMARK    2  A    between atoms: C8_8  and  S10_10 
ROOT
HETATM    1  C1  UNL     1     -34.534  14.803  -3.938  1.00 20.00     0.080 C 
HETATM    2  C2  UNL     1     -33.559  17.036  -2.190  1.00 20.00     0.009 C 
HETATM    3  C3  UNL     1     -33.758  17.212  -3.710  1.00 20.00     0.037 C 
HETATM    4  C4  UNL     1     -35.020  16.514  -2.106  1.00 20.00     0.014 C 
HETATM    5  C5  UNL     1     -34.901  16.169  -3.630  1.00 20.00     0.100 C 
HETATM    6  C6  UNL     1     -36.004  17.559  -1.585  1.00 20.00     0.012 C 
HETATM    7  N9  UNL     1     -34.240  13.708  -4.183  1.00 20.00    -0.196 NA
ENDROOT
BRANCH   5   8
HETATM    8  S10 UNL     1     -36.345  16.655  -4.638  1.00 20.00    -0.144 SA
BRANCH   8   9
HETATM    9  C8  UNL     1     -37.391  15.232  -4.263  1.00 20.00     0.071 C 
HETATM   10  C7  UNL     1     -37.842  14.552  -5.542  1.00 20.00     0.016 C 
ENDBRANCH   8   9
ENDBRANCH   5   8
TORSDOF 2
ENDMDL
MODEL 6
REMARK VINA RESULT:      -3.7     11.729     12.938
REMARK  2 active torsions:
REMARK  status: ('A' for Active; 'I' for Inactive)
REMARK    1  A    between atoms: C5_5  and  S10_10 
REMARK    2  A    between atoms: C8_8  and  S10_10 
ROOT
HETATM    1  C1  UNL     1     -34.416  14.788  -3.976  1.00 20.00     0.080 C 
HETATM    2  C2  UNL     1     -35.089  16.714  -1.777  1.00 20.00     0.009 C 
HETATM    3  C3  UNL     1     -33.722  16.731  -2.493  1.00 20.00     0.037 C 
HETATM    4  C4  UNL     1     -35.768  16.800  -3.172  1.00 20.00     0.014 C 
HETATM    5  C5  UNL     1     -34.439  16.221  -3.768  1.00 20.00     0.100 C 
HETATM    6  C6  UNL     1     -36.266  18.203  -3.513  1.00 20.00     0.012 C 
HETATM    7  N9  UNL     1     -34.400  13.640  -4.143  1.00 20.00    -0.196 NA
ENDROOT
BRANCH   5   8
HETATM    8  S10 UNL     1     -33.845  17.067  -5.275  1.00 20.00    -0.144 SA
BRANCH   8   9
HETATM    9  C8  UNL     1     -34.845  16.158  -6.471  1.00 20.00     0.071 C 
HETATM   10  C7  UNL     1     -33.965  15.544  -7.543  1.00 20.00     0.016 C 
ENDBRANCH   8   9
ENDBRANCH   5   8
TORSDOF 2
ENDMDL
MODEL 7
REMARK VINA RESULT:      -3.6     11.904     12.928
REMARK  2 active torsions:
REMARK  status: ('A' for Active; 'I' for Inactive)
REMARK    1  A    between atoms: C5_5  and  S10_10 
REMARK    2  A    between atoms: C8_8  and  S10_10 
ROOT
HETATM    1  C1  UNL     1     -35.692  16.847  -5.339  1.00 20.00     0.080 C 
HETATM    2  C2  UNL     1     -33.689  16.504  -3.134  1.00 20.00     0.009 C 
HETATM    3  C3  UNL     1     -35.151  16.031  -2.994  1.00 20.00     0.037 C 
HETATM    4  C4  UNL     1     -33.598  15.685  -4.451  1.00 20.00     0.014 C 
HETATM    5  C5  UNL     1     -35.162  15.776  -4.523  1.00 20.00     0.100 C 
HETATM    6  C6  UNL     1     -32.869  14.355  -4.284  1.00 20.00     0.012 C 
HETATM    7  N9  UNL     1     -36.115  17.706  -5.994  1.00 20.00    -0.196 NA
ENDROOT
BRANCH   5   8
HETATM    8  S10 UNL     1     -35.998  14.209  -4.952  1.00 20.00    -0.144 SA
BRANCH   8   9
HETATM    9  C8  UNL     1     -35.858  14.345  -6.746  1.00 20.00     0.071 C 
HETATM   10  C7  UNL     1     -34.841  13.353  -7.277  1.00 20.00     0.016 C 
ENDBRANCH   8   9
ENDBRANCH   5   8
TORSDOF 2
ENDMDL
MODEL 8
REMARK VINA RESULT:      -3.5      2.028      4.216
REMARK  2 active torsions:
REMARK  status: ('A' for Active; 'I' for Inactive)
REMARK    1  A    between atoms: C5_5  and  S10_10 
REMARK    2  A    between atoms: C8_8  and  S10_10 
ROOT
HETATM    1  C1  UNL     1     -32.924   5.688   2.737  1.00 20.00     0.080 C 
HETATM    2  C2  UNL     1     -31.966   8.367   1.787  1.00 20.00     0.009 C 
HETATM    3  C3  UNL     1     -33.449   8.097   2.121  1.00 20.00     0.037 C 
HETATM    4  C4  UNL     1     -31.598   7.822   3.195  1.00 20.00     0.014 C 
HETATM    5  C5  UNL     1     -32.972   7.067   3.176  1.00 20.00     0.100 C 
HETATM    6  C6  UNL     1     -31.292   8.925   4.205  1.00 20.00     0.012 C 
HETATM    7  N9  UNL     1     -32.885   4.583   2.386  1.00 20.00    -0.196 NA
ENDROOT
BRANCH   5   8
HETATM    8  S10 UNL     1     -33.927   7.183   4.729  1.00 20.00    -0.144 SA
BRANCH   8   9
HETATM    9  C8  UNL     1     -34.920   5.691   4.512  1.00 20.00     0.071 C 
HETATM   10  C7  UNL     1     -34.660   4.710   5.639  1.00 20.00     0.016 C 
ENDBRANCH   8   9
ENDBRANCH   5   8
TORSDOF 2
ENDMDL
MODEL 9
REMARK VINA RESULT:      -3.5     12.047     13.346
REMARK  2 active torsions:
REMARK  status: ('A' for Active; 'I' for Inactive)
REMARK    1  A    between atoms: C5_5  and  S10_10 
REMARK    2  A    between atoms: C8_8  and  S10_10 
ROOT
HETATM    1  C1  UNL     1     -35.286  13.865  -5.298  1.00 20.00     0.080 C 
HETATM    2  C2  UNL     1     -34.043  15.815  -3.388  1.00 20.00     0.009 C 
HETATM    3  C3  UNL     1     -33.225  15.117  -4.494  1.00 20.00     0.037 C 
HETATM    4  C4  UNL     1     -35.046  16.273  -4.482  1.00 20.00     0.014 C 
HETATM    5  C5  UNL     1     -34.512  15.087  -5.357  1.00 20.00     0.100 C 
HETATM    6  C6  UNL     1     -34.862  17.732  -4.894  1.00 20.00     0.012 C 
HETATM    7  N9  UNL     1     -35.907  12.887  -5.250  1.00 20.00    -0.196 NA
ENDROOT
BRANCH   5   8
HETATM    8  S10 UNL     1     -34.179  15.516  -7.102  1.00 20.00    -0.144 SA
BRANCH   8   9
HETATM    9  C8  UNL     1     -35.831  15.188  -7.750  1.00 20.00     0.071 C 
HETATM   10  C7  UNL     1     -36.603  16.483  -7.918  1.00 20.00     0.016 C 
ENDBRANCH   8   9
ENDBRANCH   5   8
TORSDOF 2
ENDMDL
