MODEL 1
REMARK VINA RESULT:      -5.4      0.000      0.000
REMARK  1 active torsions:
REMARK  status: ('A' for Active; 'I' for Inactive)
REMARK    1  A    between atoms: C1_1  and  C3_3 
REMARK       I    between atoms: C3_3  and  N11_11 
ROOT
HETATM    1  C3  UNL     1     -32.246   7.885   3.001  1.00 20.00     0.243 C 
HETATM    2  C4  UNL     1     -35.321   5.923   3.733  1.00 20.00     0.030 C 
HETATM    3  C5  UNL     1     -34.430   6.603   2.700  1.00 20.00     0.127 C 
HETATM    4  C6  UNL     1     -33.296   6.574   4.824  1.00 20.00     0.134 C 
HETATM    5  C7  UNL     1     -34.341   5.449   4.822  1.00 20.00    -0.030 C 
HETATM    6  C9  UNL     1     -33.695   4.108   4.435  1.00 20.00     0.016 C 
HETATM    7  C10 UNL     1     -35.030   5.311   6.179  1.00 20.00     0.016 C 
HETATM    8  N11 UNL     1     -33.269   7.072   3.453  1.00 20.00    -0.348 N 
HETATM    9  O12 UNL     1     -31.289   8.249   3.684  1.00 20.00    -0.268 OA
ENDROOT
BRANCH   1  10
HETATM   10  C1  UNL     1     -32.329   8.333   1.597  1.00 20.00     0.070 C 
HETATM   11  C2  UNL     1     -32.729   9.559   1.234  1.00 20.00    -0.026 C 
HETATM   12  C8  UNL     1     -32.819  10.015  -0.185  1.00 20.00     0.036 C 
ENDBRANCH   1  10
TORSDOF 1
ENDMDL
MODEL 2
REMARK VINA RESULT:      -4.6     11.360     12.147
REMARK  1 active torsions:
REMARK  status: ('A' for Active; 'I' for Inactive)
REMARK    1  A    between atoms: C1_1  and  C3_3 
REMARK       I    between atoms: C3_3  and  N11_11 
ROOT
HETATM    1  C3  UNL     1     -32.299  18.443   0.015  1.00 20.00     0.243 C 
HETATM    2  C4  UNL     1     -35.547  17.021  -1.109  1.00 20.00     0.030 C 
HETATM    3  C5  UNL     1     -34.789  17.912  -0.133  1.00 20.00     0.127 C 
HETATM    4  C6  UNL     1     -33.304  17.239  -1.904  1.00 20.00     0.134 C 
HETATM    5  C7  UNL     1     -34.746  17.130  -2.419  1.00 20.00    -0.030 C 
HETATM    6  C9  UNL     1     -35.139  18.393  -3.202  1.00 20.00     0.016 C 
HETATM    7  C10 UNL     1     -34.942  15.900  -3.304  1.00 20.00     0.016 C 
HETATM    8  N11 UNL     1     -33.409  17.911  -0.614  1.00 20.00    -0.348 N 
HETATM    9  O12 UNL     1     -31.156  18.412  -0.440  1.00 20.00    -0.268 OA
ENDROOT
BRANCH   1  10
HETATM   10  C1  UNL     1     -32.527  19.094   1.320  1.00 20.00     0.070 C 
HETATM   11  C2  UNL     1     -32.197  18.535   2.492  1.00 20.00    -0.026 C 
HETATM   12  C8  UNL     1     -32.429  19.187   3.815  1.00 20.00     0.036 C 
ENDBRANCH   1  10
TORSDOF 1
ENDMDL
MODEL 3
REMARK VINA RESULT:      -4.5     11.329     12.105
REMARK  1 active torsions:
REMARK  status: ('A' for Active; 'I' for Inactive)
REMARK    1  A    between atoms: C1_1  and  C3_3 
REMARK       I    between atoms: C3_3  and  N11_11 
ROOT
HETATM    1  C3  UNL     1     -34.585  16.028  -3.343  1.00 20.00     0.243 C 
HETATM    2  C4  UNL     1     -36.780  13.980  -5.538  1.00 20.00     0.030 C 
HETATM    3  C5  UNL     1     -36.658  14.988  -4.402  1.00 20.00     0.127 C 
HETATM    4  C6  UNL     1     -34.500  14.684  -5.424  1.00 20.00     0.134 C 
HETATM    5  C7  UNL     1     -35.575  14.286  -6.445  1.00 20.00    -0.030 C 
HETATM    6  C9  UNL     1     -35.882  15.456  -7.394  1.00 20.00     0.016 C 
HETATM    7  C10 UNL     1     -35.158  13.063  -7.261  1.00 20.00     0.016 C 
HETATM    8  N11 UNL     1     -35.231  15.288  -4.316  1.00 20.00    -0.348 N 
HETATM    9  O12 UNL     1     -33.375  16.249  -3.322  1.00 20.00    -0.268 OA
ENDROOT
BRANCH   1  10
HETATM   10  C1  UNL     1     -35.428  16.585  -2.267  1.00 20.00     0.070 C 
HETATM   11  C2  UNL     1     -34.939  17.047  -1.109  1.00 20.00    -0.026 C 
HETATM   12  C8  UNL     1     -35.787  17.608  -0.016  1.00 20.00     0.036 C 
ENDBRANCH   1  10
TORSDOF 1
ENDMDL
MODEL 4
REMARK VINA RESULT:      -4.2     11.145     12.130
REMARK  1 active torsions:
REMARK  status: ('A' for Active; 'I' for Inactive)
REMARK    1  A    between atoms: C1_1  and  C3_3 
REMARK       I    between atoms: C3_3  and  N11_11 
ROOT
HETATM    1  C3  UNL     1     -34.911  16.770  -2.539  1.00 20.00     0.243 C 
HETATM    2  C4  UNL     1     -34.346  15.330  -5.922  1.00 20.00     0.030 C 
HETATM    3  C5  UNL     1     -33.762  15.772  -4.586  1.00 20.00     0.127 C 
HETATM    4  C6  UNL     1     -36.166  15.809  -4.448  1.00 20.00     0.134 C 
HETATM    5  C7  UNL     1     -35.764  14.842  -5.571  1.00 20.00    -0.030 C 
HETATM    6  C9  UNL     1     -35.736  13.394  -5.057  1.00 20.00     0.016 C 
HETATM    7  C10 UNL     1     -36.706  14.941  -6.770  1.00 20.00     0.016 C 
HETATM    8  N11 UNL     1     -34.918  16.154  -3.777  1.00 20.00    -0.348 N 
HETATM    9  O12 UNL     1     -35.920  17.069  -1.902  1.00 20.00    -0.268 OA
ENDROOT
BRANCH   1  10
HETATM   10  C1  UNL     1     -33.588  17.076  -1.961  1.00 20.00     0.070 C 
HETATM   11  C2  UNL     1     -33.378  18.060  -1.076  1.00 20.00    -0.026 C 
HETATM   12  C8  UNL     1     -32.041  18.377  -0.491  1.00 20.00     0.036 C 
ENDBRANCH   1  10
TORSDOF 1
ENDMDL
MODEL 5
REMARK VINA RESULT:      -4.2     11.090     12.020
REMARK  1 active torsions:
REMARK  status: ('A' for Active; 'I' for Inactive)
REMARK    1  A    between atoms: C1_1  and  C3_3 
REMARK       I    between atoms: C3_3  and  N11_11 
ROOT
HETATM    1  C3  UNL     1     -34.314  14.552  -4.560  1.00 20.00     0.243 C 
HETATM    2  C4  UNL     1     -35.111  18.009  -3.442  1.00 20.00     0.030 C 
HETATM    3  C5  UNL     1     -35.514  16.781  -4.248  1.00 20.00     0.127 C 
HETATM    4  C6  UNL     1     -33.595  16.244  -2.898  1.00 20.00     0.134 C 
HETATM    5  C7  UNL     1     -34.317  17.437  -2.254  1.00 20.00    -0.030 C 
HETATM    6  C9  UNL     1     -35.261  16.962  -1.138  1.00 20.00     0.016 C 
HETATM    7  C10 UNL     1     -33.332  18.459  -1.690  1.00 20.00     0.016 C 
HETATM    8  N11 UNL     1     -34.487  15.783  -3.955  1.00 20.00    -0.348 N 
HETATM    9  O12 UNL     1     -33.427  13.750  -4.271  1.00 20.00    -0.268 OA
ENDROOT
BRANCH   1  10
HETATM   10  C1  UNL     1     -35.275  14.197  -5.623  1.00 20.00     0.070 C 
HETATM   11  C2  UNL     1     -34.908  13.769  -6.838  1.00 20.00    -0.026 C 
HETATM   12  C8  UNL     1     -35.876  13.411  -7.918  1.00 20.00     0.036 C 
ENDBRANCH   1  10
TORSDOF 1
ENDMDL
MODEL 6
REMARK VINA RESULT:      -4.1     11.581     12.098
REMARK  1 active torsions:
REMARK  status: ('A' for Active; 'I' for Inactive)
REMARK    1  A    between atoms: C1_1  and  C3_3 
REMARK       I    between atoms: C3_3  and  N11_11 
ROOT
HETATM    1  C3  UNL     1     -35.990  15.443  -4.200  1.00 20.00     0.243 C 
HETATM    2  C4  UNL     1     -33.362  17.095  -2.150  1.00 20.00     0.030 C 
HETATM    3  C5  UNL     1     -33.769  16.467  -3.477  1.00 20.00     0.127 C 
HETATM    4  C6  UNL     1     -35.722  16.719  -2.092  1.00 20.00     0.134 C 
HETATM    5  C7  UNL     1     -34.662  17.724  -1.617  1.00 20.00    -0.030 C 
HETATM    6  C9  UNL     1     -34.904  19.106  -2.244  1.00 20.00     0.016 C 
HETATM    7  C10 UNL     1     -34.643  17.851  -0.094  1.00 20.00     0.016 C 
HETATM    8  N11 UNL     1     -35.191  16.163  -3.331  1.00 20.00    -0.348 N 
HETATM    9  O12 UNL     1     -37.187  15.218  -4.023  1.00 20.00    -0.268 OA
ENDROOT
BRANCH   1  10
HETATM   10  C1  UNL     1     -35.341  14.923  -5.419  1.00 20.00     0.070 C 
HETATM   11  C2  UNL     1     -35.610  13.721  -5.944  1.00 20.00    -0.026 C 
HETATM   12  C8  UNL     1     -34.953  13.188  -7.175  1.00 20.00     0.036 C 
ENDBRANCH   1  10
TORSDOF 1
ENDMDL
MODEL 7
REMARK VINA RESULT:      -4.1     11.486     12.708
REMARK  1 active torsions:
REMARK  status: ('A' for Active; 'I' for Inactive)
REMARK    1  A    between atoms: C1_1  and  C3_3 
REMARK       I    between atoms: C3_3  and  N11_11 
ROOT
HETATM    1  C3  UNL     1     -33.365  17.963  -2.351  1.00 20.00     0.243 C 
HETATM    2  C4  UNL     1     -34.609  15.142  -4.431  1.00 20.00     0.030 C 
HETATM    3  C5  UNL     1     -34.646  15.890  -3.105  1.00 20.00     0.127 C 
HETATM    4  C6  UNL     1     -33.375  17.171  -4.699  1.00 20.00     0.134 C 
HETATM    5  C7  UNL     1     -34.315  16.236  -5.473  1.00 20.00    -0.030 C 
HETATM    6  C9  UNL     1     -35.602  16.973  -5.877  1.00 20.00     0.016 C 
HETATM    7  C10 UNL     1     -33.644  15.661  -6.720  1.00 20.00     0.016 C 
HETATM    8  N11 UNL     1     -33.785  17.055  -3.304  1.00 20.00    -0.348 N 
HETATM    9  O12 UNL     1     -32.638  18.929  -2.578  1.00 20.00    -0.268 OA
ENDROOT
BRANCH   1  10
HETATM   10  C1  UNL     1     -33.840  17.740  -0.971  1.00 20.00     0.070 C 
HETATM   11  C2  UNL     1     -33.702  18.639   0.013  1.00 20.00    -0.026 C 
HETATM   12  C8  UNL     1     -34.177  18.416   1.411  1.00 20.00     0.036 C 
ENDBRANCH   1  10
TORSDOF 1
ENDMDL
MODEL 8
REMARK VINA RESULT:      -4.0     10.942     12.747
REMARK  1 active torsions:
REMARK  status: ('A' for Active; 'I' for Inactive)
REMARK    1  A    between atoms: C1_1  and  C3_3 
REMARK       I    between atoms: C3_3  and  N11_11 
ROOT
HETATM    1  C3  UNL     1     -37.217  14.588  -5.631  1.00 20.00     0.243 C 
HETATM    2  C4  UNL     1     -33.645  15.600  -5.851  1.00 20.00     0.030 C 
HETATM    3  C5  UNL     1     -35.094  15.861  -6.243  1.00 20.00     0.127 C 
HETATM    4  C6  UNL     1     -35.029  14.148  -4.553  1.00 20.00     0.134 C 
HETATM    5  C7  UNL     1     -33.741  14.976  -4.447  1.00 20.00    -0.030 C 
HETATM    6  C9  UNL     1     -33.882  16.063  -3.369  1.00 20.00     0.016 C 
HETATM    7  C10 UNL     1     -32.528  14.102  -4.134  1.00 20.00     0.016 C 
HETATM    8  N11 UNL     1     -35.870  14.869  -5.502  1.00 20.00    -0.348 N 
HETATM    9  O12 UNL     1     -37.819  13.738  -4.976  1.00 20.00    -0.268 OA
ENDROOT
BRANCH   1  10
HETATM   10  C1  UNL     1     -37.965  15.379  -6.628  1.00 20.00     0.070 C 
HETATM   11  C2  UNL     1     -39.214  15.822  -6.435  1.00 20.00    -0.026 C 
HETATM   12  C8  UNL     1     -39.976  16.618  -7.442  1.00 20.00     0.036 C 
ENDBRANCH   1  10
TORSDOF 1
ENDMDL
MODEL 9
REMARK VINA RESULT:      -3.9     11.268     12.111
REMARK  1 active torsions:
REMARK  status: ('A' for Active; 'I' for Inactive)
REMARK    1  A    between atoms: C1_1  and  C3_3 
REMARK       I    between atoms: C3_3  and  N11_11 
ROOT
HETATM    1  C3  UNL     1     -34.427  16.877  -2.296  1.00 20.00     0.243 C 
HETATM    2  C4  UNL     1     -36.333  14.917  -4.817  1.00 20.00     0.030 C 
HETATM    3  C5  UNL     1     -36.349  15.925  -3.675  1.00 20.00     0.127 C 
HETATM    4  C6  UNL     1     -34.071  15.518  -4.337  1.00 20.00     0.134 C 
HETATM    5  C7  UNL     1     -34.985  15.162  -5.518  1.00 20.00    -0.030 C 
HETATM    6  C9  UNL     1     -35.082  16.339  -6.503  1.00 20.00     0.016 C 
HETATM    7  C10 UNL     1     -34.499  13.916  -6.258  1.00 20.00     0.016 C 
HETATM    8  N11 UNL     1     -34.942  16.161  -3.360  1.00 20.00    -0.348 N 
HETATM    9  O12 UNL     1     -33.227  17.044  -2.081  1.00 20.00    -0.268 OA
ENDROOT
BRANCH   1  10
HETATM   10  C1  UNL     1     -35.406  17.479  -1.369  1.00 20.00     0.070 C 
HETATM   11  C2  UNL     1     -35.332  17.359  -0.037  1.00 20.00    -0.026 C 
HETATM   12  C8  UNL     1     -36.321  17.962   0.906  1.00 20.00     0.036 C 
ENDBRANCH   1  10
TORSDOF 1
ENDMDL
