MODEL 1
REMARK VINA RESULT:      -5.9      0.000      0.000
REMARK  1 active torsions:
REMARK  status: ('A' for Active; 'I' for Inactive)
REMARK    1  A    between atoms: C6_6  and  C11_11 
ROOT
HETATM    1  C1  UNL     1     -32.753   7.597   5.341  1.00 20.00     0.001 C 
HETATM    2  C2  UNL     1     -32.052   8.307   4.171  1.00 20.00     0.006 C 
HETATM    3  C3  UNL     1     -32.934   6.902   2.197  1.00 20.00     0.007 C 
HETATM    4  C4  UNL     1     -34.205   7.186   5.093  1.00 20.00     0.008 C 
HETATM    5  C5  UNL     1     -33.235   5.749   3.155  1.00 20.00     0.009 C 
HETATM    6  C6  UNL     1     -32.779   8.297   2.818  1.00 20.00     0.003 C 
HETATM    7  C7  UNL     1     -34.386   5.950   4.170  1.00 20.00    -0.048 C 
HETATM    8  C8  UNL     1     -34.444   4.681   5.052  1.00 20.00     0.015 C 
HETATM    9  C9  UNL     1     -35.733   6.069   3.432  1.00 20.00     0.015 C 
ENDROOT
BRANCH   6  10
HETATM   10  C11 UNL     1     -32.052   9.218   1.828  1.00 20.00     0.082 C 
HETATM   11  C10 UNL     1     -33.003  10.232   1.224  1.00 20.00     0.027 C 
HETATM   12 CL12 UNL     1     -31.317   8.227   0.541  1.00 20.00    -0.125 Cl
ENDBRANCH   6  10
TORSDOF 1
ENDMDL
MODEL 2
REMARK VINA RESULT:      -4.6     10.705     11.721
REMARK  1 active torsions:
REMARK  status: ('A' for Active; 'I' for Inactive)
REMARK    1  A    between atoms: C6_6  and  C11_11 
ROOT
HETATM    1  C1  UNL     1     -33.790  14.453  -4.416  1.00 20.00     0.001 C 
HETATM    2  C2  UNL     1     -33.663  15.701  -3.527  1.00 20.00     0.006 C 
HETATM    3  C3  UNL     1     -35.785  16.980  -4.239  1.00 20.00     0.007 C 
HETATM    4  C4  UNL     1     -35.200  13.876  -4.552  1.00 20.00     0.008 C 
HETATM    5  C5  UNL     1     -35.815  16.196  -5.551  1.00 20.00     0.009 C 
HETATM    6  C6  UNL     1     -34.972  16.375  -3.087  1.00 20.00     0.003 C 
HETATM    7  C7  UNL     1     -36.153  14.688  -5.470  1.00 20.00    -0.048 C 
HETATM    8  C8  UNL     1     -36.056  14.120  -6.906  1.00 20.00     0.015 C 
HETATM    9  C9  UNL     1     -37.602  14.492  -4.985  1.00 20.00     0.015 C 
ENDROOT
BRANCH   6  10
HETATM   10  C11 UNL     1     -34.675  17.463  -2.046  1.00 20.00     0.082 C 
HETATM   11  C10 UNL     1     -33.187  17.574  -1.781  1.00 20.00     0.027 C 
HETATM   12 CL12 UNL     1     -35.538  17.075  -0.535  1.00 20.00    -0.125 Cl
ENDBRANCH   6  10
TORSDOF 1
ENDMDL
MODEL 3
REMARK VINA RESULT:      -4.6     10.943     12.089
REMARK  1 active torsions:
REMARK  status: ('A' for Active; 'I' for Inactive)
REMARK    1  A    between atoms: C6_6  and  C11_11 
ROOT
HETATM    1  C1  UNL     1     -33.407  16.092  -5.987  1.00 20.00     0.001 C 
HETATM    2  C2  UNL     1     -33.369  16.779  -4.613  1.00 20.00     0.006 C 
HETATM    3  C3  UNL     1     -35.693  16.116  -3.713  1.00 20.00     0.007 C 
HETATM    4  C4  UNL     1     -34.030  14.695  -6.014  1.00 20.00     0.008 C 
HETATM    5  C5  UNL     1     -36.176  15.877  -5.144  1.00 20.00     0.009 C 
HETATM    6  C6  UNL     1     -34.175  16.118  -3.484  1.00 20.00     0.003 C 
HETATM    7  C7  UNL     1     -35.579  14.668  -5.902  1.00 20.00    -0.048 C 
HETATM    8  C8  UNL     1     -36.175  14.684  -7.330  1.00 20.00     0.015 C 
HETATM    9  C9  UNL     1     -36.009  13.350  -5.230  1.00 20.00     0.015 C 
ENDROOT
BRANCH   6  10
HETATM   10  C11 UNL     1     -33.861  16.803  -2.147  1.00 20.00     0.082 C 
HETATM   11  C10 UNL     1     -35.121  17.011  -1.330  1.00 20.00     0.027 C 
HETATM   12 CL12 UNL     1     -33.074  18.370  -2.466  1.00 20.00    -0.125 Cl
ENDBRANCH   6  10
TORSDOF 1
ENDMDL
MODEL 4
REMARK VINA RESULT:      -4.5     11.020     11.931
REMARK  1 active torsions:
REMARK  status: ('A' for Active; 'I' for Inactive)
REMARK    1  A    between atoms: C6_6  and  C11_11 
ROOT
HETATM    1  C1  UNL     1     -36.484  15.454  -4.301  1.00 20.00     0.001 C 
HETATM    2  C2  UNL     1     -35.719  15.917  -3.051  1.00 20.00     0.006 C 
HETATM    3  C3  UNL     1     -33.301  15.401  -3.785  1.00 20.00     0.007 C 
HETATM    4  C4  UNL     1     -35.843  15.814  -5.642  1.00 20.00     0.008 C 
HETATM    5  C5  UNL     1     -33.829  14.396  -4.809  1.00 20.00     0.009 C 
HETATM    6  C6  UNL     1     -34.294  16.451  -3.267  1.00 20.00     0.003 C 
HETATM    7  C7  UNL     1     -34.603  14.959  -6.024  1.00 20.00    -0.048 C 
HETATM    8  C8  UNL     1     -35.079  13.750  -6.864  1.00 20.00     0.015 C 
HETATM    9  C9  UNL     1     -33.667  15.805  -6.909  1.00 20.00     0.015 C 
ENDROOT
BRANCH   6  10
HETATM   10  C11 UNL     1     -33.760  17.059  -1.963  1.00 20.00     0.082 C 
HETATM   11  C10 UNL     1     -34.884  17.312  -0.978  1.00 20.00     0.027 C 
HETATM   12 CL12 UNL     1     -32.917  18.585  -2.334  1.00 20.00    -0.125 Cl
ENDBRANCH   6  10
TORSDOF 1
ENDMDL
MODEL 5
REMARK VINA RESULT:      -4.4     11.022     12.262
REMARK  1 active torsions:
REMARK  status: ('A' for Active; 'I' for Inactive)
REMARK    1  A    between atoms: C6_6  and  C11_11 
ROOT
HETATM    1  C1  UNL     1     -33.673  17.997  -5.067  1.00 20.00     0.001 C 
HETATM    2  C2  UNL     1     -34.001  16.836  -6.019  1.00 20.00     0.006 C 
HETATM    3  C3  UNL     1     -34.413  14.952  -4.308  1.00 20.00     0.007 C 
HETATM    4  C4  UNL     1     -34.533  18.084  -3.805  1.00 20.00     0.008 C 
HETATM    5  C5  UNL     1     -33.594  15.719  -3.270  1.00 20.00     0.009 C 
HETATM    6  C6  UNL     1     -34.961  15.758  -5.493  1.00 20.00     0.003 C 
HETATM    7  C7  UNL     1     -34.201  17.030  -2.714  1.00 20.00    -0.048 C 
HETATM    8  C8  UNL     1     -33.163  17.638  -1.742  1.00 20.00     0.015 C 
HETATM    9  C9  UNL     1     -35.478  16.726  -1.907  1.00 20.00     0.015 C 
ENDROOT
BRANCH   6  10
HETATM   10  C11 UNL     1     -35.343  14.799  -6.629  1.00 20.00     0.082 C 
HETATM   11  C10 UNL     1     -35.765  13.448  -6.086  1.00 20.00     0.027 C 
HETATM   12 CL12 UNL     1     -33.950  14.609  -7.725  1.00 20.00    -0.125 Cl
ENDBRANCH   6  10
TORSDOF 1
ENDMDL
MODEL 6
REMARK VINA RESULT:      -4.4     10.582     12.070
REMARK  1 active torsions:
REMARK  status: ('A' for Active; 'I' for Inactive)
REMARK    1  A    between atoms: C6_6  and  C11_11 
ROOT
HETATM    1  C1  UNL     1     -33.992  17.744  -5.310  1.00 20.00     0.001 C 
HETATM    2  C2  UNL     1     -34.135  18.366  -3.912  1.00 20.00     0.006 C 
HETATM    3  C3  UNL     1     -34.680  16.256  -2.533  1.00 20.00     0.007 C 
HETATM    4  C4  UNL     1     -33.259  16.403  -5.369  1.00 20.00     0.008 C 
HETATM    5  C5  UNL     1     -35.154  15.551  -3.804  1.00 20.00     0.009 C 
HETATM    6  C6  UNL     1     -33.765  17.475  -2.715  1.00 20.00     0.003 C 
HETATM    7  C7  UNL     1     -34.079  15.187  -4.857  1.00 20.00    -0.048 C 
HETATM    8  C8  UNL     1     -34.815  14.549  -6.059  1.00 20.00     0.015 C 
HETATM    9  C9  UNL     1     -33.110  14.133  -4.288  1.00 20.00     0.015 C 
ENDROOT
BRANCH   6  10
HETATM   10  C11 UNL     1     -33.761  18.307  -1.426  1.00 20.00     0.082 C 
HETATM   11  C10 UNL     1     -32.372  18.375  -0.824  1.00 20.00     0.027 C 
HETATM   12 CL12 UNL     1     -34.899  17.583  -0.260  1.00 20.00    -0.125 Cl
ENDBRANCH   6  10
TORSDOF 1
ENDMDL
MODEL 7
REMARK VINA RESULT:      -4.3     10.822     12.025
REMARK  1 active torsions:
REMARK  status: ('A' for Active; 'I' for Inactive)
REMARK    1  A    between atoms: C6_6  and  C11_11 
ROOT
HETATM    1  C1  UNL     1     -33.423  14.766  -4.024  1.00 20.00     0.001 C 
HETATM    2  C2  UNL     1     -34.707  14.107  -4.552  1.00 20.00     0.006 C 
HETATM    3  C3  UNL     1     -36.466  15.771  -3.667  1.00 20.00     0.007 C 
HETATM    4  C4  UNL     1     -33.369  16.291  -4.129  1.00 20.00     0.008 C 
HETATM    5  C5  UNL     1     -35.476  16.251  -2.606  1.00 20.00     0.009 C 
HETATM    6  C6  UNL     1     -35.881  15.041  -4.884  1.00 20.00     0.003 C 
HETATM    7  C7  UNL     1     -34.243  17.050  -3.094  1.00 20.00    -0.048 C 
HETATM    8  C8  UNL     1     -33.377  17.359  -1.851  1.00 20.00     0.015 C 
HETATM    9  C9  UNL     1     -34.686  18.394  -3.703  1.00 20.00     0.015 C 
ENDROOT
BRANCH   6  10
HETATM   10  C11 UNL     1     -36.993  14.252  -5.589  1.00 20.00     0.082 C 
HETATM   11  C10 UNL     1     -36.979  14.505  -7.083  1.00 20.00     0.027 C 
HETATM   12 CL12 UNL     1     -38.569  14.725  -4.903  1.00 20.00    -0.125 Cl
ENDBRANCH   6  10
TORSDOF 1
ENDMDL
MODEL 8
REMARK VINA RESULT:      -4.3      2.237      4.616
REMARK  1 active torsions:
REMARK  status: ('A' for Active; 'I' for Inactive)
REMARK    1  A    between atoms: C6_6  and  C11_11 
ROOT
HETATM    1  C1  UNL     1     -33.276   6.190   1.576  1.00 20.00     0.001 C 
HETATM    2  C2  UNL     1     -33.662   5.899   3.035  1.00 20.00     0.006 C 
HETATM    3  C3  UNL     1     -32.616   7.949   4.197  1.00 20.00     0.007 C 
HETATM    4  C4  UNL     1     -33.400   7.649   1.135  1.00 20.00     0.008 C 
HETATM    5  C5  UNL     1     -31.667   8.133   3.012  1.00 20.00     0.009 C 
HETATM    6  C6  UNL     1     -33.879   7.114   3.951  1.00 20.00     0.003 C 
HETATM    7  C7  UNL     1     -32.287   8.591   1.670  1.00 20.00    -0.048 C 
HETATM    8  C8  UNL     1     -31.142   8.639   0.631  1.00 20.00     0.015 C 
HETATM    9  C9  UNL     1     -32.859  10.015   1.804  1.00 20.00     0.015 C 
ENDROOT
BRANCH   6  10
HETATM   10  C11 UNL     1     -34.459   6.657   5.296  1.00 20.00     0.082 C 
HETATM   11  C10 UNL     1     -33.659   7.218   6.455  1.00 20.00     0.027 C 
HETATM   12 CL12 UNL     1     -34.457   4.875   5.358  1.00 20.00    -0.125 Cl
ENDBRANCH   6  10
TORSDOF 1
ENDMDL
MODEL 9
REMARK VINA RESULT:      -4.0     10.614     12.458
REMARK  1 active torsions:
REMARK  status: ('A' for Active; 'I' for Inactive)
REMARK    1  A    between atoms: C6_6  and  C11_11 
ROOT
HETATM    1  C1  UNL     1     -34.026  14.793  -7.055  1.00 20.00     0.001 C 
HETATM    2  C2  UNL     1     -35.557  14.799  -7.189  1.00 20.00     0.006 C 
HETATM    3  C3  UNL     1     -36.228  14.630  -4.705  1.00 20.00     0.007 C 
HETATM    4  C4  UNL     1     -33.458  15.619  -5.899  1.00 20.00     0.008 C 
HETATM    5  C5  UNL     1     -34.856  14.041  -4.377  1.00 20.00     0.009 C 
HETATM    6  C6  UNL     1     -36.354  15.406  -6.023  1.00 20.00     0.003 C 
HETATM    7  C7  UNL     1     -33.633  14.983  -4.493  1.00 20.00    -0.048 C 
HETATM    8  C8  UNL     1     -32.376  14.140  -4.174  1.00 20.00     0.015 C 
HETATM    9  C9  UNL     1     -33.723  16.107  -3.444  1.00 20.00     0.015 C 
ENDROOT
BRANCH   6  10
HETATM   10  C11 UNL     1     -37.835  15.523  -6.408  1.00 20.00     0.082 C 
HETATM   11  C10 UNL     1     -38.278  16.972  -6.442  1.00 20.00     0.027 C 
HETATM   12 CL12 UNL     1     -38.816  14.610  -5.233  1.00 20.00    -0.125 Cl
ENDBRANCH   6  10
TORSDOF 1
ENDMDL
