MODEL 1
REMARK VINA RESULT:      -4.9      0.000      0.000
REMARK  3 active torsions:
REMARK  status: ('A' for Active; 'I' for Inactive)
REMARK    1  A    between atoms: C4_4  and  C5_5 
REMARK    2  A    between atoms: C4_4  and  O7_7 
REMARK    3  A    between atoms: C5_5  and  C6_6 
ROOT
HETATM    1  C1  UNL     1     -33.248   4.969   2.817  1.00 20.00     0.014 C 
HETATM    2  C5  UNL     1     -33.783   6.296   3.314  1.00 20.00     0.023 C 
ENDROOT
BRANCH   2   3
HETATM    3  C4  UNL     1     -32.664   7.351   3.341  1.00 20.00     0.172 C 
BRANCH   3   4
HETATM    4  O7  UNL     1     -32.919   8.338   2.347  1.00 20.00    -0.396 OA
HETATM    5  C3  UNL     1     -31.773   8.572   1.541  1.00 20.00     0.201 C 
ENDBRANCH   3   4
ENDBRANCH   2   3
BRANCH   2   6
HETATM    6  C6  UNL     1     -34.489   6.201   4.689  1.00 20.00     0.084 C 
HETATM    7  C2  UNL     1     -34.568   4.780   5.239  1.00 20.00     0.027 C 
HETATM    8 CL8  UNL     1     -33.733   7.266   5.918  1.00 20.00    -0.125 Cl
ENDBRANCH   2   6
TORSDOF 3
ENDMDL
MODEL 2
REMARK VINA RESULT:      -4.3      1.247      2.052
REMARK  3 active torsions:
REMARK  status: ('A' for Active; 'I' for Inactive)
REMARK    1  A    between atoms: C4_4  and  C5_5 
REMARK    2  A    between atoms: C4_4  and  O7_7 
REMARK    3  A    between atoms: C5_5  and  C6_6 
ROOT
HETATM    1  C1  UNL     1     -31.439   8.228   3.923  1.00 20.00     0.014 C 
HETATM    2  C5  UNL     1     -32.475   7.451   3.136  1.00 20.00     0.023 C 
ENDROOT
BRANCH   2   3
HETATM    3  C4  UNL     1     -32.752   8.139   1.788  1.00 20.00     0.172 C 
BRANCH   3   4
HETATM    4  O7  UNL     1     -32.118   9.414   1.767  1.00 20.00    -0.396 OA
HETATM    5  C3  UNL     1     -32.632  10.231   0.725  1.00 20.00     0.201 C 
ENDBRANCH   3   4
ENDBRANCH   2   3
BRANCH   2   6
HETATM    6  C6  UNL     1     -33.790   7.212   3.917  1.00 20.00     0.084 C 
HETATM    7  C2  UNL     1     -34.467   5.886   3.583  1.00 20.00     0.027 C 
HETATM    8 CL8  UNL     1     -33.559   7.320   5.692  1.00 20.00    -0.125 Cl
ENDBRANCH   2   6
TORSDOF 3
ENDMDL
MODEL 3
REMARK VINA RESULT:      -4.3      1.464      2.131
REMARK  3 active torsions:
REMARK  status: ('A' for Active; 'I' for Inactive)
REMARK    1  A    between atoms: C4_4  and  C5_5 
REMARK    2  A    between atoms: C4_4  and  O7_7 
REMARK    3  A    between atoms: C5_5  and  C6_6 
ROOT
HETATM    1  C1  UNL     1     -33.782   7.298   5.574  1.00 20.00     0.014 C 
HETATM    2  C5  UNL     1     -33.244   6.814   4.243  1.00 20.00     0.023 C 
ENDROOT
BRANCH   2   3
HETATM    3  C4  UNL     1     -33.214   7.967   3.225  1.00 20.00     0.172 C 
BRANCH   3   4
HETATM    4  O7  UNL     1     -31.895   8.106   2.705  1.00 20.00    -0.396 OA
HETATM    5  C3  UNL     1     -31.902   8.739   1.434  1.00 20.00     0.201 C 
ENDBRANCH   3   4
ENDBRANCH   2   3
BRANCH   2   6
HETATM    6  C6  UNL     1     -34.008   5.593   3.676  1.00 20.00     0.084 C 
HETATM    7  C2  UNL     1     -33.218   4.806   2.634  1.00 20.00     0.027 C 
HETATM    8 CL8  UNL     1     -34.556   4.473   4.965  1.00 20.00    -0.125 Cl
ENDBRANCH   2   6
TORSDOF 3
ENDMDL
MODEL 4
REMARK VINA RESULT:      -4.0      2.212      3.837
REMARK  3 active torsions:
REMARK  status: ('A' for Active; 'I' for Inactive)
REMARK    1  A    between atoms: C4_4  and  C5_5 
REMARK    2  A    between atoms: C4_4  and  O7_7 
REMARK    3  A    between atoms: C5_5  and  C6_6 
ROOT
HETATM    1  C1  UNL     1     -33.646   7.306   5.561  1.00 20.00     0.014 C 
HETATM    2  C5  UNL     1     -33.881   7.325   4.065  1.00 20.00     0.023 C 
ENDROOT
BRANCH   2   3
HETATM    3  C4  UNL     1     -34.726   6.112   3.638  1.00 20.00     0.172 C 
BRANCH   3   4
HETATM    4  O7  UNL     1     -34.812   5.190   4.719  1.00 20.00    -0.396 OA
HETATM    5  C3  UNL     1     -34.182   3.958   4.403  1.00 20.00     0.201 C 
ENDBRANCH   3   4
ENDBRANCH   2   3
BRANCH   2   6
HETATM    6  C6  UNL     1     -32.575   7.411   3.237  1.00 20.00     0.084 C 
HETATM    7  C2  UNL     1     -32.784   7.935   1.819  1.00 20.00     0.027 C 
HETATM    8 CL8  UNL     1     -31.317   8.397   4.048  1.00 20.00    -0.125 Cl
ENDBRANCH   2   6
TORSDOF 3
ENDMDL
MODEL 5
REMARK VINA RESULT:      -3.9      2.644      4.494
REMARK  3 active torsions:
REMARK  status: ('A' for Active; 'I' for Inactive)
REMARK    1  A    between atoms: C4_4  and  C5_5 
REMARK    2  A    between atoms: C4_4  and  O7_7 
REMARK    3  A    between atoms: C5_5  and  C6_6 
ROOT
HETATM    1  C1  UNL     1     -31.375   8.284   3.463  1.00 20.00     0.014 C 
HETATM    2  C5  UNL     1     -32.702   8.250   2.734  1.00 20.00     0.023 C 
ENDROOT
BRANCH   2   3
HETATM    3  C4  UNL     1     -33.263   6.818   2.706  1.00 20.00     0.172 C 
BRANCH   3   4
HETATM    4  O7  UNL     1     -33.731   6.467   4.005  1.00 20.00    -0.396 OA
HETATM    5  C3  UNL     1     -34.954   5.749   3.939  1.00 20.00     0.201 C 
ENDBRANCH   3   4
ENDBRANCH   2   3
BRANCH   2   6
HETATM    6  C6  UNL     1     -32.638   8.848   1.307  1.00 20.00     0.084 C 
HETATM    7  C2  UNL     1     -32.896  10.351   1.260  1.00 20.00     0.027 C 
HETATM    8 CL8  UNL     1     -31.081   8.495   0.489  1.00 20.00    -0.125 Cl
ENDBRANCH   2   6
TORSDOF 3
ENDMDL
MODEL 6
REMARK VINA RESULT:      -3.8      2.506      3.415
REMARK  3 active torsions:
REMARK  status: ('A' for Active; 'I' for Inactive)
REMARK    1  A    between atoms: C4_4  and  C5_5 
REMARK    2  A    between atoms: C4_4  and  O7_7 
REMARK    3  A    between atoms: C5_5  and  C6_6 
ROOT
HETATM    1  C1  UNL     1     -33.586   6.191   2.095  1.00 20.00     0.014 C 
HETATM    2  C5  UNL     1     -33.779   6.145   3.597  1.00 20.00     0.023 C 
ENDROOT
BRANCH   2   3
HETATM    3  C4  UNL     1     -35.216   5.717   3.941  1.00 20.00     0.172 C 
BRANCH   3   4
HETATM    4  O7  UNL     1     -35.183   4.507   4.692  1.00 20.00    -0.396 OA
HETATM    5  C3  UNL     1     -33.966   3.804   4.492  1.00 20.00     0.201 C 
ENDBRANCH   3   4
ENDBRANCH   2   3
BRANCH   2   6
HETATM    6  C6  UNL     1     -33.410   7.471   4.307  1.00 20.00     0.084 C 
HETATM    7  C2  UNL     1     -33.508   7.398   5.828  1.00 20.00     0.027 C 
HETATM    8 CL8  UNL     1     -31.778   8.057   3.852  1.00 20.00    -0.125 Cl
ENDBRANCH   2   6
TORSDOF 3
ENDMDL
MODEL 7
REMARK VINA RESULT:      -3.5      1.954      3.651
REMARK  3 active torsions:
REMARK  status: ('A' for Active; 'I' for Inactive)
REMARK    1  A    between atoms: C4_4  and  C5_5 
REMARK    2  A    between atoms: C4_4  and  O7_7 
REMARK    3  A    between atoms: C5_5  and  C6_6 
ROOT
HETATM    1  C1  UNL     1     -33.799   5.781   2.246  1.00 20.00     0.014 C 
HETATM    2  C5  UNL     1     -33.078   6.555   3.331  1.00 20.00     0.023 C 
ENDROOT
BRANCH   2   3
HETATM    3  C4  UNL     1     -34.091   7.220   4.279  1.00 20.00     0.172 C 
BRANCH   3   4
HETATM    4  O7  UNL     1     -33.926   6.695   5.593  1.00 20.00    -0.396 OA
HETATM    5  C3  UNL     1     -34.593   5.449   5.741  1.00 20.00     0.201 C 
ENDBRANCH   3   4
ENDBRANCH   2   3
BRANCH   2   6
HETATM    6  C6  UNL     1     -32.068   7.592   2.782  1.00 20.00     0.084 C 
HETATM    7  C2  UNL     1     -32.653   8.506   1.709  1.00 20.00     0.027 C 
HETATM    8 CL8  UNL     1     -31.350   8.597   4.081  1.00 20.00    -0.125 Cl
ENDBRANCH   2   6
TORSDOF 3
ENDMDL
MODEL 8
REMARK VINA RESULT:      -3.4     11.379     12.087
REMARK  3 active torsions:
REMARK  status: ('A' for Active; 'I' for Inactive)
REMARK    1  A    between atoms: C4_4  and  C5_5 
REMARK    2  A    between atoms: C4_4  and  O7_7 
REMARK    3  A    between atoms: C5_5  and  C6_6 
ROOT
HETATM    1  C1  UNL     1     -36.259  16.068  -5.090  1.00 20.00     0.014 C 
HETATM    2  C5  UNL     1     -35.345  14.861  -5.151  1.00 20.00     0.023 C 
ENDROOT
BRANCH   2   3
HETATM    3  C4  UNL     1     -36.170  13.569  -5.286  1.00 20.00     0.172 C 
BRANCH   3   4
HETATM    4  O7  UNL     1     -35.431  12.610  -6.036  1.00 20.00    -0.396 OA
HETATM    5  C3  UNL     1     -35.035  13.130  -7.297  1.00 20.00     0.201 C 
ENDBRANCH   3   4
ENDBRANCH   2   3
BRANCH   2   6
HETATM    6  C6  UNL     1     -34.363  14.769  -3.957  1.00 20.00     0.084 C 
HETATM    7  C2  UNL     1     -32.900  14.659  -4.376  1.00 20.00     0.027 C 
HETATM    8 CL8  UNL     1     -34.545  16.142  -2.818  1.00 20.00    -0.125 Cl
ENDBRANCH   2   6
TORSDOF 3
ENDMDL
MODEL 9
REMARK VINA RESULT:      -3.3     11.094     11.938
REMARK  3 active torsions:
REMARK  status: ('A' for Active; 'I' for Inactive)
REMARK    1  A    between atoms: C4_4  and  C5_5 
REMARK    2  A    between atoms: C4_4  and  O7_7 
REMARK    3  A    between atoms: C5_5  and  C6_6 
ROOT
HETATM    1  C1  UNL     1     -33.042  15.710  -5.448  1.00 20.00     0.014 C 
HETATM    2  C5  UNL     1     -33.504  15.399  -4.039  1.00 20.00     0.023 C 
ENDROOT
BRANCH   2   3
HETATM    3  C4  UNL     1     -34.383  14.136  -4.029  1.00 20.00     0.172 C 
BRANCH   3   4
HETATM    4  O7  UNL     1     -34.639  13.725  -5.368  1.00 20.00    -0.396 OA
HETATM    5  C3  UNL     1     -36.009  13.406  -5.561  1.00 20.00     0.201 C 
ENDBRANCH   3   4
ENDBRANCH   2   3
BRANCH   2   6
HETATM    6  C6  UNL     1     -34.228  16.583  -3.352  1.00 20.00     0.084 C 
HETATM    7  C2  UNL     1     -35.659  16.264  -2.930  1.00 20.00     0.027 C 
HETATM    8 CL8  UNL     1     -33.323  17.204  -1.934  1.00 20.00    -0.125 Cl
ENDBRANCH   2   6
TORSDOF 3
ENDMDL
