MODEL 1
REMARK VINA RESULT:      -5.2      0.000      0.000
REMARK  2 active torsions:
REMARK  status: ('A' for Active; 'I' for Inactive)
REMARK    1  A    between atoms: C4_4  and  C9_9 
REMARK    2  A    between atoms: C5_5  and  C8_8 
ROOT
HETATM    1  C1  UNL     1     -33.009   7.658   4.784  1.00 20.00     0.032 C 
HETATM    2  C2  UNL     1     -33.222   7.059   2.351  1.00 20.00     0.038 C 
HETATM    3  C3  UNL     1     -31.781   8.512   4.465  1.00 20.00     0.168 C 
HETATM    4  C4  UNL     1     -33.147   6.510   3.786  1.00 20.00     0.008 C 
HETATM    5  C5  UNL     1     -32.534   8.424   2.212  1.00 20.00     0.121 C 
HETATM    6  O10 UNL     1     -31.408   8.486   3.085  1.00 20.00    -0.386 OA
ENDROOT
BRANCH   4   7
HETATM    7  C9  UNL     1     -34.350   5.627   4.104  1.00 20.00     0.082 C 
HETATM    8  C7  UNL     1     -34.049   4.165   3.830  1.00 20.00     0.027 C 
HETATM    9 CL11 UNL     1     -34.799   5.841   5.817  1.00 20.00    -0.125 Cl
ENDBRANCH   4   7
BRANCH   5  10
HETATM   10  C8  UNL     1     -32.054   8.663   0.787  1.00 20.00     0.027 C 
HETATM   11  C6  UNL     1     -32.893   9.680   0.082  1.00 20.00     0.007 C 
ENDBRANCH   5  10
TORSDOF 2
ENDMDL
MODEL 2
REMARK VINA RESULT:      -4.7      2.389      4.566
REMARK  2 active torsions:
REMARK  status: ('A' for Active; 'I' for Inactive)
REMARK    1  A    between atoms: C4_4  and  C9_9 
REMARK    2  A    between atoms: C5_5  and  C8_8 
ROOT
HETATM    1  C1  UNL     1     -31.748   8.422   3.255  1.00 20.00     0.032 C 
HETATM    2  C2  UNL     1     -33.675   7.073   2.366  1.00 20.00     0.038 C 
HETATM    3  C3  UNL     1     -32.172   8.083   4.684  1.00 20.00     0.168 C 
HETATM    4  C4  UNL     1     -32.954   8.430   2.317  1.00 20.00     0.008 C 
HETATM    5  C5  UNL     1     -33.451   6.341   3.696  1.00 20.00     0.121 C 
HETATM    6  O10 UNL     1     -33.358   7.289   4.757  1.00 20.00    -0.386 OA
ENDROOT
BRANCH   4   7
HETATM    7  C9  UNL     1     -32.557   8.796   0.890  1.00 20.00     0.082 C 
HETATM    8  C7  UNL     1     -32.795  10.269   0.612  1.00 20.00     0.027 C 
HETATM    9 CL11 UNL     1     -30.835   8.404   0.640  1.00 20.00    -0.125 Cl
ENDBRANCH   4   7
BRANCH   5  10
HETATM   10  C8  UNL     1     -34.592   5.382   4.003  1.00 20.00     0.027 C 
HETATM   11  C6  UNL     1     -34.663   5.050   5.459  1.00 20.00     0.007 C 
ENDBRANCH   5  10
TORSDOF 2
ENDMDL
MODEL 3
REMARK VINA RESULT:      -4.6      1.476      2.185
REMARK  2 active torsions:
REMARK  status: ('A' for Active; 'I' for Inactive)
REMARK    1  A    between atoms: C4_4  and  C9_9 
REMARK    2  A    between atoms: C5_5  and  C8_8 
ROOT
HETATM    1  C1  UNL     1     -33.633   5.142   3.335  1.00 20.00     0.032 C 
HETATM    2  C2  UNL     1     -33.385   7.588   3.865  1.00 20.00     0.038 C 
HETATM    3  C3  UNL     1     -33.197   5.411   1.894  1.00 20.00     0.168 C 
HETATM    4  C4  UNL     1     -34.319   6.368   3.934  1.00 20.00     0.008 C 
HETATM    5  C5  UNL     1     -32.361   7.474   2.727  1.00 20.00     0.121 C 
HETATM    6  O10 UNL     1     -32.946   6.792   1.620  1.00 20.00    -0.386 OA
ENDROOT
BRANCH   4   7
HETATM    7  C9  UNL     1     -34.788   6.110   5.363  1.00 20.00     0.082 C 
HETATM    8  C7  UNL     1     -34.506   4.679   5.786  1.00 20.00     0.027 C 
HETATM    9 CL11 UNL     1     -33.962   7.240   6.467  1.00 20.00    -0.125 Cl
ENDBRANCH   4   7
BRANCH   5  10
HETATM   10  C8  UNL     1     -31.896   8.846   2.258  1.00 20.00     0.027 C 
HETATM   11  C6  UNL     1     -32.310   9.120   0.847  1.00 20.00     0.007 C 
ENDBRANCH   5  10
TORSDOF 2
ENDMDL
MODEL 4
REMARK VINA RESULT:      -4.5      2.490      4.446
REMARK  2 active torsions:
REMARK  status: ('A' for Active; 'I' for Inactive)
REMARK    1  A    between atoms: C4_4  and  C9_9 
REMARK    2  A    between atoms: C5_5  and  C8_8 
ROOT
HETATM    1  C1  UNL     1     -31.773   8.634   3.331  1.00 20.00     0.032 C 
HETATM    2  C2  UNL     1     -33.056   7.055   1.854  1.00 20.00     0.038 C 
HETATM    3  C3  UNL     1     -32.362   7.954   4.568  1.00 20.00     0.168 C 
HETATM    4  C4  UNL     1     -32.729   8.529   2.145  1.00 20.00     0.008 C 
HETATM    5  C5  UNL     1     -32.909   6.168   3.098  1.00 20.00     0.121 C 
HETATM    6  O10 UNL     1     -33.283   6.905   4.260  1.00 20.00    -0.386 OA
ENDROOT
BRANCH   4   7
HETATM    7  C9  UNL     1     -32.173   9.228   0.908  1.00 20.00     0.082 C 
HETATM    8  C7  UNL     1     -32.975   8.876  -0.332  1.00 20.00     0.027 C 
HETATM    9 CL11 UNL     1     -32.202  10.992   1.166  1.00 20.00    -0.125 Cl
ENDBRANCH   4   7
BRANCH   5  10
HETATM   10  C8  UNL     1     -33.791   4.930   3.007  1.00 20.00     0.027 C 
HETATM   11  C6  UNL     1     -34.412   4.592   4.324  1.00 20.00     0.007 C 
ENDBRANCH   5  10
TORSDOF 2
ENDMDL
MODEL 5
REMARK VINA RESULT:      -4.4     10.866     11.481
REMARK  2 active torsions:
REMARK  status: ('A' for Active; 'I' for Inactive)
REMARK    1  A    between atoms: C4_4  and  C9_9 
REMARK    2  A    between atoms: C5_5  and  C8_8 
ROOT
HETATM    1  C1  UNL     1     -33.369  15.777  -3.858  1.00 20.00     0.032 C 
HETATM    2  C2  UNL     1     -35.876  15.614  -3.742  1.00 20.00     0.038 C 
HETATM    3  C3  UNL     1     -33.313  14.408  -4.537  1.00 20.00     0.168 C 
HETATM    4  C4  UNL     1     -34.588  15.881  -2.944  1.00 20.00     0.008 C 
HETATM    5  C5  UNL     1     -35.626  14.734  -4.974  1.00 20.00     0.121 C 
HETATM    6  O10 UNL     1     -34.594  13.792  -4.692  1.00 20.00    -0.386 OA
ENDROOT
BRANCH   4   7
HETATM    7  C9  UNL     1     -34.647  17.230  -2.234  1.00 20.00     0.082 C 
HETATM    8  C7  UNL     1     -35.502  17.158  -0.982  1.00 20.00     0.027 C 
HETATM    9 CL11 UNL     1     -32.993  17.742  -1.806  1.00 20.00    -0.125 Cl
ENDBRANCH   4   7
BRANCH   5  10
HETATM   10  C8  UNL     1     -36.880  13.971  -5.377  1.00 20.00     0.027 C 
HETATM   11  C6  UNL     1     -38.124  14.670  -4.930  1.00 20.00     0.007 C 
ENDBRANCH   5  10
TORSDOF 2
ENDMDL
MODEL 6
REMARK VINA RESULT:      -4.3     10.986     11.604
REMARK  2 active torsions:
REMARK  status: ('A' for Active; 'I' for Inactive)
REMARK    1  A    between atoms: C4_4  and  C9_9 
REMARK    2  A    between atoms: C5_5  and  C8_8 
ROOT
HETATM    1  C1  UNL     1     -35.808  16.977  -2.164  1.00 20.00     0.032 C 
HETATM    2  C2  UNL     1     -33.304  17.143  -2.322  1.00 20.00     0.038 C 
HETATM    3  C3  UNL     1     -35.741  17.374  -0.689  1.00 20.00     0.168 C 
HETATM    4  C4  UNL     1     -34.531  16.257  -2.593  1.00 20.00     0.008 C 
HETATM    5  C5  UNL     1     -33.549  18.148  -1.188  1.00 20.00     0.121 C 
HETATM    6  O10 UNL     1     -34.408  17.568  -0.208  1.00 20.00    -0.386 OA
ENDROOT
BRANCH   4   7
HETATM    7  C9  UNL     1     -34.591  15.825  -4.055  1.00 20.00     0.082 C 
HETATM    8  C7  UNL     1     -33.414  16.374  -4.840  1.00 20.00     0.027 C 
HETATM    9 CL11 UNL     1     -34.599  14.045  -4.143  1.00 20.00    -0.125 Cl
ENDBRANCH   4   7
BRANCH   5  10
HETATM   10  C8  UNL     1     -32.248  18.552  -0.511  1.00 20.00     0.027 C 
HETATM   11  C6  UNL     1     -32.452  18.885   0.933  1.00 20.00     0.007 C 
ENDBRANCH   5  10
TORSDOF 2
ENDMDL
MODEL 7
REMARK VINA RESULT:      -4.2     11.080     12.200
REMARK  2 active torsions:
REMARK  status: ('A' for Active; 'I' for Inactive)
REMARK    1  A    between atoms: C4_4  and  C9_9 
REMARK    2  A    between atoms: C5_5  and  C8_8 
ROOT
HETATM    1  C1  UNL     1     -33.420  19.263  -3.005  1.00 20.00     0.032 C 
HETATM    2  C2  UNL     1     -33.759  16.964  -2.044  1.00 20.00     0.038 C 
HETATM    3  C3  UNL     1     -33.297  18.659  -4.404  1.00 20.00     0.168 C 
HETATM    4  C4  UNL     1     -32.955  18.271  -1.941  1.00 20.00     0.008 C 
HETATM    5  C5  UNL     1     -34.306  16.726  -3.458  1.00 20.00     0.121 C 
HETATM    6  O10 UNL     1     -33.384  17.232  -4.422  1.00 20.00    -0.386 OA
ENDROOT
BRANCH   4   7
HETATM    7  C9  UNL     1     -33.042  18.865  -0.538  1.00 20.00     0.082 C 
HETATM    8  C7  UNL     1     -34.179  18.246   0.254  1.00 20.00     0.027 C 
HETATM    9 CL11 UNL     1     -31.498  18.597   0.311  1.00 20.00    -0.125 Cl
ENDBRANCH   4   7
BRANCH   5  10
HETATM   10  C8  UNL     1     -34.523  15.244  -3.729  1.00 20.00     0.027 C 
HETATM   11  C6  UNL     1     -33.345  14.625  -4.410  1.00 20.00     0.007 C 
ENDBRANCH   5  10
TORSDOF 2
ENDMDL
MODEL 8
REMARK VINA RESULT:      -4.2     11.276     12.008
REMARK  2 active torsions:
REMARK  status: ('A' for Active; 'I' for Inactive)
REMARK    1  A    between atoms: C4_4  and  C9_9 
REMARK    2  A    between atoms: C5_5  and  C8_8 
ROOT
HETATM    1  C1  UNL     1     -33.593  16.280  -5.650  1.00 20.00     0.032 C 
HETATM    2  C2  UNL     1     -34.459  15.575  -3.397  1.00 20.00     0.038 C 
HETATM    3  C3  UNL     1     -33.524  17.729  -5.169  1.00 20.00     0.168 C 
HETATM    4  C4  UNL     1     -34.693  15.515  -4.915  1.00 20.00     0.008 C 
HETATM    5  C5  UNL     1     -33.657  16.815  -2.979  1.00 20.00     0.121 C 
HETATM    6  O10 UNL     1     -33.989  17.912  -3.829  1.00 20.00    -0.386 OA
ENDROOT
BRANCH   4   7
HETATM    7  C9  UNL     1     -34.799  14.073  -5.403  1.00 20.00     0.082 C 
HETATM    8  C7  UNL     1     -36.211  13.540  -5.245  1.00 20.00     0.027 C 
HETATM    9 CL11 UNL     1     -34.311  13.993  -7.116  1.00 20.00    -0.125 Cl
ENDBRANCH   4   7
BRANCH   5  10
HETATM   10  C8  UNL     1     -33.956  17.213  -1.540  1.00 20.00     0.027 C 
HETATM   11  C6  UNL     1     -35.383  16.955  -1.177  1.00 20.00     0.007 C 
ENDBRANCH   5  10
TORSDOF 2
ENDMDL
MODEL 9
REMARK VINA RESULT:      -4.2      2.499      4.772
REMARK  2 active torsions:
REMARK  status: ('A' for Active; 'I' for Inactive)
REMARK    1  A    between atoms: C4_4  and  C9_9 
REMARK    2  A    between atoms: C5_5  and  C8_8 
ROOT
HETATM    1  C1  UNL     1     -33.575   7.048   1.652  1.00 20.00     0.032 C 
HETATM    2  C2  UNL     1     -32.943   7.803   3.966  1.00 20.00     0.038 C 
HETATM    3  C3  UNL     1     -34.078   5.722   2.224  1.00 20.00     0.168 C 
HETATM    4  C4  UNL     1     -32.457   7.624   2.518  1.00 20.00     0.008 C 
HETATM    5  C5  UNL     1     -34.083   6.840   4.322  1.00 20.00     0.121 C 
HETATM    6  O10 UNL     1     -33.898   5.602   3.638  1.00 20.00    -0.386 OA
ENDROOT
BRANCH   4   7
HETATM    7  C9  UNL     1     -31.920   8.934   1.948  1.00 20.00     0.082 C 
HETATM    8  C7  UNL     1     -31.204   8.709   0.629  1.00 20.00     0.027 C 
HETATM    9 CL11 UNL     1     -33.273  10.072   1.715  1.00 20.00    -0.125 Cl
ENDBRANCH   4   7
BRANCH   5  10
HETATM   10  C8  UNL     1     -34.131   6.561   5.818  1.00 20.00     0.027 C 
HETATM   11  C6  UNL     1     -34.581   5.166   6.110  1.00 20.00     0.007 C 
ENDBRANCH   5  10
TORSDOF 2
ENDMDL
