MODEL 1
REMARK VINA RESULT:      -5.3      0.000      0.000
REMARK  2 active torsions:
REMARK  status: ('A' for Active; 'I' for Inactive)
REMARK    1  A    between atoms: C8_8  and  C9_9 
REMARK    2  A    between atoms: C9_9  and  N11_11 
ROOT
HETATM    1  C1  UNL     1     -32.832   9.414   0.074  1.00 20.00     0.060 C 
HETATM    2  C8  UNL     1     -31.970   9.508   1.261  1.00 20.00     0.154 C 
HETATM    3  N10 UNL     1     -33.512   9.342  -0.864  1.00 20.00    -0.197 NA
ENDROOT
BRANCH   2   4
HETATM    4  C9  UNL     1     -31.762   8.152   1.923  1.00 20.00     0.286 C 
BRANCH   4   5
HETATM    5  N11 UNL     1     -32.897   7.806   2.766  1.00 20.00     0.090 N 
HETATM    6  C2  UNL     1     -33.274   6.393   2.653  1.00 20.00     0.277 C 
HETATM    7  C4  UNL     1     -33.979   6.065   3.979  1.00 20.00     0.015 C 
HETATM    8  C5  UNL     1     -33.831   7.341   4.821  1.00 20.00     0.015 C 
HETATM    9  C6  UNL     1     -35.438   5.667   3.788  1.00 20.00     0.012 C 
HETATM   10  C3  UNL     1     -32.636   8.040   4.186  1.00 20.00     0.277 C 
HETATM   11  C7  UNL     1     -33.637   7.069   6.306  1.00 20.00     0.012 C 
ENDBRANCH   4   5
ENDBRANCH   2   4
TORSDOF 2
ENDMDL
MODEL 2
REMARK VINA RESULT:      -4.9      0.368      1.902
REMARK  2 active torsions:
REMARK  status: ('A' for Active; 'I' for Inactive)
REMARK    1  A    between atoms: C8_8  and  C9_9 
REMARK    2  A    between atoms: C9_9  and  N11_11 
ROOT
HETATM    1  C1  UNL     1     -32.949   9.390   0.216  1.00 20.00     0.060 C 
HETATM    2  C8  UNL     1     -32.360   9.292   1.560  1.00 20.00     0.154 C 
HETATM    3  N10 UNL     1     -33.414   9.470  -0.844  1.00 20.00    -0.197 NA
ENDROOT
BRANCH   2   4
HETATM    4  C9  UNL     1     -31.695   7.940   1.793  1.00 20.00     0.286 C 
BRANCH   4   5
HETATM    5  N11 UNL     1     -32.257   7.280   2.961  1.00 20.00     0.090 N 
HETATM    6  C2  UNL     1     -32.827   8.226   3.926  1.00 20.00     0.277 C 
HETATM    7  C4  UNL     1     -33.879   7.417   4.701  1.00 20.00     0.015 C 
HETATM    8  C5  UNL     1     -33.907   6.050   4.000  1.00 20.00     0.015 C 
HETATM    9  C6  UNL     1     -33.555   7.297   6.185  1.00 20.00     0.012 C 
HETATM   10  C3  UNL     1     -33.337   6.355   2.621  1.00 20.00     0.277 C 
HETATM   11  C7  UNL     1     -35.293   5.425   3.944  1.00 20.00     0.012 C 
ENDBRANCH   4   5
ENDBRANCH   2   4
TORSDOF 2
ENDMDL
MODEL 3
REMARK VINA RESULT:      -4.6     10.089     10.831
REMARK  2 active torsions:
REMARK  status: ('A' for Active; 'I' for Inactive)
REMARK    1  A    between atoms: C8_8  and  C9_9 
REMARK    2  A    between atoms: C9_9  and  N11_11 
ROOT
HETATM    1  C1  UNL     1     -35.219  13.680  -4.743  1.00 20.00     0.060 C 
HETATM    2  C8  UNL     1     -34.341  14.652  -4.075  1.00 20.00     0.154 C 
HETATM    3  N10 UNL     1     -35.910  12.911  -5.270  1.00 20.00    -0.197 NA
ENDROOT
BRANCH   2   4
HETATM    4  C9  UNL     1     -35.119  15.848  -3.538  1.00 20.00     0.286 C 
BRANCH   4   5
HETATM    5  N11 UNL     1     -34.492  16.379  -2.337  1.00 20.00     0.090 N 
HETATM    6  C2  UNL     1     -33.552  17.467  -2.626  1.00 20.00     0.277 C 
HETATM    7  C4  UNL     1     -33.492  18.292  -1.330  1.00 20.00     0.015 C 
HETATM    8  C5  UNL     1     -34.541  17.645  -0.412  1.00 20.00     0.015 C 
HETATM    9  C6  UNL     1     -32.104  18.303  -0.701  1.00 20.00     0.012 C 
HETATM   10  C3  UNL     1     -35.462  16.926  -1.390  1.00 20.00     0.277 C 
HETATM   11  C7  UNL     1     -35.277  18.645   0.468  1.00 20.00     0.012 C 
ENDBRANCH   4   5
ENDBRANCH   2   4
TORSDOF 2
ENDMDL
MODEL 4
REMARK VINA RESULT:      -4.4     10.167     10.948
REMARK  2 active torsions:
REMARK  status: ('A' for Active; 'I' for Inactive)
REMARK    1  A    between atoms: C8_8  and  C9_9 
REMARK    2  A    between atoms: C9_9  and  N11_11 
ROOT
HETATM    1  C1  UNL     1     -35.256  13.771  -4.855  1.00 20.00     0.060 C 
HETATM    2  C8  UNL     1     -34.394  14.853  -4.360  1.00 20.00     0.154 C 
HETATM    3  N10 UNL     1     -35.936  12.914  -5.244  1.00 20.00    -0.197 NA
ENDROOT
BRANCH   2   4
HETATM    4  C9  UNL     1     -34.989  16.228  -4.639  1.00 20.00     0.286 C 
BRANCH   4   5
HETATM    5  N11 UNL     1     -34.948  17.063  -3.448  1.00 20.00     0.090 N 
HETATM    6  C2  UNL     1     -35.468  16.378  -2.260  1.00 20.00     0.277 C 
HETATM    7  C4  UNL     1     -34.795  17.082  -1.071  1.00 20.00     0.015 C 
HETATM    8  C5  UNL     1     -33.813  18.073  -1.714  1.00 20.00     0.015 C 
HETATM    9  C6  UNL     1     -35.794  17.775  -0.153  1.00 20.00     0.012 C 
HETATM   10  C3  UNL     1     -33.593  17.490  -3.105  1.00 20.00     0.277 C 
HETATM   11  C7  UNL     1     -32.520  18.241  -0.931  1.00 20.00     0.012 C 
ENDBRANCH   4   5
ENDBRANCH   2   4
TORSDOF 2
ENDMDL
MODEL 5
REMARK VINA RESULT:      -4.1     10.655     11.753
REMARK  2 active torsions:
REMARK  status: ('A' for Active; 'I' for Inactive)
REMARK    1  A    between atoms: C8_8  and  C9_9 
REMARK    2  A    between atoms: C9_9  and  N11_11 
ROOT
HETATM    1  C1  UNL     1     -32.801  17.873  -1.455  1.00 20.00     0.060 C 
HETATM    2  C8  UNL     1     -33.758  17.053  -2.211  1.00 20.00     0.154 C 
HETATM    3  N10 UNL     1     -32.045  18.519  -0.856  1.00 20.00    -0.197 NA
ENDROOT
BRANCH   2   4
HETATM    4  C9  UNL     1     -33.567  17.194  -3.716  1.00 20.00     0.286 C 
BRANCH   4   5
HETATM    5  N11 UNL     1     -33.859  15.942  -4.397  1.00 20.00     0.090 N 
HETATM    6  C2  UNL     1     -35.297  15.679  -4.502  1.00 20.00     0.277 C 
HETATM    7  C4  UNL     1     -35.442  14.753  -5.720  1.00 20.00     0.015 C 
HETATM    8  C5  UNL     1     -34.024  14.660  -6.305  1.00 20.00     0.015 C 
HETATM    9  C6  UNL     1     -36.007  13.384  -5.358  1.00 20.00     0.012 C 
HETATM   10  C3  UNL     1     -33.343  15.911  -5.765  1.00 20.00     0.277 C 
HETATM   11  C7  UNL     1     -33.998  14.581  -7.824  1.00 20.00     0.012 C 
ENDBRANCH   4   5
ENDBRANCH   2   4
TORSDOF 2
ENDMDL
MODEL 6
REMARK VINA RESULT:      -4.1     10.494     11.041
REMARK  2 active torsions:
REMARK  status: ('A' for Active; 'I' for Inactive)
REMARK    1  A    between atoms: C8_8  and  C9_9 
REMARK    2  A    between atoms: C9_9  and  N11_11 
ROOT
HETATM    1  C1  UNL     1     -35.274  13.788  -5.731  1.00 20.00     0.060 C 
HETATM    2  C8  UNL     1     -35.532  14.657  -4.573  1.00 20.00     0.154 C 
HETATM    3  N10 UNL     1     -35.073  13.100  -6.644  1.00 20.00    -0.197 NA
ENDROOT
BRANCH   2   4
HETATM    4  C9  UNL     1     -34.663  15.909  -4.596  1.00 20.00     0.286 C 
BRANCH   4   5
HETATM    5  N11 UNL     1     -34.256  16.282  -3.250  1.00 20.00     0.090 N 
HETATM    6  C2  UNL     1     -33.546  17.565  -3.210  1.00 20.00     0.277 C 
HETATM    7  C4  UNL     1     -33.761  18.092  -1.783  1.00 20.00     0.015 C 
HETATM    8  C5  UNL     1     -34.718  17.079  -1.137  1.00 20.00     0.015 C 
HETATM    9  C6  UNL     1     -32.459  18.232  -1.003  1.00 20.00     0.012 C 
HETATM   10  C3  UNL     1     -35.389  16.422  -2.336  1.00 20.00     0.277 C 
HETATM   11  C7  UNL     1     -35.713  17.711  -0.175  1.00 20.00     0.012 C 
ENDBRANCH   4   5
ENDBRANCH   2   4
TORSDOF 2
ENDMDL
MODEL 7
REMARK VINA RESULT:      -4.0     10.790     11.863
REMARK  2 active torsions:
REMARK  status: ('A' for Active; 'I' for Inactive)
REMARK    1  A    between atoms: C8_8  and  C9_9 
REMARK    2  A    between atoms: C9_9  and  N11_11 
ROOT
HETATM    1  C1  UNL     1     -32.870  17.745  -1.774  1.00 20.00     0.060 C 
HETATM    2  C8  UNL     1     -33.660  16.949  -2.723  1.00 20.00     0.154 C 
HETATM    3  N10 UNL     1     -32.245  18.372  -1.023  1.00 20.00    -0.197 NA
ENDROOT
BRANCH   2   4
HETATM    4  C9  UNL     1     -33.783  17.634  -4.079  1.00 20.00     0.286 C 
BRANCH   4   5
HETATM    5  N11 UNL     1     -34.330  16.724  -5.074  1.00 20.00     0.090 N 
HETATM    6  C2  UNL     1     -33.291  15.957  -5.769  1.00 20.00     0.277 C 
HETATM    7  C4  UNL     1     -33.999  14.683  -6.256  1.00 20.00     0.015 C 
HETATM    8  C5  UNL     1     -35.415  14.779  -5.666  1.00 20.00     0.015 C 
HETATM    9  C6  UNL     1     -34.015  14.560  -7.775  1.00 20.00     0.012 C 
HETATM   10  C3  UNL     1     -35.239  15.736  -4.494  1.00 20.00     0.277 C 
HETATM   11  C7  UNL     1     -35.991  13.434  -5.250  1.00 20.00     0.012 C 
ENDBRANCH   4   5
ENDBRANCH   2   4
TORSDOF 2
ENDMDL
MODEL 8
REMARK VINA RESULT:      -3.9     10.453     11.685
REMARK  2 active torsions:
REMARK  status: ('A' for Active; 'I' for Inactive)
REMARK    1  A    between atoms: C8_8  and  C9_9 
REMARK    2  A    between atoms: C9_9  and  N11_11 
ROOT
HETATM    1  C1  UNL     1     -36.726  13.908  -5.770  1.00 20.00     0.060 C 
HETATM    2  C8  UNL     1     -35.601  13.973  -6.715  1.00 20.00     0.154 C 
HETATM    3  N10 UNL     1     -37.615  13.854  -5.026  1.00 20.00    -0.197 NA
ENDROOT
BRANCH   2   4
HETATM    4  C9  UNL     1     -34.307  14.399  -6.031  1.00 20.00     0.286 C 
BRANCH   4   5
HETATM    5  N11 UNL     1     -34.549  15.484  -5.092  1.00 20.00     0.090 N 
HETATM    6  C2  UNL     1     -33.991  15.214  -3.763  1.00 20.00     0.277 C 
HETATM    7  C4  UNL     1     -33.759  16.601  -3.142  1.00 20.00     0.015 C 
HETATM    8  C5  UNL     1     -34.106  17.590  -4.266  1.00 20.00     0.015 C 
HETATM    9  C6  UNL     1     -34.595  16.835  -1.890  1.00 20.00     0.012 C 
HETATM   10  C3  UNL     1     -33.957  16.749  -5.527  1.00 20.00     0.277 C 
HETATM   11  C7  UNL     1     -33.227  18.831  -4.275  1.00 20.00     0.012 C 
ENDBRANCH   4   5
ENDBRANCH   2   4
TORSDOF 2
ENDMDL
MODEL 9
REMARK VINA RESULT:      -3.8     10.434     11.844
REMARK  2 active torsions:
REMARK  status: ('A' for Active; 'I' for Inactive)
REMARK    1  A    between atoms: C8_8  and  C9_9 
REMARK    2  A    between atoms: C9_9  and  N11_11 
ROOT
HETATM    1  C1  UNL     1     -37.969  14.878  -5.713  1.00 20.00     0.060 C 
HETATM    2  C8  UNL     1     -37.712  16.027  -6.593  1.00 20.00     0.154 C 
HETATM    3  N10 UNL     1     -38.173  13.970  -5.020  1.00 20.00    -0.197 NA
ENDROOT
BRANCH   2   4
HETATM    4  C9  UNL     1     -36.677  16.976  -6.004  1.00 20.00     0.286 C 
BRANCH   4   5
HETATM    5  N11 UNL     1     -35.793  16.276  -5.084  1.00 20.00     0.090 N 
HETATM    6  C2  UNL     1     -34.470  16.016  -5.660  1.00 20.00     0.277 C 
HETATM    7  C4  UNL     1     -33.529  15.889  -4.451  1.00 20.00     0.015 C 
HETATM    8  C5  UNL     1     -34.413  16.222  -3.239  1.00 20.00     0.015 C 
HETATM    9  C6  UNL     1     -32.895  14.508  -4.339  1.00 20.00     0.012 C 
HETATM   10  C3  UNL     1     -35.555  17.024  -3.851  1.00 20.00     0.277 C 
HETATM   11  C7  UNL     1     -33.679  16.980  -2.142  1.00 20.00     0.012 C 
ENDBRANCH   4   5
ENDBRANCH   2   4
TORSDOF 2
ENDMDL
