MODEL 1
REMARK VINA RESULT:      -5.4      0.000      0.000
REMARK  2 active torsions:
REMARK  status: ('A' for Active; 'I' for Inactive)
REMARK    1  A    between atoms: C4_4  and  C9_9 
REMARK    2  A    between atoms: C5_5  and  C8_8 
ROOT
HETATM    1  C1  UNL     1     -32.755   7.735   4.707  1.00 20.00     0.032 C 
HETATM    2  C2  UNL     1     -32.861   6.930   2.329  1.00 20.00     0.038 C 
HETATM    3  C3  UNL     1     -31.503   8.422   4.169  1.00 20.00     0.168 C 
HETATM    4  C4  UNL     1     -33.680   7.242   3.583  1.00 20.00     0.008 C 
HETATM    5  C5  UNL     1     -32.054   8.157   1.871  1.00 20.00     0.121 C 
HETATM    6  O10 UNL     1     -31.792   9.077   2.939  1.00 20.00    -0.386 OA
ENDROOT
BRANCH   4   7
HETATM    7  C9  UNL     1     -34.502   6.038   4.032  1.00 20.00     0.082 C 
HETATM    8  C7  UNL     1     -33.925   4.742   3.490  1.00 20.00     0.027 C 
HETATM    9 CL11 UNL     1     -34.542   5.983   5.814  1.00 20.00    -0.125 Cl
ENDBRANCH   4   7
BRANCH   5  10
HETATM   10  C8  UNL     1     -32.787   8.937   0.786  1.00 20.00     0.027 C 
HETATM   11  C6  UNL     1     -32.606  10.413   0.942  1.00 20.00     0.007 C 
ENDBRANCH   5  10
TORSDOF 2
ENDMDL
MODEL 2
REMARK VINA RESULT:      -4.2     10.776     11.268
REMARK  2 active torsions:
REMARK  status: ('A' for Active; 'I' for Inactive)
REMARK    1  A    between atoms: C4_4  and  C9_9 
REMARK    2  A    between atoms: C5_5  and  C8_8 
ROOT
HETATM    1  C1  UNL     1     -33.800  14.502  -5.126  1.00 20.00     0.032 C 
HETATM    2  C2  UNL     1     -35.764  15.778  -4.217  1.00 20.00     0.038 C 
HETATM    3  C3  UNL     1     -33.093  15.811  -4.783  1.00 20.00     0.168 C 
HETATM    4  C4  UNL     1     -35.175  14.385  -4.450  1.00 20.00     0.008 C 
HETATM    5  C5  UNL     1     -34.816  16.650  -3.375  1.00 20.00     0.121 C 
HETATM    6  O10 UNL     1     -33.448  16.231  -3.470  1.00 20.00    -0.386 OA
ENDROOT
BRANCH   4   7
HETATM    7  C9  UNL     1     -36.118  13.505  -5.263  1.00 20.00     0.082 C 
HETATM    8  C7  UNL     1     -37.449  14.195  -5.502  1.00 20.00     0.027 C 
HETATM    9 CL11 UNL     1     -35.354  13.108  -6.826  1.00 20.00    -0.125 Cl
ENDBRANCH   4   7
BRANCH   5  10
HETATM   10  C8  UNL     1     -35.187  16.617  -1.897  1.00 20.00     0.027 C 
HETATM   11  C6  UNL     1     -34.231  17.410  -1.065  1.00 20.00     0.007 C 
ENDBRANCH   5  10
TORSDOF 2
ENDMDL
MODEL 3
REMARK VINA RESULT:      -4.2     10.502     11.646
REMARK  2 active torsions:
REMARK  status: ('A' for Active; 'I' for Inactive)
REMARK    1  A    between atoms: C4_4  and  C9_9 
REMARK    2  A    between atoms: C5_5  and  C8_8 
ROOT
HETATM    1  C1  UNL     1     -33.512  16.816  -4.886  1.00 20.00     0.032 C 
HETATM    2  C2  UNL     1     -34.251  14.630  -3.894  1.00 20.00     0.038 C 
HETATM    3  C3  UNL     1     -33.387  15.938  -6.129  1.00 20.00     0.168 C 
HETATM    4  C4  UNL     1     -34.352  16.152  -3.783  1.00 20.00     0.008 C 
HETATM    5  C5  UNL     1     -34.694  14.141  -5.283  1.00 20.00     0.121 C 
HETATM    6  O10 UNL     1     -34.560  15.150  -6.294  1.00 20.00    -0.386 OA
ENDROOT
BRANCH   4   7
HETATM    7  C9  UNL     1     -33.936  16.646  -2.401  1.00 20.00     0.082 C 
HETATM    8  C7  UNL     1     -33.246  17.995  -2.481  1.00 20.00     0.027 C 
HETATM    9 CL11 UNL     1     -35.380  16.766  -1.360  1.00 20.00    -0.125 Cl
ENDBRANCH   4   7
BRANCH   5  10
HETATM   10  C8  UNL     1     -36.155  13.706  -5.285  1.00 20.00     0.027 C 
HETATM   11  C6  UNL     1     -36.966  14.482  -6.272  1.00 20.00     0.007 C 
ENDBRANCH   5  10
TORSDOF 2
ENDMDL
MODEL 4
REMARK VINA RESULT:      -4.2      2.445      4.170
REMARK  2 active torsions:
REMARK  status: ('A' for Active; 'I' for Inactive)
REMARK    1  A    between atoms: C4_4  and  C9_9 
REMARK    2  A    between atoms: C5_5  and  C8_8 
ROOT
HETATM    1  C1  UNL     1     -31.339   8.702   2.978  1.00 20.00     0.032 C 
HETATM    2  C2  UNL     1     -33.684   8.184   2.241  1.00 20.00     0.038 C 
HETATM    3  C3  UNL     1     -31.890   8.172   4.299  1.00 20.00     0.168 C 
HETATM    4  C4  UNL     1     -32.233   8.336   1.782  1.00 20.00     0.008 C 
HETATM    5  C5  UNL     1     -33.809   7.131   3.356  1.00 20.00     0.121 C 
HETATM    6  O10 UNL     1     -32.587   6.950   4.085  1.00 20.00    -0.386 OA
ENDROOT
BRANCH   4   7
HETATM    7  C9  UNL     1     -32.101   9.361   0.660  1.00 20.00     0.082 C 
HETATM    8  C7  UNL     1     -33.043   9.046  -0.488  1.00 20.00     0.027 C 
HETATM    9 CL11 UNL     1     -32.455  10.987   1.303  1.00 20.00    -0.125 Cl
ENDBRANCH   4   7
BRANCH   5  10
HETATM   10  C8  UNL     1     -34.198   5.767   2.798  1.00 20.00     0.027 C 
HETATM   11  C6  UNL     1     -33.026   4.842   2.723  1.00 20.00     0.007 C 
ENDBRANCH   5  10
TORSDOF 2
ENDMDL
MODEL 5
REMARK VINA RESULT:      -4.1      2.647      4.341
REMARK  2 active torsions:
REMARK  status: ('A' for Active; 'I' for Inactive)
REMARK    1  A    between atoms: C4_4  and  C9_9 
REMARK    2  A    between atoms: C5_5  and  C8_8 
ROOT
HETATM    1  C1  UNL     1     -33.332   7.628   5.563  1.00 20.00     0.032 C 
HETATM    2  C2  UNL     1     -34.283   6.443   3.562  1.00 20.00     0.038 C 
HETATM    3  C3  UNL     1     -34.373   6.766   6.271  1.00 20.00     0.168 C 
HETATM    4  C4  UNL     1     -33.048   7.145   4.132  1.00 20.00     0.008 C 
HETATM    5  C5  UNL     1     -34.720   5.270   4.456  1.00 20.00     0.121 C 
HETATM    6  O10 UNL     1     -34.290   5.420   5.816  1.00 20.00    -0.386 OA
ENDROOT
BRANCH   4   7
HETATM    7  C9  UNL     1     -32.593   8.295   3.240  1.00 20.00     0.082 C 
HETATM    8  C7  UNL     1     -31.100   8.537   3.371  1.00 20.00     0.027 C 
HETATM    9 CL11 UNL     1     -32.999   7.923   1.543  1.00 20.00    -0.125 Cl
ENDBRANCH   4   7
BRANCH   5  10
HETATM   10  C8  UNL     1     -34.154   3.944   3.957  1.00 20.00     0.027 C 
HETATM   11  C6  UNL     1     -33.210   4.137   2.814  1.00 20.00     0.007 C 
ENDBRANCH   5  10
TORSDOF 2
ENDMDL
MODEL 6
REMARK VINA RESULT:      -4.0     10.574     11.594
REMARK  2 active torsions:
REMARK  status: ('A' for Active; 'I' for Inactive)
REMARK    1  A    between atoms: C4_4  and  C9_9 
REMARK    2  A    between atoms: C5_5  and  C8_8 
ROOT
HETATM    1  C1  UNL     1     -35.359  16.692  -1.915  1.00 20.00     0.032 C 
HETATM    2  C2  UNL     1     -33.622  17.572  -3.502  1.00 20.00     0.038 C 
HETATM    3  C3  UNL     1     -36.070  16.394  -3.233  1.00 20.00     0.168 C 
HETATM    4  C4  UNL     1     -33.863  16.983  -2.110  1.00 20.00     0.008 C 
HETATM    5  C5  UNL     1     -34.141  16.631  -4.603  1.00 20.00     0.121 C 
HETATM    6  O10 UNL     1     -35.177  15.756  -4.139  1.00 20.00    -0.386 OA
ENDROOT
BRANCH   4   7
HETATM    7  C9  UNL     1     -33.330  17.898  -1.012  1.00 20.00     0.082 C 
HETATM    8  C7  UNL     1     -32.957  19.262  -1.563  1.00 20.00     0.027 C 
HETATM    9 CL11 UNL     1     -34.569  18.077   0.258  1.00 20.00    -0.125 Cl
ENDBRANCH   4   7
BRANCH   5  10
HETATM   10  C8  UNL     1     -33.029  15.747  -5.155  1.00 20.00     0.027 C 
HETATM   11  C6  UNL     1     -32.976  14.422  -4.463  1.00 20.00     0.007 C 
ENDBRANCH   5  10
TORSDOF 2
ENDMDL
MODEL 7
REMARK VINA RESULT:      -3.8      2.581      4.485
REMARK  2 active torsions:
REMARK  status: ('A' for Active; 'I' for Inactive)
REMARK    1  A    between atoms: C4_4  and  C9_9 
REMARK    2  A    between atoms: C5_5  and  C8_8 
ROOT
HETATM    1  C1  UNL     1     -33.339   7.058   1.359  1.00 20.00     0.032 C 
HETATM    2  C2  UNL     1     -31.937   8.076   3.179  1.00 20.00     0.038 C 
HETATM    3  C3  UNL     1     -33.296   5.870   2.318  1.00 20.00     0.168 C 
HETATM    4  C4  UNL     1     -32.910   8.370   2.035  1.00 20.00     0.008 C 
HETATM    5  C5  UNL     1     -32.559   7.114   4.206  1.00 20.00     0.121 C 
HETATM    6  O10 UNL     1     -33.595   6.297   3.642  1.00 20.00    -0.386 OA
ENDROOT
BRANCH   4   7
HETATM    7  C9  UNL     1     -32.311   9.342   1.023  1.00 20.00     0.082 C 
HETATM    8  C7  UNL     1     -32.927   9.156  -0.352  1.00 20.00     0.027 C 
HETATM    9 CL11 UNL     1     -32.578  11.015   1.583  1.00 20.00    -0.125 Cl
ENDBRANCH   4   7
BRANCH   5  10
HETATM   10  C8  UNL     1     -33.179   7.868   5.377  1.00 20.00     0.027 C 
HETATM   11  C6  UNL     1     -34.102   7.000   6.171  1.00 20.00     0.007 C 
ENDBRANCH   5  10
TORSDOF 2
ENDMDL
MODEL 8
REMARK VINA RESULT:      -3.8     10.472     11.502
REMARK  2 active torsions:
REMARK  status: ('A' for Active; 'I' for Inactive)
REMARK    1  A    between atoms: C4_4  and  C9_9 
REMARK    2  A    between atoms: C5_5  and  C8_8 
ROOT
HETATM    1  C1  UNL     1     -36.140  17.617  -2.832  1.00 20.00     0.032 C 
HETATM    2  C2  UNL     1     -34.124  16.183  -3.264  1.00 20.00     0.038 C 
HETATM    3  C3  UNL     1     -36.329  17.389  -4.330  1.00 20.00     0.168 C 
HETATM    4  C4  UNL     1     -35.140  16.630  -2.212  1.00 20.00     0.008 C 
HETATM    5  C5  UNL     1     -34.823  15.556  -4.483  1.00 20.00     0.121 C 
HETATM    6  O10 UNL     1     -36.174  16.009  -4.640  1.00 20.00    -0.386 OA
ENDROOT
BRANCH   4   7
HETATM    7  C9  UNL     1     -34.456  17.232  -0.988  1.00 20.00     0.082 C 
HETATM    8  C7  UNL     1     -33.797  18.558  -1.322  1.00 20.00     0.027 C 
HETATM    9 CL11 UNL     1     -35.661  17.464   0.306  1.00 20.00    -0.125 Cl
ENDBRANCH   4   7
BRANCH   5  10
HETATM   10  C8  UNL     1     -34.875  14.036  -4.379  1.00 20.00     0.027 C 
HETATM   11  C6  UNL     1     -35.954  13.456  -5.236  1.00 20.00     0.007 C 
ENDBRANCH   5  10
TORSDOF 2
ENDMDL
MODEL 9
REMARK VINA RESULT:      -3.8     10.780     11.952
REMARK  2 active torsions:
REMARK  status: ('A' for Active; 'I' for Inactive)
REMARK    1  A    between atoms: C4_4  and  C9_9 
REMARK    2  A    between atoms: C5_5  and  C8_8 
ROOT
HETATM    1  C1  UNL     1     -33.642  17.454  -4.969  1.00 20.00     0.032 C 
HETATM    2  C2  UNL     1     -34.650  16.376  -2.936  1.00 20.00     0.038 C 
HETATM    3  C3  UNL     1     -34.336  18.676  -4.373  1.00 20.00     0.168 C 
HETATM    4  C4  UNL     1     -33.514  16.304  -3.959  1.00 20.00     0.008 C 
HETATM    5  C5  UNL     1     -34.664  17.735  -2.215  1.00 20.00     0.121 C 
HETATM    6  O10 UNL     1     -34.047  18.776  -2.983  1.00 20.00    -0.386 OA
ENDROOT
BRANCH   4   7
HETATM    7  C9  UNL     1     -33.477  14.951  -4.664  1.00 20.00     0.082 C 
HETATM    8  C7  UNL     1     -34.664  14.091  -4.270  1.00 20.00     0.027 C 
HETATM    9 CL11 UNL     1     -33.474  15.206  -6.429  1.00 20.00    -0.125 Cl
ENDBRANCH   4   7
BRANCH   5  10
HETATM   10  C8  UNL     1     -33.924  17.670  -0.883  1.00 20.00     0.027 C 
HETATM   11  C6  UNL     1     -32.608  18.377  -0.944  1.00 20.00     0.007 C 
ENDBRANCH   5  10
TORSDOF 2
ENDMDL
