MODEL 1
REMARK VINA RESULT:      -5.4      0.000      0.000
REMARK  2 active torsions:
REMARK  status: ('A' for Active; 'I' for Inactive)
REMARK    1  A    between atoms: C4_4  and  C8_8 
REMARK    2  A    between atoms: C5_5  and  C9_9 
ROOT
HETATM    1  C1  UNL     1     -31.541   8.479   3.078  1.00 20.00     0.005 C 
HETATM    2  C2  UNL     1     -32.260   7.467   3.975  1.00 20.00     0.006 C 
HETATM    3  C3  UNL     1     -33.489   7.666   1.922  1.00 20.00     0.010 C 
HETATM    4  C4  UNL     1     -32.540   8.859   1.982  1.00 20.00    -0.014 C 
HETATM    5  C5  UNL     1     -33.669   7.316   3.396  1.00 20.00    -0.000 C 
ENDROOT
BRANCH   5   6
HETATM    6  C9  UNL     1     -34.263   5.935   3.615  1.00 20.00     0.058 C 
HETATM    7  C7  UNL     1     -33.391   4.835   3.038  1.00 20.00     0.022 C 
HETATM    8 BR10 UNL     1     -34.471   5.632   5.537  1.00 20.00    -0.091 Br
ENDBRANCH   5   6
BRANCH   4   9
HETATM    9  C8  UNL     1     -31.879   9.166   0.648  1.00 20.00     0.000 C 
HETATM   10  C6  UNL     1     -32.885   9.430  -0.428  1.00 20.00     0.005 C 
ENDBRANCH   4   9
TORSDOF 2
ENDMDL
MODEL 2
REMARK VINA RESULT:      -5.4      2.436      4.688
REMARK  2 active torsions:
REMARK  status: ('A' for Active; 'I' for Inactive)
REMARK    1  A    between atoms: C4_4  and  C8_8 
REMARK    2  A    between atoms: C5_5  and  C9_9 
ROOT
HETATM    1  C1  UNL     1     -33.299   4.863   2.892  1.00 20.00     0.005 C 
HETATM    2  C2  UNL     1     -32.575   6.035   2.223  1.00 20.00     0.006 C 
HETATM    3  C3  UNL     1     -34.094   6.920   3.860  1.00 20.00     0.010 C 
HETATM    4  C4  UNL     1     -34.503   5.469   3.621  1.00 20.00    -0.014 C 
HETATM    5  C5  UNL     1     -33.398   7.284   2.551  1.00 20.00    -0.000 C 
ENDROOT
BRANCH   5   6
HETATM    6  C9  UNL     1     -32.559   8.546   2.651  1.00 20.00     0.058 C 
HETATM    7  C7  UNL     1     -31.289   8.333   3.454  1.00 20.00     0.022 C 
HETATM    8 BR10 UNL     1     -32.073   9.128   0.847  1.00 20.00    -0.091 Br
ENDBRANCH   5   6
BRANCH   4   9
HETATM    9  C8  UNL     1     -34.863   4.731   4.899  1.00 20.00     0.000 C 
HETATM   10  C6  UNL     1     -34.545   5.536   6.120  1.00 20.00     0.005 C 
ENDBRANCH   4   9
TORSDOF 2
ENDMDL
MODEL 3
REMARK VINA RESULT:      -5.2      2.244      4.356
REMARK  2 active torsions:
REMARK  status: ('A' for Active; 'I' for Inactive)
REMARK    1  A    between atoms: C4_4  and  C8_8 
REMARK    2  A    between atoms: C5_5  and  C9_9 
ROOT
HETATM    1  C1  UNL     1     -32.551   7.527   4.134  1.00 20.00     0.005 C 
HETATM    2  C2  UNL     1     -31.767   8.500   3.249  1.00 20.00     0.006 C 
HETATM    3  C3  UNL     1     -33.402   7.387   1.887  1.00 20.00     0.010 C 
HETATM    4  C4  UNL     1     -33.288   6.583   3.178  1.00 20.00    -0.014 C 
HETATM    5  C5  UNL     1     -32.041   8.072   1.805  1.00 20.00    -0.000 C 
ENDROOT
BRANCH   5   6
HETATM    6  C9  UNL     1     -32.011   9.228   0.820  1.00 20.00     0.058 C 
HETATM    7  C7  UNL     1     -32.856   8.958  -0.411  1.00 20.00     0.022 C 
HETATM    8 BR10 UNL     1     -32.687  10.835   1.709  1.00 20.00    -0.091 Br
ENDBRANCH   5   6
BRANCH   4   9
HETATM    9  C8  UNL     1     -34.631   6.116   3.714  1.00 20.00     0.000 C 
HETATM   10  C6  UNL     1     -34.546   5.694   5.147  1.00 20.00     0.005 C 
ENDBRANCH   4   9
TORSDOF 2
ENDMDL
MODEL 4
REMARK VINA RESULT:      -4.5      1.226      1.881
REMARK  2 active torsions:
REMARK  status: ('A' for Active; 'I' for Inactive)
REMARK    1  A    between atoms: C4_4  and  C8_8 
REMARK    2  A    between atoms: C5_5  and  C9_9 
ROOT
HETATM    1  C1  UNL     1     -33.313   7.177   1.346  1.00 20.00     0.005 C 
HETATM    2  C2  UNL     1     -34.141   6.219   2.207  1.00 20.00     0.006 C 
HETATM    3  C3  UNL     1     -32.805   7.582   3.664  1.00 20.00     0.010 C 
HETATM    4  C4  UNL     1     -32.219   7.733   2.263  1.00 20.00    -0.014 C 
HETATM    5  C5  UNL     1     -33.484   6.217   3.589  1.00 20.00    -0.000 C 
ENDROOT
BRANCH   5   6
HETATM    6  C9  UNL     1     -34.468   5.976   4.721  1.00 20.00     0.058 C 
HETATM    7  C7  UNL     1     -34.482   4.528   5.174  1.00 20.00     0.022 C 
HETATM    8 BR10 UNL     1     -33.977   7.108   6.240  1.00 20.00    -0.091 Br
ENDBRANCH   5   6
BRANCH   4   9
HETATM    9  C8  UNL     1     -31.827   9.163   1.930  1.00 20.00     0.000 C 
HETATM   10  C6  UNL     1     -32.468   9.639   0.665  1.00 20.00     0.005 C 
ENDBRANCH   4   9
TORSDOF 2
ENDMDL
MODEL 5
REMARK VINA RESULT:      -4.5     10.704     11.409
REMARK  2 active torsions:
REMARK  status: ('A' for Active; 'I' for Inactive)
REMARK    1  A    between atoms: C4_4  and  C8_8 
REMARK    2  A    between atoms: C5_5  and  C9_9 
ROOT
HETATM    1  C1  UNL     1     -32.962  17.883  -1.457  1.00 20.00     0.005 C 
HETATM    2  C2  UNL     1     -32.174  18.604  -0.359  1.00 20.00     0.006 C 
HETATM    3  C3  UNL     1     -34.402  18.207   0.445  1.00 20.00     0.010 C 
HETATM    4  C4  UNL     1     -34.439  18.002  -1.067  1.00 20.00    -0.014 C 
HETATM    5  C5  UNL     1     -33.217  19.152   0.619  1.00 20.00    -0.000 C 
ENDROOT
BRANCH   5   6
HETATM    6  C9  UNL     1     -32.716  19.226   2.050  1.00 20.00     0.058 C 
HETATM    7  C7  UNL     1     -33.465  18.282   2.973  1.00 20.00     0.022 C 
HETATM    8 BR10 UNL     1     -30.815  18.761   2.082  1.00 20.00    -0.091 Br
ENDBRANCH   5   6
BRANCH   4   9
HETATM    9  C8  UNL     1     -35.268  16.801  -1.488  1.00 20.00     0.000 C 
HETATM   10  C6  UNL     1     -34.778  16.202  -2.769  1.00 20.00     0.005 C 
ENDBRANCH   4   9
TORSDOF 2
ENDMDL
MODEL 6
REMARK VINA RESULT:      -4.3     10.290     11.311
REMARK  2 active torsions:
REMARK  status: ('A' for Active; 'I' for Inactive)
REMARK    1  A    between atoms: C4_4  and  C8_8 
REMARK    2  A    between atoms: C5_5  and  C9_9 
ROOT
HETATM    1  C1  UNL     1     -35.530  17.076  -1.270  1.00 20.00     0.005 C 
HETATM    2  C2  UNL     1     -35.483  16.205  -2.529  1.00 20.00     0.006 C 
HETATM    3  C3  UNL     1     -33.307  17.164  -2.192  1.00 20.00     0.010 C 
HETATM    4  C4  UNL     1     -34.275  17.954  -1.316  1.00 20.00    -0.014 C 
HETATM    5  C5  UNL     1     -34.223  16.626  -3.288  1.00 20.00    -0.000 C 
ENDROOT
BRANCH   5   6
HETATM    6  C9  UNL     1     -33.598  15.496  -4.089  1.00 20.00     0.058 C 
HETATM    7  C7  UNL     1     -34.427  14.226  -4.035  1.00 20.00     0.022 C 
HETATM    8 BR10 UNL     1     -33.430  16.059  -5.955  1.00 20.00    -0.091 Br
ENDBRANCH   5   6
BRANCH   4   9
HETATM    9  C8  UNL     1     -33.714  18.269   0.061  1.00 20.00     0.000 C 
HETATM   10  C6  UNL     1     -32.296  18.742  -0.008  1.00 20.00     0.005 C 
ENDBRANCH   4   9
TORSDOF 2
ENDMDL
MODEL 7
REMARK VINA RESULT:      -4.2     10.780     11.518
REMARK  2 active torsions:
REMARK  status: ('A' for Active; 'I' for Inactive)
REMARK    1  A    between atoms: C4_4  and  C8_8 
REMARK    2  A    between atoms: C5_5  and  C9_9 
ROOT
HETATM    1  C1  UNL     1     -33.568  17.016  -4.225  1.00 20.00     0.005 C 
HETATM    2  C2  UNL     1     -33.397  16.182  -5.498  1.00 20.00     0.006 C 
HETATM    3  C3  UNL     1     -34.673  14.899  -3.920  1.00 20.00     0.010 C 
HETATM    4  C4  UNL     1     -34.029  16.039  -3.138  1.00 20.00    -0.014 C 
HETATM    5  C5  UNL     1     -33.727  14.740  -5.107  1.00 20.00    -0.000 C 
ENDROOT
BRANCH   5   6
HETATM    6  C9  UNL     1     -34.326  13.931  -6.244  1.00 20.00     0.058 C 
HETATM    7  C7  UNL     1     -35.800  13.639  -6.031  1.00 20.00     0.022 C 
HETATM    8 BR10 UNL     1     -34.118  14.934  -7.912  1.00 20.00    -0.091 Br
ENDBRANCH   5   6
BRANCH   4   9
HETATM    9  C8  UNL     1     -34.965  16.672  -2.122  1.00 20.00     0.000 C 
HETATM   10  C6  UNL     1     -34.219  17.441  -1.076  1.00 20.00     0.005 C 
ENDBRANCH   4   9
TORSDOF 2
ENDMDL
MODEL 8
REMARK VINA RESULT:      -4.2     10.593     11.200
REMARK  2 active torsions:
REMARK  status: ('A' for Active; 'I' for Inactive)
REMARK    1  A    between atoms: C4_4  and  C8_8 
REMARK    2  A    between atoms: C5_5  and  C9_9 
ROOT
HETATM    1  C1  UNL     1     -33.755  17.119  -1.970  1.00 20.00     0.005 C 
HETATM    2  C2  UNL     1     -33.500  16.412  -3.305  1.00 20.00     0.006 C 
HETATM    3  C3  UNL     1     -35.852  16.308  -2.831  1.00 20.00     0.010 C 
HETATM    4  C4  UNL     1     -35.159  16.695  -1.528  1.00 20.00    -0.014 C 
HETATM    5  C5  UNL     1     -34.748  15.570  -3.583  1.00 20.00    -0.000 C 
ENDROOT
BRANCH   5   6
HETATM    6  C9  UNL     1     -35.041  15.403  -5.063  1.00 20.00     0.058 C 
HETATM    7  C7  UNL     1     -33.787  15.498  -5.914  1.00 20.00     0.022 C 
HETATM    8 BR10 UNL     1     -35.866  13.652  -5.352  1.00 20.00    -0.091 Br
ENDBRANCH   5   6
BRANCH   4   9
HETATM    9  C8  UNL     1     -35.896  17.777  -0.757  1.00 20.00     0.000 C 
HETATM   10  C6  UNL     1     -35.697  17.646   0.721  1.00 20.00     0.005 C 
ENDBRANCH   4   9
TORSDOF 2
ENDMDL
MODEL 9
REMARK VINA RESULT:      -4.1     10.636     11.192
REMARK  2 active torsions:
REMARK  status: ('A' for Active; 'I' for Inactive)
REMARK    1  A    between atoms: C4_4  and  C8_8 
REMARK    2  A    between atoms: C5_5  and  C9_9 
ROOT
HETATM    1  C1  UNL     1     -35.756  16.706  -2.890  1.00 20.00     0.005 C 
HETATM    2  C2  UNL     1     -35.976  17.453  -1.571  1.00 20.00     0.006 C 
HETATM    3  C3  UNL     1     -33.616  17.123  -1.869  1.00 20.00     0.010 C 
HETATM    4  C4  UNL     1     -34.316  16.184  -2.846  1.00 20.00    -0.014 C 
HETATM    5  C5  UNL     1     -34.671  17.313  -0.783  1.00 20.00    -0.000 C 
ENDROOT
BRANCH   5   6
HETATM    6  C9  UNL     1     -34.389  18.497   0.125  1.00 20.00     0.058 C 
HETATM    7  C7  UNL     1     -34.760  18.216   1.570  1.00 20.00     0.022 C 
HETATM    8 BR10 UNL     1     -32.482  18.924   0.035  1.00 20.00    -0.091 Br
ENDBRANCH   5   6
BRANCH   4   9
HETATM    9  C8  UNL     1     -33.653  16.138  -4.212  1.00 20.00     0.000 C 
HETATM   10  C6  UNL     1     -33.089  14.786  -4.516  1.00 20.00     0.005 C 
ENDBRANCH   4   9
TORSDOF 2
ENDMDL
