MODEL 1
REMARK VINA RESULT:      -5.0      0.000      0.000
REMARK  2 active torsions:
REMARK  status: ('A' for Active; 'I' for Inactive)
REMARK    1  A    between atoms: C3_3  and  C6_6 
REMARK    2  A    between atoms: C6_6  and  C7_7 
ROOT
HETATM    1  C4  UNL     1     -34.417   5.891   2.605  1.00 20.00     0.011 C 
HETATM    2  C6  UNL     1     -33.692   6.897   3.470  1.00 20.00    -0.001 C 
ENDROOT
BRANCH   2   3
HETATM    3  C3  UNL     1     -32.336   7.240   2.839  1.00 20.00    -0.010 A 
HETATM    4  C1  UNL     1     -32.153   8.533   2.094  1.00 20.00     0.005 A 
HETATM    5  C2  UNL     1     -31.483   8.332   3.425  1.00 20.00     0.005 A 
ENDBRANCH   2   3
BRANCH   2   6
HETATM    6  C7  UNL     1     -33.512   6.447   4.933  1.00 20.00     0.058 C 
HETATM    7  C5  UNL     1     -33.796   7.499   5.997  1.00 20.00     0.022 C 
HETATM    8 BR8  UNL     1     -34.637   4.875   5.300  1.00 20.00    -0.091 Br
ENDBRANCH   2   6
TORSDOF 2
ENDMDL
MODEL 2
REMARK VINA RESULT:      -4.5      2.233      3.988
REMARK  2 active torsions:
REMARK  status: ('A' for Active; 'I' for Inactive)
REMARK    1  A    between atoms: C3_3  and  C6_6 
REMARK    2  A    between atoms: C6_6  and  C7_7 
ROOT
HETATM    1  C4  UNL     1     -33.493   7.383   5.733  1.00 20.00     0.011 C 
HETATM    2  C6  UNL     1     -34.054   6.931   4.404  1.00 20.00    -0.001 C 
ENDROOT
BRANCH   2   3
HETATM    3  C3  UNL     1     -34.912   5.675   4.604  1.00 20.00    -0.010 A 
HETATM    4  C1  UNL     1     -34.301   4.309   4.455  1.00 20.00     0.005 A 
HETATM    5  C2  UNL     1     -34.710   4.805   5.814  1.00 20.00     0.005 A 
ENDBRANCH   2   3
BRANCH   2   6
HETATM    6  C7  UNL     1     -32.981   6.690   3.324  1.00 20.00     0.058 C 
HETATM    7  C5  UNL     1     -33.497   6.419   1.917  1.00 20.00     0.022 C 
HETATM    8 BR8  UNL     1     -31.744   8.217   3.247  1.00 20.00    -0.091 Br
ENDBRANCH   2   6
TORSDOF 2
ENDMDL
MODEL 3
REMARK VINA RESULT:      -4.5      1.659      2.868
REMARK  2 active torsions:
REMARK  status: ('A' for Active; 'I' for Inactive)
REMARK    1  A    between atoms: C3_3  and  C6_6 
REMARK    2  A    between atoms: C6_6  and  C7_7 
ROOT
HETATM    1  C4  UNL     1     -31.308   8.281   3.781  1.00 20.00     0.011 C 
HETATM    2  C6  UNL     1     -32.161   7.821   2.621  1.00 20.00    -0.001 C 
ENDROOT
BRANCH   2   3
HETATM    3  C3  UNL     1     -32.567   9.029   1.766  1.00 20.00    -0.010 A 
HETATM    4  C1  UNL     1     -31.785   9.379   0.530  1.00 20.00     0.005 A 
HETATM    5  C2  UNL     1     -33.176   8.822   0.406  1.00 20.00     0.005 A 
ENDBRANCH   2   3
BRANCH   2   6
HETATM    6  C7  UNL     1     -33.403   7.012   3.042  1.00 20.00     0.058 C 
HETATM    7  C5  UNL     1     -33.380   5.527   2.704  1.00 20.00     0.022 C 
HETATM    8 BR8  UNL     1     -33.710   7.202   4.976  1.00 20.00    -0.091 Br
ENDBRANCH   2   6
TORSDOF 2
ENDMDL
MODEL 4
REMARK VINA RESULT:      -4.5      0.975      2.230
REMARK  2 active torsions:
REMARK  status: ('A' for Active; 'I' for Inactive)
REMARK    1  A    between atoms: C3_3  and  C6_6 
REMARK    2  A    between atoms: C6_6  and  C7_7 
ROOT
HETATM    1  C4  UNL     1     -33.644   7.342   5.500  1.00 20.00     0.011 C 
HETATM    2  C6  UNL     1     -33.075   6.907   4.169  1.00 20.00    -0.001 C 
ENDROOT
BRANCH   2   3
HETATM    3  C3  UNL     1     -32.937   8.121   3.242  1.00 20.00    -0.010 A 
HETATM    4  C1  UNL     1     -31.576   8.656   2.892  1.00 20.00     0.005 A 
HETATM    5  C2  UNL     1     -32.398   7.953   1.848  1.00 20.00     0.005 A 
ENDBRANCH   2   3
BRANCH   2   6
HETATM    6  C7  UNL     1     -33.883   5.788   3.482  1.00 20.00     0.058 C 
HETATM    7  C5  UNL     1     -33.085   4.822   2.616  1.00 20.00     0.022 C 
HETATM    8 BR8  UNL     1     -34.871   4.745   4.825  1.00 20.00    -0.091 Br
ENDBRANCH   2   6
TORSDOF 2
ENDMDL
MODEL 5
REMARK VINA RESULT:      -4.5      2.176      3.521
REMARK  2 active torsions:
REMARK  status: ('A' for Active; 'I' for Inactive)
REMARK    1  A    between atoms: C3_3  and  C6_6 
REMARK    2  A    between atoms: C6_6  and  C7_7 
ROOT
HETATM    1  C4  UNL     1     -33.724   5.929   2.205  1.00 20.00     0.011 C 
HETATM    2  C6  UNL     1     -33.204   6.607   3.452  1.00 20.00    -0.001 C 
ENDROOT
BRANCH   2   3
HETATM    3  C3  UNL     1     -34.315   6.669   4.509  1.00 20.00    -0.010 A 
HETATM    4  C1  UNL     1     -34.404   5.613   5.577  1.00 20.00     0.005 A 
HETATM    5  C2  UNL     1     -33.983   7.012   5.935  1.00 20.00     0.005 A 
ENDBRANCH   2   3
BRANCH   2   6
HETATM    6  C7  UNL     1     -32.616   8.009   3.200  1.00 20.00     0.058 C 
HETATM    7  C5  UNL     1     -31.233   8.269   3.783  1.00 20.00     0.022 C 
HETATM    8 BR8  UNL     1     -32.553   8.379   1.269  1.00 20.00    -0.091 Br
ENDBRANCH   2   6
TORSDOF 2
ENDMDL
MODEL 6
REMARK VINA RESULT:      -3.5      2.723      4.202
REMARK  2 active torsions:
REMARK  status: ('A' for Active; 'I' for Inactive)
REMARK    1  A    between atoms: C3_3  and  C6_6 
REMARK    2  A    between atoms: C6_6  and  C7_7 
ROOT
HETATM    1  C4  UNL     1     -31.245   8.398   3.492  1.00 20.00     0.011 C 
HETATM    2  C6  UNL     1     -32.624   8.175   2.913  1.00 20.00    -0.001 C 
ENDROOT
BRANCH   2   3
HETATM    3  C3  UNL     1     -32.939   6.674   2.891  1.00 20.00    -0.010 A 
HETATM    4  C1  UNL     1     -33.980   6.105   3.817  1.00 20.00     0.005 A 
HETATM    5  C2  UNL     1     -34.250   6.184   2.340  1.00 20.00     0.005 A 
ENDBRANCH   2   3
BRANCH   2   6
HETATM    6  C7  UNL     1     -32.821   8.792   1.515  1.00 20.00     0.058 C 
HETATM    7  C5  UNL     1     -33.124  10.283   1.478  1.00 20.00     0.022 C 
HETATM    8 BR8  UNL     1     -31.237   8.453   0.397  1.00 20.00    -0.091 Br
ENDBRANCH   2   6
TORSDOF 2
ENDMDL
MODEL 7
REMARK VINA RESULT:      -3.5     11.452     12.122
REMARK  2 active torsions:
REMARK  status: ('A' for Active; 'I' for Inactive)
REMARK    1  A    between atoms: C3_3  and  C6_6 
REMARK    2  A    between atoms: C6_6  and  C7_7 
ROOT
HETATM    1  C4  UNL     1     -35.951  15.450  -4.242  1.00 20.00     0.011 C 
HETATM    2  C6  UNL     1     -34.716  15.645  -3.393  1.00 20.00    -0.001 C 
ENDROOT
BRANCH   2   3
HETATM    3  C3  UNL     1     -34.822  16.966  -2.620  1.00 20.00    -0.010 A 
HETATM    4  C1  UNL     1     -35.112  16.959  -1.144  1.00 20.00     0.005 A 
HETATM    5  C2  UNL     1     -33.750  17.358  -1.640  1.00 20.00     0.005 A 
ENDBRANCH   2   3
BRANCH   2   6
HETATM    6  C7  UNL     1     -33.397  15.585  -4.188  1.00 20.00     0.058 C 
HETATM    7  C5  UNL     1     -32.733  14.218  -4.280  1.00 20.00     0.022 C 
HETATM    8 BR8  UNL     1     -33.676  16.263  -6.013  1.00 20.00    -0.091 Br
ENDBRANCH   2   6
TORSDOF 2
ENDMDL
MODEL 8
REMARK VINA RESULT:      -3.5      0.911      3.085
REMARK  2 active torsions:
REMARK  status: ('A' for Active; 'I' for Inactive)
REMARK    1  A    between atoms: C3_3  and  C6_6 
REMARK    2  A    between atoms: C6_6  and  C7_7 
ROOT
HETATM    1  C4  UNL     1     -32.481   7.582   2.899  1.00 20.00     0.011 C 
HETATM    2  C6  UNL     1     -33.601   6.905   3.656  1.00 20.00    -0.001 C 
ENDROOT
BRANCH   2   3
HETATM    3  C3  UNL     1     -33.240   6.816   5.144  1.00 20.00    -0.010 A 
HETATM    4  C1  UNL     1     -33.491   7.985   6.056  1.00 20.00     0.005 A 
HETATM    5  C2  UNL     1     -34.325   6.740   6.183  1.00 20.00     0.005 A 
ENDBRANCH   2   3
BRANCH   2   6
HETATM    6  C7  UNL     1     -33.977   5.516   3.104  1.00 20.00     0.058 C 
HETATM    7  C5  UNL     1     -32.906   4.809   2.286  1.00 20.00     0.022 C 
HETATM    8 BR8  UNL     1     -34.519   4.328   4.576  1.00 20.00    -0.091 Br
ENDBRANCH   2   6
TORSDOF 2
ENDMDL
MODEL 9
REMARK VINA RESULT:      -3.4     11.583     11.986
REMARK  2 active torsions:
REMARK  status: ('A' for Active; 'I' for Inactive)
REMARK    1  A    between atoms: C3_3  and  C6_6 
REMARK    2  A    between atoms: C6_6  and  C7_7 
ROOT
HETATM    1  C4  UNL     1     -33.168  17.912  -2.212  1.00 20.00     0.011 C 
HETATM    2  C6  UNL     1     -34.010  16.658  -2.272  1.00 20.00    -0.001 C 
ENDROOT
BRANCH   2   3
HETATM    3  C3  UNL     1     -34.104  16.166  -3.722  1.00 20.00    -0.010 A 
HETATM    4  C1  UNL     1     -33.259  15.011  -4.186  1.00 20.00     0.005 A 
HETATM    5  C2  UNL     1     -34.745  14.841  -4.032  1.00 20.00     0.005 A 
ENDBRANCH   2   3
BRANCH   2   6
HETATM    6  C7  UNL     1     -35.416  16.821  -1.662  1.00 20.00     0.058 C 
HETATM    7  C5  UNL     1     -35.469  17.364  -0.240  1.00 20.00     0.022 C 
HETATM    8 BR8  UNL     1     -36.521  17.975  -2.808  1.00 20.00    -0.091 Br
ENDBRANCH   2   6
TORSDOF 2
ENDMDL
