MODEL 1
REMARK VINA RESULT:      -5.5      0.000      0.000
REMARK  2 active torsions:
REMARK  status: ('A' for Active; 'I' for Inactive)
REMARK    1  A    between atoms: C1_1  and  C7_7 
REMARK    2  A    between atoms: C8_8  and  C12_12 
ROOT
HETATM    1  C2  UNL     1     -32.577   8.369   4.804  1.00 20.00     0.001 C 
HETATM    2  C3  UNL     1     -31.877   8.730   3.498  1.00 20.00     0.012 C 
HETATM    3  C4  UNL     1     -32.599   6.827   1.979  1.00 20.00     0.012 C 
HETATM    4  C5  UNL     1     -32.950   6.895   4.971  1.00 20.00     0.005 C 
HETATM    5  C6  UNL     1     -33.707   6.030   2.666  1.00 20.00     0.006 C 
HETATM    6  C7  UNL     1     -32.637   8.335   2.230  1.00 20.00     0.055 C 
HETATM    7  C8  UNL     1     -34.125   6.472   4.078  1.00 20.00    -0.011 C 
ENDROOT
BRANCH   6   8
HETATM    8  C1  UNL     1     -31.985   9.031   1.071  1.00 20.00     0.127 C 
HETATM    9  C9  UNL     1     -32.570  10.357   0.661  1.00 20.00     0.091 C 
HETATM   10  O13 UNL     1     -31.019   8.543   0.486  1.00 20.00    -0.298 OA
ENDBRANCH   6   8
BRANCH   7  11
HETATM   11  C12 UNL     1     -34.915   5.337   4.742  1.00 20.00    -0.019 C 
HETATM   12  C10 UNL     1     -34.360   3.984   4.312  1.00 20.00     0.010 C 
HETATM   13  C11 UNL     1     -34.878   5.483   6.259  1.00 20.00     0.010 C 
ENDBRANCH   7  11
TORSDOF 2
ENDMDL
MODEL 2
REMARK VINA RESULT:      -5.4     11.107     11.920
REMARK  2 active torsions:
REMARK  status: ('A' for Active; 'I' for Inactive)
REMARK    1  A    between atoms: C1_1  and  C7_7 
REMARK    2  A    between atoms: C8_8  and  C12_12 
ROOT
HETATM    1  C2  UNL     1     -36.819  15.465  -4.188  1.00 20.00     0.001 C 
HETATM    2  C3  UNL     1     -36.346  14.870  -5.510  1.00 20.00     0.012 C 
HETATM    3  C4  UNL     1     -33.854  15.360  -5.438  1.00 20.00     0.012 C 
HETATM    4  C5  UNL     1     -35.915  16.542  -3.584  1.00 20.00     0.005 C 
HETATM    5  C6  UNL     1     -33.478  15.840  -4.038  1.00 20.00     0.006 C 
HETATM    6  C7  UNL     1     -34.935  14.278  -5.482  1.00 20.00     0.055 C 
HETATM    7  C8  UNL     1     -34.611  15.972  -3.007  1.00 20.00    -0.011 C 
ENDROOT
BRANCH   6   8
HETATM    8  C1  UNL     1     -34.754  13.468  -6.733  1.00 20.00     0.127 C 
HETATM    9  C9  UNL     1     -34.155  14.177  -7.918  1.00 20.00     0.091 C 
HETATM   10  O13 UNL     1     -35.077  12.282  -6.785  1.00 20.00    -0.298 OA
ENDBRANCH   6   8
BRANCH   7  11
HETATM   11  C12 UNL     1     -34.124  16.840  -1.839  1.00 20.00    -0.019 C 
HETATM   12  C10 UNL     1     -33.409  18.080  -2.363  1.00 20.00     0.010 C 
HETATM   13  C11 UNL     1     -35.295  17.226  -0.942  1.00 20.00     0.010 C 
ENDBRANCH   7  11
TORSDOF 2
ENDMDL
MODEL 3
REMARK VINA RESULT:      -5.3     10.846     11.808
REMARK  2 active torsions:
REMARK  status: ('A' for Active; 'I' for Inactive)
REMARK    1  A    between atoms: C1_1  and  C7_7 
REMARK    2  A    between atoms: C8_8  and  C12_12 
ROOT
HETATM    1  C2  UNL     1     -35.580  17.088  -0.632  1.00 20.00     0.001 C 
HETATM    2  C3  UNL     1     -35.348  16.762  -2.104  1.00 20.00     0.012 C 
HETATM    3  C4  UNL     1     -33.181  18.002  -2.574  1.00 20.00     0.012 C 
HETATM    4  C5  UNL     1     -34.888  18.350  -0.114  1.00 20.00     0.005 C 
HETATM    5  C6  UNL     1     -32.581  18.480  -1.253  1.00 20.00     0.006 C 
HETATM    6  C7  UNL     1     -33.878  16.642  -2.512  1.00 20.00     0.055 C 
HETATM    7  C8  UNL     1     -33.369  18.180   0.032  1.00 20.00    -0.011 C 
ENDROOT
BRANCH   6   8
HETATM    8  C1  UNL     1     -33.832  16.016  -3.876  1.00 20.00     0.127 C 
HETATM    9  C9  UNL     1     -34.497  14.674  -4.028  1.00 20.00     0.091 C 
HETATM   10  O13 UNL     1     -33.280  16.575  -4.823  1.00 20.00    -0.298 OA
ENDBRANCH   6   8
BRANCH   7  11
HETATM   11  C12 UNL     1     -32.841  19.076   1.161  1.00 20.00    -0.019 C 
HETATM   12  C10 UNL     1     -33.529  18.732   2.476  1.00 20.00     0.010 C 
HETATM   13  C11 UNL     1     -31.328  18.934   1.286  1.00 20.00     0.010 C 
ENDBRANCH   7  11
TORSDOF 2
ENDMDL
MODEL 4
REMARK VINA RESULT:      -5.1      2.137      5.314
REMARK  2 active torsions:
REMARK  status: ('A' for Active; 'I' for Inactive)
REMARK    1  A    between atoms: C1_1  and  C7_7 
REMARK    2  A    between atoms: C8_8  and  C12_12 
ROOT
HETATM    1  C2  UNL     1     -33.930   6.098   1.881  1.00 20.00     0.001 C 
HETATM    2  C3  UNL     1     -33.910   5.766   3.370  1.00 20.00     0.012 C 
HETATM    3  C4  UNL     1     -32.493   7.657   4.304  1.00 20.00     0.012 C 
HETATM    4  C5  UNL     1     -32.782   6.977   1.382  1.00 20.00     0.005 C 
HETATM    5  C6  UNL     1     -32.291   8.714   3.219  1.00 20.00     0.006 C 
HETATM    6  C7  UNL     1     -33.865   6.982   4.299  1.00 20.00     0.055 C 
HETATM    7  C8  UNL     1     -32.906   8.438   1.838  1.00 20.00    -0.011 C 
ENDROOT
BRANCH   6   8
HETATM    8  C1  UNL     1     -34.170   6.505   5.690  1.00 20.00     0.127 C 
HETATM    9  C9  UNL     1     -34.571   5.062   5.838  1.00 20.00     0.091 C 
HETATM   10  O13 UNL     1     -34.094   7.257   6.661  1.00 20.00    -0.298 OA
ENDBRANCH   6   8
BRANCH   7  11
HETATM   11  C12 UNL     1     -32.258   9.372   0.808  1.00 20.00    -0.019 C 
HETATM   12  C10 UNL     1     -32.915   9.195  -0.555  1.00 20.00     0.010 C 
HETATM   13  C11 UNL     1     -32.354  10.821   1.274  1.00 20.00     0.010 C 
ENDBRANCH   7  11
TORSDOF 2
ENDMDL
MODEL 5
REMARK VINA RESULT:      -5.1     11.050     11.849
REMARK  2 active torsions:
REMARK  status: ('A' for Active; 'I' for Inactive)
REMARK    1  A    between atoms: C1_1  and  C7_7 
REMARK    2  A    between atoms: C8_8  and  C12_12 
ROOT
HETATM    1  C2  UNL     1     -36.939  16.660  -3.437  1.00 20.00     0.001 C 
HETATM    2  C3  UNL     1     -36.597  15.759  -4.620  1.00 20.00     0.012 C 
HETATM    3  C4  UNL     1     -34.084  15.492  -4.360  1.00 20.00     0.012 C 
HETATM    4  C5  UNL     1     -35.784  17.498  -2.886  1.00 20.00     0.005 C 
HETATM    5  C6  UNL     1     -33.660  16.045  -3.000  1.00 20.00     0.006 C 
HETATM    6  C7  UNL     1     -35.441  14.786  -4.375  1.00 20.00     0.055 C 
HETATM    7  C8  UNL     1     -34.755  16.661  -2.114  1.00 20.00    -0.011 C 
ENDROOT
BRANCH   6   8
HETATM    8  C1  UNL     1     -35.447  13.780  -5.489  1.00 20.00     0.127 C 
HETATM    9  C9  UNL     1     -34.874  14.226  -6.807  1.00 20.00     0.091 C 
HETATM   10  O13 UNL     1     -35.896  12.645  -5.331  1.00 20.00    -0.298 OA
ENDBRANCH   6   8
BRANCH   7  11
HETATM   11  C12 UNL     1     -34.091  17.511  -1.022  1.00 20.00    -0.019 C 
HETATM   12  C10 UNL     1     -32.924  18.300  -1.601  1.00 20.00     0.010 C 
HETATM   13  C11 UNL     1     -35.114  18.444  -0.383  1.00 20.00     0.010 C 
ENDBRANCH   7  11
TORSDOF 2
ENDMDL
MODEL 6
REMARK VINA RESULT:      -5.0     11.162     12.019
REMARK  2 active torsions:
REMARK  status: ('A' for Active; 'I' for Inactive)
REMARK    1  A    between atoms: C1_1  and  C7_7 
REMARK    2  A    between atoms: C8_8  and  C12_12 
ROOT
HETATM    1  C2  UNL     1     -32.519  18.461  -1.080  1.00 20.00     0.001 C 
HETATM    2  C3  UNL     1     -33.522  18.851   0.002  1.00 20.00     0.012 C 
HETATM    3  C4  UNL     1     -35.621  17.654  -0.782  1.00 20.00     0.012 C 
HETATM    4  C5  UNL     1     -33.121  18.037  -2.420  1.00 20.00     0.005 C 
HETATM    5  C6  UNL     1     -35.257  16.691  -1.910  1.00 20.00     0.006 C 
HETATM    6  C7  UNL     1     -34.570  17.783   0.322  1.00 20.00     0.055 C 
HETATM    7  C8  UNL     1     -33.789  16.655  -2.364  1.00 20.00    -0.011 C 
ENDROOT
BRANCH   6   8
HETATM    8  C1  UNL     1     -35.257  18.184   1.595  1.00 20.00     0.127 C 
HETATM    9  C9  UNL     1     -34.372  18.562   2.752  1.00 20.00     0.091 C 
HETATM   10  O13 UNL     1     -36.484  18.206   1.686  1.00 20.00    -0.298 OA
ENDBRANCH   6   8
BRANCH   7  11
HETATM   11  C12 UNL     1     -33.708  15.971  -3.735  1.00 20.00    -0.019 C 
HETATM   12  C10 UNL     1     -34.961  15.141  -3.988  1.00 20.00     0.010 C 
HETATM   13  C11 UNL     1     -33.513  17.009  -4.835  1.00 20.00     0.010 C 
ENDBRANCH   7  11
TORSDOF 2
ENDMDL
MODEL 7
REMARK VINA RESULT:      -5.0     10.883     12.269
REMARK  2 active torsions:
REMARK  status: ('A' for Active; 'I' for Inactive)
REMARK    1  A    between atoms: C1_1  and  C7_7 
REMARK    2  A    between atoms: C8_8  and  C12_12 
ROOT
HETATM    1  C2  UNL     1     -33.992  17.478  -5.915  1.00 20.00     0.001 C 
HETATM    2  C3  UNL     1     -33.941  16.062  -6.480  1.00 20.00     0.012 C 
HETATM    3  C4  UNL     1     -34.018  14.656  -4.366  1.00 20.00     0.012 C 
HETATM    4  C5  UNL     1     -33.536  17.629  -4.463  1.00 20.00     0.005 C 
HETATM    5  C6  UNL     1     -34.362  15.554  -3.179  1.00 20.00     0.006 C 
HETATM    6  C7  UNL     1     -34.720  15.019  -5.676  1.00 20.00     0.055 C 
HETATM    7  C8  UNL     1     -34.544  17.055  -3.457  1.00 20.00    -0.011 C 
ENDROOT
BRANCH   6   8
HETATM    8  C1  UNL     1     -34.834  13.783  -6.519  1.00 20.00     0.127 C 
HETATM    9  C9  UNL     1     -34.282  13.864  -7.917  1.00 20.00     0.091 C 
HETATM   10  O13 UNL     1     -35.350  12.753  -6.088  1.00 20.00    -0.298 OA
ENDBRANCH   6   8
BRANCH   7  11
HETATM   11  C12 UNL     1     -34.464  17.820  -2.129  1.00 20.00    -0.019 C 
HETATM   12  C10 UNL     1     -35.237  17.081  -1.044  1.00 20.00     0.010 C 
HETATM   13  C11 UNL     1     -33.009  18.019  -1.720  1.00 20.00     0.010 C 
ENDBRANCH   7  11
TORSDOF 2
ENDMDL
MODEL 8
REMARK VINA RESULT:      -5.0     11.233     12.038
REMARK  2 active torsions:
REMARK  status: ('A' for Active; 'I' for Inactive)
REMARK    1  A    between atoms: C1_1  and  C7_7 
REMARK    2  A    between atoms: C8_8  and  C12_12 
ROOT
HETATM    1  C2  UNL     1     -32.281  18.509  -0.541  1.00 20.00     0.001 C 
HETATM    2  C3  UNL     1     -32.962  19.012   0.727  1.00 20.00     0.012 C 
HETATM    3  C4  UNL     1     -35.346  18.201   0.392  1.00 20.00     0.012 C 
HETATM    4  C5  UNL     1     -33.206  18.240  -1.729  1.00 20.00     0.005 C 
HETATM    5  C6  UNL     1     -35.385  17.237  -0.792  1.00 20.00     0.006 C 
HETATM    6  C7  UNL     1     -34.085  18.115   1.253  1.00 20.00     0.055 C 
HETATM    7  C8  UNL     1     -34.068  16.983  -1.542  1.00 20.00    -0.011 C 
ENDROOT
BRANCH   6   8
HETATM    8  C1  UNL     1     -34.421  18.571   2.644  1.00 20.00     0.127 C 
HETATM    9  C9  UNL     1     -33.321  18.491   3.667  1.00 20.00     0.091 C 
HETATM   10  O13 UNL     1     -35.541  18.992   2.931  1.00 20.00    -0.298 OA
ENDBRANCH   6   8
BRANCH   7  11
HETATM   11  C12 UNL     1     -34.384  16.350  -2.904  1.00 20.00    -0.019 C 
HETATM   12  C10 UNL     1     -35.886  16.356  -3.156  1.00 20.00     0.010 C 
HETATM   13  C11 UNL     1     -33.643  17.086  -4.015  1.00 20.00     0.010 C 
ENDBRANCH   7  11
TORSDOF 2
ENDMDL
MODEL 9
REMARK VINA RESULT:      -5.0     10.788     11.549
REMARK  2 active torsions:
REMARK  status: ('A' for Active; 'I' for Inactive)
REMARK    1  A    between atoms: C1_1  and  C7_7 
REMARK    2  A    between atoms: C8_8  and  C12_12 
ROOT
HETATM    1  C2  UNL     1     -36.578  16.563  -2.988  1.00 20.00     0.001 C 
HETATM    2  C3  UNL     1     -35.599  16.046  -4.038  1.00 20.00     0.012 C 
HETATM    3  C4  UNL     1     -33.372  16.831  -3.102  1.00 20.00     0.012 C 
HETATM    4  C5  UNL     1     -36.081  17.733  -2.137  1.00 20.00     0.005 C 
HETATM    5  C6  UNL     1     -33.578  17.336  -1.675  1.00 20.00     0.006 C 
HETATM    6  C7  UNL     1     -34.232  15.628  -3.492  1.00 20.00     0.055 C 
HETATM    7  C8  UNL     1     -35.011  17.317  -1.118  1.00 20.00    -0.011 C 
ENDROOT
BRANCH   6   8
HETATM    8  C1  UNL     1     -33.524  14.862  -4.572  1.00 20.00     0.127 C 
HETATM    9  C9  UNL     1     -33.177  15.620  -5.824  1.00 20.00     0.091 C 
HETATM   10  O13 UNL     1     -33.240  13.672  -4.438  1.00 20.00    -0.298 OA
ENDBRANCH   6   8
BRANCH   7  11
HETATM   11  C12 UNL     1     -35.076  18.223   0.119  1.00 20.00    -0.019 C 
HETATM   12  C10 UNL     1     -35.934  17.580   1.202  1.00 20.00     0.010 C 
HETATM   13  C11 UNL     1     -33.672  18.511   0.638  1.00 20.00     0.010 C 
ENDBRANCH   7  11
TORSDOF 2
ENDMDL
