MODEL 1
REMARK VINA RESULT:      -5.0      0.000      0.000
REMARK  3 active torsions:
REMARK  status: ('A' for Active; 'I' for Inactive)
REMARK    1  A    between atoms: C4_4  and  C5_5 
REMARK    2  A    between atoms: C4_4  and  O7_7 
REMARK    3  A    between atoms: C5_5  and  C6_6 
ROOT
HETATM    1  C1  UNL     1     -33.712   7.254   5.713  1.00 20.00     0.014 C 
HETATM    2  C5  UNL     1     -33.889   7.062   4.221  1.00 20.00     0.023 C 
ENDROOT
BRANCH   2   3
HETATM    3  C4  UNL     1     -32.610   7.473   3.472  1.00 20.00     0.172 C 
BRANCH   3   4
HETATM    4  O7  UNL     1     -32.958   8.247   2.329  1.00 20.00    -0.396 OA
HETATM    5  C3  UNL     1     -31.807   8.605   1.575  1.00 20.00     0.201 C 
ENDBRANCH   3   4
ENDBRANCH   2   3
BRANCH   2   6
HETATM    6  C6  UNL     1     -34.334   5.631   3.834  1.00 20.00     0.084 C 
HETATM    7  C2  UNL     1     -34.632   4.740   5.037  1.00 20.00     0.027 C 
HETATM    8 CL8  UNL     1     -33.150   4.803   2.773  1.00 20.00    -0.125 Cl
ENDBRANCH   2   6
TORSDOF 3
ENDMDL
MODEL 2
REMARK VINA RESULT:      -4.6      1.424      2.105
REMARK  3 active torsions:
REMARK  status: ('A' for Active; 'I' for Inactive)
REMARK    1  A    between atoms: C4_4  and  C5_5 
REMARK    2  A    between atoms: C4_4  and  O7_7 
REMARK    3  A    between atoms: C5_5  and  C6_6 
ROOT
HETATM    1  C1  UNL     1     -33.219   5.193   2.676  1.00 20.00     0.014 C 
HETATM    2  C5  UNL     1     -33.122   6.427   3.548  1.00 20.00     0.023 C 
ENDROOT
BRANCH   2   3
HETATM    3  C4  UNL     1     -33.189   7.700   2.687  1.00 20.00     0.172 C 
BRANCH   3   4
HETATM    4  O7  UNL     1     -31.870   8.112   2.346  1.00 20.00    -0.396 OA
HETATM    5  C3  UNL     1     -31.861   8.894   1.160  1.00 20.00     0.201 C 
ENDBRANCH   3   4
ENDBRANCH   2   3
BRANCH   2   6
HETATM    6  C6  UNL     1     -34.172   6.459   4.685  1.00 20.00     0.084 C 
HETATM    7  C2  UNL     1     -33.746   7.300   5.884  1.00 20.00     0.027 C 
HETATM    8 CL8  UNL     1     -34.626   4.820   5.253  1.00 20.00    -0.125 Cl
ENDBRANCH   2   6
TORSDOF 3
ENDMDL
MODEL 3
REMARK VINA RESULT:      -4.3      1.286      1.413
REMARK  3 active torsions:
REMARK  status: ('A' for Active; 'I' for Inactive)
REMARK    1  A    between atoms: C4_4  and  C5_5 
REMARK    2  A    between atoms: C4_4  and  O7_7 
REMARK    3  A    between atoms: C5_5  and  C6_6 
ROOT
HETATM    1  C1  UNL     1     -33.436   7.494   5.966  1.00 20.00     0.014 C 
HETATM    2  C5  UNL     1     -33.725   7.256   4.499  1.00 20.00     0.023 C 
ENDROOT
BRANCH   2   3
HETATM    3  C4  UNL     1     -32.468   7.529   3.654  1.00 20.00     0.172 C 
BRANCH   3   4
HETATM    4  O7  UNL     1     -32.846   7.748   2.299  1.00 20.00    -0.396 OA
HETATM    5  C3  UNL     1     -32.078   8.787   1.708  1.00 20.00     0.201 C 
ENDBRANCH   3   4
ENDBRANCH   2   3
BRANCH   2   6
HETATM    6  C6  UNL     1     -34.307   5.851   4.207  1.00 20.00     0.084 C 
HETATM    7  C2  UNL     1     -35.648   5.887   3.481  1.00 20.00     0.027 C 
HETATM    8 CL8  UNL     1     -34.469   4.851   5.686  1.00 20.00    -0.125 Cl
ENDBRANCH   2   6
TORSDOF 3
ENDMDL
MODEL 4
REMARK VINA RESULT:      -4.2      2.287      3.919
REMARK  3 active torsions:
REMARK  status: ('A' for Active; 'I' for Inactive)
REMARK    1  A    between atoms: C4_4  and  C5_5 
REMARK    2  A    between atoms: C4_4  and  O7_7 
REMARK    3  A    between atoms: C5_5  and  C6_6 
ROOT
HETATM    1  C1  UNL     1     -33.054   5.197   2.592  1.00 20.00     0.014 C 
HETATM    2  C5  UNL     1     -33.365   6.663   2.810  1.00 20.00     0.023 C 
ENDROOT
BRANCH   2   3
HETATM    3  C4  UNL     1     -33.888   6.894   4.238  1.00 20.00     0.172 C 
BRANCH   3   4
HETATM    4  O7  UNL     1     -34.878   5.917   4.544  1.00 20.00    -0.396 OA
HETATM    5  C3  UNL     1     -34.602   5.267   5.777  1.00 20.00     0.201 C 
ENDBRANCH   3   4
ENDBRANCH   2   3
BRANCH   2   6
HETATM    6  C6  UNL     1     -32.174   7.598   2.487  1.00 20.00     0.084 C 
HETATM    7  C2  UNL     1     -31.574   8.266   3.720  1.00 20.00     0.027 C 
HETATM    8 CL8  UNL     1     -32.593   8.859   1.284  1.00 20.00    -0.125 Cl
ENDBRANCH   2   6
TORSDOF 3
ENDMDL
MODEL 5
REMARK VINA RESULT:      -4.2      2.383      4.010
REMARK  3 active torsions:
REMARK  status: ('A' for Active; 'I' for Inactive)
REMARK    1  A    between atoms: C4_4  and  C5_5 
REMARK    2  A    between atoms: C4_4  and  O7_7 
REMARK    3  A    between atoms: C5_5  and  C6_6 
ROOT
HETATM    1  C1  UNL     1     -32.960   5.093   2.716  1.00 20.00     0.014 C 
HETATM    2  C5  UNL     1     -33.954   6.221   2.891  1.00 20.00     0.023 C 
ENDROOT
BRANCH   2   3
HETATM    3  C4  UNL     1     -35.106   5.783   3.812  1.00 20.00     0.172 C 
BRANCH   3   4
HETATM    4  O7  UNL     1     -34.745   4.581   4.484  1.00 20.00    -0.396 OA
HETATM    5  C3  UNL     1     -34.615   4.788   5.884  1.00 20.00     0.201 C 
ENDBRANCH   3   4
ENDBRANCH   2   3
BRANCH   2   6
HETATM    6  C6  UNL     1     -33.307   7.539   3.385  1.00 20.00     0.084 C 
HETATM    7  C2  UNL     1     -31.966   7.842   2.726  1.00 20.00     0.027 C 
HETATM    8 CL8  UNL     1     -33.107   7.584   5.166  1.00 20.00    -0.125 Cl
ENDBRANCH   2   6
TORSDOF 3
ENDMDL
MODEL 6
REMARK VINA RESULT:      -4.0      2.473      3.583
REMARK  3 active torsions:
REMARK  status: ('A' for Active; 'I' for Inactive)
REMARK    1  A    between atoms: C4_4  and  C5_5 
REMARK    2  A    between atoms: C4_4  and  O7_7 
REMARK    3  A    between atoms: C5_5  and  C6_6 
ROOT
HETATM    1  C1  UNL     1     -33.660   7.538   5.991  1.00 20.00     0.014 C 
HETATM    2  C5  UNL     1     -33.573   6.684   4.744  1.00 20.00     0.023 C 
ENDROOT
BRANCH   2   3
HETATM    3  C4  UNL     1     -34.898   5.937   4.512  1.00 20.00     0.172 C 
BRANCH   3   4
HETATM    4  O7  UNL     1     -34.811   4.631   5.071  1.00 20.00    -0.396 OA
HETATM    5  C3  UNL     1     -34.003   3.778   4.271  1.00 20.00     0.201 C 
ENDBRANCH   3   4
ENDBRANCH   2   3
BRANCH   2   6
HETATM    6  C6  UNL     1     -33.144   7.477   3.485  1.00 20.00     0.084 C 
HETATM    7  C2  UNL     1     -33.164   6.646   2.206  1.00 20.00     0.027 C 
HETATM    8 CL8  UNL     1     -31.531   8.237   3.665  1.00 20.00    -0.125 Cl
ENDBRANCH   2   6
TORSDOF 3
ENDMDL
MODEL 7
REMARK VINA RESULT:      -4.0      1.822      2.264
REMARK  3 active torsions:
REMARK  status: ('A' for Active; 'I' for Inactive)
REMARK    1  A    between atoms: C4_4  and  C5_5 
REMARK    2  A    between atoms: C4_4  and  O7_7 
REMARK    3  A    between atoms: C5_5  and  C6_6 
ROOT
HETATM    1  C1  UNL     1     -32.929   5.016   2.409  1.00 20.00     0.014 C 
HETATM    2  C5  UNL     1     -32.935   6.192   3.364  1.00 20.00     0.023 C 
ENDROOT
BRANCH   2   3
HETATM    3  C4  UNL     1     -33.157   7.505   2.594  1.00 20.00     0.172 C 
BRANCH   3   4
HETATM    4  O7  UNL     1     -31.899   8.046   2.205  1.00 20.00    -0.396 OA
HETATM    5  C3  UNL     1     -32.049   9.036   1.197  1.00 20.00     0.201 C 
ENDBRANCH   3   4
ENDBRANCH   2   3
BRANCH   2   6
HETATM    6  C6  UNL     1     -33.950   6.038   4.522  1.00 20.00     0.084 C 
HETATM    7  C2  UNL     1     -35.394   5.893   4.051  1.00 20.00     0.027 C 
HETATM    8 CL8  UNL     1     -33.854   7.379   5.708  1.00 20.00    -0.125 Cl
ENDBRANCH   2   6
TORSDOF 3
ENDMDL
MODEL 8
REMARK VINA RESULT:      -3.9      1.362      2.073
REMARK  3 active torsions:
REMARK  status: ('A' for Active; 'I' for Inactive)
REMARK    1  A    between atoms: C4_4  and  C5_5 
REMARK    2  A    between atoms: C4_4  and  O7_7 
REMARK    3  A    between atoms: C5_5  and  C6_6 
ROOT
HETATM    1  C1  UNL     1     -31.441   8.167   3.716  1.00 20.00     0.014 C 
HETATM    2  C5  UNL     1     -32.761   8.117   2.977  1.00 20.00     0.023 C 
ENDROOT
BRANCH   2   3
HETATM    3  C4  UNL     1     -32.523   8.022   1.459  1.00 20.00     0.172 C 
BRANCH   3   4
HETATM    4  O7  UNL     1     -31.779   9.156   1.025  1.00 20.00    -0.396 OA
HETATM    5  C3  UNL     1     -32.620  10.284   0.830  1.00 20.00     0.201 C 
ENDBRANCH   3   4
ENDBRANCH   2   3
BRANCH   2   6
HETATM    6  C6  UNL     1     -33.700   6.989   3.472  1.00 20.00     0.084 C 
HETATM    7  C2  UNL     1     -33.818   6.920   4.991  1.00 20.00     0.027 C 
HETATM    8 CL8  UNL     1     -33.229   5.376   2.848  1.00 20.00    -0.125 Cl
ENDBRANCH   2   6
TORSDOF 3
ENDMDL
MODEL 9
REMARK VINA RESULT:      -3.6      2.364      4.357
REMARK  3 active torsions:
REMARK  status: ('A' for Active; 'I' for Inactive)
REMARK    1  A    between atoms: C4_4  and  C5_5 
REMARK    2  A    between atoms: C4_4  and  O7_7 
REMARK    3  A    between atoms: C5_5  and  C6_6 
ROOT
HETATM    1  C1  UNL     1     -31.360   8.505   3.237  1.00 20.00     0.014 C 
HETATM    2  C5  UNL     1     -32.063   8.187   1.934  1.00 20.00     0.023 C 
ENDROOT
BRANCH   2   3
HETATM    3  C4  UNL     1     -33.455   7.592   2.207  1.00 20.00     0.172 C 
BRANCH   3   4
HETATM    4  O7  UNL     1     -33.578   7.289   3.593  1.00 20.00    -0.396 OA
HETATM    5  C3  UNL     1     -34.343   6.110   3.800  1.00 20.00     0.201 C 
ENDBRANCH   3   4
ENDBRANCH   2   3
BRANCH   2   6
HETATM    6  C6  UNL     1     -32.144   9.395   0.970  1.00 20.00     0.084 C 
HETATM    7  C2  UNL     1     -32.769  10.636   1.600  1.00 20.00     0.027 C 
HETATM    8 CL8  UNL     1     -33.016   9.009  -0.549  1.00 20.00    -0.125 Cl
ENDBRANCH   2   6
TORSDOF 3
ENDMDL
