MODEL 1
REMARK VINA RESULT:      -4.9      0.000      0.000
REMARK  1 active torsions:
REMARK  status: ('A' for Active; 'I' for Inactive)
REMARK    1  A    between atoms: C1_1  and  C7_7 
ROOT
HETATM    1  C2  UNL     1     -32.999   5.688   2.199  1.00 20.00     0.002 C 
HETATM    2  C3  UNL     1     -31.858   6.646   2.536  1.00 20.00     0.012 C 
HETATM    3  C4  UNL     1     -33.572   8.160   3.792  1.00 20.00     0.013 C 
HETATM    4  C5  UNL     1     -33.535   4.949   3.427  1.00 20.00     0.008 C 
HETATM    5  C6  UNL     1     -33.761   7.084   4.863  1.00 20.00     0.009 C 
HETATM    6  C7  UNL     1     -32.283   8.046   2.978  1.00 20.00     0.055 C 
HETATM    7  C8  UNL     1     -34.419   5.759   4.402  1.00 20.00    -0.048 C 
HETATM    8  C10 UNL     1     -34.639   4.888   5.662  1.00 20.00     0.015 C 
HETATM    9  C11 UNL     1     -35.807   6.008   3.776  1.00 20.00     0.015 C 
ENDROOT
BRANCH   6  10
HETATM   10  C1  UNL     1     -32.416   8.931   1.771  1.00 20.00     0.127 C 
HETATM   11  C9  UNL     1     -31.443   8.694   0.648  1.00 20.00     0.091 C 
HETATM   12  O12 UNL     1     -33.279   9.804   1.703  1.00 20.00    -0.298 OA
ENDBRANCH   6  10
TORSDOF 1
ENDMDL
MODEL 2
REMARK VINA RESULT:      -4.6     11.065     12.003
REMARK  1 active torsions:
REMARK  status: ('A' for Active; 'I' for Inactive)
REMARK    1  A    between atoms: C1_1  and  C7_7 
ROOT
HETATM    1  C2  UNL     1     -36.304  15.518  -4.373  1.00 20.00     0.002 C 
HETATM    2  C3  UNL     1     -35.531  14.207  -4.504  1.00 20.00     0.012 C 
HETATM    3  C4  UNL     1     -33.327  15.589  -4.700  1.00 20.00     0.013 C 
HETATM    4  C5  UNL     1     -36.030  16.238  -3.052  1.00 20.00     0.008 C 
HETATM    5  C6  UNL     1     -33.462  16.039  -3.244  1.00 20.00     0.009 C 
HETATM    6  C7  UNL     1     -34.115  14.331  -5.066  1.00 20.00     0.055 C 
HETATM    7  C8  UNL     1     -34.667  16.955  -2.914  1.00 20.00    -0.048 C 
HETATM    8  C10 UNL     1     -34.522  17.397  -1.438  1.00 20.00     0.015 C 
HETATM    9  C11 UNL     1     -34.653  18.236  -3.773  1.00 20.00     0.015 C 
ENDROOT
BRANCH   6  10
HETATM   10  C1  UNL     1     -34.163  14.232  -6.564  1.00 20.00     0.127 C 
HETATM   11  C9  UNL     1     -33.929  15.504  -7.334  1.00 20.00     0.091 C 
HETATM   12  O12 UNL     1     -34.379  13.164  -7.135  1.00 20.00    -0.298 OA
ENDBRANCH   6  10
TORSDOF 1
ENDMDL
MODEL 3
REMARK VINA RESULT:      -4.5     10.757     12.680
REMARK  1 active torsions:
REMARK  status: ('A' for Active; 'I' for Inactive)
REMARK    1  A    between atoms: C1_1  and  C7_7 
ROOT
HETATM    1  C2  UNL     1     -34.787  15.330  -3.481  1.00 20.00     0.002 C 
HETATM    2  C3  UNL     1     -33.985  14.336  -4.319  1.00 20.00     0.012 C 
HETATM    3  C4  UNL     1     -34.476  15.796  -6.425  1.00 20.00     0.013 C 
HETATM    4  C5  UNL     1     -34.091  16.685  -3.341  1.00 20.00     0.008 C 
HETATM    5  C6  UNL     1     -33.603  16.922  -5.867  1.00 20.00     0.009 C 
HETATM    6  C7  UNL     1     -34.212  14.413  -5.829  1.00 20.00     0.055 C 
HETATM    7  C8  UNL     1     -34.111  17.614  -4.576  1.00 20.00    -0.048 C 
HETATM    8  C10 UNL     1     -33.159  18.798  -4.281  1.00 20.00     0.015 C 
HETATM    9  C11 UNL     1     -35.522  18.205  -4.773  1.00 20.00     0.015 C 
ENDROOT
BRANCH   6  10
HETATM   10  C1  UNL     1     -35.356  13.517  -6.208  1.00 20.00     0.127 C 
HETATM   11  C9  UNL     1     -35.864  13.629  -7.620  1.00 20.00     0.091 C 
HETATM   12  O12 UNL     1     -35.852  12.729  -5.405  1.00 20.00    -0.298 OA
ENDBRANCH   6  10
TORSDOF 1
ENDMDL
MODEL 4
REMARK VINA RESULT:      -4.5     11.040     12.130
REMARK  1 active torsions:
REMARK  status: ('A' for Active; 'I' for Inactive)
REMARK    1  A    between atoms: C1_1  and  C7_7 
ROOT
HETATM    1  C2  UNL     1     -33.508  15.998  -6.202  1.00 20.00     0.002 C 
HETATM    2  C3  UNL     1     -32.918  15.494  -4.887  1.00 20.00     0.012 C 
HETATM    3  C4  UNL     1     -35.320  14.812  -4.132  1.00 20.00     0.013 C 
HETATM    4  C5  UNL     1     -34.025  14.867  -7.093  1.00 20.00     0.008 C 
HETATM    5  C6  UNL     1     -35.364  13.721  -5.204  1.00 20.00     0.009 C 
HETATM    6  C7  UNL     1     -33.920  15.292  -3.750  1.00 20.00     0.055 C 
HETATM    7  C8  UNL     1     -35.357  14.201  -6.678  1.00 20.00    -0.048 C 
HETATM    8  C10 UNL     1     -35.551  12.952  -7.572  1.00 20.00     0.015 C 
HETATM    9  C11 UNL     1     -36.538  15.152  -6.966  1.00 20.00     0.015 C 
ENDROOT
BRANCH   6  10
HETATM   10  C1  UNL     1     -34.061  16.571  -2.976  1.00 20.00     0.127 C 
HETATM   11  C9  UNL     1     -35.188  16.639  -1.981  1.00 20.00     0.091 C 
HETATM   12  O12 UNL     1     -33.292  17.516  -3.145  1.00 20.00    -0.298 OA
ENDBRANCH   6  10
TORSDOF 1
ENDMDL
MODEL 5
REMARK VINA RESULT:      -4.5     10.888     12.450
REMARK  1 active torsions:
REMARK  status: ('A' for Active; 'I' for Inactive)
REMARK    1  A    between atoms: C1_1  and  C7_7 
ROOT
HETATM    1  C2  UNL     1     -36.339  16.905  -4.616  1.00 20.00     0.002 C 
HETATM    2  C3  UNL     1     -36.430  15.561  -3.896  1.00 20.00     0.012 C 
HETATM    3  C4  UNL     1     -33.826  15.407  -3.971  1.00 20.00     0.013 C 
HETATM    4  C5  UNL     1     -35.734  18.006  -3.743  1.00 20.00     0.008 C 
HETATM    5  C6  UNL     1     -33.713  16.580  -2.996  1.00 20.00     0.009 C 
HETATM    6  C7  UNL     1     -35.176  14.689  -3.970  1.00 20.00     0.055 C 
HETATM    7  C8  UNL     1     -34.206  17.956  -3.511  1.00 20.00    -0.048 C 
HETATM    8  C10 UNL     1     -33.866  19.006  -2.426  1.00 20.00     0.015 C 
HETATM    9  C11 UNL     1     -33.461  18.375  -4.796  1.00 20.00     0.015 C 
ENDROOT
BRANCH   6  10
HETATM   10  C1  UNL     1     -35.243  13.823  -5.195  1.00 20.00     0.127 C 
HETATM   11  C9  UNL     1     -34.431  14.266  -6.383  1.00 20.00     0.091 C 
HETATM   12  O12 UNL     1     -35.924  12.799  -5.226  1.00 20.00    -0.298 OA
ENDBRANCH   6  10
TORSDOF 1
ENDMDL
MODEL 6
REMARK VINA RESULT:      -4.5     11.282     12.531
REMARK  1 active torsions:
REMARK  status: ('A' for Active; 'I' for Inactive)
REMARK    1  A    between atoms: C1_1  and  C7_7 
ROOT
HETATM    1  C2  UNL     1     -33.509  16.075  -5.675  1.00 20.00     0.002 C 
HETATM    2  C3  UNL     1     -34.727  15.787  -6.550  1.00 20.00     0.012 C 
HETATM    3  C4  UNL     1     -36.107  15.330  -4.384  1.00 20.00     0.013 C 
HETATM    4  C5  UNL     1     -33.648  17.369  -4.872  1.00 20.00     0.008 C 
HETATM    5  C6  UNL     1     -36.010  16.806  -3.992  1.00 20.00     0.009 C 
HETATM    6  C7  UNL     1     -35.867  15.034  -5.864  1.00 20.00     0.055 C 
HETATM    7  C8  UNL     1     -34.595  17.338  -3.651  1.00 20.00    -0.048 C 
HETATM    8  C10 UNL     1     -34.756  18.794  -3.151  1.00 20.00     0.015 C 
HETATM    9  C11 UNL     1     -33.954  16.533  -2.502  1.00 20.00     0.015 C 
ENDROOT
BRANCH   6  10
HETATM   10  C1  UNL     1     -35.649  13.555  -6.013  1.00 20.00     0.127 C 
HETATM   11  C9  UNL     1     -35.078  13.084  -7.323  1.00 20.00     0.091 C 
HETATM   12  O12 UNL     1     -35.919  12.768  -5.107  1.00 20.00    -0.298 OA
ENDBRANCH   6  10
TORSDOF 1
ENDMDL
MODEL 7
REMARK VINA RESULT:      -4.4     10.744     12.075
REMARK  1 active torsions:
REMARK  status: ('A' for Active; 'I' for Inactive)
REMARK    1  A    between atoms: C1_1  and  C7_7 
ROOT
HETATM    1  C2  UNL     1     -35.572  16.790  -5.303  1.00 20.00     0.002 C 
HETATM    2  C3  UNL     1     -34.236  17.269  -4.738  1.00 20.00     0.012 C 
HETATM    3  C4  UNL     1     -33.862  14.884  -3.749  1.00 20.00     0.013 C 
HETATM    4  C5  UNL     1     -35.407  15.782  -6.441  1.00 20.00     0.008 C 
HETATM    5  C6  UNL     1     -33.721  14.305  -5.158  1.00 20.00     0.009 C 
HETATM    6  C7  UNL     1     -33.633  16.392  -3.640  1.00 20.00     0.055 C 
HETATM    7  C8  UNL     1     -34.987  14.346  -6.051  1.00 20.00    -0.048 C 
HETATM    8  C10 UNL     1     -34.656  13.588  -7.358  1.00 20.00     0.015 C 
HETATM    9  C11 UNL     1     -36.168  13.610  -5.386  1.00 20.00     0.015 C 
ENDROOT
BRANCH   6  10
HETATM   10  C1  UNL     1     -34.145  16.844  -2.302  1.00 20.00     0.127 C 
HETATM   11  C9  UNL     1     -33.250  17.756  -1.508  1.00 20.00     0.091 C 
HETATM   12  O12 UNL     1     -35.244  16.489  -1.878  1.00 20.00    -0.298 OA
ENDBRANCH   6  10
TORSDOF 1
ENDMDL
MODEL 8
REMARK VINA RESULT:      -4.3      2.161      4.510
REMARK  1 active torsions:
REMARK  status: ('A' for Active; 'I' for Inactive)
REMARK    1  A    between atoms: C1_1  and  C7_7 
ROOT
HETATM    1  C2  UNL     1     -32.715   5.721   2.193  1.00 20.00     0.002 C 
HETATM    2  C3  UNL     1     -34.207   5.502   2.436  1.00 20.00     0.012 C 
HETATM    3  C4  UNL     1     -34.074   7.182   4.428  1.00 20.00     0.013 C 
HETATM    4  C5  UNL     1     -32.399   7.121   1.664  1.00 20.00     0.008 C 
HETATM    5  C6  UNL     1     -33.807   8.334   3.458  1.00 20.00     0.009 C 
HETATM    6  C7  UNL     1     -34.723   5.946   3.805  1.00 20.00     0.055 C 
HETATM    7  C8  UNL     1     -32.469   8.286   2.679  1.00 20.00    -0.048 C 
HETATM    8  C10 UNL     1     -32.350   9.605   1.879  1.00 20.00     0.015 C 
HETATM    9  C11 UNL     1     -31.261   8.226   3.637  1.00 20.00     0.015 C 
ENDROOT
BRANCH   6  10
HETATM   10  C1  UNL     1     -34.592   4.810   4.779  1.00 20.00     0.127 C 
HETATM   11  C9  UNL     1     -34.647   5.163   6.241  1.00 20.00     0.091 C 
HETATM   12  O12 UNL     1     -34.449   3.649   4.402  1.00 20.00    -0.298 OA
ENDBRANCH   6  10
TORSDOF 1
ENDMDL
MODEL 9
REMARK VINA RESULT:      -4.3     10.905     12.324
REMARK  1 active torsions:
REMARK  status: ('A' for Active; 'I' for Inactive)
REMARK    1  A    between atoms: C1_1  and  C7_7 
ROOT
HETATM    1  C2  UNL     1     -34.641  14.827  -3.861  1.00 20.00     0.002 C 
HETATM    2  C3  UNL     1     -35.367  15.131  -5.170  1.00 20.00     0.012 C 
HETATM    3  C4  UNL     1     -36.746  16.958  -3.918  1.00 20.00     0.013 C 
HETATM    4  C5  UNL     1     -33.712  15.961  -3.421  1.00 20.00     0.008 C 
HETATM    5  C6  UNL     1     -35.488  17.810  -3.743  1.00 20.00     0.009 C 
HETATM    6  C7  UNL     1     -36.673  15.913  -5.032  1.00 20.00     0.055 C 
HETATM    7  C8  UNL     1     -34.380  17.225  -2.831  1.00 20.00    -0.048 C 
HETATM    8  C10 UNL     1     -33.282  18.305  -2.685  1.00 20.00     0.015 C 
HETATM    9  C11 UNL     1     -34.915  16.929  -1.414  1.00 20.00     0.015 C 
ENDROOT
BRANCH   6  10
HETATM   10  C1  UNL     1     -37.812  14.952  -4.843  1.00 20.00     0.127 C 
HETATM   11  C9  UNL     1     -39.135  15.542  -4.435  1.00 20.00     0.091 C 
HETATM   12  O12 UNL     1     -37.672  13.743  -5.017  1.00 20.00    -0.298 OA
ENDBRANCH   6  10
TORSDOF 1
ENDMDL
