MODEL 1
REMARK VINA RESULT:      -6.4      0.000      0.000
REMARK  1 active torsions:
REMARK  status: ('A' for Active; 'I' for Inactive)
REMARK    1  A    between atoms: C6_6  and  C10_10 
ROOT
HETATM    1  C1  UNL     1     -33.318   7.845   5.113  1.00 20.00     0.001 C 
HETATM    2  C2  UNL     1     -32.222   7.999   4.060  1.00 20.00     0.005 C 
HETATM    3  C3  UNL     1     -32.946   6.407   2.152  1.00 20.00     0.006 C 
HETATM    4  C4  UNL     1     -33.718   6.409   5.430  1.00 20.00     0.008 C 
HETATM    5  C5  UNL     1     -33.198   5.311   3.188  1.00 20.00     0.009 C 
HETATM    6  C6  UNL     1     -32.749   7.854   2.628  1.00 20.00    -0.005 C 
HETATM    7  C7  UNL     1     -34.273   5.544   4.274  1.00 20.00    -0.048 C 
HETATM    8  C8  UNL     1     -34.620   4.161   4.881  1.00 20.00     0.015 C 
HETATM    9  C9  UNL     1     -35.571   6.128   3.697  1.00 20.00     0.015 C 
ENDROOT
BRANCH   6  10
HETATM   10  C10 UNL     1     -31.821   8.586   1.648  1.00 20.00     0.089 C 
HETATM   11 BR11 UNL     1     -32.708  10.181   1.003  1.00 20.00    -0.096 Br
ENDBRANCH   6  10
TORSDOF 1
ENDMDL
MODEL 2
REMARK VINA RESULT:      -4.5     11.220     12.207
REMARK  1 active torsions:
REMARK  status: ('A' for Active; 'I' for Inactive)
REMARK    1  A    between atoms: C6_6  and  C10_10 
ROOT
HETATM    1  C1  UNL     1     -33.228  14.882  -4.527  1.00 20.00     0.001 C 
HETATM    2  C2  UNL     1     -33.605  16.100  -3.686  1.00 20.00     0.005 C 
HETATM    3  C3  UNL     1     -36.189  16.181  -3.807  1.00 20.00     0.006 C 
HETATM    4  C4  UNL     1     -33.932  14.779  -5.875  1.00 20.00     0.008 C 
HETATM    5  C5  UNL     1     -36.106  15.991  -5.322  1.00 20.00     0.009 C 
HETATM    6  C6  UNL     1     -34.939  15.927  -2.952  1.00 20.00    -0.005 C 
HETATM    7  C7  UNL     1     -35.476  14.694  -5.877  1.00 20.00    -0.048 C 
HETATM    8  C8  UNL     1     -35.912  14.569  -7.359  1.00 20.00     0.015 C 
HETATM    9  C9  UNL     1     -35.979  13.439  -5.147  1.00 20.00     0.015 C 
ENDROOT
BRANCH   6  10
HETATM   10  C10 UNL     1     -34.981  16.834  -1.714  1.00 20.00     0.089 C 
HETATM   11 BR11 UNL     1     -33.289  17.759  -1.544  1.00 20.00    -0.096 Br
ENDBRANCH   6  10
TORSDOF 1
ENDMDL
MODEL 3
REMARK VINA RESULT:      -4.4     11.008     11.884
REMARK  1 active torsions:
REMARK  status: ('A' for Active; 'I' for Inactive)
REMARK    1  A    between atoms: C6_6  and  C10_10 
ROOT
HETATM    1  C1  UNL     1     -36.685  16.519  -3.456  1.00 20.00     0.001 C 
HETATM    2  C2  UNL     1     -35.583  16.569  -2.399  1.00 20.00     0.005 C 
HETATM    3  C3  UNL     1     -33.512  15.575  -3.591  1.00 20.00     0.006 C 
HETATM    4  C4  UNL     1     -36.801  15.200  -4.212  1.00 20.00     0.008 C 
HETATM    5  C5  UNL     1     -34.377  14.416  -4.088  1.00 20.00     0.009 C 
HETATM    6  C6  UNL     1     -34.195  16.817  -2.998  1.00 20.00    -0.005 C 
HETATM    7  C7  UNL     1     -35.571  14.723  -5.020  1.00 20.00    -0.048 C 
HETATM    8  C8  UNL     1     -35.976  13.391  -5.701  1.00 20.00     0.015 C 
HETATM    9  C9  UNL     1     -35.203  15.712  -6.136  1.00 20.00     0.015 C 
ENDROOT
BRANCH   6  10
HETATM   10  C10 UNL     1     -33.271  17.446  -1.946  1.00 20.00     0.089 C 
HETATM   11 BR11 UNL     1     -34.320  17.954  -0.400  1.00 20.00    -0.096 Br
ENDBRANCH   6  10
TORSDOF 1
ENDMDL
MODEL 4
REMARK VINA RESULT:      -4.3     10.827     12.267
REMARK  1 active torsions:
REMARK  status: ('A' for Active; 'I' for Inactive)
REMARK    1  A    between atoms: C6_6  and  C10_10 
ROOT
HETATM    1  C1  UNL     1     -33.611  16.879  -5.243  1.00 20.00     0.001 C 
HETATM    2  C2  UNL     1     -33.646  17.843  -4.058  1.00 20.00     0.005 C 
HETATM    3  C3  UNL     1     -34.851  16.513  -2.193  1.00 20.00     0.006 C 
HETATM    4  C4  UNL     1     -34.925  16.167  -5.543  1.00 20.00     0.008 C 
HETATM    5  C5  UNL     1     -35.931  16.116  -3.200  1.00 20.00     0.009 C 
HETATM    6  C6  UNL     1     -33.541  17.128  -2.707  1.00 20.00    -0.005 C 
HETATM    7  C7  UNL     1     -35.530  15.276  -4.433  1.00 20.00    -0.048 C 
HETATM    8  C8  UNL     1     -36.829  14.662  -5.014  1.00 20.00     0.015 C 
HETATM    9  C9  UNL     1     -34.599  14.109  -4.068  1.00 20.00     0.015 C 
ENDROOT
BRANCH   6  10
HETATM   10  C10 UNL     1     -32.983  18.087  -1.646  1.00 20.00     0.089 C 
HETATM   11 BR11 UNL     1     -34.195  18.142  -0.137  1.00 20.00    -0.096 Br
ENDBRANCH   6  10
TORSDOF 1
ENDMDL
MODEL 5
REMARK VINA RESULT:      -4.3     11.111     12.454
REMARK  1 active torsions:
REMARK  status: ('A' for Active; 'I' for Inactive)
REMARK    1  A    between atoms: C6_6  and  C10_10 
ROOT
HETATM    1  C1  UNL     1     -36.270  17.393  -4.578  1.00 20.00     0.001 C 
HETATM    2  C2  UNL     1     -35.973  16.151  -5.417  1.00 20.00     0.005 C 
HETATM    3  C3  UNL     1     -34.511  14.675  -3.873  1.00 20.00     0.006 C 
HETATM    4  C4  UNL     1     -35.068  17.997  -3.861  1.00 20.00     0.008 C 
HETATM    5  C5  UNL     1     -33.653  15.898  -3.548  1.00 20.00     0.009 C 
HETATM    6  C6  UNL     1     -35.863  14.877  -4.575  1.00 20.00    -0.005 C 
HETATM    7  C7  UNL     1     -34.313  17.107  -2.846  1.00 20.00    -0.048 C 
HETATM    8  C8  UNL     1     -33.172  17.975  -2.256  1.00 20.00     0.015 C 
HETATM    9  C9  UNL     1     -35.215  16.684  -1.677  1.00 20.00     0.015 C 
ENDROOT
BRANCH   6  10
HETATM   10  C10 UNL     1     -36.171  13.646  -5.439  1.00 20.00     0.089 C 
HETATM   11 BR11 UNL     1     -34.971  13.616  -6.957  1.00 20.00    -0.096 Br
ENDBRANCH   6  10
TORSDOF 1
ENDMDL
MODEL 6
REMARK VINA RESULT:      -4.2     11.399     12.486
REMARK  1 active torsions:
REMARK  status: ('A' for Active; 'I' for Inactive)
REMARK    1  A    between atoms: C6_6  and  C10_10 
ROOT
HETATM    1  C1  UNL     1     -36.131  16.468  -5.150  1.00 20.00     0.001 C 
HETATM    2  C2  UNL     1     -35.607  16.328  -3.722  1.00 20.00     0.005 C 
HETATM    3  C3  UNL     1     -33.251  15.295  -4.009  1.00 20.00     0.006 C 
HETATM    4  C4  UNL     1     -35.940  15.243  -6.036  1.00 20.00     0.008 C 
HETATM    5  C5  UNL     1     -33.842  14.262  -4.970  1.00 20.00     0.009 C 
HETATM    6  C6  UNL     1     -34.090  16.523  -3.624  1.00 20.00    -0.005 C 
HETATM    7  C7  UNL     1     -34.494  14.752  -6.282  1.00 20.00    -0.048 C 
HETATM    8  C8  UNL     1     -34.596  13.529  -7.229  1.00 20.00     0.015 C 
HETATM    9  C9  UNL     1     -33.644  15.813  -6.998  1.00 20.00     0.015 C 
ENDROOT
BRANCH   6  10
HETATM   10  C10 UNL     1     -33.706  16.972  -2.207  1.00 20.00     0.089 C 
HETATM   11 BR11 UNL     1     -35.311  17.143  -1.137  1.00 20.00    -0.096 Br
ENDBRANCH   6  10
TORSDOF 1
ENDMDL
MODEL 7
REMARK VINA RESULT:      -4.1     11.343     12.350
REMARK  1 active torsions:
REMARK  status: ('A' for Active; 'I' for Inactive)
REMARK    1  A    between atoms: C6_6  and  C10_10 
ROOT
HETATM    1  C1  UNL     1     -33.910  14.560  -4.859  1.00 20.00     0.001 C 
HETATM    2  C2  UNL     1     -35.319  13.999  -4.673  1.00 20.00     0.005 C 
HETATM    3  C3  UNL     1     -36.681  15.996  -3.750  1.00 20.00     0.006 C 
HETATM    4  C4  UNL     1     -33.373  15.371  -3.685  1.00 20.00     0.008 C 
HETATM    5  C5  UNL     1     -35.565  16.267  -2.740  1.00 20.00     0.009 C 
HETATM    6  C6  UNL     1     -36.412  15.043  -4.924  1.00 20.00    -0.005 C 
HETATM    7  C7  UNL     1     -34.159  16.634  -3.264  1.00 20.00    -0.048 C 
HETATM    8  C8  UNL     1     -33.380  17.269  -2.083  1.00 20.00     0.015 C 
HETATM    9  C9  UNL     1     -34.208  17.678  -4.391  1.00 20.00     0.015 C 
ENDROOT
BRANCH   6  10
HETATM   10  C10 UNL     1     -37.723  14.348  -5.321  1.00 20.00     0.089 C 
HETATM   11 BR11 UNL     1     -39.215  15.489  -4.853  1.00 20.00    -0.096 Br
ENDBRANCH   6  10
TORSDOF 1
ENDMDL
MODEL 8
REMARK VINA RESULT:      -4.0      2.529      4.563
REMARK  1 active torsions:
REMARK  status: ('A' for Active; 'I' for Inactive)
REMARK    1  A    between atoms: C6_6  and  C10_10 
ROOT
HETATM    1  C1  UNL     1     -34.040   6.511   2.072  1.00 20.00     0.001 C 
HETATM    2  C2  UNL     1     -33.709   6.121   3.512  1.00 20.00     0.005 C 
HETATM    3  C3  UNL     1     -32.413   8.161   4.440  1.00 20.00     0.006 C 
HETATM    4  C4  UNL     1     -32.884   7.105   1.277  1.00 20.00     0.008 C 
HETATM    5  C5  UNL     1     -31.553   8.166   3.176  1.00 20.00     0.009 C 
HETATM    6  C6  UNL     1     -33.699   7.321   4.465  1.00 20.00    -0.005 C 
HETATM    7  C7  UNL     1     -32.236   8.404   1.810  1.00 20.00    -0.048 C 
HETATM    8  C8  UNL     1     -31.124   8.792   0.803  1.00 20.00     0.015 C 
HETATM    9  C9  UNL     1     -33.239   9.567   1.852  1.00 20.00     0.015 C 
ENDROOT
BRANCH   6  10
HETATM   10  C10 UNL     1     -33.969   6.854   5.903  1.00 20.00     0.089 C 
HETATM   11 BR11 UNL     1     -34.611   5.028   5.869  1.00 20.00    -0.096 Br
ENDBRANCH   6  10
TORSDOF 1
ENDMDL
MODEL 9
REMARK VINA RESULT:      -3.9     11.509     12.709
REMARK  1 active torsions:
REMARK  status: ('A' for Active; 'I' for Inactive)
REMARK    1  A    between atoms: C6_6  and  C10_10 
ROOT
HETATM    1  C1  UNL     1     -35.680  18.641  -3.863  1.00 20.00     0.001 C 
HETATM    2  C2  UNL     1     -35.565  17.571  -4.948  1.00 20.00     0.005 C 
HETATM    3  C3  UNL     1     -34.716  15.476  -3.688  1.00 20.00     0.006 C 
HETATM    4  C4  UNL     1     -34.483  18.748  -2.926  1.00 20.00     0.008 C 
HETATM    5  C5  UNL     1     -33.652  16.339  -3.009  1.00 20.00     0.009 C 
HETATM    6  C6  UNL     1     -35.872  16.163  -4.430  1.00 20.00    -0.005 C 
HETATM    7  C7  UNL     1     -34.105  17.500  -2.095  1.00 20.00    -0.048 C 
HETATM    8  C8  UNL     1     -32.887  17.899  -1.222  1.00 20.00     0.015 C 
HETATM    9  C9  UNL     1     -35.234  17.086  -1.140  1.00 20.00     0.015 C 
ENDROOT
BRANCH   6  10
HETATM   10  C10 UNL     1     -36.334  15.265  -5.587  1.00 20.00     0.089 C 
HETATM   11 BR11 UNL     1     -38.070  14.522  -5.162  1.00 20.00    -0.096 Br
ENDBRANCH   6  10
TORSDOF 1
ENDMDL
