MODEL 1
REMARK VINA RESULT:      -5.0      0.000      0.000
REMARK  1 active torsions:
REMARK  status: ('A' for Active; 'I' for Inactive)
REMARK    1  A    between atoms: C4_4  and  C9_9 
ROOT
HETATM    1  C1  UNL     1     -32.872   7.884   4.736  1.00 20.00     0.032 C 
HETATM    2  C2  UNL     1     -33.333   5.997   3.158  1.00 20.00     0.043 C 
HETATM    3  C3  UNL     1     -33.892   7.266   5.682  1.00 20.00     0.169 C 
HETATM    4  C4  UNL     1     -33.186   7.518   3.283  1.00 20.00     0.008 C 
HETATM    5  C5  UNL     1     -34.313   5.410   4.192  1.00 20.00     0.054 C 
HETATM    6  C6  UNL     1     -34.169   3.882   4.211  1.00 20.00     0.045 C 
HETATM    7  C7  UNL     1     -35.774   5.751   3.866  1.00 20.00     0.045 C 
HETATM    8  O10 UNL     1     -33.970   5.853   5.514  1.00 20.00    -0.381 OA
ENDROOT
BRANCH   4   9
HETATM    9  C9  UNL     1     -32.106   8.045   2.342  1.00 20.00     0.082 C 
HETATM   10  C8  UNL     1     -30.874   8.497   3.107  1.00 20.00     0.027 C 
HETATM   11 CL11 UNL     1     -32.760   9.408   1.392  1.00 20.00    -0.125 Cl
ENDBRANCH   4   9
TORSDOF 1
ENDMDL
MODEL 2
REMARK VINA RESULT:      -4.5      2.601      4.490
REMARK  1 active torsions:
REMARK  status: ('A' for Active; 'I' for Inactive)
REMARK    1  A    between atoms: C4_4  and  C9_9 
ROOT
HETATM    1  C1  UNL     1     -32.298   7.520   4.051  1.00 20.00     0.032 C 
HETATM    2  C2  UNL     1     -33.427   8.026   1.876  1.00 20.00     0.043 C 
HETATM    3  C3  UNL     1     -31.238   8.545   3.674  1.00 20.00     0.169 C 
HETATM    4  C4  UNL     1     -32.931   6.907   2.800  1.00 20.00     0.008 C 
HETATM    5  C5  UNL     1     -32.342   9.082   1.592  1.00 20.00     0.054 C 
HETATM    6  C6  UNL     1     -32.992  10.306   0.933  1.00 20.00     0.045 C 
HETATM    7  C7  UNL     1     -31.249   8.554   0.651  1.00 20.00     0.045 C 
HETATM    8  O10 UNL     1     -31.770   9.555   2.821  1.00 20.00    -0.381 OA
ENDROOT
BRANCH   4   9
HETATM    9  C9  UNL     1     -34.068   5.958   3.173  1.00 20.00     0.082 C 
HETATM   10  C8  UNL     1     -34.587   6.235   4.574  1.00 20.00     0.027 C 
HETATM   11 CL11 UNL     1     -33.494   4.272   3.064  1.00 20.00    -0.125 Cl
ENDBRANCH   4   9
TORSDOF 1
ENDMDL
MODEL 3
REMARK VINA RESULT:      -4.3     11.562     12.470
REMARK  1 active torsions:
REMARK  status: ('A' for Active; 'I' for Inactive)
REMARK    1  A    between atoms: C4_4  and  C9_9 
ROOT
HETATM    1  C1  UNL     1     -33.877  17.978  -4.286  1.00 20.00     0.032 C 
HETATM    2  C2  UNL     1     -34.544  15.861  -3.133  1.00 20.00     0.043 C 
HETATM    3  C3  UNL     1     -33.603  17.146  -5.531  1.00 20.00     0.169 C 
HETATM    4  C4  UNL     1     -33.701  17.137  -3.020  1.00 20.00     0.008 C 
HETATM    5  C5  UNL     1     -34.290  15.099  -4.448  1.00 20.00     0.054 C 
HETATM    6  C6  UNL     1     -35.375  14.028  -4.625  1.00 20.00     0.045 C 
HETATM    7  C7  UNL     1     -32.922  14.403  -4.461  1.00 20.00     0.045 C 
HETATM    8  O10 UNL     1     -34.423  15.982  -5.571  1.00 20.00    -0.381 OA
ENDROOT
BRANCH   4   9
HETATM    9  C9  UNL     1     -34.080  17.937  -1.776  1.00 20.00     0.082 C 
HETATM   10  C8  UNL     1     -32.865  18.232  -0.913  1.00 20.00     0.027 C 
HETATM   11 CL11 UNL     1     -35.286  17.024  -0.828  1.00 20.00    -0.125 Cl
ENDBRANCH   4   9
TORSDOF 1
ENDMDL
MODEL 4
REMARK VINA RESULT:      -4.2     11.608     12.478
REMARK  1 active torsions:
REMARK  status: ('A' for Active; 'I' for Inactive)
REMARK    1  A    between atoms: C4_4  and  C9_9 
ROOT
HETATM    1  C1  UNL     1     -33.446  17.524  -4.042  1.00 20.00     0.032 C 
HETATM    2  C2  UNL     1     -35.161  16.127  -2.873  1.00 20.00     0.043 C 
HETATM    3  C3  UNL     1     -33.770  16.755  -5.314  1.00 20.00     0.169 C 
HETATM    4  C4  UNL     1     -33.729  16.670  -2.804  1.00 20.00     0.008 C 
HETATM    5  C5  UNL     1     -35.465  15.430  -4.214  1.00 20.00     0.054 C 
HETATM    6  C6  UNL     1     -36.978  15.198  -4.328  1.00 20.00     0.045 C 
HETATM    7  C7  UNL     1     -34.759  14.072  -4.335  1.00 20.00     0.045 C 
HETATM    8  O10 UNL     1     -35.115  16.286  -5.312  1.00 20.00    -0.381 OA
ENDROOT
BRANCH   4   9
HETATM    9  C9  UNL     1     -33.508  17.474  -1.524  1.00 20.00     0.082 C 
HETATM   10  C8  UNL     1     -34.756  17.493  -0.657  1.00 20.00     0.027 C 
HETATM   11 CL11 UNL     1     -33.041  19.144  -1.946  1.00 20.00    -0.125 Cl
ENDBRANCH   4   9
TORSDOF 1
ENDMDL
MODEL 5
REMARK VINA RESULT:      -4.1     11.783     12.618
REMARK  1 active torsions:
REMARK  status: ('A' for Active; 'I' for Inactive)
REMARK    1  A    between atoms: C4_4  and  C9_9 
ROOT
HETATM    1  C1  UNL     1     -35.394  16.802  -4.870  1.00 20.00     0.032 C 
HETATM    2  C2  UNL     1     -33.875  16.027  -3.039  1.00 20.00     0.043 C 
HETATM    3  C3  UNL     1     -35.741  18.000  -3.998  1.00 20.00     0.169 C 
HETATM    4  C4  UNL     1     -34.983  15.604  -4.011  1.00 20.00     0.008 C 
HETATM    5  C5  UNL     1     -34.242  17.293  -2.239  1.00 20.00     0.054 C 
HETATM    6  C6  UNL     1     -32.985  17.823  -1.535  1.00 20.00     0.045 C 
HETATM    7  C7  UNL     1     -35.310  17.016  -1.172  1.00 20.00     0.045 C 
HETATM    8  O10 UNL     1     -34.666  18.339  -3.126  1.00 20.00    -0.381 OA
ENDROOT
BRANCH   4   9
HETATM    9  C9  UNL     1     -34.530  14.436  -4.884  1.00 20.00     0.082 C 
HETATM   10  C8  UNL     1     -33.995  14.916  -6.222  1.00 20.00     0.027 C 
HETATM   11 CL11 UNL     1     -35.903  13.325  -5.146  1.00 20.00    -0.125 Cl
ENDBRANCH   4   9
TORSDOF 1
ENDMDL
MODEL 6
REMARK VINA RESULT:      -4.1     11.401     12.223
REMARK  1 active torsions:
REMARK  status: ('A' for Active; 'I' for Inactive)
REMARK    1  A    between atoms: C4_4  and  C9_9 
ROOT
HETATM    1  C1  UNL     1     -36.058  16.650  -2.661  1.00 20.00     0.032 C 
HETATM    2  C2  UNL     1     -33.600  16.377  -3.038  1.00 20.00     0.043 C 
HETATM    3  C3  UNL     1     -36.284  15.849  -3.935  1.00 20.00     0.169 C 
HETATM    4  C4  UNL     1     -34.712  17.379  -2.709  1.00 20.00     0.008 C 
HETATM    5  C5  UNL     1     -33.915  15.532  -4.288  1.00 20.00     0.054 C 
HETATM    6  C6  UNL     1     -32.924  14.363  -4.368  1.00 20.00     0.045 C 
HETATM    7  C7  UNL     1     -33.801  16.348  -5.584  1.00 20.00     0.045 C 
HETATM    8  O10 UNL     1     -35.216  14.937  -4.174  1.00 20.00    -0.381 OA
ENDROOT
BRANCH   4   9
HETATM    9  C9  UNL     1     -34.433  18.095  -1.390  1.00 20.00     0.082 C 
HETATM   10  C8  UNL     1     -32.955  18.059  -1.040  1.00 20.00     0.027 C 
HETATM   11 CL11 UNL     1     -35.381  17.330  -0.086  1.00 20.00    -0.125 Cl
ENDBRANCH   4   9
TORSDOF 1
ENDMDL
MODEL 7
REMARK VINA RESULT:      -4.0     11.653     12.432
REMARK  1 active torsions:
REMARK  status: ('A' for Active; 'I' for Inactive)
REMARK    1  A    between atoms: C4_4  and  C9_9 
ROOT
HETATM    1  C1  UNL     1     -33.567  15.924  -3.745  1.00 20.00     0.032 C 
HETATM    2  C2  UNL     1     -36.027  15.833  -4.194  1.00 20.00     0.043 C 
HETATM    3  C3  UNL     1     -33.369  15.036  -4.964  1.00 20.00     0.169 C 
HETATM    4  C4  UNL     1     -34.944  15.689  -3.118  1.00 20.00     0.008 C 
HETATM    5  C5  UNL     1     -35.737  14.977  -5.443  1.00 20.00     0.054 C 
HETATM    6  C6  UNL     1     -36.679  15.407  -6.576  1.00 20.00     0.045 C 
HETATM    7  C7  UNL     1     -35.951  13.479  -5.183  1.00 20.00     0.045 C 
HETATM    8  O10 UNL     1     -34.407  15.226  -5.922  1.00 20.00    -0.381 OA
ENDROOT
BRANCH   4   9
HETATM    9  C9  UNL     1     -35.189  16.654  -1.961  1.00 20.00     0.082 C 
HETATM   10  C8  UNL     1     -36.163  17.754  -2.350  1.00 20.00     0.027 C 
HETATM   11 CL11 UNL     1     -33.637  17.375  -1.451  1.00 20.00    -0.125 Cl
ENDBRANCH   4   9
TORSDOF 1
ENDMDL
MODEL 8
REMARK VINA RESULT:      -4.0      1.363      1.532
REMARK  1 active torsions:
REMARK  status: ('A' for Active; 'I' for Inactive)
REMARK    1  A    between atoms: C4_4  and  C9_9 
ROOT
HETATM    1  C1  UNL     1     -32.416   8.354   4.308  1.00 20.00     0.032 C 
HETATM    2  C2  UNL     1     -32.939   6.881   2.355  1.00 20.00     0.043 C 
HETATM    3  C3  UNL     1     -33.231   7.403   5.171  1.00 20.00     0.169 C 
HETATM    4  C4  UNL     1     -32.905   8.329   2.859  1.00 20.00     0.008 C 
HETATM    5  C5  UNL     1     -33.706   5.942   3.306  1.00 20.00     0.054 C 
HETATM    6  C6  UNL     1     -33.431   4.486   2.903  1.00 20.00     0.045 C 
HETATM    7  C7  UNL     1     -35.222   6.177   3.256  1.00 20.00     0.045 C 
HETATM    8  O10 UNL     1     -33.213   6.078   4.647  1.00 20.00    -0.381 OA
ENDROOT
BRANCH   4   9
HETATM    9  C9  UNL     1     -32.021   9.199   1.969  1.00 20.00     0.082 C 
HETATM   10  C8  UNL     1     -32.801  10.360   1.375  1.00 20.00     0.027 C 
HETATM   11 CL11 UNL     1     -31.334   8.201   0.658  1.00 20.00    -0.125 Cl
ENDBRANCH   4   9
TORSDOF 1
ENDMDL
MODEL 9
REMARK VINA RESULT:      -4.0     11.080     12.323
REMARK  1 active torsions:
REMARK  status: ('A' for Active; 'I' for Inactive)
REMARK    1  A    between atoms: C4_4  and  C9_9 
ROOT
HETATM    1  C1  UNL     1     -36.596  15.119  -4.229  1.00 20.00     0.032 C 
HETATM    2  C2  UNL     1     -34.269  15.742  -3.554  1.00 20.00     0.043 C 
HETATM    3  C3  UNL     1     -35.986  14.251  -5.320  1.00 20.00     0.169 C 
HETATM    4  C4  UNL     1     -35.667  16.283  -3.877  1.00 20.00     0.008 C 
HETATM    5  C5  UNL     1     -33.731  14.803  -4.651  1.00 20.00     0.054 C 
HETATM    6  C6  UNL     1     -32.491  14.069  -4.120  1.00 20.00     0.045 C 
HETATM    7  C7  UNL     1     -33.331  15.564  -5.923  1.00 20.00     0.045 C 
HETATM    8  O10 UNL     1     -34.694  13.781  -4.950  1.00 20.00    -0.381 OA
ENDROOT
BRANCH   4   9
HETATM    9  C9  UNL     1     -36.225  17.094  -2.710  1.00 20.00     0.082 C 
HETATM   10  C8  UNL     1     -36.271  18.577  -3.034  1.00 20.00     0.027 C 
HETATM   11 CL11 UNL     1     -35.214  16.824  -1.264  1.00 20.00    -0.125 Cl
ENDBRANCH   4   9
TORSDOF 1
ENDMDL
