MODEL 1
REMARK VINA RESULT:      -5.5      0.000      0.000
REMARK  2 active torsions:
REMARK  status: ('A' for Active; 'I' for Inactive)
REMARK    1  A    between atoms: C5_5  and  C9_9 
REMARK    2  A    between atoms: C6_6  and  C10_10 
ROOT
HETATM    1  C1  UNL     1     -33.166   7.289   5.038  1.00 20.00     0.005 C 
HETATM    2  C2  UNL     1     -33.769   5.941   2.989  1.00 20.00     0.005 C 
HETATM    3  C3  UNL     1     -32.668   8.424   4.144  1.00 20.00     0.006 C 
HETATM    4  C4  UNL     1     -33.270   7.076   2.096  1.00 20.00     0.006 C 
HETATM    5  C5  UNL     1     -34.257   6.461   4.347  1.00 20.00    -0.015 C 
HETATM    6  C6  UNL     1     -32.178   7.903   2.787  1.00 20.00     0.003 C 
ENDROOT
BRANCH   6   7
HETATM    7  C10 UNL     1     -31.732   9.060   1.894  1.00 20.00     0.082 C 
HETATM    8  C8  UNL     1     -32.866  10.041   1.650  1.00 20.00     0.027 C 
HETATM    9 CL11 UNL     1     -31.147   8.414   0.337  1.00 20.00    -0.125 Cl
ENDBRANCH   6   7
BRANCH   5  10
HETATM   10  C9  UNL     1     -34.703   5.304   5.239  1.00 20.00     0.000 C 
HETATM   11  C7  UNL     1     -34.300   3.983   4.670  1.00 20.00     0.005 C 
ENDBRANCH   5  10
TORSDOF 2
ENDMDL
MODEL 2
REMARK VINA RESULT:      -5.4      2.164      4.639
REMARK  2 active torsions:
REMARK  status: ('A' for Active; 'I' for Inactive)
REMARK    1  A    between atoms: C5_5  and  C9_9 
REMARK    2  A    between atoms: C6_6  and  C10_10 
ROOT
HETATM    1  C1  UNL     1     -33.066   8.312   3.952  1.00 20.00     0.005 C 
HETATM    2  C2  UNL     1     -32.898   6.848   1.901  1.00 20.00     0.005 C 
HETATM    3  C3  UNL     1     -33.623   7.133   4.748  1.00 20.00     0.006 C 
HETATM    4  C4  UNL     1     -33.455   5.669   2.697  1.00 20.00     0.006 C 
HETATM    5  C5  UNL     1     -32.161   7.844   2.804  1.00 20.00    -0.015 C 
HETATM    6  C6  UNL     1     -34.361   6.137   3.843  1.00 20.00     0.003 C 
ENDROOT
BRANCH   6   7
HETATM    7  C10 UNL     1     -34.865   4.944   4.654  1.00 20.00     0.082 C 
HETATM    8  C8  UNL     1     -34.704   5.179   6.146  1.00 20.00     0.027 C 
HETATM    9 CL11 UNL     1     -33.966   3.479   4.172  1.00 20.00    -0.125 Cl
ENDBRANCH   6   7
BRANCH   5  10
HETATM   10  C9  UNL     1     -31.658   9.037   1.994  1.00 20.00     0.000 C 
HETATM   11  C7  UNL     1     -32.523   9.301   0.806  1.00 20.00     0.005 C 
ENDBRANCH   5  10
TORSDOF 2
ENDMDL
MODEL 3
REMARK VINA RESULT:      -5.2      0.648      1.727
REMARK  2 active torsions:
REMARK  status: ('A' for Active; 'I' for Inactive)
REMARK    1  A    between atoms: C5_5  and  C9_9 
REMARK    2  A    between atoms: C6_6  and  C10_10 
ROOT
HETATM    1  C1  UNL     1     -33.976   5.945   2.421  1.00 20.00     0.005 C 
HETATM    2  C2  UNL     1     -33.478   7.006   4.657  1.00 20.00     0.005 C 
HETATM    3  C3  UNL     1     -33.053   6.952   1.737  1.00 20.00     0.006 C 
HETATM    4  C4  UNL     1     -32.555   8.013   3.973  1.00 20.00     0.006 C 
HETATM    5  C5  UNL     1     -33.559   5.689   3.874  1.00 20.00    -0.015 C 
HETATM    6  C6  UNL     1     -32.973   8.269   2.520  1.00 20.00     0.003 C 
ENDROOT
BRANCH   6   7
HETATM    7  C10 UNL     1     -32.006   9.240   1.843  1.00 20.00     0.082 C 
HETATM    8  C8  UNL     1     -32.728  10.475   1.332  1.00 20.00     0.027 C 
HETATM    9 CL11 UNL     1     -31.189   8.414   0.489  1.00 20.00    -0.125 Cl
ENDBRANCH   6   7
BRANCH   5  10
HETATM   10  C9  UNL     1     -34.526   4.719   4.551  1.00 20.00     0.000 C 
HETATM   11  C7  UNL     1     -34.706   5.040   5.998  1.00 20.00     0.005 C 
ENDBRANCH   5  10
TORSDOF 2
ENDMDL
MODEL 4
REMARK VINA RESULT:      -4.9      2.359      4.729
REMARK  2 active torsions:
REMARK  status: ('A' for Active; 'I' for Inactive)
REMARK    1  A    between atoms: C5_5  and  C9_9 
REMARK    2  A    between atoms: C6_6  and  C10_10 
ROOT
HETATM    1  C1  UNL     1     -31.902   8.921   2.951  1.00 20.00     0.005 C 
HETATM    2  C2  UNL     1     -33.255   7.460   1.399  1.00 20.00     0.005 C 
HETATM    3  C3  UNL     1     -32.181   7.956   4.102  1.00 20.00     0.006 C 
HETATM    4  C4  UNL     1     -33.534   6.495   2.550  1.00 20.00     0.006 C 
HETATM    5  C5  UNL     1     -31.930   8.208   1.594  1.00 20.00    -0.015 C 
HETATM    6  C6  UNL     1     -33.507   7.210   3.907  1.00 20.00     0.003 C 
ENDROOT
BRANCH   6   7
HETATM    7  C10 UNL     1     -33.739   6.216   5.044  1.00 20.00     0.082 C 
HETATM    8  C8  UNL     1     -34.826   5.214   4.692  1.00 20.00     0.027 C 
HETATM    9 CL11 UNL     1     -34.195   7.106   6.523  1.00 20.00    -0.125 Cl
ENDBRANCH   6   7
BRANCH   5  10
HETATM   10  C9  UNL     1     -31.699   9.201   0.457  1.00 20.00     0.000 C 
HETATM   11  C7  UNL     1     -32.978   9.570  -0.221  1.00 20.00     0.005 C 
ENDBRANCH   5  10
TORSDOF 2
ENDMDL
MODEL 5
REMARK VINA RESULT:      -4.8      2.345      4.979
REMARK  2 active torsions:
REMARK  status: ('A' for Active; 'I' for Inactive)
REMARK    1  A    between atoms: C5_5  and  C9_9 
REMARK    2  A    between atoms: C6_6  and  C10_10 
ROOT
HETATM    1  C1  UNL     1     -33.287   7.154   1.367  1.00 20.00     0.005 C 
HETATM    2  C2  UNL     1     -32.019   8.116   3.328  1.00 20.00     0.005 C 
HETATM    3  C3  UNL     1     -34.237   6.444   2.330  1.00 20.00     0.006 C 
HETATM    4  C4  UNL     1     -32.969   7.406   4.290  1.00 20.00     0.006 C 
HETATM    5  C5  UNL     1     -32.698   8.427   1.988  1.00 20.00    -0.015 C 
HETATM    6  C6  UNL     1     -33.557   6.132   3.670  1.00 20.00     0.003 C 
ENDROOT
BRANCH   6   7
HETATM    7  C10 UNL     1     -34.540   5.467   4.632  1.00 20.00     0.082 C 
HETATM    8  C8  UNL     1     -34.480   6.101   6.011  1.00 20.00     0.027 C 
HETATM    9 CL11 UNL     1     -34.167   3.726   4.750  1.00 20.00    -0.125 Cl
ENDBRANCH   6   7
BRANCH   5  10
HETATM   10  C9  UNL     1     -31.714   9.091   1.026  1.00 20.00     0.000 C 
HETATM   11  C7  UNL     1     -32.353  10.206   0.266  1.00 20.00     0.005 C 
ENDBRANCH   5  10
TORSDOF 2
ENDMDL
MODEL 6
REMARK VINA RESULT:      -4.7     11.054     11.694
REMARK  2 active torsions:
REMARK  status: ('A' for Active; 'I' for Inactive)
REMARK    1  A    between atoms: C5_5  and  C9_9 
REMARK    2  A    between atoms: C6_6  and  C10_10 
ROOT
HETATM    1  C1  UNL     1     -33.376  17.608  -2.282  1.00 20.00     0.005 C 
HETATM    2  C2  UNL     1     -35.468  17.346  -0.894  1.00 20.00     0.005 C 
HETATM    3  C3  UNL     1     -32.619  18.099  -1.049  1.00 20.00     0.006 C 
HETATM    4  C4  UNL     1     -34.712  17.837   0.339  1.00 20.00     0.006 C 
HETATM    5  C5  UNL     1     -34.531  16.672  -1.903  1.00 20.00    -0.015 C 
HETATM    6  C6  UNL     1     -33.558  18.774  -0.041  1.00 20.00     0.003 C 
ENDROOT
BRANCH   6   7
HETATM    7  C10 UNL     1     -32.787  19.212   1.204  1.00 20.00     0.082 C 
HETATM    8  C8  UNL     1     -31.315  18.853   1.099  1.00 20.00     0.027 C 
HETATM    9 CL11 UNL     1     -33.497  18.433   2.644  1.00 20.00    -0.125 Cl
ENDBRANCH   6   7
BRANCH   5  10
HETATM   10  C9  UNL     1     -35.302  16.235  -3.147  1.00 20.00     0.000 C 
HETATM   11  C7  UNL     1     -34.617  15.111  -3.853  1.00 20.00     0.005 C 
ENDBRANCH   5  10
TORSDOF 2
ENDMDL
MODEL 7
REMARK VINA RESULT:      -4.6     10.887     11.634
REMARK  2 active torsions:
REMARK  status: ('A' for Active; 'I' for Inactive)
REMARK    1  A    between atoms: C5_5  and  C9_9 
REMARK    2  A    between atoms: C6_6  and  C10_10 
ROOT
HETATM    1  C1  UNL     1     -33.019  17.808  -1.390  1.00 20.00     0.005 C 
HETATM    2  C2  UNL     1     -35.347  17.094  -0.725  1.00 20.00     0.005 C 
HETATM    3  C3  UNL     1     -33.287  17.348  -2.822  1.00 20.00     0.006 C 
HETATM    4  C4  UNL     1     -35.615  16.634  -2.156  1.00 20.00     0.006 C 
HETATM    5  C5  UNL     1     -34.311  18.224  -0.677  1.00 20.00    -0.015 C 
HETATM    6  C6  UNL     1     -34.323  16.217  -2.869  1.00 20.00     0.003 C 
ENDROOT
BRANCH   6   7
HETATM    7  C10 UNL     1     -34.610  15.809  -4.313  1.00 20.00     0.082 C 
HETATM    8  C8  UNL     1     -34.986  14.340  -4.410  1.00 20.00     0.027 C 
HETATM    9 CL11 UNL     1     -33.170  16.131  -5.316  1.00 20.00    -0.125 Cl
ENDBRANCH   6   7
BRANCH   5  10
HETATM   10  C9  UNL     1     -34.024  18.631   0.767  1.00 20.00     0.000 C 
HETATM   11  C7  UNL     1     -32.565  18.853   0.998  1.00 20.00     0.005 C 
ENDBRANCH   5  10
TORSDOF 2
ENDMDL
MODEL 8
REMARK VINA RESULT:      -4.5     11.023     11.692
REMARK  2 active torsions:
REMARK  status: ('A' for Active; 'I' for Inactive)
REMARK    1  A    between atoms: C5_5  and  C9_9 
REMARK    2  A    between atoms: C6_6  and  C10_10 
ROOT
HETATM    1  C1  UNL     1     -33.242  15.329  -3.800  1.00 20.00     0.005 C 
HETATM    2  C2  UNL     1     -35.518  16.078  -3.003  1.00 20.00     0.005 C 
HETATM    3  C3  UNL     1     -33.893  14.599  -4.973  1.00 20.00     0.006 C 
HETATM    4  C4  UNL     1     -36.169  15.349  -4.177  1.00 20.00     0.006 C 
HETATM    5  C5  UNL     1     -34.087  16.521  -3.334  1.00 20.00    -0.015 C 
HETATM    6  C6  UNL     1     -35.324  14.156  -4.641  1.00 20.00     0.003 C 
ENDROOT
BRANCH   6   7
HETATM    7  C10 UNL     1     -35.970  13.473  -5.845  1.00 20.00     0.082 C 
HETATM    8  C8  UNL     1     -34.987  13.329  -6.995  1.00 20.00     0.027 C 
HETATM    9 CL11 UNL     1     -37.385  14.424  -6.376  1.00 20.00    -0.125 Cl
ENDBRANCH   6   7
BRANCH   5  10
HETATM   10  C9  UNL     1     -33.442  17.203  -2.129  1.00 20.00     0.000 C 
HETATM   11  C7  UNL     1     -34.406  17.355  -0.999  1.00 20.00     0.005 C 
ENDBRANCH   5  10
TORSDOF 2
ENDMDL
MODEL 9
REMARK VINA RESULT:      -4.4     10.966     11.726
REMARK  2 active torsions:
REMARK  status: ('A' for Active; 'I' for Inactive)
REMARK    1  A    between atoms: C5_5  and  C9_9 
REMARK    2  A    between atoms: C6_6  and  C10_10 
ROOT
HETATM    1  C1  UNL     1     -36.080  16.948  -2.596  1.00 20.00     0.005 C 
HETATM    2  C2  UNL     1     -33.610  16.505  -2.872  1.00 20.00     0.005 C 
HETATM    3  C3  UNL     1     -36.384  15.945  -3.708  1.00 20.00     0.006 C 
HETATM    4  C4  UNL     1     -33.914  15.502  -3.984  1.00 20.00     0.006 C 
HETATM    5  C5  UNL     1     -34.769  16.613  -1.874  1.00 20.00    -0.015 C 
HETATM    6  C6  UNL     1     -35.224  15.838  -4.707  1.00 20.00     0.003 C 
ENDROOT
BRANCH   6   7
HETATM    7  C10 UNL     1     -35.532  14.794  -5.780  1.00 20.00     0.082 C 
HETATM    8  C8  UNL     1     -35.949  13.471  -5.162  1.00 20.00     0.027 C 
HETATM    9 CL11 UNL     1     -34.089  14.555  -6.802  1.00 20.00    -0.125 Cl
ENDBRANCH   6   7
BRANCH   5  10
HETATM   10  C9  UNL     1     -34.462  17.657  -0.802  1.00 20.00     0.000 C 
HETATM   11  C7  UNL     1     -33.079  18.204  -0.946  1.00 20.00     0.005 C 
ENDBRANCH   5  10
TORSDOF 2
ENDMDL
