MODEL 1
REMARK VINA RESULT:      -4.2      0.000      0.000
REMARK  2 active torsions:
REMARK  status: ('A' for Active; 'I' for Inactive)
REMARK    1  A    between atoms: C2_2  and  C3_3 
REMARK    2  A    between atoms: C2_2  and  N4_4 
ROOT
HETATM    1  C1  UNL     1     -32.963   6.625   2.968  1.00 20.00     0.332 C 
HETATM    2  N4  UNL     1     -33.640   5.667   3.002  1.00 20.00    -0.242 NA
HETATM    3  O5  UNL     1     -32.281   7.583   2.930  1.00 20.00    -0.260 OA
ENDROOT
BRANCH   2   4
HETATM    4  C2  UNL     1     -34.823   5.796   3.856  1.00 20.00     0.224 C 
BRANCH   4   5
HETATM    5  C3  UNL     1     -34.770   4.743   4.938  1.00 20.00     0.372 C 
HETATM    6  F6  UNL     1     -34.224   5.260   6.066  1.00 20.00    -0.213 F 
HETATM    7  F7  UNL     1     -33.978   3.713   4.548  1.00 20.00    -0.213 F 
ENDBRANCH   4   5
ENDBRANCH   2   4
TORSDOF 2
ENDMDL
MODEL 2
REMARK VINA RESULT:      -4.2      0.966      1.458
REMARK  2 active torsions:
REMARK  status: ('A' for Active; 'I' for Inactive)
REMARK    1  A    between atoms: C2_2  and  C3_3 
REMARK    2  A    between atoms: C2_2  and  N4_4 
ROOT
HETATM    1  C1  UNL     1     -32.991   6.730   3.004  1.00 20.00     0.332 C 
HETATM    2  N4  UNL     1     -33.788   5.869   2.950  1.00 20.00    -0.242 NA
HETATM    3  O5  UNL     1     -32.191   7.590   3.054  1.00 20.00    -0.260 OA
ENDROOT
BRANCH   2   4
HETATM    4  C2  UNL     1     -34.862   5.980   3.940  1.00 20.00     0.224 C 
BRANCH   4   5
HETATM    5  C3  UNL     1     -34.290   5.752   5.320  1.00 20.00     0.372 C 
HETATM    6  F6  UNL     1     -34.989   4.784   5.961  1.00 20.00    -0.213 F 
HETATM    7  F7  UNL     1     -34.399   6.881   6.063  1.00 20.00    -0.213 F 
ENDBRANCH   4   5
ENDBRANCH   2   4
TORSDOF 2
ENDMDL
MODEL 3
REMARK VINA RESULT:      -4.0      1.482      1.752
REMARK  2 active torsions:
REMARK  status: ('A' for Active; 'I' for Inactive)
REMARK    1  A    between atoms: C2_2  and  C3_3 
REMARK    2  A    between atoms: C2_2  and  N4_4 
ROOT
HETATM    1  C1  UNL     1     -32.428   7.671   2.627  1.00 20.00     0.332 C 
HETATM    2  N4  UNL     1     -32.981   6.714   3.023  1.00 20.00    -0.242 NA
HETATM    3  O5  UNL     1     -31.873   8.626   2.226  1.00 20.00    -0.260 OA
ENDROOT
BRANCH   2   4
HETATM    4  C2  UNL     1     -33.786   6.937   4.226  1.00 20.00     0.224 C 
BRANCH   4   5
HETATM    5  C3  UNL     1     -34.589   5.692   4.523  1.00 20.00     0.372 C 
HETATM    6  F6  UNL     1     -35.814   5.779   3.949  1.00 20.00    -0.213 F 
HETATM    7  F7  UNL     1     -34.784   5.570   5.859  1.00 20.00    -0.213 F 
ENDBRANCH   4   5
ENDBRANCH   2   4
TORSDOF 2
ENDMDL
MODEL 4
REMARK VINA RESULT:      -4.0      1.412      1.566
REMARK  2 active torsions:
REMARK  status: ('A' for Active; 'I' for Inactive)
REMARK    1  A    between atoms: C2_2  and  C3_3 
REMARK    2  A    between atoms: C2_2  and  N4_4 
ROOT
HETATM    1  C1  UNL     1     -32.620   7.351   3.178  1.00 20.00     0.332 C 
HETATM    2  N4  UNL     1     -33.414   6.710   2.597  1.00 20.00    -0.242 NA
HETATM    3  O5  UNL     1     -31.826   7.998   3.756  1.00 20.00    -0.260 OA
ENDROOT
BRANCH   2   4
HETATM    4  C2  UNL     1     -33.620   5.367   3.145  1.00 20.00     0.224 C 
BRANCH   4   5
HETATM    5  C3  UNL     1     -34.571   5.451   4.317  1.00 20.00     0.372 C 
HETATM    6  F6  UNL     1     -34.727   4.228   4.879  1.00 20.00    -0.213 F 
HETATM    7  F7  UNL     1     -35.795   5.855   3.896  1.00 20.00    -0.213 F 
ENDBRANCH   4   5
ENDBRANCH   2   4
TORSDOF 2
ENDMDL
MODEL 5
REMARK VINA RESULT:      -4.0      2.532      2.844
REMARK  2 active torsions:
REMARK  status: ('A' for Active; 'I' for Inactive)
REMARK    1  A    between atoms: C2_2  and  C3_3 
REMARK    2  A    between atoms: C2_2  and  N4_4 
ROOT
HETATM    1  C1  UNL     1     -34.106   6.593   5.671  1.00 20.00     0.332 C 
HETATM    2  N4  UNL     1     -34.674   5.676   5.209  1.00 20.00    -0.242 NA
HETATM    3  O5  UNL     1     -33.537   7.510   6.138  1.00 20.00    -0.260 OA
ENDROOT
BRANCH   2   4
HETATM    4  C2  UNL     1     -34.798   5.716   3.750  1.00 20.00     0.224 C 
BRANCH   4   5
HETATM    5  C3  UNL     1     -33.421   5.837   3.139  1.00 20.00     0.372 C 
HETATM    6  F6  UNL     1     -33.386   6.877   2.271  1.00 20.00    -0.213 F 
HETATM    7  F7  UNL     1     -33.124   4.718   2.433  1.00 20.00    -0.213 F 
ENDBRANCH   4   5
ENDBRANCH   2   4
TORSDOF 2
ENDMDL
MODEL 6
REMARK VINA RESULT:      -3.9      2.514      2.942
REMARK  2 active torsions:
REMARK  status: ('A' for Active; 'I' for Inactive)
REMARK    1  A    between atoms: C2_2  and  C3_3 
REMARK    2  A    between atoms: C2_2  and  N4_4 
ROOT
HETATM    1  C1  UNL     1     -34.105   4.832   3.843  1.00 20.00     0.332 C 
HETATM    2  N4  UNL     1     -33.745   5.815   3.311  1.00 20.00    -0.242 NA
HETATM    3  O5  UNL     1     -34.464   3.844   4.371  1.00 20.00    -0.260 OA
ENDROOT
BRANCH   2   4
HETATM    4  C2  UNL     1     -34.079   7.046   4.031  1.00 20.00     0.224 C 
BRANCH   4   5
HETATM    5  C3  UNL     1     -33.457   6.998   5.408  1.00 20.00     0.372 C 
HETATM    6  F6  UNL     1     -34.424   7.021   6.358  1.00 20.00    -0.213 F 
HETATM    7  F7  UNL     1     -32.678   8.090   5.606  1.00 20.00    -0.213 F 
ENDBRANCH   4   5
ENDBRANCH   2   4
TORSDOF 2
ENDMDL
MODEL 7
REMARK VINA RESULT:      -3.9      4.881      5.618
REMARK  2 active torsions:
REMARK  status: ('A' for Active; 'I' for Inactive)
REMARK    1  A    between atoms: C2_2  and  C3_3 
REMARK    2  A    between atoms: C2_2  and  N4_4 
ROOT
HETATM    1  C1  UNL     1     -32.557   7.563   2.694  1.00 20.00     0.332 C 
HETATM    2  N4  UNL     1     -31.809   8.444   2.490  1.00 20.00    -0.242 NA
HETATM    3  O5  UNL     1     -33.305   6.680   2.904  1.00 20.00    -0.260 OA
ENDROOT
BRANCH   2   4
HETATM    4  C2  UNL     1     -31.762   8.884   1.093  1.00 20.00     0.224 C 
BRANCH   4   5
HETATM    5  C3  UNL     1     -32.884   9.866   0.846  1.00 20.00     0.372 C 
HETATM    6  F6  UNL     1     -33.107   9.994  -0.484  1.00 20.00    -0.213 F 
HETATM    7  F7  UNL     1     -32.542  11.093   1.313  1.00 20.00    -0.213 F 
ENDBRANCH   4   5
ENDBRANCH   2   4
TORSDOF 2
ENDMDL
MODEL 8
REMARK VINA RESULT:      -3.9      2.949      3.561
REMARK  2 active torsions:
REMARK  status: ('A' for Active; 'I' for Inactive)
REMARK    1  A    between atoms: C2_2  and  C3_3 
REMARK    2  A    between atoms: C2_2  and  N4_4 
ROOT
HETATM    1  C1  UNL     1     -34.624   5.014   4.245  1.00 20.00     0.332 C 
HETATM    2  N4  UNL     1     -34.772   6.155   4.013  1.00 20.00    -0.242 NA
HETATM    3  O5  UNL     1     -34.479   3.870   4.475  1.00 20.00    -0.260 OA
ENDROOT
BRANCH   2   4
HETATM    4  C2  UNL     1     -33.691   7.015   4.501  1.00 20.00     0.224 C 
BRANCH   4   5
HETATM    5  C3  UNL     1     -32.851   7.467   3.329  1.00 20.00     0.372 C 
HETATM    6  F6  UNL     1     -32.429   6.395   2.616  1.00 20.00    -0.213 F 
HETATM    7  F7  UNL     1     -31.744   8.113   3.771  1.00 20.00    -0.213 F 
ENDBRANCH   4   5
ENDBRANCH   2   4
TORSDOF 2
ENDMDL
MODEL 9
REMARK VINA RESULT:      -3.9      3.159      3.590
REMARK  2 active torsions:
REMARK  status: ('A' for Active; 'I' for Inactive)
REMARK    1  A    between atoms: C2_2  and  C3_3 
REMARK    2  A    between atoms: C2_2  and  N4_4 
ROOT
HETATM    1  C1  UNL     1     -34.525   5.016   4.079  1.00 20.00     0.332 C 
HETATM    2  N4  UNL     1     -34.646   6.114   3.680  1.00 20.00    -0.242 NA
HETATM    3  O5  UNL     1     -34.408   3.916   4.475  1.00 20.00    -0.260 OA
ENDROOT
BRANCH   2   4
HETATM    4  C2  UNL     1     -33.669   7.062   4.220  1.00 20.00     0.224 C 
BRANCH   4   5
HETATM    5  C3  UNL     1     -32.567   7.270   3.206  1.00 20.00     0.372 C 
HETATM    6  F6  UNL     1     -31.590   8.048   3.732  1.00 20.00    -0.213 F 
HETATM    7  F7  UNL     1     -33.051   7.919   2.118  1.00 20.00    -0.213 F 
ENDBRANCH   4   5
ENDBRANCH   2   4
TORSDOF 2
ENDMDL
