MODEL 1
REMARK VINA RESULT:      -5.4      0.000      0.000
REMARK  1 active torsions:
REMARK  status: ('A' for Active; 'I' for Inactive)
REMARK    1  A    between atoms: C9_9  and  N10_10 
ROOT
HETATM    1  C1  UNL     1     -32.589   9.847   0.019  1.00 20.00     0.013 C 
HETATM    2  C2  UNL     1     -32.236   9.102   0.891  1.00 20.00    -0.087 C 
HETATM    3  C9  UNL     1     -31.800   8.193   1.954  1.00 20.00     0.364 C 
ENDROOT
BRANCH   3   4
HETATM    4  N10 UNL     1     -32.921   7.821   2.804  1.00 20.00     0.100 N 
HETATM    5  C3  UNL     1     -33.283   6.406   2.672  1.00 20.00     0.278 C 
HETATM    6  C5  UNL     1     -33.971   6.048   3.999  1.00 20.00     0.015 C 
HETATM    7  C6  UNL     1     -33.827   7.312   4.861  1.00 20.00     0.015 C 
HETATM    8  C7  UNL     1     -35.427   5.637   3.819  1.00 20.00     0.012 C 
HETATM    9  C4  UNL     1     -32.646   8.035   4.225  1.00 20.00     0.278 C 
HETATM   10  C8  UNL     1     -33.614   7.019   6.339  1.00 20.00     0.012 C 
ENDBRANCH   3   4
TORSDOF 1
ENDMDL
MODEL 2
REMARK VINA RESULT:      -5.1      0.541      2.042
REMARK  1 active torsions:
REMARK  status: ('A' for Active; 'I' for Inactive)
REMARK    1  A    between atoms: C9_9  and  N10_10 
ROOT
HETATM    1  C1  UNL     1     -32.929  10.061   1.077  1.00 20.00     0.013 C 
HETATM    2  C2  UNL     1     -32.272   9.145   1.488  1.00 20.00    -0.087 C 
HETATM    3  C9  UNL     1     -31.466   8.027   1.986  1.00 20.00     0.364 C 
ENDROOT
BRANCH   3   4
HETATM    4  N10 UNL     1     -32.168   7.318   3.044  1.00 20.00     0.100 N 
HETATM    5  C3  UNL     1     -32.659   8.216   4.096  1.00 20.00     0.278 C 
HETATM    6  C5  UNL     1     -33.846   7.472   4.729  1.00 20.00     0.015 C 
HETATM    7  C6  UNL     1     -34.016   6.211   3.866  1.00 20.00     0.015 C 
HETATM    8  C7  UNL     1     -33.619   7.138   6.198  1.00 20.00     0.012 C 
HETATM    9  C4  UNL     1     -33.341   6.594   2.555  1.00 20.00     0.278 C 
HETATM   10  C8  UNL     1     -35.467   5.791   3.684  1.00 20.00     0.012 C 
ENDBRANCH   3   4
TORSDOF 1
ENDMDL
MODEL 3
REMARK VINA RESULT:      -4.1     10.724     11.666
REMARK  1 active torsions:
REMARK  status: ('A' for Active; 'I' for Inactive)
REMARK    1  A    between atoms: C9_9  and  N10_10 
ROOT
HETATM    1  C1  UNL     1     -35.363  17.132  -0.952  1.00 20.00     0.013 C 
HETATM    2  C2  UNL     1     -34.527  16.941  -1.791  1.00 20.00    -0.087 C 
HETATM    3  C9  UNL     1     -33.503  16.708  -2.813  1.00 20.00     0.364 C 
ENDROOT
BRANCH   3   4
HETATM    4  N10 UNL     1     -34.111  16.264  -4.058  1.00 20.00     0.100 N 
HETATM    5  C3  UNL     1     -33.125  15.750  -5.015  1.00 20.00     0.278 C 
HETATM    6  C5  UNL     1     -33.914  14.790  -5.919  1.00 20.00     0.015 C 
HETATM    7  C6  UNL     1     -35.319  14.741  -5.297  1.00 20.00     0.015 C 
HETATM    8  C7  UNL     1     -33.945  15.237  -7.374  1.00 20.00     0.012 C 
HETATM    9  C4  UNL     1     -35.078  15.184  -3.859  1.00 20.00     0.278 C 
HETATM   10  C8  UNL     1     -35.978  13.372  -5.390  1.00 20.00     0.012 C 
ENDBRANCH   3   4
TORSDOF 1
ENDMDL
MODEL 4
REMARK VINA RESULT:      -4.0     10.691     11.728
REMARK  1 active torsions:
REMARK  status: ('A' for Active; 'I' for Inactive)
REMARK    1  A    between atoms: C9_9  and  N10_10 
ROOT
HETATM    1  C1  UNL     1     -35.152  16.983  -1.007  1.00 20.00     0.013 C 
HETATM    2  C2  UNL     1     -34.430  16.947  -1.965  1.00 20.00    -0.087 C 
HETATM    3  C9  UNL     1     -33.547  16.907  -3.133  1.00 20.00     0.364 C 
ENDROOT
BRANCH   3   4
HETATM    4  N10 UNL     1     -33.853  15.757  -3.970  1.00 20.00     0.100 N 
HETATM    5  C3  UNL     1     -35.294  15.575  -4.173  1.00 20.00     0.278 C 
HETATM    6  C5  UNL     1     -35.414  14.804  -5.497  1.00 20.00     0.015 C 
HETATM    7  C6  UNL     1     -33.971  14.714  -6.022  1.00 20.00     0.015 C 
HETATM    8  C7  UNL     1     -36.051  13.431  -5.327  1.00 20.00     0.012 C 
HETATM    9  C4  UNL     1     -33.269  15.861  -5.307  1.00 20.00     0.278 C 
HETATM   10  C8  UNL     1     -33.869  14.811  -7.537  1.00 20.00     0.012 C 
ENDBRANCH   3   4
TORSDOF 1
ENDMDL
MODEL 5
REMARK VINA RESULT:      -3.9     10.689     11.431
REMARK  1 active torsions:
REMARK  status: ('A' for Active; 'I' for Inactive)
REMARK    1  A    between atoms: C9_9  and  N10_10 
ROOT
HETATM    1  C1  UNL     1     -33.064  14.585  -4.476  1.00 20.00     0.013 C 
HETATM    2  C2  UNL     1     -33.761  15.559  -4.550  1.00 20.00    -0.087 C 
HETATM    3  C9  UNL     1     -34.612  16.748  -4.645  1.00 20.00     0.364 C 
ENDROOT
BRANCH   3   4
HETATM    4  N10 UNL     1     -34.682  17.433  -3.363  1.00 20.00     0.100 N 
HETATM    5  C3  UNL     1     -35.185  16.570  -2.289  1.00 20.00     0.278 C 
HETATM    6  C5  UNL     1     -34.616  17.175  -0.996  1.00 20.00     0.015 C 
HETATM    7  C6  UNL     1     -33.696  18.311  -1.474  1.00 20.00     0.015 C 
HETATM    8  C7  UNL     1     -35.700  17.674  -0.048  1.00 20.00     0.012 C 
HETATM    9  C4  UNL     1     -33.379  17.919  -2.912  1.00 20.00     0.278 C 
HETATM   10  C8  UNL     1     -32.449  18.482  -0.619  1.00 20.00     0.012 C 
ENDBRANCH   3   4
TORSDOF 1
ENDMDL
MODEL 6
REMARK VINA RESULT:      -3.8     10.649     11.405
REMARK  1 active torsions:
REMARK  status: ('A' for Active; 'I' for Inactive)
REMARK    1  A    between atoms: C9_9  and  N10_10 
ROOT
HETATM    1  C1  UNL     1     -35.233  14.002  -4.875  1.00 20.00     0.013 C 
HETATM    2  C2  UNL     1     -34.660  15.046  -4.729  1.00 20.00    -0.087 C 
HETATM    3  C9  UNL     1     -33.960  16.322  -4.554  1.00 20.00     0.364 C 
ENDROOT
BRANCH   3   4
HETATM    4  N10 UNL     1     -33.770  16.614  -3.142  1.00 20.00     0.100 N 
HETATM    5  C3  UNL     1     -33.224  17.956  -2.912  1.00 20.00     0.278 C 
HETATM    6  C5  UNL     1     -33.674  18.329  -1.490  1.00 20.00     0.015 C 
HETATM    7  C6  UNL     1     -34.582  17.166  -1.056  1.00 20.00     0.015 C 
HETATM    8  C7  UNL     1     -32.505  18.534  -0.535  1.00 20.00     0.012 C 
HETATM    9  C4  UNL     1     -35.018  16.552  -2.381  1.00 20.00     0.278 C 
HETATM   10  C8  UNL     1     -35.755  17.603  -0.192  1.00 20.00     0.012 C 
ENDBRANCH   3   4
TORSDOF 1
ENDMDL
MODEL 7
REMARK VINA RESULT:      -3.8     10.463     11.276
REMARK  1 active torsions:
REMARK  status: ('A' for Active; 'I' for Inactive)
REMARK    1  A    between atoms: C9_9  and  N10_10 
ROOT
HETATM    1  C1  UNL     1     -35.300  16.987  -0.961  1.00 20.00     0.013 C 
HETATM    2  C2  UNL     1     -34.648  16.741  -1.938  1.00 20.00    -0.087 C 
HETATM    3  C9  UNL     1     -33.848  16.444  -3.129  1.00 20.00     0.364 C 
ENDROOT
BRANCH   3   4
HETATM    4  N10 UNL     1     -34.673  15.839  -4.164  1.00 20.00     0.100 N 
HETATM    5  C3  UNL     1     -34.492  14.387  -4.253  1.00 20.00     0.278 C 
HETATM    6  C5  UNL     1     -35.799  13.861  -4.868  1.00 20.00     0.015 C 
HETATM    7  C6  UNL     1     -36.703  15.101  -4.969  1.00 20.00     0.015 C 
HETATM    8  C7  UNL     1     -35.590  13.191  -6.219  1.00 20.00     0.012 C 
HETATM    9  C4  UNL     1     -36.103  16.053  -3.941  1.00 20.00     0.278 C 
HETATM   10  C8  UNL     1     -38.173  14.804  -4.711  1.00 20.00     0.012 C 
ENDBRANCH   3   4
TORSDOF 1
ENDMDL
MODEL 8
REMARK VINA RESULT:      -3.8     10.627     11.876
REMARK  1 active torsions:
REMARK  status: ('A' for Active; 'I' for Inactive)
REMARK    1  A    between atoms: C9_9  and  N10_10 
ROOT
HETATM    1  C1  UNL     1     -34.433  13.654  -7.534  1.00 20.00     0.013 C 
HETATM    2  C2  UNL     1     -35.130  13.555  -6.562  1.00 20.00    -0.087 C 
HETATM    3  C9  UNL     1     -35.983  13.430  -5.378  1.00 20.00     0.364 C 
ENDROOT
BRANCH   3   4
HETATM    4  N10 UNL     1     -35.883  14.618  -4.545  1.00 20.00     0.100 N 
HETATM    5  C3  UNL     1     -34.528  14.829  -4.024  1.00 20.00     0.278 C 
HETATM    6  C5  UNL     1     -34.440  16.339  -3.749  1.00 20.00     0.015 C 
HETATM    7  C6  UNL     1     -35.770  16.904  -4.274  1.00 20.00     0.015 C 
HETATM    8  C7  UNL     1     -34.220  16.660  -2.276  1.00 20.00     0.012 C 
HETATM    9  C4  UNL     1     -36.232  15.843  -5.264  1.00 20.00     0.278 C 
HETATM   10  C8  UNL     1     -35.637  18.283  -4.905  1.00 20.00     0.012 C 
ENDBRANCH   3   4
TORSDOF 1
ENDMDL
MODEL 9
REMARK VINA RESULT:      -3.7     10.761     11.500
REMARK  1 active torsions:
REMARK  status: ('A' for Active; 'I' for Inactive)
REMARK    1  A    between atoms: C9_9  and  N10_10 
ROOT
HETATM    1  C1  UNL     1     -34.439  13.670  -7.582  1.00 20.00     0.013 C 
HETATM    2  C2  UNL     1     -34.970  13.740  -6.508  1.00 20.00    -0.087 C 
HETATM    3  C9  UNL     1     -35.621  13.822  -5.198  1.00 20.00     0.364 C 
ENDROOT
BRANCH   3   4
HETATM    4  N10 UNL     1     -35.531  15.172  -4.663  1.00 20.00     0.100 N 
HETATM    5  C3  UNL     1     -36.739  15.572  -3.933  1.00 20.00     0.278 C 
HETATM    6  C5  UNL     1     -36.268  16.656  -2.951  1.00 20.00     0.015 C 
HETATM    7  C6  UNL     1     -34.741  16.699  -3.128  1.00 20.00     0.015 C 
HETATM    8  C7  UNL     1     -36.915  18.010  -3.210  1.00 20.00     0.012 C 
HETATM    9  C4  UNL     1     -34.421  15.334  -3.724  1.00 20.00     0.278 C 
HETATM   10  C8  UNL     1     -33.987  16.970  -1.834  1.00 20.00     0.012 C 
ENDBRANCH   3   4
TORSDOF 1
ENDMDL
