MODEL 1
REMARK VINA RESULT:      -6.1      0.000      0.000
REMARK  2 active torsions:
REMARK  status: ('A' for Active; 'I' for Inactive)
REMARK    1  A    between atoms: C5_5  and  C7_7 
REMARK    2  A    between atoms: C6_6  and  C8_8 
ROOT
HETATM    1  C1  UNL     1     -32.483   8.396   5.274  1.00 20.00     0.001 C 
HETATM    2  C2  UNL     1     -31.701   8.452   3.966  1.00 20.00     0.005 C 
HETATM    3  C3  UNL     1     -33.254   7.086   5.416  1.00 20.00     0.013 C 
HETATM    4  C4  UNL     1     -33.380   6.892   2.898  1.00 20.00     0.018 C 
HETATM    5  C5  UNL     1     -32.610   8.213   2.754  1.00 20.00    -0.004 C 
HETATM    6  C6  UNL     1     -34.173   6.839   4.212  1.00 20.00     0.094 C 
ENDROOT
BRANCH   6   7
HETATM    7  C8  UNL     1     -34.895   5.500   4.352  1.00 20.00     0.391 C 
HETATM    8  F9  UNL     1     -34.194   4.534   3.740  1.00 20.00    -0.171 F 
HETATM    9  F10 UNL     1     -35.031   5.184   5.648  1.00 20.00    -0.171 F 
HETATM   10  F11 UNL     1     -36.112   5.575   3.792  1.00 20.00    -0.171 F 
ENDBRANCH   6   7
BRANCH   5  11
HETATM   11  C7  UNL     1     -31.797   8.223   1.460  1.00 20.00     0.089 C 
HETATM   12 BR12 UNL     1     -32.483   9.599   0.279  1.00 20.00    -0.096 Br
ENDBRANCH   5  11
TORSDOF 2
ENDMDL
MODEL 2
REMARK VINA RESULT:      -5.6      3.902      4.815
REMARK  2 active torsions:
REMARK  status: ('A' for Active; 'I' for Inactive)
REMARK    1  A    between atoms: C5_5  and  C7_7 
REMARK    2  A    between atoms: C6_6  and  C8_8 
ROOT
HETATM    1  C1  UNL     1     -31.580   8.133   4.071  1.00 20.00     0.001 C 
HETATM    2  C2  UNL     1     -32.856   7.371   4.416  1.00 20.00     0.005 C 
HETATM    3  C3  UNL     1     -31.804   9.119   2.927  1.00 20.00     0.013 C 
HETATM    4  C4  UNL     1     -33.670   7.662   2.040  1.00 20.00     0.018 C 
HETATM    5  C5  UNL     1     -33.443   6.666   3.187  1.00 20.00    -0.004 C 
HETATM    6  C6  UNL     1     -32.384   8.425   1.688  1.00 20.00     0.094 C 
ENDROOT
BRANCH   6   7
HETATM    7  C8  UNL     1     -32.646   9.438   0.576  1.00 20.00     0.391 C 
HETATM    8  F9  UNL     1     -31.484   9.916   0.106  1.00 20.00    -0.171 F 
HETATM    9  F10 UNL     1     -33.314   8.853  -0.430  1.00 20.00    -0.171 F 
HETATM   10  F11 UNL     1     -33.378  10.459   1.047  1.00 20.00    -0.171 F 
ENDBRANCH   6   7
BRANCH   5  11
HETATM   11  C7  UNL     1     -34.746   5.953   3.546  1.00 20.00     0.089 C 
HETATM   12 BR12 UNL     1     -34.609   5.224   5.337  1.00 20.00    -0.096 Br
ENDBRANCH   5  11
TORSDOF 2
ENDMDL
MODEL 3
REMARK VINA RESULT:      -5.1      1.363      2.405
REMARK  2 active torsions:
REMARK  status: ('A' for Active; 'I' for Inactive)
REMARK    1  A    between atoms: C5_5  and  C7_7 
REMARK    2  A    between atoms: C6_6  and  C8_8 
ROOT
HETATM    1  C1  UNL     1     -33.023   5.629   2.002  1.00 20.00     0.001 C 
HETATM    2  C2  UNL     1     -32.697   7.104   1.788  1.00 20.00     0.005 C 
HETATM    3  C3  UNL     1     -33.969   5.426   3.183  1.00 20.00     0.013 C 
HETATM    4  C4  UNL     1     -33.092   7.547   4.245  1.00 20.00     0.018 C 
HETATM    5  C5  UNL     1     -32.136   7.750   3.060  1.00 20.00    -0.004 C 
HETATM    6  C6  UNL     1     -33.415   6.061   4.465  1.00 20.00     0.094 C 
ENDROOT
BRANCH   6   7
HETATM    7  C8  UNL     1     -34.400   5.890   5.620  1.00 20.00     0.391 C 
HETATM    8  F9  UNL     1     -34.348   6.958   6.431  1.00 20.00    -0.171 F 
HETATM    9  F10 UNL     1     -35.649   5.765   5.145  1.00 20.00    -0.171 F 
HETATM   10  F11 UNL     1     -34.093   4.792   6.327  1.00 20.00    -0.171 F 
ENDBRANCH   6   7
BRANCH   5  11
HETATM   11  C7  UNL     1     -31.865   9.237   2.836  1.00 20.00     0.089 C 
HETATM   12 BR12 UNL     1     -32.502   9.750   1.079  1.00 20.00    -0.096 Br
ENDBRANCH   5  11
TORSDOF 2
ENDMDL
MODEL 4
REMARK VINA RESULT:      -4.7     11.452     12.014
REMARK  2 active torsions:
REMARK  status: ('A' for Active; 'I' for Inactive)
REMARK    1  A    between atoms: C5_5  and  C7_7 
REMARK    2  A    between atoms: C6_6  and  C8_8 
ROOT
HETATM    1  C1  UNL     1     -35.522  17.927  -0.004  1.00 20.00     0.001 C 
HETATM    2  C2  UNL     1     -34.152  18.167   0.621  1.00 20.00     0.005 C 
HETATM    3  C3  UNL     1     -35.447  16.939  -1.166  1.00 20.00     0.013 C 
HETATM    4  C4  UNL     1     -33.050  17.624  -1.588  1.00 20.00     0.018 C 
HETATM    5  C5  UNL     1     -33.126  18.623  -0.423  1.00 20.00    -0.004 C 
HETATM    6  C6  UNL     1     -34.429  17.387  -2.222  1.00 20.00     0.094 C 
ENDROOT
BRANCH   6   7
HETATM    7  C8  UNL     1     -34.334  16.360  -3.349  1.00 20.00     0.391 C 
HETATM    8  F9  UNL     1     -33.137  15.755  -3.319  1.00 20.00    -0.171 F 
HETATM    9  F10 UNL     1     -35.294  15.433  -3.208  1.00 20.00    -0.171 F 
HETATM   10  F11 UNL     1     -34.485  16.966  -4.536  1.00 20.00    -0.171 F 
ENDBRANCH   6   7
BRANCH   5  11
HETATM   11  C7  UNL     1     -31.750  18.808   0.217  1.00 20.00     0.089 C 
HETATM   12 BR12 UNL     1     -31.922  18.730   2.146  1.00 20.00    -0.096 Br
ENDBRANCH   5  11
TORSDOF 2
ENDMDL
MODEL 5
REMARK VINA RESULT:      -4.5     11.317     12.127
REMARK  2 active torsions:
REMARK  status: ('A' for Active; 'I' for Inactive)
REMARK    1  A    between atoms: C5_5  and  C7_7 
REMARK    2  A    between atoms: C6_6  and  C8_8 
ROOT
HETATM    1  C1  UNL     1     -34.817  16.803  -1.956  1.00 20.00     0.001 C 
HETATM    2  C2  UNL     1     -36.113  17.157  -2.680  1.00 20.00     0.005 C 
HETATM    3  C3  UNL     1     -33.751  16.295  -2.923  1.00 20.00     0.013 C 
HETATM    4  C4  UNL     1     -35.562  15.472  -4.483  1.00 20.00     0.018 C 
HETATM    5  C5  UNL     1     -36.637  15.978  -3.509  1.00 20.00    -0.004 C 
HETATM    6  C6  UNL     1     -34.260  15.110  -3.753  1.00 20.00     0.094 C 
ENDROOT
BRANCH   6   7
HETATM    7  C8  UNL     1     -33.195  14.651  -4.747  1.00 20.00     0.391 C 
HETATM    8  F9  UNL     1     -33.765  13.958  -5.744  1.00 20.00    -0.171 F 
HETATM    9  F10 UNL     1     -32.560  15.714  -5.264  1.00 20.00    -0.171 F 
HETATM   10  F11 UNL     1     -32.298  13.867  -4.130  1.00 20.00    -0.171 F 
ENDBRANCH   6   7
BRANCH   5  11
HETATM   11  C7  UNL     1     -37.905  16.371  -4.265  1.00 20.00     0.089 C 
HETATM   12 BR12 UNL     1     -38.566  14.841  -5.254  1.00 20.00    -0.096 Br
ENDBRANCH   5  11
TORSDOF 2
ENDMDL
MODEL 6
REMARK VINA RESULT:      -4.5     10.993     12.171
REMARK  2 active torsions:
REMARK  status: ('A' for Active; 'I' for Inactive)
REMARK    1  A    between atoms: C5_5  and  C7_7 
REMARK    2  A    between atoms: C6_6  and  C8_8 
ROOT
HETATM    1  C1  UNL     1     -33.582  18.235  -4.464  1.00 20.00     0.001 C 
HETATM    2  C2  UNL     1     -34.789  18.450  -3.556  1.00 20.00     0.005 C 
HETATM    3  C3  UNL     1     -33.517  16.803  -4.988  1.00 20.00     0.013 C 
HETATM    4  C4  UNL     1     -34.755  15.999  -2.935  1.00 20.00     0.018 C 
HETATM    5  C5  UNL     1     -34.817  17.439  -2.403  1.00 20.00    -0.004 C 
HETATM    6  C6  UNL     1     -33.536  15.782  -3.843  1.00 20.00     0.094 C 
ENDROOT
BRANCH   6   7
HETATM    7  C8  UNL     1     -33.521  14.356  -4.392  1.00 20.00     0.391 C 
HETATM    8  F9  UNL     1     -33.695  14.375  -5.722  1.00 20.00    -0.171 F 
HETATM    9  F10 UNL     1     -32.348  13.769  -4.115  1.00 20.00    -0.171 F 
HETATM   10  F11 UNL     1     -34.508  13.639  -3.834  1.00 20.00    -0.171 F 
ENDBRANCH   6   7
BRANCH   5  11
HETATM   11  C7  UNL     1     -36.061  17.641  -1.539  1.00 20.00     0.089 C 
HETATM   12 BR12 UNL     1     -35.553  17.630   0.332  1.00 20.00    -0.096 Br
ENDBRANCH   5  11
TORSDOF 2
ENDMDL
MODEL 7
REMARK VINA RESULT:      -4.5     11.403     12.061
REMARK  2 active torsions:
REMARK  status: ('A' for Active; 'I' for Inactive)
REMARK    1  A    between atoms: C5_5  and  C7_7 
REMARK    2  A    between atoms: C6_6  and  C8_8 
ROOT
HETATM    1  C1  UNL     1     -32.802  18.307  -0.902  1.00 20.00     0.001 C 
HETATM    2  C2  UNL     1     -33.929  18.815  -0.009  1.00 20.00     0.005 C 
HETATM    3  C3  UNL     1     -33.336  17.717  -2.205  1.00 20.00     0.013 C 
HETATM    4  C4  UNL     1     -35.507  17.134  -1.048  1.00 20.00     0.018 C 
HETATM    5  C5  UNL     1     -34.969  17.722   0.266  1.00 20.00    -0.004 C 
HETATM    6  C6  UNL     1     -34.372  16.616  -1.943  1.00 20.00     0.094 C 
ENDROOT
BRANCH   6   7
HETATM    7  C8  UNL     1     -34.928  16.076  -3.259  1.00 20.00     0.391 C 
HETATM    8  F9  UNL     1     -34.391  14.877  -3.528  1.00 20.00    -0.171 F 
HETATM    9  F10 UNL     1     -36.261  15.948  -3.177  1.00 20.00    -0.171 F 
HETATM   10  F11 UNL     1     -34.634  16.918  -4.262  1.00 20.00    -0.171 F 
ENDBRANCH   6   7
BRANCH   5  11
HETATM   11  C7  UNL     1     -36.114  18.269   1.119  1.00 20.00     0.089 C 
HETATM   12 BR12 UNL     1     -37.631  18.668  -0.020  1.00 20.00    -0.096 Br
ENDBRANCH   5  11
TORSDOF 2
ENDMDL
MODEL 8
REMARK VINA RESULT:      -4.5     11.537     12.123
REMARK  2 active torsions:
REMARK  status: ('A' for Active; 'I' for Inactive)
REMARK    1  A    between atoms: C5_5  and  C7_7 
REMARK    2  A    between atoms: C6_6  and  C8_8 
ROOT
HETATM    1  C1  UNL     1     -36.359  16.449  -3.058  1.00 20.00     0.001 C 
HETATM    2  C2  UNL     1     -35.631  16.912  -1.800  1.00 20.00     0.005 C 
HETATM    3  C3  UNL     1     -35.522  15.455  -3.860  1.00 20.00     0.013 C 
HETATM    4  C4  UNL     1     -33.410  16.488  -2.931  1.00 20.00     0.018 C 
HETATM    5  C5  UNL     1     -34.250  17.492  -2.127  1.00 20.00    -0.004 C 
HETATM    6  C6  UNL     1     -34.140  16.026  -4.201  1.00 20.00     0.094 C 
ENDROOT
BRANCH   6   7
HETATM    7  C8  UNL     1     -33.303  14.997  -4.959  1.00 20.00     0.391 C 
HETATM    8  F9  UNL     1     -34.106  14.108  -5.564  1.00 20.00    -0.171 F 
HETATM    9  F10 UNL     1     -32.553  15.609  -5.888  1.00 20.00    -0.171 F 
HETATM   10  F11 UNL     1     -32.496  14.346  -4.108  1.00 20.00    -0.171 F 
ENDBRANCH   6   7
BRANCH   5  11
HETATM   11  C7  UNL     1     -33.520  17.902  -0.849  1.00 20.00     0.089 C 
HETATM   12 BR12 UNL     1     -34.812  18.179   0.570  1.00 20.00    -0.096 Br
ENDBRANCH   5  11
TORSDOF 2
ENDMDL
MODEL 9
REMARK VINA RESULT:      -4.5      3.459      4.706
REMARK  2 active torsions:
REMARK  status: ('A' for Active; 'I' for Inactive)
REMARK    1  A    between atoms: C5_5  and  C7_7 
REMARK    2  A    between atoms: C6_6  and  C8_8 
ROOT
HETATM    1  C1  UNL     1     -33.400   4.664   2.446  1.00 20.00     0.001 C 
HETATM    2  C2  UNL     1     -33.788   4.671   3.921  1.00 20.00     0.005 C 
HETATM    3  C3  UNL     1     -32.509   5.852   2.091  1.00 20.00     0.013 C 
HETATM    4  C4  UNL     1     -33.548   7.187   3.970  1.00 20.00     0.018 C 
HETATM    5  C5  UNL     1     -34.449   5.994   4.326  1.00 20.00    -0.004 C 
HETATM    6  C6  UNL     1     -33.162   7.183   2.484  1.00 20.00     0.094 C 
ENDROOT
BRANCH   6   7
HETATM    7  C8  UNL     1     -32.233   8.353   2.166  1.00 20.00     0.391 C 
HETATM    8  F9  UNL     1     -31.403   8.022   1.165  1.00 20.00    -0.171 F 
HETATM    9  F10 UNL     1     -32.952   9.424   1.798  1.00 20.00    -0.171 F 
HETATM   10  F11 UNL     1     -31.505   8.669   3.248  1.00 20.00    -0.171 F 
ENDBRANCH   6   7
BRANCH   5  11
HETATM   11  C7  UNL     1     -34.782   5.998   5.817  1.00 20.00     0.089 C 
HETATM   12 BR12 UNL     1     -33.874   7.479   6.677  1.00 20.00    -0.096 Br
ENDBRANCH   5  11
TORSDOF 2
ENDMDL
