MODEL 1
REMARK VINA RESULT:      -5.7      0.000      0.000
REMARK  3 active torsions:
REMARK  status: ('A' for Active; 'I' for Inactive)
REMARK    1  A    between atoms: C1_1  and  C7_7 
REMARK    2  A    between atoms: C8_8  and  C11_11 
REMARK    3  A    between atoms: C11_11  and  C12_12 
ROOT
HETATM    1  C2  UNL     1     -34.039   5.684   2.413  1.00 20.00     0.001 C 
HETATM    2  C3  UNL     1     -35.198   6.095   3.319  1.00 20.00     0.012 C 
HETATM    3  C4  UNL     1     -33.856   7.315   5.190  1.00 20.00     0.012 C 
HETATM    4  C5  UNL     1     -33.156   6.829   1.925  1.00 20.00     0.005 C 
HETATM    5  C6  UNL     1     -32.577   7.423   4.356  1.00 20.00     0.005 C 
HETATM    6  C7  UNL     1     -34.851   6.218   4.806  1.00 20.00     0.055 C 
HETATM    7  C8  UNL     1     -32.835   7.940   2.935  1.00 20.00    -0.014 C 
ENDROOT
BRANCH   6   8
HETATM    8  C1  UNL     1     -34.413   4.891   5.359  1.00 20.00     0.127 C 
HETATM    9  C9  UNL     1     -34.137   3.799   4.361  1.00 20.00     0.091 C 
HETATM   10  O13 UNL     1     -34.285   4.707   6.569  1.00 20.00    -0.298 OA
ENDBRANCH   6   8
BRANCH   7  11
HETATM   11  C11 UNL     1     -31.627   8.740   2.429  1.00 20.00     0.004 C 
BRANCH  11  12
HETATM   12  C12 UNL     1     -31.770   9.065   0.949  1.00 20.00    -0.004 C 
HETATM   13  C10 UNL     1     -32.630  10.302   0.742  1.00 20.00     0.005 C 
ENDBRANCH  11  12
ENDBRANCH   7  11
TORSDOF 3
ENDMDL
MODEL 2
REMARK VINA RESULT:      -5.7     11.256     12.483
REMARK  3 active torsions:
REMARK  status: ('A' for Active; 'I' for Inactive)
REMARK    1  A    between atoms: C1_1  and  C7_7 
REMARK    2  A    between atoms: C8_8  and  C11_11 
REMARK    3  A    between atoms: C11_11  and  C12_12 
ROOT
HETATM    1  C2  UNL     1     -34.885  17.856   0.249  1.00 20.00     0.001 C 
HETATM    2  C3  UNL     1     -34.415  19.234  -0.210  1.00 20.00     0.012 C 
HETATM    3  C4  UNL     1     -32.917  18.521  -2.218  1.00 20.00     0.012 C 
HETATM    4  C5  UNL     1     -35.594  17.022  -0.814  1.00 20.00     0.005 C 
HETATM    5  C6  UNL     1     -33.490  17.103  -2.286  1.00 20.00     0.005 C 
HETATM    6  C7  UNL     1     -33.041  19.263  -0.887  1.00 20.00     0.055 C 
HETATM    7  C8  UNL     1     -35.024  17.079  -2.239  1.00 20.00    -0.014 C 
ENDROOT
BRANCH   6   8
HETATM    8  C1  UNL     1     -31.970  18.817   0.068  1.00 20.00     0.127 C 
HETATM    9  C9  UNL     1     -32.117  19.252   1.501  1.00 20.00     0.091 C 
HETATM   10  O13 UNL     1     -31.021  18.127  -0.302  1.00 20.00    -0.298 OA
ENDBRANCH   6   8
BRANCH   7  11
HETATM   11  C11 UNL     1     -35.564  15.887  -3.041  1.00 20.00     0.004 C 
BRANCH  11  12
HETATM   12  C12 UNL     1     -34.453  15.216  -3.836  1.00 20.00    -0.004 C 
HETATM   13  C10 UNL     1     -34.968  13.979  -4.554  1.00 20.00     0.005 C 
ENDBRANCH  11  12
ENDBRANCH   7  11
TORSDOF 3
ENDMDL
MODEL 3
REMARK VINA RESULT:      -5.7     11.527     12.203
REMARK  3 active torsions:
REMARK  status: ('A' for Active; 'I' for Inactive)
REMARK    1  A    between atoms: C1_1  and  C7_7 
REMARK    2  A    between atoms: C8_8  and  C11_11 
REMARK    3  A    between atoms: C11_11  and  C12_12 
ROOT
HETATM    1  C2  UNL     1     -33.395  15.113  -4.549  1.00 20.00     0.001 C 
HETATM    2  C3  UNL     1     -34.094  15.592  -5.819  1.00 20.00     0.012 C 
HETATM    3  C4  UNL     1     -36.559  15.571  -4.974  1.00 20.00     0.012 C 
HETATM    4  C5  UNL     1     -33.652  15.958  -3.305  1.00 20.00     0.005 C 
HETATM    5  C6  UNL     1     -36.168  15.479  -3.496  1.00 20.00     0.005 C 
HETATM    6  C7  UNL     1     -35.531  15.091  -6.000  1.00 20.00     0.055 C 
HETATM    7  C8  UNL     1     -35.079  16.487  -3.106  1.00 20.00    -0.014 C 
ENDROOT
BRANCH   6   8
HETATM    8  C1  UNL     1     -35.559  13.593  -6.115  1.00 20.00     0.127 C 
HETATM    9  C9  UNL     1     -35.035  13.003  -7.397  1.00 20.00     0.091 C 
HETATM   10  O13 UNL     1     -35.987  12.884  -5.207  1.00 20.00    -0.298 OA
ENDBRANCH   6   8
BRANCH   7  11
HETATM   11  C11 UNL     1     -35.251  16.920  -1.643  1.00 20.00     0.004 C 
BRANCH  11  12
HETATM   12  C12 UNL     1     -33.959  17.508  -1.094  1.00 20.00    -0.004 C 
HETATM   13  C10 UNL     1     -34.205  18.233   0.219  1.00 20.00     0.005 C 
ENDBRANCH  11  12
ENDBRANCH   7  11
TORSDOF 3
ENDMDL
MODEL 4
REMARK VINA RESULT:      -5.6     11.657     12.446
REMARK  3 active torsions:
REMARK  status: ('A' for Active; 'I' for Inactive)
REMARK    1  A    between atoms: C1_1  and  C7_7 
REMARK    2  A    between atoms: C8_8  and  C11_11 
REMARK    3  A    between atoms: C11_11  and  C12_12 
ROOT
HETATM    1  C2  UNL     1     -36.359  15.599  -4.728  1.00 20.00     0.001 C 
HETATM    2  C3  UNL     1     -35.735  14.211  -4.845  1.00 20.00     0.012 C 
HETATM    3  C4  UNL     1     -33.271  14.806  -4.245  1.00 20.00     0.012 C 
HETATM    4  C5  UNL     1     -36.177  16.284  -3.377  1.00 20.00     0.005 C 
HETATM    5  C6  UNL     1     -33.627  16.177  -3.663  1.00 20.00     0.005 C 
HETATM    6  C7  UNL     1     -34.255  14.192  -5.241  1.00 20.00     0.055 C 
HETATM    7  C8  UNL     1     -34.813  16.120  -2.691  1.00 20.00    -0.014 C 
ENDROOT
BRANCH   6   8
HETATM    8  C1  UNL     1     -34.065  14.789  -6.607  1.00 20.00     0.127 C 
HETATM    9  C9  UNL     1     -34.684  14.048  -7.762  1.00 20.00     0.091 C 
HETATM   10  O13 UNL     1     -33.437  15.833  -6.774  1.00 20.00    -0.298 OA
ENDBRANCH   6   8
BRANCH   7  11
HETATM   11  C11 UNL     1     -34.668  17.196  -1.607  1.00 20.00     0.004 C 
BRANCH  11  12
HETATM   12  C12 UNL     1     -33.245  17.735  -1.562  1.00 20.00    -0.004 C 
HETATM   13  C10 UNL     1     -32.986  18.481  -0.262  1.00 20.00     0.005 C 
ENDBRANCH  11  12
ENDBRANCH   7  11
TORSDOF 3
ENDMDL
MODEL 5
REMARK VINA RESULT:      -5.3      0.910      1.099
REMARK  3 active torsions:
REMARK  status: ('A' for Active; 'I' for Inactive)
REMARK    1  A    between atoms: C1_1  and  C7_7 
REMARK    2  A    between atoms: C8_8  and  C11_11 
REMARK    3  A    between atoms: C11_11  and  C12_12 
ROOT
HETATM    1  C2  UNL     1     -33.284   5.352   2.203  1.00 20.00     0.001 C 
HETATM    2  C3  UNL     1     -34.749   5.567   2.577  1.00 20.00     0.012 C 
HETATM    3  C4  UNL     1     -34.435   7.197   4.585  1.00 20.00     0.012 C 
HETATM    4  C5  UNL     1     -32.501   6.621   1.881  1.00 20.00     0.005 C 
HETATM    5  C6  UNL     1     -32.978   7.518   4.240  1.00 20.00     0.005 C 
HETATM    6  C7  UNL     1     -35.006   5.881   4.054  1.00 20.00     0.055 C 
HETATM    7  C8  UNL     1     -32.778   7.852   2.756  1.00 20.00    -0.014 C 
ENDROOT
BRANCH   6   8
HETATM    8  C1  UNL     1     -34.578   4.732   4.922  1.00 20.00     0.127 C 
HETATM    9  C9  UNL     1     -34.536   4.982   6.405  1.00 20.00     0.091 C 
HETATM   10  O13 UNL     1     -34.278   3.638   4.444  1.00 20.00    -0.298 OA
ENDBRANCH   6   8
BRANCH   7  11
HETATM   11  C11 UNL     1     -31.631   8.856   2.583  1.00 20.00     0.004 C 
BRANCH  11  12
HETATM   12  C12 UNL     1     -31.518   9.311   1.135  1.00 20.00    -0.004 C 
HETATM   13  C10 UNL     1     -32.655  10.250   0.768  1.00 20.00     0.005 C 
ENDBRANCH  11  12
ENDBRANCH   7  11
TORSDOF 3
ENDMDL
MODEL 6
REMARK VINA RESULT:      -4.8     11.483     13.271
REMARK  3 active torsions:
REMARK  status: ('A' for Active; 'I' for Inactive)
REMARK    1  A    between atoms: C1_1  and  C7_7 
REMARK    2  A    between atoms: C8_8  and  C11_11 
REMARK    3  A    between atoms: C11_11  and  C12_12 
ROOT
HETATM    1  C2  UNL     1     -35.088  14.014  -5.122  1.00 20.00     0.001 C 
HETATM    2  C3  UNL     1     -34.275  14.161  -6.406  1.00 20.00     0.012 C 
HETATM    3  C4  UNL     1     -34.128  16.759  -6.516  1.00 20.00     0.012 C 
HETATM    4  C5  UNL     1     -34.481  14.673  -3.888  1.00 20.00     0.005 C 
HETATM    5  C6  UNL     1     -34.564  16.956  -5.062  1.00 20.00     0.005 C 
HETATM    6  C7  UNL     1     -34.529  15.449  -7.195  1.00 20.00     0.055 C 
HETATM    7  C8  UNL     1     -33.812  16.041  -4.086  1.00 20.00    -0.014 C 
ENDROOT
BRANCH   6   8
HETATM    8  C1  UNL     1     -35.956  15.511  -7.663  1.00 20.00     0.127 C 
HETATM    9  C9  UNL     1     -36.555  16.882  -7.824  1.00 20.00     0.091 C 
HETATM   10  O13 UNL     1     -36.601  14.492  -7.904  1.00 20.00    -0.298 OA
ENDBRANCH   6   8
BRANCH   7  11
HETATM   11  C11 UNL     1     -33.660  16.725  -2.721  1.00 20.00     0.004 C 
BRANCH  11  12
HETATM   12  C12 UNL     1     -34.957  16.653  -1.927  1.00 20.00    -0.004 C 
HETATM   13  C10 UNL     1     -34.865  17.480  -0.655  1.00 20.00     0.005 C 
ENDBRANCH  11  12
ENDBRANCH   7  11
TORSDOF 3
ENDMDL
MODEL 7
REMARK VINA RESULT:      -4.8     11.210     12.899
REMARK  3 active torsions:
REMARK  status: ('A' for Active; 'I' for Inactive)
REMARK    1  A    between atoms: C1_1  and  C7_7 
REMARK    2  A    between atoms: C8_8  and  C11_11 
REMARK    3  A    between atoms: C11_11  and  C12_12 
ROOT
HETATM    1  C2  UNL     1     -34.932  17.796  -5.047  1.00 20.00     0.001 C 
HETATM    2  C3  UNL     1     -33.597  17.177  -4.640  1.00 20.00     0.012 C 
HETATM    3  C4  UNL     1     -34.445  14.858  -3.808  1.00 20.00     0.012 C 
HETATM    4  C5  UNL     1     -35.732  17.001  -6.074  1.00 20.00     0.005 C 
HETATM    5  C6  UNL     1     -35.822  15.002  -4.463  1.00 20.00     0.005 C 
HETATM    6  C7  UNL     1     -33.674  16.145  -3.510  1.00 20.00     0.055 C 
HETATM    7  C8  UNL     1     -35.739  15.473  -5.921  1.00 20.00    -0.014 C 
ENDROOT
BRANCH   6   8
HETATM    8  C1  UNL     1     -34.177  16.782  -2.245  1.00 20.00     0.127 C 
HETATM    9  C9  UNL     1     -33.265  17.775  -1.578  1.00 20.00     0.091 C 
HETATM   10  O13 UNL     1     -35.282  16.506  -1.779  1.00 20.00    -0.298 OA
ENDBRANCH   6   8
BRANCH   7  11
HETATM   11  C11 UNL     1     -36.904  14.895  -6.736  1.00 20.00     0.004 C 
BRANCH  11  12
HETATM   12  C12 UNL     1     -36.392  14.084  -7.918  1.00 20.00    -0.004 C 
HETATM   13  C10 UNL     1     -35.068  13.414  -7.586  1.00 20.00     0.005 C 
ENDBRANCH  11  12
ENDBRANCH   7  11
TORSDOF 3
ENDMDL
MODEL 8
REMARK VINA RESULT:      -4.8     11.596     12.415
REMARK  3 active torsions:
REMARK  status: ('A' for Active; 'I' for Inactive)
REMARK    1  A    between atoms: C1_1  and  C7_7 
REMARK    2  A    between atoms: C8_8  and  C11_11 
REMARK    3  A    between atoms: C11_11  and  C12_12 
ROOT
HETATM    1  C2  UNL     1     -34.260  14.768  -4.685  1.00 20.00     0.001 C 
HETATM    2  C3  UNL     1     -34.957  15.586  -5.770  1.00 20.00     0.012 C 
HETATM    3  C4  UNL     1     -36.713  16.828  -4.300  1.00 20.00     0.012 C 
HETATM    4  C5  UNL     1     -33.673  15.580  -3.534  1.00 20.00     0.005 C 
HETATM    5  C6  UNL     1     -36.009  16.494  -2.982  1.00 20.00     0.005 C 
HETATM    6  C7  UNL     1     -36.426  15.917  -5.495  1.00 20.00     0.055 C 
HETATM    7  C8  UNL     1     -34.500  16.770  -3.027  1.00 20.00    -0.014 C 
ENDROOT
BRANCH   6   8
HETATM    8  C1  UNL     1     -37.245  14.660  -5.410  1.00 20.00     0.127 C 
HETATM    9  C9  UNL     1     -38.576  14.765  -4.715  1.00 20.00     0.091 C 
HETATM   10  O13 UNL     1     -36.849  13.598  -5.887  1.00 20.00    -0.298 OA
ENDBRANCH   6   8
BRANCH   7  11
HETATM   11  C11 UNL     1     -33.989  17.178  -1.639  1.00 20.00     0.004 C 
BRANCH  11  12
HETATM   12  C12 UNL     1     -32.876  18.211  -1.750  1.00 20.00    -0.004 C 
HETATM   13  C10 UNL     1     -32.224  18.456  -0.399  1.00 20.00     0.005 C 
ENDBRANCH  11  12
ENDBRANCH   7  11
TORSDOF 3
ENDMDL
MODEL 9
REMARK VINA RESULT:      -4.7     11.706     13.173
REMARK  3 active torsions:
REMARK  status: ('A' for Active; 'I' for Inactive)
REMARK    1  A    between atoms: C1_1  and  C7_7 
REMARK    2  A    between atoms: C8_8  and  C11_11 
REMARK    3  A    between atoms: C11_11  and  C12_12 
ROOT
HETATM    1  C2  UNL     1     -34.677  18.577  -4.608  1.00 20.00     0.001 C 
HETATM    2  C3  UNL     1     -35.563  17.394  -4.989  1.00 20.00     0.012 C 
HETATM    3  C4  UNL     1     -34.457  15.549  -3.520  1.00 20.00     0.012 C 
HETATM    4  C5  UNL     1     -34.620  18.895  -3.117  1.00 20.00     0.005 C 
HETATM    5  C6  UNL     1     -33.689  16.547  -2.649  1.00 20.00     0.005 C 
HETATM    6  C7  UNL     1     -34.888  16.021  -4.909  1.00 20.00     0.055 C 
HETATM    7  C8  UNL     1     -34.569  17.701  -2.152  1.00 20.00    -0.014 C 
ENDROOT
BRANCH   6   8
HETATM    8  C1  UNL     1     -33.741  15.938  -5.876  1.00 20.00     0.127 C 
HETATM    9  C9  UNL     1     -34.064  16.151  -7.330  1.00 20.00     0.091 C 
HETATM   10  O13 UNL     1     -32.593  15.710  -5.497  1.00 20.00    -0.298 OA
ENDBRANCH   6   8
BRANCH   7  11
HETATM   11  C11 UNL     1     -34.086  18.189  -0.779  1.00 20.00     0.004 C 
BRANCH  11  12
HETATM   12  C12 UNL     1     -32.579  18.405  -0.777  1.00 20.00    -0.004 C 
HETATM   13  C10 UNL     1     -32.097  18.867   0.588  1.00 20.00     0.005 C 
ENDBRANCH  11  12
ENDBRANCH   7  11
TORSDOF 3
ENDMDL
