MODEL 1
REMARK VINA RESULT:      -4.2      0.000      0.000
REMARK  3 active torsions:
REMARK  status: ('A' for Active; 'I' for Inactive)
REMARK    1  A    between atoms: C5_5  and  S11_11 
REMARK    2  A    between atoms: C8_8  and  C9_9 
REMARK    3  A    between atoms: C9_9  and  S11_11 
ROOT
HETATM    1  C1  UNL     1     -36.665  14.380  -5.152  1.00 20.00     0.080 C 
HETATM    2  C2  UNL     1     -34.023  15.376  -7.082  1.00 20.00     0.009 C 
HETATM    3  C3  UNL     1     -35.248  16.053  -6.437  1.00 20.00     0.037 C 
HETATM    4  C4  UNL     1     -34.441  14.044  -6.407  1.00 20.00     0.014 C 
HETATM    5  C5  UNL     1     -35.341  14.874  -5.438  1.00 20.00     0.100 C 
HETATM    6  C6  UNL     1     -35.110  13.056  -7.358  1.00 20.00     0.012 C 
HETATM    7  N10 UNL     1     -37.730  13.983  -4.922  1.00 20.00    -0.196 NA
ENDROOT
BRANCH   5   8
HETATM    8  S11 UNL     1     -34.482  15.251  -3.850  1.00 20.00    -0.143 SA
BRANCH   8   9
HETATM    9  C9  UNL     1     -35.801  16.213  -3.079  1.00 20.00     0.075 C 
BRANCH   9  10
HETATM   10  C8  UNL     1     -35.328  16.799  -1.753  1.00 20.00     0.006 C 
HETATM   11  C7  UNL     1     -33.840  17.115  -1.794  1.00 20.00     0.006 C 
ENDBRANCH   9  10
ENDBRANCH   8   9
ENDBRANCH   5   8
TORSDOF 3
ENDMDL
MODEL 2
REMARK VINA RESULT:      -4.1      1.944      2.471
REMARK  3 active torsions:
REMARK  status: ('A' for Active; 'I' for Inactive)
REMARK    1  A    between atoms: C5_5  and  S11_11 
REMARK    2  A    between atoms: C8_8  and  C9_9 
REMARK    3  A    between atoms: C9_9  and  S11_11 
ROOT
HETATM    1  C1  UNL     1     -33.670  14.185  -4.539  1.00 20.00     0.080 C 
HETATM    2  C2  UNL     1     -36.472  14.191  -6.499  1.00 20.00     0.009 C 
HETATM    3  C3  UNL     1     -36.006  13.460  -5.226  1.00 20.00     0.037 C 
HETATM    4  C4  UNL     1     -35.154  15.008  -6.476  1.00 20.00     0.014 C 
HETATM    5  C5  UNL     1     -34.980  14.593  -4.982  1.00 20.00     0.100 C 
HETATM    6  C6  UNL     1     -34.118  14.532  -7.491  1.00 20.00     0.012 C 
HETATM    7  N10 UNL     1     -32.616  13.857  -4.183  1.00 20.00    -0.196 NA
ENDROOT
BRANCH   5   8
HETATM    8  S11 UNL     1     -35.634  15.876  -3.828  1.00 20.00    -0.143 SA
BRANCH   8   9
HETATM    9  C9  UNL     1     -34.078  16.735  -3.510  1.00 20.00     0.075 C 
BRANCH   9  10
HETATM   10  C8  UNL     1     -33.901  16.981  -2.015  1.00 20.00     0.006 C 
HETATM   11  C7  UNL     1     -35.240  16.941  -1.291  1.00 20.00     0.006 C 
ENDBRANCH   9  10
ENDBRANCH   8   9
ENDBRANCH   5   8
TORSDOF 3
ENDMDL
MODEL 3
REMARK VINA RESULT:      -4.1      1.414      1.719
REMARK  3 active torsions:
REMARK  status: ('A' for Active; 'I' for Inactive)
REMARK    1  A    between atoms: C5_5  and  S11_11 
REMARK    2  A    between atoms: C8_8  and  C9_9 
REMARK    3  A    between atoms: C9_9  and  S11_11 
ROOT
HETATM    1  C1  UNL     1     -35.827  13.861  -5.597  1.00 20.00     0.080 C 
HETATM    2  C2  UNL     1     -35.807  16.439  -7.845  1.00 20.00     0.009 C 
HETATM    3  C3  UNL     1     -36.879  15.597  -7.126  1.00 20.00     0.037 C 
HETATM    4  C4  UNL     1     -34.718  15.679  -7.045  1.00 20.00     0.014 C 
HETATM    5  C5  UNL     1     -35.832  15.231  -6.047  1.00 20.00     0.100 C 
HETATM    6  C6  UNL     1     -33.991  14.610  -7.856  1.00 20.00     0.012 C 
HETATM    7  N10 UNL     1     -35.825  12.759  -5.235  1.00 20.00    -0.196 NA
ENDROOT
BRANCH   5   8
HETATM    8  S11 UNL     1     -35.936  16.346  -4.582  1.00 20.00    -0.143 SA
BRANCH   8   9
HETATM    9  C9  UNL     1     -34.595  15.614  -3.619  1.00 20.00     0.075 C 
BRANCH   9  10
HETATM   10  C8  UNL     1     -34.100  16.595  -2.562  1.00 20.00     0.006 C 
HETATM   11  C7  UNL     1     -35.165  16.841  -1.503  1.00 20.00     0.006 C 
ENDBRANCH   9  10
ENDBRANCH   8   9
ENDBRANCH   5   8
TORSDOF 3
ENDMDL
MODEL 4
REMARK VINA RESULT:      -4.1      1.606      2.019
REMARK  3 active torsions:
REMARK  status: ('A' for Active; 'I' for Inactive)
REMARK    1  A    between atoms: C5_5  and  S11_11 
REMARK    2  A    between atoms: C8_8  and  C9_9 
REMARK    3  A    between atoms: C9_9  and  S11_11 
ROOT
HETATM    1  C1  UNL     1     -35.577  13.831  -5.424  1.00 20.00     0.080 C 
HETATM    2  C2  UNL     1     -33.295  16.194  -6.375  1.00 20.00     0.009 C 
HETATM    3  C3  UNL     1     -34.355  15.324  -7.077  1.00 20.00     0.037 C 
HETATM    4  C4  UNL     1     -33.760  15.609  -5.016  1.00 20.00     0.014 C 
HETATM    5  C5  UNL     1     -35.076  15.150  -5.718  1.00 20.00     0.100 C 
HETATM    6  C6  UNL     1     -32.823  14.544  -4.452  1.00 20.00     0.012 C 
HETATM    7  N10 UNL     1     -35.980  12.769  -5.187  1.00 20.00    -0.196 NA
ENDROOT
BRANCH   5   8
HETATM    8  S11 UNL     1     -36.438  16.375  -5.501  1.00 20.00    -0.143 SA
BRANCH   8   9
HETATM    9  C9  UNL     1     -36.822  16.011  -3.775  1.00 20.00     0.075 C 
BRANCH   9  10
HETATM   10  C8  UNL     1     -36.380  17.161  -2.876  1.00 20.00     0.006 C 
HETATM   11  C7  UNL     1     -35.331  16.700  -1.875  1.00 20.00     0.006 C 
ENDBRANCH   9  10
ENDBRANCH   8   9
ENDBRANCH   5   8
TORSDOF 3
ENDMDL
MODEL 5
REMARK VINA RESULT:      -4.1     10.476     11.179
REMARK  3 active torsions:
REMARK  status: ('A' for Active; 'I' for Inactive)
REMARK    1  A    between atoms: C5_5  and  S11_11 
REMARK    2  A    between atoms: C8_8  and  C9_9 
REMARK    3  A    between atoms: C9_9  and  S11_11 
ROOT
HETATM    1  C1  UNL     1     -31.661   8.510   3.192  1.00 20.00     0.080 C 
HETATM    2  C2  UNL     1     -32.536   9.168  -0.048  1.00 20.00     0.009 C 
HETATM    3  C3  UNL     1     -31.449   8.342   0.666  1.00 20.00     0.037 C 
HETATM    4  C4  UNL     1     -33.139   9.514   1.338  1.00 20.00     0.014 C 
HETATM    5  C5  UNL     1     -32.336   8.316   1.933  1.00 20.00     0.100 C 
HETATM    6  C6  UNL     1     -32.808  10.925   1.817  1.00 20.00     0.012 C 
HETATM    7  N10 UNL     1     -31.117   8.667   4.205  1.00 20.00    -0.196 NA
ENDROOT
BRANCH   5   8
HETATM    8  S11 UNL     1     -33.355   6.781   2.027  1.00 20.00    -0.143 SA
BRANCH   8   9
HETATM    9  C9  UNL     1     -33.853   6.921   3.757  1.00 20.00     0.075 C 
BRANCH   9  10
HETATM   10  C8  UNL     1     -34.883   5.852   4.104  1.00 20.00     0.006 C 
HETATM   11  C7  UNL     1     -34.604   5.247   5.472  1.00 20.00     0.006 C 
ENDBRANCH   9  10
ENDBRANCH   8   9
ENDBRANCH   5   8
TORSDOF 3
ENDMDL
MODEL 6
REMARK VINA RESULT:      -3.9      1.622      4.244
REMARK  3 active torsions:
REMARK  status: ('A' for Active; 'I' for Inactive)
REMARK    1  A    between atoms: C5_5  and  S11_11 
REMARK    2  A    between atoms: C8_8  and  C9_9 
REMARK    3  A    between atoms: C9_9  and  S11_11 
ROOT
HETATM    1  C1  UNL     1     -36.841  15.266  -4.369  1.00 20.00     0.080 C 
HETATM    2  C2  UNL     1     -33.498  15.373  -3.654  1.00 20.00     0.009 C 
HETATM    3  C3  UNL     1     -34.485  14.327  -4.208  1.00 20.00     0.037 C 
HETATM    4  C4  UNL     1     -34.652  16.409  -3.637  1.00 20.00     0.014 C 
HETATM    5  C5  UNL     1     -35.436  15.478  -4.616  1.00 20.00     0.100 C 
HETATM    6  C6  UNL     1     -35.232  16.661  -2.248  1.00 20.00     0.012 C 
HETATM    7  N10 UNL     1     -37.971  15.095  -4.172  1.00 20.00    -0.196 NA
ENDROOT
BRANCH   5   8
HETATM    8  S11 UNL     1     -35.201  15.974  -6.377  1.00 20.00    -0.143 SA
BRANCH   8   9
HETATM    9  C9  UNL     1     -36.418  14.860  -7.110  1.00 20.00     0.075 C 
BRANCH   9  10
HETATM   10  C8  UNL     1     -35.723  13.765  -7.913  1.00 20.00     0.006 C 
HETATM   11  C7  UNL     1     -34.214  13.964  -7.918  1.00 20.00     0.006 C 
ENDBRANCH   9  10
ENDBRANCH   8   9
ENDBRANCH   5   8
TORSDOF 3
ENDMDL
MODEL 7
REMARK VINA RESULT:      -3.9     11.258     11.944
REMARK  3 active torsions:
REMARK  status: ('A' for Active; 'I' for Inactive)
REMARK    1  A    between atoms: C5_5  and  S11_11 
REMARK    2  A    between atoms: C8_8  and  C9_9 
REMARK    3  A    between atoms: C9_9  and  S11_11 
ROOT
HETATM    1  C1  UNL     1     -33.570   7.172   5.036  1.00 20.00     0.080 C 
HETATM    2  C2  UNL     1     -34.218   5.633   2.052  1.00 20.00     0.009 C 
HETATM    3  C3  UNL     1     -34.539   6.996   2.695  1.00 20.00     0.037 C 
HETATM    4  C4  UNL     1     -33.385   5.271   3.309  1.00 20.00     0.014 C 
HETATM    5  C5  UNL     1     -33.350   6.791   3.664  1.00 20.00     0.100 C 
HETATM    6  C6  UNL     1     -34.095   4.315   4.264  1.00 20.00     0.012 C 
HETATM    7  N10 UNL     1     -33.747   7.479   6.141  1.00 20.00    -0.196 NA
ENDROOT
BRANCH   5   8
HETATM    8  S11 UNL     1     -31.814   7.608   3.050  1.00 20.00    -0.143 SA
BRANCH   8   9
HETATM    9  C9  UNL     1     -32.599   8.961   2.148  1.00 20.00     0.075 C 
BRANCH   9  10
HETATM   10  C8  UNL     1     -31.980   9.108   0.762  1.00 20.00     0.006 C 
HETATM   11  C7  UNL     1     -33.041   9.434  -0.279  1.00 20.00     0.006 C 
ENDBRANCH   9  10
ENDBRANCH   8   9
ENDBRANCH   5   8
TORSDOF 3
ENDMDL
MODEL 8
REMARK VINA RESULT:      -3.9     11.274     12.249
REMARK  3 active torsions:
REMARK  status: ('A' for Active; 'I' for Inactive)
REMARK    1  A    between atoms: C5_5  and  S11_11 
REMARK    2  A    between atoms: C8_8  and  C9_9 
REMARK    3  A    between atoms: C9_9  and  S11_11 
ROOT
HETATM    1  C1  UNL     1     -33.088   5.561   2.985  1.00 20.00     0.080 C 
HETATM    2  C2  UNL     1     -33.809   7.393   5.782  1.00 20.00     0.009 C 
HETATM    3  C3  UNL     1     -32.599   7.224   4.842  1.00 20.00     0.037 C 
HETATM    4  C4  UNL     1     -34.614   6.435   4.866  1.00 20.00     0.014 C 
HETATM    5  C5  UNL     1     -33.555   6.691   3.748  1.00 20.00     0.100 C 
HETATM    6  C6  UNL     1     -34.757   5.023   5.427  1.00 20.00     0.012 C 
HETATM    7  N10 UNL     1     -32.712   4.651   2.371  1.00 20.00    -0.196 NA
ENDROOT
BRANCH   5   8
HETATM    8  S11 UNL     1     -34.084   8.024   2.588  1.00 20.00    -0.143 SA
BRANCH   8   9
HETATM    9  C9  UNL     1     -32.472   8.362   1.850  1.00 20.00     0.075 C 
BRANCH   9  10
HETATM   10  C8  UNL     1     -32.506   9.671   1.069  1.00 20.00     0.006 C 
HETATM   11  C7  UNL     1     -33.032   9.453  -0.343  1.00 20.00     0.006 C 
ENDBRANCH   9  10
ENDBRANCH   8   9
ENDBRANCH   5   8
TORSDOF 3
ENDMDL
MODEL 9
REMARK VINA RESULT:      -3.8      1.957      4.061
REMARK  3 active torsions:
REMARK  status: ('A' for Active; 'I' for Inactive)
REMARK    1  A    between atoms: C5_5  and  S11_11 
REMARK    2  A    between atoms: C8_8  and  C9_9 
REMARK    3  A    between atoms: C9_9  and  S11_11 
ROOT
HETATM    1  C1  UNL     1     -35.280  13.806  -5.247  1.00 20.00     0.080 C 
HETATM    2  C2  UNL     1     -33.596  16.424  -3.832  1.00 20.00     0.009 C 
HETATM    3  C3  UNL     1     -33.271  14.967  -4.214  1.00 20.00     0.037 C 
HETATM    4  C4  UNL     1     -35.007  16.238  -4.449  1.00 20.00     0.014 C 
HETATM    5  C5  UNL     1     -34.458  14.989  -5.206  1.00 20.00     0.100 C 
HETATM    6  C6  UNL     1     -36.109  16.038  -3.413  1.00 20.00     0.012 C 
HETATM    7  N10 UNL     1     -35.942  12.853  -5.280  1.00 20.00    -0.196 NA
ENDROOT
BRANCH   5   8
HETATM    8  S11 UNL     1     -33.914  15.404  -6.919  1.00 20.00    -0.143 SA
BRANCH   8   9
HETATM    9  C9  UNL     1     -35.447  14.982  -7.773  1.00 20.00     0.075 C 
BRANCH   9  10
HETATM   10  C8  UNL     1     -36.359  16.201  -7.866  1.00 20.00     0.006 C 
HETATM   11  C7  UNL     1     -37.691  15.941  -7.176  1.00 20.00     0.006 C 
ENDBRANCH   9  10
ENDBRANCH   8   9
ENDBRANCH   5   8
TORSDOF 3
ENDMDL
