MODEL 1
REMARK VINA RESULT:      -4.8      0.000      0.000
REMARK  2 active torsions:
REMARK  status: ('A' for Active; 'I' for Inactive)
REMARK    1  A    between atoms: C2_2  and  C3_3 
REMARK    2  A    between atoms: C2_2  and  C10_10 
ROOT
HETATM    1  C1  UNL     1     -35.733  13.932  -4.832  1.00 20.00     0.066 C 
HETATM    2  C10 UNL     1     -35.720  15.307  -4.324  1.00 20.00     0.202 C 
HETATM    3  N11 UNL     1     -35.747  12.843  -5.234  1.00 20.00    -0.197 NA
ENDROOT
BRANCH   2   4
HETATM    4  C2  UNL     1     -34.324  15.785  -4.003  1.00 20.00     0.145 C 
HETATM    5  O12 UNL     1     -33.375  15.749  -4.774  1.00 20.00    -0.296 OA
BRANCH   4   6
HETATM    6  C3  UNL     1     -34.144  16.326  -2.647  1.00 20.00     0.073 A 
HETATM    7  C4  UNL     1     -35.098  17.366  -2.081  1.00 20.00    -0.029 A 
HETATM    8  C5  UNL     1     -33.647  17.746  -2.424  1.00 20.00    -0.029 A 
HETATM    9  C6  UNL     1     -35.502  17.221  -0.629  1.00 20.00     0.016 C 
HETATM   10  C7  UNL     1     -36.230  17.902  -2.931  1.00 20.00     0.016 C 
HETATM   11  C8  UNL     1     -33.373  18.648  -3.609  1.00 20.00     0.016 C 
HETATM   12  C9  UNL     1     -32.653  17.967  -1.305  1.00 20.00     0.016 C 
ENDBRANCH   4   6
ENDBRANCH   2   4
TORSDOF 2
ENDMDL
MODEL 2
REMARK VINA RESULT:      -4.6      0.889      1.603
REMARK  2 active torsions:
REMARK  status: ('A' for Active; 'I' for Inactive)
REMARK    1  A    between atoms: C2_2  and  C3_3 
REMARK    2  A    between atoms: C2_2  and  C10_10 
ROOT
HETATM    1  C1  UNL     1     -35.662  13.927  -5.130  1.00 20.00     0.066 C 
HETATM    2  C10 UNL     1     -35.391  15.362  -5.008  1.00 20.00     0.202 C 
HETATM    3  N11 UNL     1     -35.879  12.791  -5.231  1.00 20.00    -0.197 NA
ENDROOT
BRANCH   2   4
HETATM    4  C2  UNL     1     -34.653  15.699  -3.734  1.00 20.00     0.145 C 
HETATM    5  O12 UNL     1     -33.476  15.439  -3.516  1.00 20.00    -0.296 OA
BRANCH   4   6
HETATM    6  C3  UNL     1     -35.452  16.388  -2.710  1.00 20.00     0.073 A 
HETATM    7  C4  UNL     1     -35.707  17.885  -2.785  1.00 20.00    -0.029 A 
HETATM    8  C5  UNL     1     -34.800  17.304  -1.686  1.00 20.00    -0.029 A 
HETATM    9  C6  UNL     1     -37.093  18.373  -2.421  1.00 20.00     0.016 C 
HETATM   10  C7  UNL     1     -35.095  18.705  -3.900  1.00 20.00     0.016 C 
HETATM   11  C8  UNL     1     -33.309  17.560  -1.737  1.00 20.00     0.016 C 
HETATM   12  C9  UNL     1     -35.312  17.231  -0.263  1.00 20.00     0.016 C 
ENDBRANCH   4   6
ENDBRANCH   2   4
TORSDOF 2
ENDMDL
MODEL 3
REMARK VINA RESULT:      -4.6      1.650      2.270
REMARK  2 active torsions:
REMARK  status: ('A' for Active; 'I' for Inactive)
REMARK    1  A    between atoms: C2_2  and  C3_3 
REMARK    2  A    between atoms: C2_2  and  C10_10 
ROOT
HETATM    1  C1  UNL     1     -34.664  13.437  -6.652  1.00 20.00     0.066 C 
HETATM    2  C10 UNL     1     -34.051  14.681  -6.177  1.00 20.00     0.202 C 
HETATM    3  N11 UNL     1     -35.150  12.454  -7.032  1.00 20.00    -0.197 NA
ENDROOT
BRANCH   2   4
HETATM    4  C2  UNL     1     -33.985  14.747  -4.669  1.00 20.00     0.145 C 
HETATM    5  O12 UNL     1     -34.313  13.843  -3.912  1.00 20.00    -0.296 OA
BRANCH   4   6
HETATM    6  C3  UNL     1     -33.482  16.015  -4.119  1.00 20.00     0.073 A 
HETATM    7  C4  UNL     1     -34.212  16.730  -2.994  1.00 20.00    -0.029 A 
HETATM    8  C5  UNL     1     -34.182  17.333  -4.409  1.00 20.00    -0.029 A 
HETATM    9  C6  UNL     1     -33.368  17.356  -1.904  1.00 20.00     0.016 C 
HETATM   10  C7  UNL     1     -35.508  16.169  -2.451  1.00 20.00     0.016 C 
HETATM   11  C8  UNL     1     -35.448  17.353  -5.239  1.00 20.00     0.016 C 
HETATM   12  C9  UNL     1     -33.308  18.538  -4.684  1.00 20.00     0.016 C 
ENDBRANCH   4   6
ENDBRANCH   2   4
TORSDOF 2
ENDMDL
MODEL 4
REMARK VINA RESULT:      -4.5      2.106      3.112
REMARK  2 active torsions:
REMARK  status: ('A' for Active; 'I' for Inactive)
REMARK    1  A    between atoms: C2_2  and  C3_3 
REMARK    2  A    between atoms: C2_2  and  C10_10 
ROOT
HETATM    1  C1  UNL     1     -38.277  14.695  -4.882  1.00 20.00     0.066 C 
HETATM    2  C10 UNL     1     -37.127  14.168  -5.623  1.00 20.00     0.202 C 
HETATM    3  N11 UNL     1     -39.190  15.111  -4.299  1.00 20.00    -0.197 NA
ENDROOT
BRANCH   2   4
HETATM    4  C2  UNL     1     -35.863  14.173  -4.797  1.00 20.00     0.145 C 
HETATM    5  O12 UNL     1     -35.122  13.210  -4.643  1.00 20.00    -0.296 OA
BRANCH   4   6
HETATM    6  C3  UNL     1     -35.543  15.453  -4.148  1.00 20.00     0.073 A 
HETATM    7  C4  UNL     1     -35.032  16.637  -4.953  1.00 20.00    -0.029 A 
HETATM    8  C5  UNL     1     -34.103  15.907  -3.967  1.00 20.00    -0.029 A 
HETATM    9  C6  UNL     1     -35.567  18.007  -4.590  1.00 20.00     0.016 C 
HETATM   10  C7  UNL     1     -34.796  16.501  -6.441  1.00 20.00     0.016 C 
HETATM   11  C8  UNL     1     -32.968  15.060  -4.501  1.00 20.00     0.016 C 
HETATM   12  C9  UNL     1     -33.743  16.571  -2.656  1.00 20.00     0.016 C 
ENDBRANCH   4   6
ENDBRANCH   2   4
TORSDOF 2
ENDMDL
MODEL 5
REMARK VINA RESULT:      -4.4      2.932      4.707
REMARK  2 active torsions:
REMARK  status: ('A' for Active; 'I' for Inactive)
REMARK    1  A    between atoms: C2_2  and  C3_3 
REMARK    2  A    between atoms: C2_2  and  C10_10 
ROOT
HETATM    1  C1  UNL     1     -32.409  18.328  -1.147  1.00 20.00     0.066 C 
HETATM    2  C10 UNL     1     -33.308  18.188  -2.297  1.00 20.00     0.202 C 
HETATM    3  N11 UNL     1     -31.696  18.442  -0.239  1.00 20.00    -0.197 NA
ENDROOT
BRANCH   2   4
HETATM    4  C2  UNL     1     -34.150  16.937  -2.217  1.00 20.00     0.145 C 
HETATM    5  O12 UNL     1     -34.962  16.694  -1.333  1.00 20.00    -0.296 OA
BRANCH   4   6
HETATM    6  C3  UNL     1     -33.941  15.970  -3.304  1.00 20.00     0.073 A 
HETATM    7  C4  UNL     1     -34.122  16.371  -4.760  1.00 20.00    -0.029 A 
HETATM    8  C5  UNL     1     -35.113  15.403  -4.091  1.00 20.00    -0.029 A 
HETATM    9  C6  UNL     1     -33.120  15.831  -5.759  1.00 20.00     0.016 C 
HETATM   10  C7  UNL     1     -34.571  17.772  -5.113  1.00 20.00     0.016 C 
HETATM   11  C8  UNL     1     -36.522  15.867  -3.792  1.00 20.00     0.016 C 
HETATM   12  C9  UNL     1     -35.066  13.932  -4.442  1.00 20.00     0.016 C 
ENDBRANCH   4   6
ENDBRANCH   2   4
TORSDOF 2
ENDMDL
MODEL 6
REMARK VINA RESULT:      -4.4      2.619      4.531
REMARK  2 active torsions:
REMARK  status: ('A' for Active; 'I' for Inactive)
REMARK    1  A    between atoms: C2_2  and  C3_3 
REMARK    2  A    between atoms: C2_2  and  C10_10 
ROOT
HETATM    1  C1  UNL     1     -33.458  17.877  -1.513  1.00 20.00     0.066 C 
HETATM    2  C10 UNL     1     -34.667  17.073  -1.310  1.00 20.00     0.202 C 
HETATM    3  N11 UNL     1     -32.500  18.513  -1.671  1.00 20.00    -0.197 NA
ENDROOT
BRANCH   2   4
HETATM    4  C2  UNL     1     -35.372  16.761  -2.609  1.00 20.00     0.145 C 
HETATM    5  O12 UNL     1     -36.244  17.452  -3.117  1.00 20.00    -0.296 OA
BRANCH   4   6
HETATM    6  C3  UNL     1     -34.942  15.521  -3.272  1.00 20.00     0.073 A 
HETATM    7  C4  UNL     1     -33.948  15.546  -4.421  1.00 20.00    -0.029 A 
HETATM    8  C5  UNL     1     -35.418  15.170  -4.673  1.00 20.00    -0.029 A 
HETATM    9  C6  UNL     1     -32.891  14.462  -4.450  1.00 20.00     0.016 C 
HETATM   10  C7  UNL     1     -33.416  16.866  -4.938  1.00 20.00     0.016 C 
HETATM   11  C8  UNL     1     -36.313  16.127  -5.432  1.00 20.00     0.016 C 
HETATM   12  C9  UNL     1     -35.779  13.726  -4.943  1.00 20.00     0.016 C 
ENDBRANCH   4   6
ENDBRANCH   2   4
TORSDOF 2
ENDMDL
MODEL 7
REMARK VINA RESULT:      -4.4      2.080      2.752
REMARK  2 active torsions:
REMARK  status: ('A' for Active; 'I' for Inactive)
REMARK    1  A    between atoms: C2_2  and  C3_3 
REMARK    2  A    between atoms: C2_2  and  C10_10 
ROOT
HETATM    1  C1  UNL     1     -35.841  13.387  -6.495  1.00 20.00     0.066 C 
HETATM    2  C10 UNL     1     -36.844  14.436  -6.292  1.00 20.00     0.202 C 
HETATM    3  N11 UNL     1     -35.047  12.556  -6.659  1.00 20.00    -0.197 NA
ENDROOT
BRANCH   2   4
HETATM    4  C2  UNL     1     -36.983  14.822  -4.839  1.00 20.00     0.145 C 
HETATM    5  O12 UNL     1     -38.024  14.776  -4.197  1.00 20.00    -0.296 OA
BRANCH   4   6
HETATM    6  C3  UNL     1     -35.745  15.281  -4.191  1.00 20.00     0.073 A 
HETATM    7  C4  UNL     1     -35.716  16.554  -3.360  1.00 20.00    -0.029 A 
HETATM    8  C5  UNL     1     -34.985  16.491  -4.712  1.00 20.00    -0.029 A 
HETATM    9  C6  UNL     1     -34.909  16.530  -2.079  1.00 20.00     0.016 C 
HETATM   10  C7  UNL     1     -36.962  17.402  -3.225  1.00 20.00     0.016 C 
HETATM   11  C8  UNL     1     -35.524  17.277  -5.889  1.00 20.00     0.016 C 
HETATM   12  C9  UNL     1     -33.474  16.405  -4.736  1.00 20.00     0.016 C 
ENDBRANCH   4   6
ENDBRANCH   2   4
TORSDOF 2
ENDMDL
MODEL 8
REMARK VINA RESULT:      -4.2      2.805      4.632
REMARK  2 active torsions:
REMARK  status: ('A' for Active; 'I' for Inactive)
REMARK    1  A    between atoms: C2_2  and  C3_3 
REMARK    2  A    between atoms: C2_2  and  C10_10 
ROOT
HETATM    1  C1  UNL     1     -32.927  17.786  -1.532  1.00 20.00     0.066 C 
HETATM    2  C10 UNL     1     -33.952  16.944  -2.157  1.00 20.00     0.202 C 
HETATM    3  N11 UNL     1     -32.117  18.451  -1.034  1.00 20.00    -0.197 NA
ENDROOT
BRANCH   2   4
HETATM    4  C2  UNL     1     -34.111  17.235  -3.631  1.00 20.00     0.145 C 
HETATM    5  O12 UNL     1     -33.583  18.167  -4.223  1.00 20.00    -0.296 OA
BRANCH   4   6
HETATM    6  C3  UNL     1     -34.978  16.301  -4.364  1.00 20.00     0.073 A 
HETATM    7  C4  UNL     1     -34.481  14.923  -4.773  1.00 20.00    -0.029 A 
HETATM    8  C5  UNL     1     -34.747  16.002  -5.837  1.00 20.00    -0.029 A 
HETATM    9  C6  UNL     1     -35.449  13.766  -4.634  1.00 20.00     0.016 C 
HETATM   10  C7  UNL     1     -33.058  14.507  -4.471  1.00 20.00     0.016 C 
HETATM   11  C8  UNL     1     -33.580  16.633  -6.565  1.00 20.00     0.016 C 
HETATM   12  C9  UNL     1     -35.969  15.887  -6.723  1.00 20.00     0.016 C 
ENDBRANCH   4   6
ENDBRANCH   2   4
TORSDOF 2
ENDMDL
MODEL 9
REMARK VINA RESULT:      -4.2      2.575      4.636
REMARK  2 active torsions:
REMARK  status: ('A' for Active; 'I' for Inactive)
REMARK    1  A    between atoms: C2_2  and  C3_3 
REMARK    2  A    between atoms: C2_2  and  C10_10 
ROOT
HETATM    1  C1  UNL     1     -34.783  16.423  -2.342  1.00 20.00     0.066 C 
HETATM    2  C10 UNL     1     -33.904  15.844  -3.363  1.00 20.00     0.202 C 
HETATM    3  N11 UNL     1     -35.475  16.883  -1.533  1.00 20.00    -0.197 NA
ENDROOT
BRANCH   2   4
HETATM    4  C2  UNL     1     -34.599  14.780  -4.180  1.00 20.00     0.145 C 
HETATM    5  O12 UNL     1     -34.434  13.575  -4.046  1.00 20.00    -0.296 OA
BRANCH   4   6
HETATM    6  C3  UNL     1     -35.532  15.283  -5.199  1.00 20.00     0.073 A 
HETATM    7  C4  UNL     1     -35.549  14.703  -6.605  1.00 20.00    -0.029 A 
HETATM    8  C5  UNL     1     -35.046  16.136  -6.360  1.00 20.00    -0.029 A 
HETATM    9  C6  UNL     1     -36.902  14.494  -7.253  1.00 20.00     0.016 C 
HETATM   10  C7  UNL     1     -34.564  13.623  -6.994  1.00 20.00     0.016 C 
HETATM   11  C8  UNL     1     -33.571  16.444  -6.510  1.00 20.00     0.016 C 
HETATM   12  C9  UNL     1     -35.912  17.308  -6.771  1.00 20.00     0.016 C 
ENDBRANCH   4   6
ENDBRANCH   2   4
TORSDOF 2
ENDMDL
