MODEL 1
REMARK VINA RESULT:      -3.7      0.000      0.000
REMARK  4 active torsions:
REMARK  status: ('A' for Active; 'I' for Inactive)
REMARK    1  A    between atoms: C1_1  and  C7_7 
REMARK    2  A    between atoms: C1_1  and  C9_9 
REMARK    3  A    between atoms: C8_8  and  C9_9 
REMARK    4  A    between atoms: C9_9  and  N10_10 
ROOT
HETATM    1  C4  UNL     1     -35.465  15.971  -6.137  1.00 20.00     0.058 C 
HETATM    2  C9  UNL     1     -35.004  14.590  -5.654  1.00 20.00     0.214 C 
ENDROOT
BRANCH   2   3
HETATM    3  C1  UNL     1     -33.967  14.729  -4.520  1.00 20.00     0.165 C 
HETATM    4  O11 UNL     1     -33.298  13.767  -4.134  1.00 20.00    -0.295 OA
BRANCH   3   5
HETATM    5  C7  UNL     1     -33.805  16.102  -3.876  1.00 20.00     0.076 C 
HETATM    6  C2  UNL     1     -34.639  16.255  -2.615  1.00 20.00     0.013 C 
ENDBRANCH   3   5
ENDBRANCH   2   3
BRANCH   2   7
HETATM    7  C8  UNL     1     -36.221  13.753  -5.205  1.00 20.00     0.045 C 
HETATM    8  C3  UNL     1     -37.480  14.554  -4.881  1.00 20.00     0.008 C 
ENDBRANCH   2   7
BRANCH   2   9
HETATM    9  N10 UNL     1     -34.335  13.940  -6.792  1.00 20.00     0.096 N 
HETATM   10  C5  UNL     1     -33.919  14.942  -7.770  1.00 20.00     0.310 C 
HETATM   11  C6  UNL     1     -35.222  12.956  -7.404  1.00 20.00     0.310 C 
ENDBRANCH   2   9
TORSDOF 4
ENDMDL
MODEL 2
REMARK VINA RESULT:      -3.7      1.656      3.326
REMARK  4 active torsions:
REMARK  status: ('A' for Active; 'I' for Inactive)
REMARK    1  A    between atoms: C1_1  and  C7_7 
REMARK    2  A    between atoms: C1_1  and  C9_9 
REMARK    3  A    between atoms: C8_8  and  C9_9 
REMARK    4  A    between atoms: C9_9  and  N10_10 
ROOT
HETATM    1  C4  UNL     1     -33.869  14.433  -4.163  1.00 20.00     0.058 C 
HETATM    2  C9  UNL     1     -35.136  15.100  -4.714  1.00 20.00     0.214 C 
ENDROOT
BRANCH   2   3
HETATM    3  C1  UNL     1     -36.230  14.046  -4.986  1.00 20.00     0.165 C 
HETATM    4  O11 UNL     1     -35.948  12.882  -5.280  1.00 20.00    -0.295 OA
BRANCH   3   5
HETATM    5  C7  UNL     1     -37.684  14.497  -4.892  1.00 20.00     0.076 C 
HETATM    6  C2  UNL     1     -38.215  15.026  -6.213  1.00 20.00     0.013 C 
ENDBRANCH   3   5
ENDBRANCH   2   3
BRANCH   2   7
HETATM    7  C8  UNL     1     -35.630  16.187  -3.736  1.00 20.00     0.045 C 
HETATM    8  C3  UNL     1     -34.783  16.369  -2.480  1.00 20.00     0.008 C 
ENDBRANCH   2   7
BRANCH   2   9
HETATM    9  N10 UNL     1     -34.773  15.707  -6.004  1.00 20.00     0.096 N 
HETATM   10  C5  UNL     1     -33.330  15.623  -6.212  1.00 20.00     0.310 C 
HETATM   11  C6  UNL     1     -35.223  17.095  -6.053  1.00 20.00     0.310 C 
ENDBRANCH   2   9
TORSDOF 4
ENDMDL
MODEL 3
REMARK VINA RESULT:      -3.6      1.618      3.636
REMARK  4 active torsions:
REMARK  status: ('A' for Active; 'I' for Inactive)
REMARK    1  A    between atoms: C1_1  and  C7_7 
REMARK    2  A    between atoms: C1_1  and  C9_9 
REMARK    3  A    between atoms: C8_8  and  C9_9 
REMARK    4  A    between atoms: C9_9  and  N10_10 
ROOT
HETATM    1  C4  UNL     1     -33.649  16.546  -4.947  1.00 20.00     0.058 C 
HETATM    2  C9  UNL     1     -34.817  15.847  -4.240  1.00 20.00     0.214 C 
ENDROOT
BRANCH   2   3
HETATM    3  C1  UNL     1     -34.748  14.321  -4.458  1.00 20.00     0.165 C 
HETATM    4  O11 UNL     1     -33.817  13.645  -4.013  1.00 20.00    -0.295 OA
BRANCH   3   5
HETATM    5  C7  UNL     1     -35.870  13.670  -5.261  1.00 20.00     0.076 C 
HETATM    6  C2  UNL     1     -35.437  13.296  -6.667  1.00 20.00     0.013 C 
ENDBRANCH   3   5
ENDBRANCH   2   3
BRANCH   2   7
HETATM    7  C8  UNL     1     -34.815  16.202  -2.738  1.00 20.00     0.045 C 
HETATM    8  C3  UNL     1     -33.601  16.989  -2.254  1.00 20.00     0.008 C 
ENDBRANCH   2   7
BRANCH   2   9
HETATM    9  N10 UNL     1     -36.053  16.331  -4.874  1.00 20.00     0.096 N 
HETATM   10  C5  UNL     1     -35.737  17.317  -5.904  1.00 20.00     0.310 C 
HETATM   11  C6  UNL     1     -36.946  16.901  -3.869  1.00 20.00     0.310 C 
ENDBRANCH   2   9
TORSDOF 4
ENDMDL
MODEL 4
REMARK VINA RESULT:      -3.6      1.831      3.901
REMARK  4 active torsions:
REMARK  status: ('A' for Active; 'I' for Inactive)
REMARK    1  A    between atoms: C1_1  and  C7_7 
REMARK    2  A    between atoms: C1_1  and  C9_9 
REMARK    3  A    between atoms: C8_8  and  C9_9 
REMARK    4  A    between atoms: C9_9  and  N10_10 
ROOT
HETATM    1  C4  UNL     1     -35.262  16.383  -5.719  1.00 20.00     0.058 C 
HETATM    2  C9  UNL     1     -35.522  15.167  -4.822  1.00 20.00     0.214 C 
ENDROOT
BRANCH   2   3
HETATM    3  C1  UNL     1     -35.758  13.903  -5.675  1.00 20.00     0.165 C 
HETATM    4  O11 UNL     1     -35.968  12.803  -5.157  1.00 20.00    -0.295 OA
BRANCH   3   5
HETATM    5  C7  UNL     1     -35.710  14.055  -7.192  1.00 20.00     0.076 C 
HETATM    6  C2  UNL     1     -34.358  13.673  -7.771  1.00 20.00     0.013 C 
ENDBRANCH   3   5
ENDBRANCH   2   3
BRANCH   2   7
HETATM    7  C8  UNL     1     -34.347  14.973  -3.840  1.00 20.00     0.045 C 
HETATM    8  C3  UNL     1     -32.990  14.717  -4.490  1.00 20.00     0.008 C 
ENDBRANCH   2   7
BRANCH   2   9
HETATM    9  N10 UNL     1     -36.762  15.440  -4.079  1.00 20.00     0.096 N 
HETATM   10  C5  UNL     1     -37.838  15.784  -5.005  1.00 20.00     0.310 C 
HETATM   11  C6  UNL     1     -36.546  16.515  -3.115  1.00 20.00     0.310 C 
ENDBRANCH   2   9
TORSDOF 4
ENDMDL
MODEL 5
REMARK VINA RESULT:      -3.6      1.785      4.013
REMARK  4 active torsions:
REMARK  status: ('A' for Active; 'I' for Inactive)
REMARK    1  A    between atoms: C1_1  and  C7_7 
REMARK    2  A    between atoms: C1_1  and  C9_9 
REMARK    3  A    between atoms: C8_8  and  C9_9 
REMARK    4  A    between atoms: C9_9  and  N10_10 
ROOT
HETATM    1  C4  UNL     1     -36.060  16.420  -5.018  1.00 20.00     0.058 C 
HETATM    2  C9  UNL     1     -34.830  15.752  -4.392  1.00 20.00     0.214 C 
ENDROOT
BRANCH   2   3
HETATM    3  C1  UNL     1     -34.921  14.217  -4.518  1.00 20.00     0.165 C 
HETATM    4  O11 UNL     1     -34.132  13.471  -3.932  1.00 20.00    -0.295 OA
BRANCH   3   5
HETATM    5  C7  UNL     1     -36.019  13.646  -5.411  1.00 20.00     0.076 C 
HETATM    6  C2  UNL     1     -35.494  13.206  -6.767  1.00 20.00     0.013 C 
ENDBRANCH   3   5
ENDBRANCH   2   3
BRANCH   2   7
HETATM    7  C8  UNL     1     -33.542  16.296  -5.047  1.00 20.00     0.045 C 
HETATM    8  C3  UNL     1     -33.573  16.388  -6.570  1.00 20.00     0.008 C 
ENDBRANCH   2   7
BRANCH   2   9
HETATM    9  N10 UNL     1     -34.847  16.082  -2.958  1.00 20.00     0.096 N 
HETATM   10  C5  UNL     1     -36.048  16.846  -2.632  1.00 20.00     0.310 C 
HETATM   11  C6  UNL     1     -33.645  16.827  -2.598  1.00 20.00     0.310 C 
ENDBRANCH   2   9
TORSDOF 4
ENDMDL
MODEL 6
REMARK VINA RESULT:      -3.5      1.796      3.615
REMARK  4 active torsions:
REMARK  status: ('A' for Active; 'I' for Inactive)
REMARK    1  A    between atoms: C1_1  and  C7_7 
REMARK    2  A    between atoms: C1_1  and  C9_9 
REMARK    3  A    between atoms: C8_8  and  C9_9 
REMARK    4  A    between atoms: C9_9  and  N10_10 
ROOT
HETATM    1  C4  UNL     1     -34.045  15.066  -6.506  1.00 20.00     0.058 C 
HETATM    2  C9  UNL     1     -34.885  14.874  -5.237  1.00 20.00     0.214 C 
ENDROOT
BRANCH   2   3
HETATM    3  C1  UNL     1     -36.073  13.927  -5.511  1.00 20.00     0.165 C 
HETATM    4  O11 UNL     1     -36.017  12.725  -5.240  1.00 20.00    -0.295 OA
BRANCH   3   5
HETATM    5  C7  UNL     1     -37.322  14.527  -6.148  1.00 20.00     0.076 C 
HETATM    6  C2  UNL     1     -38.517  14.511  -5.210  1.00 20.00     0.013 C 
ENDBRANCH   3   5
ENDBRANCH   2   3
BRANCH   2   7
HETATM    7  C8  UNL     1     -33.998  14.347  -4.090  1.00 20.00     0.045 C 
HETATM    8  C3  UNL     1     -32.503  14.295  -4.391  1.00 20.00     0.008 C 
ENDBRANCH   2   7
BRANCH   2   9
HETATM    9  N10 UNL     1     -35.438  16.191  -4.886  1.00 20.00     0.096 N 
HETATM   10  C5  UNL     1     -34.598  17.252  -5.434  1.00 20.00     0.310 C 
HETATM   11  C6  UNL     1     -35.555  16.319  -3.437  1.00 20.00     0.310 C 
ENDBRANCH   2   9
TORSDOF 4
ENDMDL
MODEL 7
REMARK VINA RESULT:      -3.5      1.232      2.738
REMARK  4 active torsions:
REMARK  status: ('A' for Active; 'I' for Inactive)
REMARK    1  A    between atoms: C1_1  and  C7_7 
REMARK    2  A    between atoms: C1_1  and  C9_9 
REMARK    3  A    between atoms: C8_8  and  C9_9 
REMARK    4  A    between atoms: C9_9  and  N10_10 
ROOT
HETATM    1  C4  UNL     1     -35.902  13.366  -5.918  1.00 20.00     0.058 C 
HETATM    2  C9  UNL     1     -35.244  14.732  -5.688  1.00 20.00     0.214 C 
ENDROOT
BRANCH   2   3
HETATM    3  C1  UNL     1     -34.284  14.676  -4.481  1.00 20.00     0.165 C 
HETATM    4  O11 UNL     1     -34.044  13.617  -3.894  1.00 20.00    -0.295 OA
BRANCH   3   5
HETATM    5  C7  UNL     1     -33.646  15.984  -4.023  1.00 20.00     0.076 C 
HETATM    6  C2  UNL     1     -34.138  16.422  -2.654  1.00 20.00     0.013 C 
ENDBRANCH   3   5
ENDBRANCH   2   3
BRANCH   2   7
HETATM    7  C8  UNL     1     -34.513  15.189  -6.968  1.00 20.00     0.045 C 
HETATM    8  C3  UNL     1     -34.093  14.069  -7.916  1.00 20.00     0.008 C 
ENDBRANCH   2   7
BRANCH   2   9
HETATM    9  N10 UNL     1     -36.321  15.676  -5.355  1.00 20.00     0.096 N 
HETATM   10  C5  UNL     1     -37.317  15.025  -4.507  1.00 20.00     0.310 C 
HETATM   11  C6  UNL     1     -36.937  16.189  -6.575  1.00 20.00     0.310 C 
ENDBRANCH   2   9
TORSDOF 4
ENDMDL
MODEL 8
REMARK VINA RESULT:      -3.5      1.566      3.379
REMARK  4 active torsions:
REMARK  status: ('A' for Active; 'I' for Inactive)
REMARK    1  A    between atoms: C1_1  and  C7_7 
REMARK    2  A    between atoms: C1_1  and  C9_9 
REMARK    3  A    between atoms: C8_8  and  C9_9 
REMARK    4  A    between atoms: C9_9  and  N10_10 
ROOT
HETATM    1  C4  UNL     1     -35.215  16.383  -5.602  1.00 20.00     0.058 C 
HETATM    2  C9  UNL     1     -34.814  14.930  -5.313  1.00 20.00     0.214 C 
ENDROOT
BRANCH   2   3
HETATM    3  C1  UNL     1     -36.062  14.071  -5.022  1.00 20.00     0.165 C 
HETATM    4  O11 UNL     1     -36.065  12.851  -5.208  1.00 20.00    -0.295 OA
BRANCH   3   5
HETATM    5  C7  UNL     1     -37.308  14.784  -4.506  1.00 20.00     0.076 C 
HETATM    6  C2  UNL     1     -38.515  14.564  -5.401  1.00 20.00     0.013 C 
ENDBRANCH   3   5
ENDBRANCH   2   3
BRANCH   2   7
HETATM    7  C8  UNL     1     -34.001  14.361  -6.496  1.00 20.00     0.045 C 
HETATM    8  C3  UNL     1     -34.471  14.796  -7.881  1.00 20.00     0.008 C 
ENDBRANCH   2   7
BRANCH   2   9
HETATM    9  N10 UNL     1     -33.992  14.948  -4.094  1.00 20.00     0.096 N 
HETATM   10  C5  UNL     1     -33.804  16.321  -3.633  1.00 20.00     0.310 C 
HETATM   11  C6  UNL     1     -32.705  14.306  -4.345  1.00 20.00     0.310 C 
ENDBRANCH   2   9
TORSDOF 4
ENDMDL
MODEL 9
REMARK VINA RESULT:      -3.5      1.038      1.716
REMARK  4 active torsions:
REMARK  status: ('A' for Active; 'I' for Inactive)
REMARK    1  A    between atoms: C1_1  and  C7_7 
REMARK    2  A    between atoms: C1_1  and  C9_9 
REMARK    3  A    between atoms: C8_8  and  C9_9 
REMARK    4  A    between atoms: C9_9  and  N10_10 
ROOT
HETATM    1  C4  UNL     1     -33.579  15.921  -6.711  1.00 20.00     0.058 C 
HETATM    2  C9  UNL     1     -34.505  15.260  -5.682  1.00 20.00     0.214 C 
ENDROOT
BRANCH   2   3
HETATM    3  C1  UNL     1     -33.831  15.214  -4.295  1.00 20.00     0.165 C 
HETATM    4  O11 UNL     1     -32.772  14.609  -4.110  1.00 20.00    -0.295 OA
BRANCH   3   5
HETATM    5  C7  UNL     1     -34.530  15.934  -3.146  1.00 20.00     0.076 C 
HETATM    6  C2  UNL     1     -33.617  16.921  -2.438  1.00 20.00     0.013 C 
ENDBRANCH   3   5
ENDBRANCH   2   3
BRANCH   2   7
HETATM    7  C8  UNL     1     -35.855  16.007  -5.629  1.00 20.00     0.045 C 
HETATM    8  C3  UNL     1     -35.974  17.207  -6.564  1.00 20.00     0.008 C 
ENDBRANCH   2   7
BRANCH   2   9
HETATM    9  N10 UNL     1     -34.712  13.872  -6.122  1.00 20.00     0.096 N 
HETATM   10  C5  UNL     1     -34.639  13.789  -7.579  1.00 20.00     0.310 C 
HETATM   11  C6  UNL     1     -35.997  13.375  -5.639  1.00 20.00     0.310 C 
ENDBRANCH   2   9
TORSDOF 4
ENDMDL
