MODEL 1
REMARK VINA RESULT:      -4.3      0.000      0.000
REMARK  1 active torsions:
REMARK  status: ('A' for Active; 'I' for Inactive)
REMARK    1  A    between atoms: C1_1  and  C2_2 
ROOT
HETATM    1  C2  UNL     1     -34.066   7.204   3.775  1.00 20.00     0.089 A 
HETATM    2  C3  UNL     1     -33.573   6.277   2.674  1.00 20.00    -0.028 A 
HETATM    3  C4  UNL     1     -32.901   7.643   2.901  1.00 20.00    -0.028 A 
HETATM    4  C5  UNL     1     -34.474   6.084   1.473  1.00 20.00     0.016 C 
HETATM    5  C6  UNL     1     -32.824   5.011   3.027  1.00 20.00     0.016 C 
HETATM    6  C7  UNL     1     -31.501   7.700   3.474  1.00 20.00     0.016 C 
HETATM    7  C8  UNL     1     -33.154   8.767   1.919  1.00 20.00     0.016 C 
ENDROOT
BRANCH   1   8
HETATM    8  C1  UNL     1     -33.872   6.873   5.193  1.00 20.00     0.224 C 
HETATM    9  O9  UNL     1     -33.217   7.593   5.940  1.00 20.00    -0.279 OA
HETATM   10 CL10 UNL     1     -34.666   5.391   5.633  1.00 20.00    -0.043 Cl
ENDBRANCH   1   8
TORSDOF 1
ENDMDL
MODEL 2
REMARK VINA RESULT:      -4.1     11.356     12.544
REMARK  1 active torsions:
REMARK  status: ('A' for Active; 'I' for Inactive)
REMARK    1  A    between atoms: C1_1  and  C2_2 
ROOT
HETATM    1  C2  UNL     1     -35.436  15.250  -4.924  1.00 20.00     0.089 A 
HETATM    2  C3  UNL     1     -34.427  16.190  -5.567  1.00 20.00    -0.028 A 
HETATM    3  C4  UNL     1     -34.082  15.452  -4.261  1.00 20.00    -0.028 A 
HETATM    4  C5  UNL     1     -34.734  17.672  -5.523  1.00 20.00     0.016 C 
HETATM    5  C6  UNL     1     -33.732  15.796  -6.851  1.00 20.00     0.016 C 
HETATM    6  C7  UNL     1     -33.053  14.343  -4.281  1.00 20.00     0.016 C 
HETATM    7  C8  UNL     1     -34.056  16.223  -2.958  1.00 20.00     0.016 C 
ENDROOT
BRANCH   1   8
HETATM    8  C1  UNL     1     -35.792  13.970  -5.553  1.00 20.00     0.224 C 
HETATM    9  O9  UNL     1     -35.523  12.895  -5.026  1.00 20.00    -0.279 OA
HETATM   10 CL10 UNL     1     -36.606  14.192  -7.072  1.00 20.00    -0.043 Cl
ENDBRANCH   1   8
TORSDOF 1
ENDMDL
MODEL 3
REMARK VINA RESULT:      -4.1     11.206     12.425
REMARK  1 active torsions:
REMARK  status: ('A' for Active; 'I' for Inactive)
REMARK    1  A    between atoms: C1_1  and  C2_2 
ROOT
HETATM    1  C2  UNL     1     -35.703  15.064  -5.770  1.00 20.00     0.089 A 
HETATM    2  C3  UNL     1     -34.288  15.292  -5.257  1.00 20.00    -0.028 A 
HETATM    3  C4  UNL     1     -35.437  16.214  -4.811  1.00 20.00    -0.028 A 
HETATM    4  C5  UNL     1     -33.265  15.806  -6.247  1.00 20.00     0.016 C 
HETATM    5  C6  UNL     1     -33.677  14.329  -4.263  1.00 20.00     0.016 C 
HETATM    6  C7  UNL     1     -35.938  16.145  -3.385  1.00 20.00     0.016 C 
HETATM    7  C8  UNL     1     -35.520  17.618  -5.371  1.00 20.00     0.016 C 
ENDROOT
BRANCH   1   8
HETATM    8  C1  UNL     1     -36.484  13.891  -5.355  1.00 20.00     0.224 C 
HETATM    9  O9  UNL     1     -35.965  12.788  -5.212  1.00 20.00    -0.279 OA
HETATM   10 CL10 UNL     1     -38.161  14.275  -5.109  1.00 20.00    -0.043 Cl
ENDBRANCH   1   8
TORSDOF 1
ENDMDL
MODEL 4
REMARK VINA RESULT:      -4.1     11.675     12.596
REMARK  1 active torsions:
REMARK  status: ('A' for Active; 'I' for Inactive)
REMARK    1  A    between atoms: C1_1  and  C2_2 
ROOT
HETATM    1  C2  UNL     1     -34.575  14.690  -4.986  1.00 20.00     0.089 A 
HETATM    2  C3  UNL     1     -35.444  15.629  -4.161  1.00 20.00    -0.028 A 
HETATM    3  C4  UNL     1     -34.777  16.122  -5.458  1.00 20.00    -0.028 A 
HETATM    4  C5  UNL     1     -34.897  16.087  -2.826  1.00 20.00     0.016 C 
HETATM    5  C6  UNL     1     -36.944  15.436  -4.121  1.00 20.00     0.016 C 
HETATM    6  C7  UNL     1     -35.632  16.407  -6.674  1.00 20.00     0.016 C 
HETATM    7  C8  UNL     1     -33.589  17.055  -5.373  1.00 20.00     0.016 C 
ENDROOT
BRANCH   1   8
HETATM    8  C1  UNL     1     -35.159  13.557  -5.717  1.00 20.00     0.224 C 
HETATM    9  O9  UNL     1     -35.986  12.812  -5.199  1.00 20.00    -0.279 OA
HETATM   10 CL10 UNL     1     -34.542  13.434  -7.336  1.00 20.00    -0.043 Cl
ENDBRANCH   1   8
TORSDOF 1
ENDMDL
MODEL 5
REMARK VINA RESULT:      -4.0     11.629     12.441
REMARK  1 active torsions:
REMARK  status: ('A' for Active; 'I' for Inactive)
REMARK    1  A    between atoms: C1_1  and  C2_2 
ROOT
HETATM    1  C2  UNL     1     -33.773  16.305  -2.756  1.00 20.00     0.089 A 
HETATM    2  C3  UNL     1     -34.929  17.189  -2.311  1.00 20.00    -0.028 A 
HETATM    3  C4  UNL     1     -33.534  17.794  -2.552  1.00 20.00    -0.028 A 
HETATM    4  C5  UNL     1     -35.427  17.017  -0.892  1.00 20.00     0.016 C 
HETATM    5  C6  UNL     1     -36.055  17.507  -3.270  1.00 20.00     0.016 C 
HETATM    6  C7  UNL     1     -33.309  18.697  -3.745  1.00 20.00     0.016 C 
HETATM    7  C8  UNL     1     -32.688  18.205  -1.366  1.00 20.00     0.016 C 
ENDROOT
BRANCH   1   8
HETATM    8  C1  UNL     1     -33.746  15.706  -4.097  1.00 20.00     0.224 C 
HETATM    9  O9  UNL     1     -33.025  16.148  -4.987  1.00 20.00    -0.279 OA
HETATM   10 CL10 UNL     1     -34.826  14.351  -4.231  1.00 20.00    -0.043 Cl
ENDBRANCH   1   8
TORSDOF 1
ENDMDL
MODEL 6
REMARK VINA RESULT:      -3.9     11.243     12.222
REMARK  1 active torsions:
REMARK  status: ('A' for Active; 'I' for Inactive)
REMARK    1  A    between atoms: C1_1  and  C2_2 
ROOT
HETATM    1  C2  UNL     1     -34.097  15.869  -3.173  1.00 20.00     0.089 A 
HETATM    2  C3  UNL     1     -34.163  16.394  -4.599  1.00 20.00    -0.028 A 
HETATM    3  C4  UNL     1     -35.228  15.411  -4.081  1.00 20.00    -0.028 A 
HETATM    4  C5  UNL     1     -33.109  15.904  -5.569  1.00 20.00     0.016 C 
HETATM    5  C6  UNL     1     -34.544  17.835  -4.861  1.00 20.00     0.016 C 
HETATM    6  C7  UNL     1     -36.640  15.899  -3.841  1.00 20.00     0.016 C 
HETATM    7  C8  UNL     1     -35.200  13.972  -4.552  1.00 20.00     0.016 C 
ENDROOT
BRANCH   1   8
HETATM    8  C1  UNL     1     -34.352  16.750  -2.025  1.00 20.00     0.224 C 
HETATM    9  O9  UNL     1     -35.405  16.701  -1.395  1.00 20.00    -0.279 OA
HETATM   10 CL10 UNL     1     -33.015  17.814  -1.706  1.00 20.00    -0.043 Cl
ENDBRANCH   1   8
TORSDOF 1
ENDMDL
MODEL 7
REMARK VINA RESULT:      -3.9     11.754     12.872
REMARK  1 active torsions:
REMARK  status: ('A' for Active; 'I' for Inactive)
REMARK    1  A    between atoms: C1_1  and  C2_2 
ROOT
HETATM    1  C2  UNL     1     -35.457  14.987  -4.937  1.00 20.00     0.089 A 
HETATM    2  C3  UNL     1     -35.503  16.193  -5.864  1.00 20.00    -0.028 A 
HETATM    3  C4  UNL     1     -34.309  15.222  -5.907  1.00 20.00    -0.028 A 
HETATM    4  C5  UNL     1     -35.327  17.558  -5.235  1.00 20.00     0.016 C 
HETATM    5  C6  UNL     1     -36.479  16.225  -7.019  1.00 20.00     0.016 C 
HETATM    6  C7  UNL     1     -34.129  14.315  -7.104  1.00 20.00     0.016 C 
HETATM    7  C8  UNL     1     -32.982  15.653  -5.320  1.00 20.00     0.016 C 
ENDROOT
BRANCH   1   8
HETATM    8  C1  UNL     1     -36.381  13.857  -5.110  1.00 20.00     0.224 C 
HETATM    9  O9  UNL     1     -35.975  12.713  -5.289  1.00 20.00    -0.279 OA
HETATM   10 CL10 UNL     1     -38.044  14.354  -5.029  1.00 20.00    -0.043 Cl
ENDBRANCH   1   8
TORSDOF 1
ENDMDL
MODEL 8
REMARK VINA RESULT:      -3.8     11.598     12.586
REMARK  1 active torsions:
REMARK  status: ('A' for Active; 'I' for Inactive)
REMARK    1  A    between atoms: C1_1  and  C2_2 
ROOT
HETATM    1  C2  UNL     1     -33.498  15.953  -4.160  1.00 20.00     0.089 A 
HETATM    2  C3  UNL     1     -34.250  16.665  -3.046  1.00 20.00    -0.028 A 
HETATM    3  C4  UNL     1     -34.187  17.277  -4.457  1.00 20.00    -0.028 A 
HETATM    4  C5  UNL     1     -33.427  17.279  -1.933  1.00 20.00     0.016 C 
HETATM    5  C6  UNL     1     -35.560  16.105  -2.535  1.00 20.00     0.016 C 
HETATM    6  C7  UNL     1     -35.434  17.308  -5.313  1.00 20.00     0.016 C 
HETATM    7  C8  UNL     1     -33.301  18.479  -4.705  1.00 20.00     0.016 C 
ENDROOT
BRANCH   1   8
HETATM    8  C1  UNL     1     -33.994  14.692  -4.729  1.00 20.00     0.224 C 
HETATM    9  O9  UNL     1     -34.371  13.767  -4.016  1.00 20.00    -0.279 OA
HETATM   10 CL10 UNL     1     -33.970  14.703  -6.466  1.00 20.00    -0.043 Cl
ENDBRANCH   1   8
TORSDOF 1
ENDMDL
MODEL 9
REMARK VINA RESULT:      -3.7     11.285     12.747
REMARK  1 active torsions:
REMARK  status: ('A' for Active; 'I' for Inactive)
REMARK    1  A    between atoms: C1_1  and  C2_2 
ROOT
HETATM    1  C2  UNL     1     -35.662  15.187  -5.427  1.00 20.00     0.089 A 
HETATM    2  C3  UNL     1     -35.498  14.641  -6.838  1.00 20.00    -0.028 A 
HETATM    3  C4  UNL     1     -34.966  16.039  -6.477  1.00 20.00    -0.028 A 
HETATM    4  C5  UNL     1     -36.747  14.518  -7.684  1.00 20.00     0.016 C 
HETATM    5  C6  UNL     1     -34.521  13.518  -7.109  1.00 20.00     0.016 C 
HETATM    6  C7  UNL     1     -33.473  16.271  -6.399  1.00 20.00     0.016 C 
HETATM    7  C8  UNL     1     -35.702  17.264  -6.977  1.00 20.00     0.016 C 
ENDROOT
BRANCH   1   8
HETATM    8  C1  UNL     1     -34.919  14.612  -4.297  1.00 20.00     0.224 C 
HETATM    9  O9  UNL     1     -34.684  13.410  -4.223  1.00 20.00    -0.279 OA
HETATM   10 CL10 UNL     1     -34.445  15.822  -3.143  1.00 20.00    -0.043 Cl
ENDBRANCH   1   8
TORSDOF 1
ENDMDL
