MODEL 1
REMARK VINA RESULT:      -4.6      0.000      0.000
REMARK  4 active torsions:
REMARK  status: ('A' for Active; 'I' for Inactive)
REMARK    1  A    between atoms: C4_4  and  C9_9 
REMARK    2  A    between atoms: C7_7  and  C8_8 
REMARK    3  A    between atoms: C8_8  and  C9_9 
REMARK    4  A    between atoms: C9_9  and  O11_11 
ROOT
HETATM    1  C1  UNL     1     -33.265   5.768   2.871  1.00 20.00     0.067 C 
HETATM    2  C8  UNL     1     -33.502   7.197   3.192  1.00 20.00     0.126 C 
HETATM    3  N10 UNL     1     -33.085   4.648   2.624  1.00 20.00    -0.197 NA
ENDROOT
BRANCH   2   4
HETATM    4  C7  UNL     1     -33.488   7.375   4.730  1.00 20.00     0.018 C 
HETATM    5  C5  UNL     1     -34.306   6.317   5.463  1.00 20.00     0.006 C 
ENDBRANCH   2   4
BRANCH   2   6
HETATM    6  C9  UNL     1     -32.466   8.112   2.458  1.00 20.00     0.074 C 
HETATM    7  C6  UNL     1     -31.469   8.706   3.436  1.00 20.00     0.047 C 
BRANCH   6   8
HETATM    8  C4  UNL     1     -33.153   9.266   1.703  1.00 20.00     0.021 A 
HETATM    9  C2  UNL     1     -32.351  10.451   1.239  1.00 20.00     0.008 A 
HETATM   10  C3  UNL     1     -32.893   9.471   0.235  1.00 20.00     0.008 A 
ENDBRANCH   6   8
BRANCH   6  11
HETATM   11  O11 UNL     1     -31.745   7.325   1.504  1.00 20.00    -0.388 OA
HETATM   12  H26 UNL     1     -32.036   6.411   1.631  1.00 20.00     0.210 HD
ENDBRANCH   6  11
ENDBRANCH   2   6
TORSDOF 4
ENDMDL
MODEL 2
REMARK VINA RESULT:      -4.6     10.000     11.539
REMARK  4 active torsions:
REMARK  status: ('A' for Active; 'I' for Inactive)
REMARK    1  A    between atoms: C4_4  and  C9_9 
REMARK    2  A    between atoms: C7_7  and  C8_8 
REMARK    3  A    between atoms: C8_8  and  C9_9 
REMARK    4  A    between atoms: C9_9  and  O11_11 
ROOT
HETATM    1  C1  UNL     1     -37.641  14.585  -5.155  1.00 20.00     0.067 C 
HETATM    2  C8  UNL     1     -36.270  15.102  -5.386  1.00 20.00     0.126 C 
HETATM    3  N10 UNL     1     -38.716  14.187  -4.975  1.00 20.00    -0.197 NA
ENDROOT
BRANCH   2   4
HETATM    4  C7  UNL     1     -36.001  16.269  -4.404  1.00 20.00     0.018 C 
HETATM    5  C5  UNL     1     -35.604  17.564  -5.106  1.00 20.00     0.006 C 
ENDBRANCH   2   4
BRANCH   2   6
HETATM    6  C9  UNL     1     -35.215  13.952  -5.276  1.00 20.00     0.074 C 
HETATM    7  C6  UNL     1     -34.260  14.192  -4.121  1.00 20.00     0.047 C 
BRANCH   6   8
HETATM    8  C4  UNL     1     -34.388  13.805  -6.568  1.00 20.00     0.021 A 
HETATM    9  C2  UNL     1     -35.070  13.813  -7.909  1.00 20.00     0.008 A 
HETATM   10  C3  UNL     1     -34.215  14.978  -7.493  1.00 20.00     0.008 A 
ENDBRANCH   6   8
BRANCH   6  11
HETATM   11  O11 UNL     1     -35.898  12.716  -5.045  1.00 20.00    -0.388 OA
HETATM   12  H26 UNL     1     -36.167  12.724  -4.115  1.00 20.00     0.210 HD
ENDBRANCH   6  11
ENDBRANCH   2   6
TORSDOF 4
ENDMDL
MODEL 3
REMARK VINA RESULT:      -4.3     10.160     11.741
REMARK  4 active torsions:
REMARK  status: ('A' for Active; 'I' for Inactive)
REMARK    1  A    between atoms: C4_4  and  C9_9 
REMARK    2  A    between atoms: C7_7  and  C8_8 
REMARK    3  A    between atoms: C8_8  and  C9_9 
REMARK    4  A    between atoms: C9_9  and  O11_11 
ROOT
HETATM    1  C1  UNL     1     -33.668  14.240  -4.822  1.00 20.00     0.067 C 
HETATM    2  C8  UNL     1     -34.661  14.790  -5.777  1.00 20.00     0.126 C 
HETATM    3  N10 UNL     1     -32.888  13.816  -4.075  1.00 20.00    -0.197 NA
ENDROOT
BRANCH   2   4
HETATM    4  C7  UNL     1     -33.916  15.318  -7.027  1.00 20.00     0.018 C 
HETATM    5  C5  UNL     1     -33.897  16.842  -7.113  1.00 20.00     0.006 C 
ENDBRANCH   2   4
BRANCH   2   6
HETATM    6  C9  UNL     1     -35.754  13.723  -6.120  1.00 20.00     0.074 C 
HETATM    7  C6  UNL     1     -35.432  13.005  -7.418  1.00 20.00     0.047 C 
BRANCH   6   8
HETATM    8  C4  UNL     1     -37.153  14.355  -6.248  1.00 20.00     0.021 A 
HETATM    9  C2  UNL     1     -37.991  14.596  -5.022  1.00 20.00     0.008 A 
HETATM   10  C3  UNL     1     -37.396  15.759  -5.767  1.00 20.00     0.008 A 
ENDBRANCH   6   8
BRANCH   6  11
HETATM   11  O11 UNL     1     -35.801  12.752  -5.070  1.00 20.00    -0.388 OA
HETATM   12  H26 UNL     1     -35.809  11.886  -5.502  1.00 20.00     0.210 HD
ENDBRANCH   6  11
ENDBRANCH   2   6
TORSDOF 4
ENDMDL
MODEL 4
REMARK VINA RESULT:      -4.3     10.443     11.286
REMARK  4 active torsions:
REMARK  status: ('A' for Active; 'I' for Inactive)
REMARK    1  A    between atoms: C4_4  and  C9_9 
REMARK    2  A    between atoms: C7_7  and  C8_8 
REMARK    3  A    between atoms: C8_8  and  C9_9 
REMARK    4  A    between atoms: C9_9  and  O11_11 
ROOT
HETATM    1  C1  UNL     1     -33.139  17.787  -2.172  1.00 20.00     0.067 C 
HETATM    2  C8  UNL     1     -34.025  16.713  -2.685  1.00 20.00     0.126 C 
HETATM    3  N10 UNL     1     -32.447  18.624  -1.764  1.00 20.00    -0.197 NA
ENDROOT
BRANCH   2   4
HETATM    4  C7  UNL     1     -35.398  16.814  -1.978  1.00 20.00     0.018 C 
HETATM    5  C5  UNL     1     -35.285  17.173  -0.499  1.00 20.00     0.006 C 
ENDBRANCH   2   4
BRANCH   2   6
HETATM    6  C9  UNL     1     -34.132  16.777  -4.245  1.00 20.00     0.074 C 
HETATM    7  C6  UNL     1     -35.481  17.318  -4.681  1.00 20.00     0.047 C 
BRANCH   6   8
HETATM    8  C4  UNL     1     -33.930  15.393  -4.892  1.00 20.00     0.021 A 
HETATM    9  C2  UNL     1     -32.955  14.414  -4.299  1.00 20.00     0.008 A 
HETATM   10  C3  UNL     1     -34.433  14.155  -4.202  1.00 20.00     0.008 A 
ENDBRANCH   6   8
BRANCH   6  11
HETATM   11  O11 UNL     1     -33.115  17.651  -4.745  1.00 20.00    -0.388 OA
HETATM   12  H26 UNL     1     -32.892  18.251  -4.019  1.00 20.00     0.210 HD
ENDBRANCH   6  11
ENDBRANCH   2   6
TORSDOF 4
ENDMDL
MODEL 5
REMARK VINA RESULT:      -4.2     10.358     11.407
REMARK  4 active torsions:
REMARK  status: ('A' for Active; 'I' for Inactive)
REMARK    1  A    between atoms: C4_4  and  C9_9 
REMARK    2  A    between atoms: C7_7  and  C8_8 
REMARK    3  A    between atoms: C8_8  and  C9_9 
REMARK    4  A    between atoms: C9_9  and  O11_11 
ROOT
HETATM    1  C1  UNL     1     -35.648  13.909  -4.899  1.00 20.00     0.067 C 
HETATM    2  C8  UNL     1     -35.246  15.269  -4.464  1.00 20.00     0.126 C 
HETATM    3  N10 UNL     1     -35.957  12.843  -5.241  1.00 20.00    -0.197 NA
ENDROOT
BRANCH   2   4
HETATM    4  C7  UNL     1     -34.486  15.961  -5.622  1.00 20.00     0.018 C 
HETATM    5  C5  UNL     1     -32.975  15.762  -5.551  1.00 20.00     0.006 C 
ENDBRANCH   2   4
BRANCH   2   6
HETATM    6  C9  UNL     1     -36.486  16.085  -3.970  1.00 20.00     0.074 C 
HETATM    7  C6  UNL     1     -36.915  17.111  -5.003  1.00 20.00     0.047 C 
BRANCH   6   8
HETATM    8  C4  UNL     1     -36.199  16.819  -2.645  1.00 20.00     0.021 A 
HETATM    9  C2  UNL     1     -34.889  16.616  -1.935  1.00 20.00     0.008 A 
HETATM   10  C3  UNL     1     -35.188  17.932  -2.600  1.00 20.00     0.008 A 
ENDBRANCH   6   8
BRANCH   6  11
HETATM   11  O11 UNL     1     -37.577  15.186  -3.750  1.00 20.00    -0.388 OA
HETATM   12  H26 UNL     1     -37.473  14.471  -4.395  1.00 20.00     0.210 HD
ENDBRANCH   6  11
ENDBRANCH   2   6
TORSDOF 4
ENDMDL
MODEL 6
REMARK VINA RESULT:      -4.2     10.312     11.204
REMARK  4 active torsions:
REMARK  status: ('A' for Active; 'I' for Inactive)
REMARK    1  A    between atoms: C4_4  and  C9_9 
REMARK    2  A    between atoms: C7_7  and  C8_8 
REMARK    3  A    between atoms: C8_8  and  C9_9 
REMARK    4  A    between atoms: C9_9  and  O11_11 
ROOT
HETATM    1  C1  UNL     1     -35.723  13.889  -5.029  1.00 20.00     0.067 C 
HETATM    2  C8  UNL     1     -35.523  15.336  -4.768  1.00 20.00     0.126 C 
HETATM    3  N10 UNL     1     -35.886  12.759  -5.235  1.00 20.00    -0.197 NA
ENDROOT
BRANCH   2   4
HETATM    4  C7  UNL     1     -36.544  15.799  -3.701  1.00 20.00     0.018 C 
HETATM    5  C5  UNL     1     -37.506  16.867  -4.215  1.00 20.00     0.006 C 
ENDBRANCH   2   4
BRANCH   2   6
HETATM    6  C9  UNL     1     -34.039  15.629  -4.365  1.00 20.00     0.074 C 
HETATM    7  C6  UNL     1     -33.962  16.306  -3.008  1.00 20.00     0.047 C 
BRANCH   6   8
HETATM    8  C4  UNL     1     -33.331  16.528  -5.397  1.00 20.00     0.021 A 
HETATM    9  C2  UNL     1     -33.640  16.387  -6.863  1.00 20.00     0.008 A 
HETATM   10  C3  UNL     1     -34.095  17.608  -6.112  1.00 20.00     0.008 A 
ENDBRANCH   6   8
BRANCH   6  11
HETATM   11  O11 UNL     1     -33.324  14.392  -4.291  1.00 20.00    -0.388 OA
HETATM   12  H26 UNL     1     -33.458  13.950  -5.142  1.00 20.00     0.210 HD
ENDBRANCH   6  11
ENDBRANCH   2   6
TORSDOF 4
ENDMDL
MODEL 7
REMARK VINA RESULT:      -4.1     10.527     11.250
REMARK  4 active torsions:
REMARK  status: ('A' for Active; 'I' for Inactive)
REMARK    1  A    between atoms: C4_4  and  C9_9 
REMARK    2  A    between atoms: C7_7  and  C8_8 
REMARK    3  A    between atoms: C8_8  and  C9_9 
REMARK    4  A    between atoms: C9_9  and  O11_11 
ROOT
HETATM    1  C1  UNL     1     -36.414  14.178  -5.006  1.00 20.00     0.067 C 
HETATM    2  C8  UNL     1     -34.952  14.410  -5.100  1.00 20.00     0.126 C 
HETATM    3  N10 UNL     1     -37.557  13.990  -4.934  1.00 20.00    -0.197 NA
ENDROOT
BRANCH   2   4
HETATM    4  C7  UNL     1     -34.499  14.174  -6.562  1.00 20.00     0.018 C 
HETATM    5  C5  UNL     1     -35.155  12.954  -7.201  1.00 20.00     0.006 C 
ENDBRANCH   2   4
BRANCH   2   6
HETATM    6  C9  UNL     1     -34.578  15.833  -4.564  1.00 20.00     0.074 C 
HETATM    7  C6  UNL     1     -33.354  16.382  -5.274  1.00 20.00     0.047 C 
BRANCH   6   8
HETATM    8  C4  UNL     1     -34.296  15.820  -3.049  1.00 20.00     0.021 A 
HETATM    9  C2  UNL     1     -33.751  17.046  -2.369  1.00 20.00     0.008 A 
HETATM   10  C3  UNL     1     -35.167  16.610  -2.111  1.00 20.00     0.008 A 
ENDBRANCH   6   8
BRANCH   6  11
HETATM   11  O11 UNL     1     -35.673  16.722  -4.803  1.00 20.00    -0.388 OA
HETATM   12  H26 UNL     1     -35.296  17.613  -4.842  1.00 20.00     0.210 HD
ENDBRANCH   6  11
ENDBRANCH   2   6
TORSDOF 4
ENDMDL
MODEL 8
REMARK VINA RESULT:      -4.1     10.586     11.329
REMARK  4 active torsions:
REMARK  status: ('A' for Active; 'I' for Inactive)
REMARK    1  A    between atoms: C4_4  and  C9_9 
REMARK    2  A    between atoms: C7_7  and  C8_8 
REMARK    3  A    between atoms: C8_8  and  C9_9 
REMARK    4  A    between atoms: C9_9  and  O11_11 
ROOT
HETATM    1  C1  UNL     1     -33.706  17.293  -5.003  1.00 20.00     0.067 C 
HETATM    2  C8  UNL     1     -33.428  16.117  -4.142  1.00 20.00     0.126 C 
HETATM    3  N10 UNL     1     -33.921  18.217  -5.671  1.00 20.00    -0.197 NA
ENDROOT
BRANCH   2   4
HETATM    4  C7  UNL     1     -34.171  16.295  -2.795  1.00 20.00     0.018 C 
HETATM    5  C5  UNL     1     -33.495  17.300  -1.867  1.00 20.00     0.006 C 
ENDBRANCH   2   4
BRANCH   2   6
HETATM    6  C9  UNL     1     -33.803  14.788  -4.878  1.00 20.00     0.074 C 
HETATM    7  C6  UNL     1     -33.849  14.987  -6.382  1.00 20.00     0.047 C 
BRANCH   6   8
HETATM    8  C4  UNL     1     -35.168  14.241  -4.417  1.00 20.00     0.021 A 
HETATM    9  C2  UNL     1     -36.439  14.758  -5.034  1.00 20.00     0.008 A 
HETATM   10  C3  UNL     1     -35.976  13.358  -5.327  1.00 20.00     0.008 A 
ENDBRANCH   6   8
BRANCH   6  11
HETATM   11  O11 UNL     1     -32.810  13.799  -4.586  1.00 20.00    -0.388 OA
HETATM   12  H26 UNL     1     -33.205  13.202  -3.935  1.00 20.00     0.210 HD
ENDBRANCH   6  11
ENDBRANCH   2   6
TORSDOF 4
ENDMDL
MODEL 9
REMARK VINA RESULT:      -4.1     10.313     11.607
REMARK  4 active torsions:
REMARK  status: ('A' for Active; 'I' for Inactive)
REMARK    1  A    between atoms: C4_4  and  C9_9 
REMARK    2  A    between atoms: C7_7  and  C8_8 
REMARK    3  A    between atoms: C8_8  and  C9_9 
REMARK    4  A    between atoms: C9_9  and  O11_11 
ROOT
HETATM    1  C1  UNL     1     -36.470  16.383  -4.647  1.00 20.00     0.067 C 
HETATM    2  C8  UNL     1     -36.746  14.937  -4.466  1.00 20.00     0.126 C 
HETATM    3  N10 UNL     1     -36.259  17.515  -4.786  1.00 20.00    -0.197 NA
ENDROOT
BRANCH   2   4
HETATM    4  C7  UNL     1     -38.128  14.609  -5.082  1.00 20.00     0.018 C 
HETATM    5  C5  UNL     1     -39.238  15.535  -4.592  1.00 20.00     0.006 C 
ENDBRANCH   2   4
BRANCH   2   6
HETATM    6  C9  UNL     1     -35.588  14.069  -5.061  1.00 20.00     0.074 C 
HETATM    7  C6  UNL     1     -34.317  14.215  -4.245  1.00 20.00     0.047 C 
BRANCH   6   8
HETATM    8  C4  UNL     1     -35.275  14.452  -6.521  1.00 20.00     0.021 A 
HETATM    9  C2  UNL     1     -34.291  13.645  -7.322  1.00 20.00     0.008 A 
HETATM   10  C3  UNL     1     -35.757  13.585  -7.651  1.00 20.00     0.008 A 
ENDBRANCH   6   8
BRANCH   6  11
HETATM   11  O11 UNL     1     -35.980  12.693  -5.040  1.00 20.00    -0.388 OA
HETATM   12  H26 UNL     1     -36.187  12.484  -4.118  1.00 20.00     0.210 HD
ENDBRANCH   6  11
ENDBRANCH   2   6
TORSDOF 4
ENDMDL
