MODEL 1
REMARK VINA RESULT:      -4.3      0.000      0.000
REMARK  4 active torsions:
REMARK  status: ('A' for Active; 'I' for Inactive)
REMARK    1  A    between atoms: C4_4  and  C9_9 
REMARK    2  A    between atoms: C7_7  and  C9_9 
REMARK    3  A    between atoms: C8_8  and  C9_9 
REMARK    4  A    between atoms: C9_9  and  O11_11 
ROOT
HETATM    1  C1  UNL     1     -37.881  14.620  -4.761  1.00 20.00     0.066 C 
HETATM    2  C6  UNL     1     -36.368  16.519  -5.012  1.00 20.00     0.028 C 
HETATM    3  C8  UNL     1     -36.508  15.091  -4.465  1.00 20.00     0.123 C 
HETATM    4  N10 UNL     1     -38.958  14.253  -4.991  1.00 20.00    -0.197 NA
ENDROOT
BRANCH   3   5
HETATM    5  C9  UNL     1     -35.431  14.106  -5.021  1.00 20.00     0.077 C 
BRANCH   5   6
HETATM    6  C4  UNL     1     -35.055  14.464  -6.450  1.00 20.00     0.021 A 
HETATM    7  C2  UNL     1     -34.467  13.424  -7.361  1.00 20.00     0.008 A 
HETATM    8  C3  UNL     1     -35.862  13.931  -7.601  1.00 20.00     0.008 A 
ENDBRANCH   5   6
BRANCH   5   9
HETATM    9  C7  UNL     1     -34.150  14.026  -4.145  1.00 20.00     0.035 C 
HETATM   10  C5  UNL     1     -33.076  15.060  -4.456  1.00 20.00     0.008 C 
ENDBRANCH   5   9
BRANCH   5  11
HETATM   11  O11 UNL     1     -36.002  12.788  -5.044  1.00 20.00    -0.388 OA
HETATM   12  H26 UNL     1     -36.928  12.897  -4.784  1.00 20.00     0.210 HD
ENDBRANCH   5  11
ENDBRANCH   3   5
TORSDOF 4
ENDMDL
MODEL 2
REMARK VINA RESULT:      -4.3      2.464      4.106
REMARK  4 active torsions:
REMARK  status: ('A' for Active; 'I' for Inactive)
REMARK    1  A    between atoms: C4_4  and  C9_9 
REMARK    2  A    between atoms: C7_7  and  C9_9 
REMARK    3  A    between atoms: C8_8  and  C9_9 
REMARK    4  A    between atoms: C9_9  and  O11_11 
ROOT
HETATM    1  C1  UNL     1     -35.310  13.840  -5.094  1.00 20.00     0.066 C 
HETATM    2  C6  UNL     1     -33.101  14.572  -4.358  1.00 20.00     0.028 C 
HETATM    3  C8  UNL     1     -34.461  15.037  -4.901  1.00 20.00     0.123 C 
HETATM    4  N10 UNL     1     -35.974  12.900  -5.249  1.00 20.00    -0.197 NA
ENDROOT
BRANCH   3   5
HETATM    5  C9  UNL     1     -35.161  16.098  -3.993  1.00 20.00     0.077 C 
BRANCH   5   6
HETATM    6  C4  UNL     1     -34.492  16.172  -2.631  1.00 20.00     0.021 A 
HETATM    7  C2  UNL     1     -33.958  17.480  -2.120  1.00 20.00     0.008 A 
HETATM    8  C3  UNL     1     -35.176  16.867  -1.488  1.00 20.00     0.008 A 
ENDBRANCH   5   6
BRANCH   5   9
HETATM    9  C7  UNL     1     -35.222  17.515  -4.626  1.00 20.00     0.035 C 
HETATM   10  C5  UNL     1     -34.363  17.718  -5.868  1.00 20.00     0.008 C 
ENDBRANCH   5   9
BRANCH   5  11
HETATM   11  O11 UNL     1     -36.518  15.677  -3.783  1.00 20.00    -0.388 OA
HETATM   12  H26 UNL     1     -36.875  16.264  -3.102  1.00 20.00     0.210 HD
ENDBRANCH   5  11
ENDBRANCH   3   5
TORSDOF 4
ENDMDL
MODEL 3
REMARK VINA RESULT:      -4.2      1.582      3.524
REMARK  4 active torsions:
REMARK  status: ('A' for Active; 'I' for Inactive)
REMARK    1  A    between atoms: C4_4  and  C9_9 
REMARK    2  A    between atoms: C7_7  and  C9_9 
REMARK    3  A    between atoms: C8_8  and  C9_9 
REMARK    4  A    between atoms: C9_9  and  O11_11 
ROOT
HETATM    1  C1  UNL     1     -35.354  15.517  -7.172  1.00 20.00     0.066 C 
HETATM    2  C6  UNL     1     -35.183  13.104  -7.492  1.00 20.00     0.028 C 
HETATM    3  C8  UNL     1     -34.876  14.267  -6.538  1.00 20.00     0.123 C 
HETATM    4  N10 UNL     1     -35.726  16.497  -7.672  1.00 20.00    -0.197 NA
ENDROOT
BRANCH   3   5
HETATM    5  C9  UNL     1     -35.486  14.078  -5.112  1.00 20.00     0.077 C 
BRANCH   5   6
HETATM    6  C4  UNL     1     -34.421  14.247  -4.041  1.00 20.00     0.021 A 
HETATM    7  C2  UNL     1     -33.030  14.672  -4.417  1.00 20.00     0.008 A 
HETATM    8  C3  UNL     1     -33.929  15.619  -3.672  1.00 20.00     0.008 A 
ENDBRANCH   5   6
BRANCH   5   9
HETATM    9  C7  UNL     1     -36.682  15.024  -4.817  1.00 20.00     0.035 C 
HETATM   10  C5  UNL     1     -38.063  14.441  -5.087  1.00 20.00     0.008 C 
ENDBRANCH   5   9
BRANCH   5  11
HETATM   11  O11 UNL     1     -35.983  12.734  -5.016  1.00 20.00    -0.388 OA
HETATM   12  H26 UNL     1     -35.220  12.158  -5.164  1.00 20.00     0.210 HD
ENDBRANCH   5  11
ENDBRANCH   3   5
TORSDOF 4
ENDMDL
MODEL 4
REMARK VINA RESULT:      -4.1     11.284     12.567
REMARK  4 active torsions:
REMARK  status: ('A' for Active; 'I' for Inactive)
REMARK    1  A    between atoms: C4_4  and  C9_9 
REMARK    2  A    between atoms: C7_7  and  C9_9 
REMARK    3  A    between atoms: C8_8  and  C9_9 
REMARK    4  A    between atoms: C9_9  and  O11_11 
ROOT
HETATM    1  C1  UNL     1     -34.047   6.944   5.594  1.00 20.00     0.066 C 
HETATM    2  C6  UNL     1     -34.625   4.647   5.006  1.00 20.00     0.028 C 
HETATM    3  C8  UNL     1     -34.590   6.098   4.506  1.00 20.00     0.123 C 
HETATM    4  N10 UNL     1     -33.624   7.607   6.448  1.00 20.00    -0.197 NA
ENDROOT
BRANCH   3   5
HETATM    5  C9  UNL     1     -33.783   6.279   3.181  1.00 20.00     0.077 C 
BRANCH   5   6
HETATM    6  C4  UNL     1     -33.225   7.689   3.074  1.00 20.00     0.021 A 
HETATM    7  C2  UNL     1     -31.744   7.927   3.176  1.00 20.00     0.008 A 
HETATM    8  C3  UNL     1     -32.446   8.104   1.858  1.00 20.00     0.008 A 
ENDBRANCH   5   6
BRANCH   5   9
HETATM    9  C7  UNL     1     -32.635   5.246   3.007  1.00 20.00     0.035 C 
HETATM   10  C5  UNL     1     -32.890   4.148   1.983  1.00 20.00     0.008 C 
ENDBRANCH   5   9
BRANCH   5  11
HETATM   11  O11 UNL     1     -34.685   6.089   2.080  1.00 20.00    -0.388 OA
HETATM   12  H26 UNL     1     -34.302   5.381   1.543  1.00 20.00     0.210 HD
ENDBRANCH   5  11
ENDBRANCH   3   5
TORSDOF 4
ENDMDL
MODEL 5
REMARK VINA RESULT:      -4.1      1.816      3.302
REMARK  4 active torsions:
REMARK  status: ('A' for Active; 'I' for Inactive)
REMARK    1  A    between atoms: C4_4  and  C9_9 
REMARK    2  A    between atoms: C7_7  and  C9_9 
REMARK    3  A    between atoms: C8_8  and  C9_9 
REMARK    4  A    between atoms: C9_9  and  O11_11 
ROOT
HETATM    1  C1  UNL     1     -34.725  15.816  -3.392  1.00 20.00     0.066 C 
HETATM    2  C6  UNL     1     -33.111  14.389  -4.540  1.00 20.00     0.028 C 
HETATM    3  C8  UNL     1     -34.533  14.463  -3.963  1.00 20.00     0.123 C 
HETATM    4  N10 UNL     1     -34.873  16.875  -2.941  1.00 20.00    -0.197 NA
ENDROOT
BRANCH   3   5
HETATM    5  C9  UNL     1     -35.644  14.118  -5.005  1.00 20.00     0.077 C 
BRANCH   5   6
HETATM    6  C4  UNL     1     -36.936  14.851  -4.683  1.00 20.00     0.021 A 
HETATM    7  C2  UNL     1     -37.608  15.696  -5.728  1.00 20.00     0.008 A 
HETATM    8  C3  UNL     1     -38.234  14.401  -5.292  1.00 20.00     0.008 A 
ENDBRANCH   5   6
BRANCH   5   9
HETATM    9  C7  UNL     1     -35.229  14.407  -6.475  1.00 20.00     0.035 C 
HETATM   10  C5  UNL     1     -35.166  13.191  -7.391  1.00 20.00     0.008 C 
ENDBRANCH   5   9
BRANCH   5  11
HETATM   11  O11 UNL     1     -35.915  12.710  -4.918  1.00 20.00    -0.388 OA
HETATM   12  H26 UNL     1     -35.101  12.304  -4.588  1.00 20.00     0.210 HD
ENDBRANCH   5  11
ENDBRANCH   3   5
TORSDOF 4
ENDMDL
MODEL 6
REMARK VINA RESULT:      -4.0      1.799      2.505
REMARK  4 active torsions:
REMARK  status: ('A' for Active; 'I' for Inactive)
REMARK    1  A    between atoms: C4_4  and  C9_9 
REMARK    2  A    between atoms: C7_7  and  C9_9 
REMARK    3  A    between atoms: C8_8  and  C9_9 
REMARK    4  A    between atoms: C9_9  and  O11_11 
ROOT
HETATM    1  C1  UNL     1     -36.817  14.078  -5.619  1.00 20.00     0.066 C 
HETATM    2  C6  UNL     1     -35.208  13.045  -7.138  1.00 20.00     0.028 C 
HETATM    3  C8  UNL     1     -35.572  14.331  -6.381  1.00 20.00     0.123 C 
HETATM    4  N10 UNL     1     -37.795  13.879  -5.026  1.00 20.00    -0.197 NA
ENDROOT
BRANCH   3   5
HETATM    5  C9  UNL     1     -34.427  14.849  -5.452  1.00 20.00     0.077 C 
BRANCH   5   6
HETATM    6  C4  UNL     1     -33.869  16.167  -5.964  1.00 20.00     0.021 A 
HETATM    7  C2  UNL     1     -33.835  16.453  -7.439  1.00 20.00     0.008 A 
HETATM    8  C3  UNL     1     -34.788  17.202  -6.550  1.00 20.00     0.008 A 
ENDBRANCH   5   6
BRANCH   5   9
HETATM    9  C7  UNL     1     -34.853  15.001  -3.966  1.00 20.00     0.035 C 
HETATM   10  C5  UNL     1     -34.084  16.045  -3.166  1.00 20.00     0.008 C 
ENDBRANCH   5   9
BRANCH   5  11
HETATM   11  O11 UNL     1     -33.360  13.889  -5.483  1.00 20.00    -0.388 OA
HETATM   12  H26 UNL     1     -33.298  13.592  -6.402  1.00 20.00     0.210 HD
ENDBRANCH   5  11
ENDBRANCH   3   5
TORSDOF 4
ENDMDL
MODEL 7
REMARK VINA RESULT:      -4.0      2.466      3.626
REMARK  4 active torsions:
REMARK  status: ('A' for Active; 'I' for Inactive)
REMARK    1  A    between atoms: C4_4  and  C9_9 
REMARK    2  A    between atoms: C7_7  and  C9_9 
REMARK    3  A    between atoms: C8_8  and  C9_9 
REMARK    4  A    between atoms: C9_9  and  O11_11 
ROOT
HETATM    1  C1  UNL     1     -35.928  14.036  -5.119  1.00 20.00     0.066 C 
HETATM    2  C6  UNL     1     -36.368  16.102  -6.342  1.00 20.00     0.028 C 
HETATM    3  C8  UNL     1     -35.934  15.512  -4.992  1.00 20.00     0.123 C 
HETATM    4  N10 UNL     1     -35.927  12.879  -5.219  1.00 20.00    -0.197 NA
ENDROOT
BRANCH   3   5
HETATM    5  C9  UNL     1     -34.555  16.050  -4.494  1.00 20.00     0.077 C 
BRANCH   5   6
HETATM    6  C4  UNL     1     -34.427  15.898  -2.987  1.00 20.00     0.021 A 
HETATM    7  C2  UNL     1     -33.889  17.028  -2.155  1.00 20.00     0.008 A 
HETATM    8  C3  UNL     1     -35.343  16.656  -2.069  1.00 20.00     0.008 A 
ENDBRANCH   5   6
BRANCH   5   9
HETATM    9  C7  UNL     1     -33.339  15.385  -5.194  1.00 20.00     0.035 C 
HETATM   10  C5  UNL     1     -32.576  14.365  -4.359  1.00 20.00     0.008 C 
ENDBRANCH   5   9
BRANCH   5  11
HETATM   11  O11 UNL     1     -34.491  17.454  -4.791  1.00 20.00    -0.388 OA
HETATM   12  H26 UNL     1     -33.949  17.531  -5.589  1.00 20.00     0.210 HD
ENDBRANCH   5  11
ENDBRANCH   3   5
TORSDOF 4
ENDMDL
MODEL 8
REMARK VINA RESULT:      -3.9      2.099      3.779
REMARK  4 active torsions:
REMARK  status: ('A' for Active; 'I' for Inactive)
REMARK    1  A    between atoms: C4_4  and  C9_9 
REMARK    2  A    between atoms: C7_7  and  C9_9 
REMARK    3  A    between atoms: C8_8  and  C9_9 
REMARK    4  A    between atoms: C9_9  and  O11_11 
ROOT
HETATM    1  C1  UNL     1     -34.957  13.552  -6.532  1.00 20.00     0.066 C 
HETATM    2  C6  UNL     1     -33.545  15.530  -6.756  1.00 20.00     0.028 C 
HETATM    3  C8  UNL     1     -34.800  14.955  -6.083  1.00 20.00     0.123 C 
HETATM    4  N10 UNL     1     -35.082  12.454  -6.888  1.00 20.00    -0.197 NA
ENDROOT
BRANCH   3   5
HETATM    5  C9  UNL     1     -34.771  15.058  -4.525  1.00 20.00     0.077 C 
BRANCH   5   6
HETATM    6  C4  UNL     1     -33.677  16.007  -4.065  1.00 20.00     0.021 A 
HETATM    7  C2  UNL     1     -33.981  17.462  -3.843  1.00 20.00     0.008 A 
HETATM    8  C3  UNL     1     -33.697  16.566  -2.670  1.00 20.00     0.008 A 
ENDBRANCH   5   6
BRANCH   5   9
HETATM    9  C7  UNL     1     -36.131  15.484  -3.905  1.00 20.00     0.035 C 
HETATM   10  C5  UNL     1     -37.186  15.957  -4.897  1.00 20.00     0.008 C 
ENDBRANCH   5   9
BRANCH   5  11
HETATM   11  O11 UNL     1     -34.462  13.758  -3.998  1.00 20.00    -0.388 OA
HETATM   12  H26 UNL     1     -33.991  13.292  -4.703  1.00 20.00     0.210 HD
ENDBRANCH   5  11
ENDBRANCH   3   5
TORSDOF 4
ENDMDL
MODEL 9
REMARK VINA RESULT:      -3.8      2.106      2.678
REMARK  4 active torsions:
REMARK  status: ('A' for Active; 'I' for Inactive)
REMARK    1  A    between atoms: C4_4  and  C9_9 
REMARK    2  A    between atoms: C7_7  and  C9_9 
REMARK    3  A    between atoms: C8_8  and  C9_9 
REMARK    4  A    between atoms: C9_9  and  O11_11 
ROOT
HETATM    1  C1  UNL     1     -37.508  14.931  -4.494  1.00 20.00     0.066 C 
HETATM    2  C6  UNL     1     -37.172  17.342  -4.673  1.00 20.00     0.028 C 
HETATM    3  C8  UNL     1     -36.751  16.069  -3.924  1.00 20.00     0.123 C 
HETATM    4  N10 UNL     1     -38.104  14.040  -4.940  1.00 20.00    -0.197 NA
ENDROOT
BRANCH   3   5
HETATM    5  C9  UNL     1     -35.212  15.810  -3.958  1.00 20.00     0.077 C 
BRANCH   5   6
HETATM    6  C4  UNL     1     -34.592  16.392  -5.218  1.00 20.00     0.021 A 
HETATM    7  C2  UNL     1     -33.456  17.371  -5.120  1.00 20.00     0.008 A 
HETATM    8  C3  UNL     1     -33.209  15.983  -5.640  1.00 20.00     0.008 A 
ENDBRANCH   5   6
BRANCH   5   9
HETATM    9  C7  UNL     1     -34.462  16.347  -2.708  1.00 20.00     0.035 C 
HETATM   10  C5  UNL     1     -35.349  16.787  -1.550  1.00 20.00     0.008 C 
ENDBRANCH   5   9
BRANCH   5  11
HETATM   11  O11 UNL     1     -35.000  14.389  -3.992  1.00 20.00    -0.388 OA
HETATM   12  H26 UNL     1     -35.691  14.033  -4.566  1.00 20.00     0.210 HD
ENDBRANCH   5  11
ENDBRANCH   3   5
TORSDOF 4
ENDMDL
