MODEL 1
REMARK VINA RESULT:      -4.7      0.000      0.000
REMARK  4 active torsions:
REMARK  status: ('A' for Active; 'I' for Inactive)
REMARK    1  A    between atoms: C5_5  and  C7_7 
REMARK    2  A    between atoms: C6_6  and  C8_8 
REMARK    3  A    between atoms: C7_7  and  C8_8 
REMARK    4  A    between atoms: C8_8  and  O10_10 
ROOT
HETATM    1  C1  UNL     1     -33.743   7.334   5.247  1.00 20.00     0.067 C 
HETATM    2  C7  UNL     1     -34.041   7.216   3.799  1.00 20.00     0.126 C 
HETATM    3  N9  UNL     1     -33.511   7.429   6.381  1.00 20.00    -0.197 NA
ENDROOT
BRANCH   2   4
HETATM    4  C5  UNL     1     -34.773   5.885   3.520  1.00 20.00     0.018 C 
HETATM    5  C2  UNL     1     -34.684   4.902   4.685  1.00 20.00     0.006 C 
ENDBRANCH   2   4
BRANCH   2   6
HETATM    6  C8  UNL     1     -32.742   7.416   2.947  1.00 20.00     0.070 C 
HETATM    7  C4  UNL     1     -31.620   8.111   3.730  1.00 20.00     0.047 C 
BRANCH   6   8
HETATM    8  C6  UNL     1     -33.052   8.181   1.633  1.00 20.00     0.034 C 
HETATM    9  C3  UNL     1     -32.239   9.455   1.425  1.00 20.00     0.008 C 
ENDBRANCH   6   8
BRANCH   6  10
HETATM   10  O10 UNL     1     -32.253   6.116   2.580  1.00 20.00    -0.389 OA
HETATM   11  H25 UNL     1     -32.978   5.501   2.751  1.00 20.00     0.210 HD
ENDBRANCH   6  10
ENDBRANCH   2   6
TORSDOF 4
ENDMDL
MODEL 2
REMARK VINA RESULT:      -4.5     10.915     11.752
REMARK  4 active torsions:
REMARK  status: ('A' for Active; 'I' for Inactive)
REMARK    1  A    between atoms: C5_5  and  C7_7 
REMARK    2  A    between atoms: C6_6  and  C8_8 
REMARK    3  A    between atoms: C7_7  and  C8_8 
REMARK    4  A    between atoms: C8_8  and  O10_10 
ROOT
HETATM    1  C1  UNL     1     -36.063  14.116  -4.822  1.00 20.00     0.067 C 
HETATM    2  C7  UNL     1     -34.902  14.710  -4.114  1.00 20.00     0.126 C 
HETATM    3  N9  UNL     1     -36.972  13.648  -5.373  1.00 20.00    -0.197 NA
ENDROOT
BRANCH   2   4
HETATM    4  C5  UNL     1     -35.237  16.152  -3.675  1.00 20.00     0.018 C 
HETATM    5  C2  UNL     1     -34.712  16.487  -2.281  1.00 20.00     0.006 C 
ENDBRANCH   2   4
BRANCH   2   6
HETATM    6  C8  UNL     1     -33.605  14.597  -4.985  1.00 20.00     0.070 C 
HETATM    7  C4  UNL     1     -32.389  14.119  -4.179  1.00 20.00     0.047 C 
BRANCH   6   8
HETATM    8  C6  UNL     1     -33.299  15.939  -5.700  1.00 20.00     0.034 C 
HETATM    9  C3  UNL     1     -33.794  16.027  -7.141  1.00 20.00     0.008 C 
ENDBRANCH   6   8
BRANCH   6  10
HETATM   10  O10 UNL     1     -33.844  13.613  -6.005  1.00 20.00    -0.389 OA
HETATM   11  H25 UNL     1     -34.799  13.606  -6.147  1.00 20.00     0.210 HD
ENDBRANCH   6  10
ENDBRANCH   2   6
TORSDOF 4
ENDMDL
MODEL 3
REMARK VINA RESULT:      -4.4      2.245      3.636
REMARK  4 active torsions:
REMARK  status: ('A' for Active; 'I' for Inactive)
REMARK    1  A    between atoms: C5_5  and  C7_7 
REMARK    2  A    between atoms: C6_6  and  C8_8 
REMARK    3  A    between atoms: C7_7  and  C8_8 
REMARK    4  A    between atoms: C8_8  and  O10_10 
ROOT
HETATM    1  C1  UNL     1     -32.381   7.855   2.583  1.00 20.00     0.067 C 
HETATM    2  C7  UNL     1     -32.852   6.627   3.271  1.00 20.00     0.126 C 
HETATM    3  N9  UNL     1     -32.009   8.816   2.047  1.00 20.00    -0.197 NA
ENDROOT
BRANCH   2   4
HETATM    4  C5  UNL     1     -33.333   5.594   2.229  1.00 20.00     0.018 C 
HETATM    5  C2  UNL     1     -32.724   4.209   2.439  1.00 20.00     0.006 C 
ENDBRANCH   2   4
BRANCH   2   6
HETATM    6  C8  UNL     1     -33.923   6.977   4.358  1.00 20.00     0.070 C 
HETATM    7  C4  UNL     1     -33.298   7.351   5.710  1.00 20.00     0.047 C 
BRANCH   6   8
HETATM    8  C6  UNL     1     -34.943   5.820   4.525  1.00 20.00     0.034 C 
HETATM    9  C3  UNL     1     -34.618   4.834   5.643  1.00 20.00     0.008 C 
ENDBRANCH   6   8
BRANCH   6  10
HETATM   10  O10 UNL     1     -34.653   8.129   3.903  1.00 20.00    -0.389 OA
HETATM   11  H25 UNL     1     -35.308   7.796   3.275  1.00 20.00     0.210 HD
ENDBRANCH   6  10
ENDBRANCH   2   6
TORSDOF 4
ENDMDL
MODEL 4
REMARK VINA RESULT:      -4.4     10.890     11.858
REMARK  4 active torsions:
REMARK  status: ('A' for Active; 'I' for Inactive)
REMARK    1  A    between atoms: C5_5  and  C7_7 
REMARK    2  A    between atoms: C6_6  and  C8_8 
REMARK    3  A    between atoms: C7_7  and  C8_8 
REMARK    4  A    between atoms: C8_8  and  O10_10 
ROOT
HETATM    1  C1  UNL     1     -33.924  14.299  -4.454  1.00 20.00     0.067 C 
HETATM    2  C7  UNL     1     -35.187  15.020  -4.752  1.00 20.00     0.126 C 
HETATM    3  N9  UNL     1     -32.935  13.737  -4.223  1.00 20.00    -0.197 NA
ENDROOT
BRANCH   2   4
HETATM    4  C5  UNL     1     -35.720  15.697  -3.471  1.00 20.00     0.018 C 
HETATM    5  C2  UNL     1     -34.626  16.401  -2.671  1.00 20.00     0.006 C 
ENDBRANCH   2   4
BRANCH   2   6
HETATM    6  C8  UNL     1     -36.220  14.066  -5.442  1.00 20.00     0.070 C 
HETATM    7  C4  UNL     1     -36.092  14.059  -6.972  1.00 20.00     0.047 C 
BRANCH   6   8
HETATM    8  C6  UNL     1     -37.670  14.415  -5.013  1.00 20.00     0.034 C 
HETATM    9  C3  UNL     1     -38.437  15.293  -5.997  1.00 20.00     0.008 C 
ENDBRANCH   6   8
BRANCH   6  10
HETATM   10  O10 UNL     1     -35.951  12.728  -4.994  1.00 20.00    -0.389 OA
HETATM   11  H25 UNL     1     -35.906  12.775  -4.030  1.00 20.00     0.210 HD
ENDBRANCH   6  10
ENDBRANCH   2   6
TORSDOF 4
ENDMDL
MODEL 5
REMARK VINA RESULT:      -4.4     10.867     12.266
REMARK  4 active torsions:
REMARK  status: ('A' for Active; 'I' for Inactive)
REMARK    1  A    between atoms: C5_5  and  C7_7 
REMARK    2  A    between atoms: C6_6  and  C8_8 
REMARK    3  A    between atoms: C7_7  and  C8_8 
REMARK    4  A    between atoms: C8_8  and  O10_10 
ROOT
HETATM    1  C1  UNL     1     -37.462  14.621  -4.907  1.00 20.00     0.067 C 
HETATM    2  C7  UNL     1     -36.110  15.226  -4.812  1.00 20.00     0.126 C 
HETATM    3  N9  UNL     1     -38.519  14.148  -4.977  1.00 20.00    -0.197 NA
ENDROOT
BRANCH   2   4
HETATM    4  C5  UNL     1     -36.015  16.447  -5.753  1.00 20.00     0.018 C 
HETATM    5  C2  UNL     1     -35.257  17.619  -5.132  1.00 20.00     0.006 C 
ENDBRANCH   2   4
BRANCH   2   6
HETATM    6  C8  UNL     1     -35.001  14.148  -5.058  1.00 20.00     0.070 C 
HETATM    7  C4  UNL     1     -33.821  14.277  -4.085  1.00 20.00     0.047 C 
BRANCH   6   8
HETATM    8  C6  UNL     1     -34.508  14.185  -6.529  1.00 20.00     0.034 C 
HETATM    9  C3  UNL     1     -35.132  13.133  -7.441  1.00 20.00     0.008 C 
ENDBRANCH   6   8
BRANCH   6  10
HETATM   10  O10 UNL     1     -35.587  12.855  -4.835  1.00 20.00    -0.389 OA
HETATM   11  H25 UNL     1     -34.936  12.212  -5.144  1.00 20.00     0.210 HD
ENDBRANCH   6  10
ENDBRANCH   2   6
TORSDOF 4
ENDMDL
MODEL 6
REMARK VINA RESULT:      -4.3      1.089      3.551
REMARK  4 active torsions:
REMARK  status: ('A' for Active; 'I' for Inactive)
REMARK    1  A    between atoms: C5_5  and  C7_7 
REMARK    2  A    between atoms: C6_6  and  C8_8 
REMARK    3  A    between atoms: C7_7  and  C8_8 
REMARK    4  A    between atoms: C8_8  and  O10_10 
ROOT
HETATM    1  C1  UNL     1     -33.213   7.382   4.893  1.00 20.00     0.067 C 
HETATM    2  C7  UNL     1     -32.882   7.016   3.493  1.00 20.00     0.126 C 
HETATM    3  N9  UNL     1     -33.470   7.667   5.989  1.00 20.00    -0.197 NA
ENDROOT
BRANCH   2   4
HETATM    4  C5  UNL     1     -32.913   8.275   2.600  1.00 20.00     0.018 C 
HETATM    5  C2  UNL     1     -31.654   8.434   1.751  1.00 20.00     0.006 C 
ENDBRANCH   2   4
BRANCH   2   6
HETATM    6  C8  UNL     1     -33.807   5.857   2.989  1.00 20.00     0.070 C 
HETATM    7  C4  UNL     1     -34.554   6.214   1.696  1.00 20.00     0.047 C 
BRANCH   6   8
HETATM    8  C6  UNL     1     -34.802   5.420   4.096  1.00 20.00     0.034 C 
HETATM    9  C3  UNL     1     -34.417   4.142   4.837  1.00 20.00     0.008 C 
ENDBRANCH   6   8
BRANCH   6  10
HETATM   10  O10 UNL     1     -32.973   4.725   2.691  1.00 20.00    -0.389 OA
HETATM   11  H25 UNL     1     -33.574   4.012   2.442  1.00 20.00     0.210 HD
ENDBRANCH   6  10
ENDBRANCH   2   6
TORSDOF 4
ENDMDL
MODEL 7
REMARK VINA RESULT:      -4.3     11.254     12.234
REMARK  4 active torsions:
REMARK  status: ('A' for Active; 'I' for Inactive)
REMARK    1  A    between atoms: C5_5  and  C7_7 
REMARK    2  A    between atoms: C6_6  and  C8_8 
REMARK    3  A    between atoms: C7_7  and  C8_8 
REMARK    4  A    between atoms: C8_8  and  O10_10 
ROOT
HETATM    1  C1  UNL     1     -35.473  13.888  -5.442  1.00 20.00     0.067 C 
HETATM    2  C7  UNL     1     -34.962  15.267  -5.642  1.00 20.00     0.126 C 
HETATM    3  N9  UNL     1     -35.876  12.810  -5.284  1.00 20.00    -0.197 NA
ENDROOT
BRANCH   2   4
HETATM    4  C5  UNL     1     -34.523  15.456  -7.110  1.00 20.00     0.018 C 
HETATM    5  C2  UNL     1     -34.118  14.147  -7.784  1.00 20.00     0.006 C 
ENDBRANCH   2   4
BRANCH   2   6
HETATM    6  C8  UNL     1     -33.843  15.600  -4.598  1.00 20.00     0.070 C 
HETATM    7  C4  UNL     1     -32.869  14.434  -4.379  1.00 20.00     0.047 C 
BRANCH   6   8
HETATM    8  C6  UNL     1     -34.461  16.061  -3.251  1.00 20.00     0.034 C 
HETATM    9  C3  UNL     1     -33.566  16.969  -2.412  1.00 20.00     0.008 C 
ENDBRANCH   6   8
BRANCH   6  10
HETATM   10  O10 UNL     1     -33.073  16.698  -5.114  1.00 20.00    -0.389 OA
HETATM   11  H25 UNL     1     -33.613  17.488  -4.977  1.00 20.00     0.210 HD
ENDBRANCH   6  10
ENDBRANCH   2   6
TORSDOF 4
ENDMDL
MODEL 8
REMARK VINA RESULT:      -4.3     11.099     11.987
REMARK  4 active torsions:
REMARK  status: ('A' for Active; 'I' for Inactive)
REMARK    1  A    between atoms: C5_5  and  C7_7 
REMARK    2  A    between atoms: C6_6  and  C8_8 
REMARK    3  A    between atoms: C7_7  and  C8_8 
REMARK    4  A    between atoms: C8_8  and  O10_10 
ROOT
HETATM    1  C1  UNL     1     -36.833  14.604  -4.741  1.00 20.00     0.067 C 
HETATM    2  C7  UNL     1     -35.573  15.347  -4.490  1.00 20.00     0.126 C 
HETATM    3  N9  UNL     1     -37.819  14.024  -4.940  1.00 20.00    -0.197 NA
ENDROOT
BRANCH   2   4
HETATM    4  C5  UNL     1     -34.475  14.372  -4.014  1.00 20.00     0.018 C 
HETATM    5  C2  UNL     1     -33.131  14.606  -4.700  1.00 20.00     0.006 C 
ENDBRANCH   2   4
BRANCH   2   6
HETATM    6  C8  UNL     1     -35.822  16.548  -3.515  1.00 20.00     0.070 C 
HETATM    7  C4  UNL     1     -35.755  17.909  -4.221  1.00 20.00     0.047 C 
BRANCH   6   8
HETATM    8  C6  UNL     1     -34.839  16.501  -2.316  1.00 20.00     0.034 C 
HETATM    9  C3  UNL     1     -35.394  17.059  -1.009  1.00 20.00     0.008 C 
ENDBRANCH   6   8
BRANCH   6  10
HETATM   10  O10 UNL     1     -37.151  16.416  -2.985  1.00 20.00    -0.389 OA
HETATM   11  H25 UNL     1     -37.145  16.877  -2.137  1.00 20.00     0.210 HD
ENDBRANCH   6  10
ENDBRANCH   2   6
TORSDOF 4
ENDMDL
MODEL 9
REMARK VINA RESULT:      -4.3     11.378     12.394
REMARK  4 active torsions:
REMARK  status: ('A' for Active; 'I' for Inactive)
REMARK    1  A    between atoms: C5_5  and  C7_7 
REMARK    2  A    between atoms: C6_6  and  C8_8 
REMARK    3  A    between atoms: C7_7  and  C8_8 
REMARK    4  A    between atoms: C8_8  and  O10_10 
ROOT
HETATM    1  C1  UNL     1     -35.045  13.424  -6.636  1.00 20.00     0.067 C 
HETATM    2  C7  UNL     1     -34.874  14.794  -6.094  1.00 20.00     0.126 C 
HETATM    3  N9  UNL     1     -35.183  12.352  -7.061  1.00 20.00    -0.197 NA
ENDROOT
BRANCH   2   4
HETATM    4  C5  UNL     1     -33.634  15.459  -6.730  1.00 20.00     0.018 C 
HETATM    5  C2  UNL     1     -33.937  16.827  -7.336  1.00 20.00     0.006 C 
ENDBRANCH   2   4
BRANCH   2   6
HETATM    6  C8  UNL     1     -34.849  14.772  -4.528  1.00 20.00     0.070 C 
HETATM    7  C4  UNL     1     -36.075  15.456  -3.905  1.00 20.00     0.047 C 
BRANCH   6   8
HETATM    8  C6  UNL     1     -33.536  15.396  -3.986  1.00 20.00     0.034 C 
HETATM    9  C3  UNL     1     -33.730  16.544  -3.000  1.00 20.00     0.008 C 
ENDBRANCH   6   8
BRANCH   6  10
HETATM   10  O10 UNL     1     -34.877  13.399  -4.107  1.00 20.00    -0.389 OA
HETATM   11  H25 UNL     1     -35.247  12.902  -4.848  1.00 20.00     0.210 HD
ENDBRANCH   6  10
ENDBRANCH   2   6
TORSDOF 4
ENDMDL
