MODEL 1
REMARK VINA RESULT:      -4.8      0.000      0.000
REMARK  3 active torsions:
REMARK  status: ('A' for Active; 'I' for Inactive)
REMARK    1  A    between atoms: C5_5  and  C6_6 
REMARK    2  A    between atoms: C6_6  and  C7_7 
REMARK    3  A    between atoms: C6_6  and  O9_9 
ROOT
HETATM    1  C1  UNL     1     -34.070   6.680   5.407  1.00 20.00     0.071 C 
HETATM    2  C3  UNL     1     -35.529   6.126   3.517  1.00 20.00     0.033 C 
HETATM    3  C4  UNL     1     -34.381   4.319   4.796  1.00 20.00     0.033 C 
HETATM    4  C7  UNL     1     -34.229   5.754   4.259  1.00 20.00     0.067 C 
HETATM    5  N8  UNL     1     -33.949   7.404   6.305  1.00 20.00    -0.196 NA
ENDROOT
BRANCH   4   6
HETATM    6  C6  UNL     1     -33.007   5.858   3.294  1.00 20.00     0.139 C 
BRANCH   6   7
HETATM    7  C5  UNL     1     -32.956   7.143   2.447  1.00 20.00     0.029 C 
HETATM    8  C2  UNL     1     -31.850   8.090   2.901  1.00 20.00     0.007 C 
ENDBRANCH   6   7
BRANCH   6   9
HETATM    9  O9  UNL     1     -32.985   4.743   2.398  1.00 20.00    -0.394 OA
HETATM   10  H22 UNL     1     -33.433   5.036   1.590  1.00 20.00     0.210 HD
ENDBRANCH   6   9
ENDBRANCH   4   6
TORSDOF 3
ENDMDL
MODEL 2
REMARK VINA RESULT:      -4.6      1.821      2.045
REMARK  3 active torsions:
REMARK  status: ('A' for Active; 'I' for Inactive)
REMARK    1  A    between atoms: C5_5  and  C6_6 
REMARK    2  A    between atoms: C6_6  and  C7_7 
REMARK    3  A    between atoms: C6_6  and  O9_9 
ROOT
HETATM    1  C1  UNL     1     -34.356   5.405   5.029  1.00 20.00     0.071 C 
HETATM    2  C3  UNL     1     -35.362   6.310   2.987  1.00 20.00     0.033 C 
HETATM    3  C4  UNL     1     -33.172   5.121   2.893  1.00 20.00     0.033 C 
HETATM    4  C7  UNL     1     -34.039   6.070   3.742  1.00 20.00     0.067 C 
HETATM    5  N8  UNL     1     -34.606   4.884   6.035  1.00 20.00    -0.196 NA
ENDROOT
BRANCH   4   6
HETATM    6  C6  UNL     1     -33.303   7.424   3.987  1.00 20.00     0.139 C 
BRANCH   6   7
HETATM    7  C5  UNL     1     -32.049   7.647   3.123  1.00 20.00     0.029 C 
HETATM    8  C2  UNL     1     -32.298   8.637   1.990  1.00 20.00     0.007 C 
ENDBRANCH   6   7
BRANCH   6   9
HETATM    9  O9  UNL     1     -32.913   7.536   5.359  1.00 20.00    -0.394 OA
HETATM   10  H22 UNL     1     -32.553   6.672   5.610  1.00 20.00     0.210 HD
ENDBRANCH   6   9
ENDBRANCH   4   6
TORSDOF 3
ENDMDL
MODEL 3
REMARK VINA RESULT:      -4.6      2.344      2.772
REMARK  3 active torsions:
REMARK  status: ('A' for Active; 'I' for Inactive)
REMARK    1  A    between atoms: C5_5  and  C6_6 
REMARK    2  A    between atoms: C6_6  and  C7_7 
REMARK    3  A    between atoms: C6_6  and  O9_9 
ROOT
HETATM    1  C1  UNL     1     -33.500   5.070   3.269  1.00 20.00     0.071 C 
HETATM    2  C3  UNL     1     -34.416   5.280   5.532  1.00 20.00     0.033 C 
HETATM    3  C4  UNL     1     -35.668   6.189   3.576  1.00 20.00     0.033 C 
HETATM    4  C7  UNL     1     -34.261   5.976   4.164  1.00 20.00     0.067 C 
HETATM    5  N8  UNL     1     -32.906   4.361   2.570  1.00 20.00    -0.196 NA
ENDROOT
BRANCH   4   6
HETATM    6  C6  UNL     1     -33.518   7.338   4.332  1.00 20.00     0.139 C 
BRANCH   6   7
HETATM    7  C5  UNL     1     -32.286   7.521   3.426  1.00 20.00     0.029 C 
HETATM    8  C2  UNL     1     -32.570   8.445   2.247  1.00 20.00     0.007 C 
ENDBRANCH   6   7
BRANCH   6   9
HETATM    9  O9  UNL     1     -33.092   7.509   5.687  1.00 20.00    -0.394 OA
HETATM   10  H22 UNL     1     -33.897   7.508   6.226  1.00 20.00     0.210 HD
ENDBRANCH   6   9
ENDBRANCH   4   6
TORSDOF 3
ENDMDL
MODEL 4
REMARK VINA RESULT:      -4.2      2.273      3.544
REMARK  3 active torsions:
REMARK  status: ('A' for Active; 'I' for Inactive)
REMARK    1  A    between atoms: C5_5  and  C6_6 
REMARK    2  A    between atoms: C6_6  and  C7_7 
REMARK    3  A    between atoms: C6_6  and  O9_9 
ROOT
HETATM    1  C1  UNL     1     -32.835   7.560   2.530  1.00 20.00     0.071 C 
HETATM    2  C3  UNL     1     -32.906   5.117   2.712  1.00 20.00     0.033 C 
HETATM    3  C4  UNL     1     -34.988   6.462   2.982  1.00 20.00     0.033 C 
HETATM    4  C7  UNL     1     -33.474   6.440   3.264  1.00 20.00     0.067 C 
HETATM    5  N8  UNL     1     -32.335   8.434   1.955  1.00 20.00    -0.196 NA
ENDROOT
BRANCH   4   6
HETATM    6  C6  UNL     1     -33.193   6.552   4.795  1.00 20.00     0.139 C 
BRANCH   6   7
HETATM    7  C5  UNL     1     -34.417   6.318   5.699  1.00 20.00     0.029 C 
HETATM    8  C2  UNL     1     -34.679   4.835   5.942  1.00 20.00     0.007 C 
ENDBRANCH   6   7
BRANCH   6   9
HETATM    9  O9  UNL     1     -32.659   7.842   5.109  1.00 20.00    -0.394 OA
HETATM   10  H22 UNL     1     -32.167   8.129   4.326  1.00 20.00     0.210 HD
ENDBRANCH   6   9
ENDBRANCH   4   6
TORSDOF 3
ENDMDL
MODEL 5
REMARK VINA RESULT:      -4.1     11.985     12.610
REMARK  3 active torsions:
REMARK  status: ('A' for Active; 'I' for Inactive)
REMARK    1  A    between atoms: C5_5  and  C6_6 
REMARK    2  A    between atoms: C6_6  and  C7_7 
REMARK    3  A    between atoms: C6_6  and  O9_9 
ROOT
HETATM    1  C1  UNL     1     -35.273  13.830  -5.104  1.00 20.00     0.071 C 
HETATM    2  C3  UNL     1     -34.092  15.592  -6.332  1.00 20.00     0.033 C 
HETATM    3  C4  UNL     1     -33.051  14.538  -4.325  1.00 20.00     0.033 C 
HETATM    4  C7  UNL     1     -34.386  15.007  -4.935  1.00 20.00     0.067 C 
HETATM    5  N8  UNL     1     -35.966  12.910  -5.238  1.00 20.00    -0.196 NA
ENDROOT
BRANCH   4   6
HETATM    6  C6  UNL     1     -35.062  16.082  -4.029  1.00 20.00     0.139 C 
BRANCH   6   7
HETATM    7  C5  UNL     1     -34.305  16.404  -2.728  1.00 20.00     0.029 C 
HETATM    8  C2  UNL     1     -35.247  16.800  -1.595  1.00 20.00     0.007 C 
ENDBRANCH   6   7
BRANCH   6   9
HETATM    9  O9  UNL     1     -36.386  15.671  -3.674  1.00 20.00    -0.394 OA
HETATM   10  H22 UNL     1     -36.388  15.568  -2.711  1.00 20.00     0.210 HD
ENDBRANCH   6   9
ENDBRANCH   4   6
TORSDOF 3
ENDMDL
MODEL 6
REMARK VINA RESULT:      -4.0     11.944     12.624
REMARK  3 active torsions:
REMARK  status: ('A' for Active; 'I' for Inactive)
REMARK    1  A    between atoms: C5_5  and  C6_6 
REMARK    2  A    between atoms: C6_6  and  C7_7 
REMARK    3  A    between atoms: C6_6  and  O9_9 
ROOT
HETATM    1  C1  UNL     1     -35.203  13.457  -6.133  1.00 20.00     0.071 C 
HETATM    2  C3  UNL     1     -36.689  14.704  -4.636  1.00 20.00     0.033 C 
HETATM    3  C4  UNL     1     -35.117  15.914  -6.148  1.00 20.00     0.033 C 
HETATM    4  C7  UNL     1     -35.283  14.660  -5.269  1.00 20.00     0.067 C 
HETATM    5  N8  UNL     1     -35.142  12.516  -6.809  1.00 20.00    -0.196 NA
ENDROOT
BRANCH   4   6
HETATM    6  C6  UNL     1     -34.189  14.614  -4.156  1.00 20.00     0.139 C 
BRANCH   6   7
HETATM    7  C5  UNL     1     -33.590  15.980  -3.779  1.00 20.00     0.029 C 
HETATM    8  C2  UNL     1     -34.217  16.555  -2.513  1.00 20.00     0.007 C 
ENDBRANCH   6   7
BRANCH   6   9
HETATM    9  O9  UNL     1     -33.113  13.759  -4.553  1.00 20.00    -0.394 OA
HETATM   10  H22 UNL     1     -33.306  13.483  -5.460  1.00 20.00     0.210 HD
ENDBRANCH   6   9
ENDBRANCH   4   6
TORSDOF 3
ENDMDL
MODEL 7
REMARK VINA RESULT:      -3.9     12.062     12.790
REMARK  3 active torsions:
REMARK  status: ('A' for Active; 'I' for Inactive)
REMARK    1  A    between atoms: C5_5  and  C6_6 
REMARK    2  A    between atoms: C6_6  and  C7_7 
REMARK    3  A    between atoms: C6_6  and  O9_9 
ROOT
HETATM    1  C1  UNL     1     -37.300  14.985  -4.504  1.00 20.00     0.071 C 
HETATM    2  C3  UNL     1     -35.345  15.835  -3.296  1.00 20.00     0.033 C 
HETATM    3  C4  UNL     1     -35.654  16.352  -5.716  1.00 20.00     0.033 C 
HETATM    4  C7  UNL     1     -35.850  15.268  -4.639  1.00 20.00     0.067 C 
HETATM    5  N8  UNL     1     -38.434  14.765  -4.398  1.00 20.00    -0.196 NA
ENDROOT
BRANCH   4   6
HETATM    6  C6  UNL     1     -35.066  13.971  -5.007  1.00 20.00     0.139 C 
BRANCH   6   7
HETATM    7  C5  UNL     1     -34.404  13.985  -6.397  1.00 20.00     0.029 C 
HETATM    8  C2  UNL     1     -35.133  13.087  -7.392  1.00 20.00     0.007 C 
ENDBRANCH   6   7
BRANCH   6   9
HETATM    9  O9  UNL     1     -35.931  12.833  -4.947  1.00 20.00    -0.394 OA
HETATM   10  H22 UNL     1     -35.681  12.344  -4.150  1.00 20.00     0.210 HD
ENDBRANCH   6   9
ENDBRANCH   4   6
TORSDOF 3
ENDMDL
MODEL 8
REMARK VINA RESULT:      -3.9     11.917     12.616
REMARK  3 active torsions:
REMARK  status: ('A' for Active; 'I' for Inactive)
REMARK    1  A    between atoms: C5_5  and  C6_6 
REMARK    2  A    between atoms: C6_6  and  C7_7 
REMARK    3  A    between atoms: C6_6  and  O9_9 
ROOT
HETATM    1  C1  UNL     1     -36.742  14.149  -5.275  1.00 20.00     0.071 C 
HETATM    2  C3  UNL     1     -35.333  15.891  -6.268  1.00 20.00     0.033 C 
HETATM    3  C4  UNL     1     -34.893  13.485  -6.753  1.00 20.00     0.033 C 
HETATM    4  C7  UNL     1     -35.347  14.473  -5.662  1.00 20.00     0.067 C 
HETATM    5  N8  UNL     1     -37.833  13.898  -4.973  1.00 20.00    -0.196 NA
ENDROOT
BRANCH   4   6
HETATM    6  C6  UNL     1     -34.400  14.404  -4.423  1.00 20.00     0.139 C 
BRANCH   6   7
HETATM    7  C5  UNL     1     -33.989  15.770  -3.844  1.00 20.00     0.029 C 
HETATM    8  C2  UNL     1     -34.868  16.186  -2.669  1.00 20.00     0.007 C 
ENDBRANCH   6   7
BRANCH   6   9
HETATM    9  O9  UNL     1     -33.204  13.691  -4.751  1.00 20.00    -0.394 OA
HETATM   10  H22 UNL     1     -33.343  12.779  -4.455  1.00 20.00     0.210 HD
ENDBRANCH   6   9
ENDBRANCH   4   6
TORSDOF 3
ENDMDL
MODEL 9
REMARK VINA RESULT:      -3.8      2.440      3.796
REMARK  3 active torsions:
REMARK  status: ('A' for Active; 'I' for Inactive)
REMARK    1  A    between atoms: C5_5  and  C6_6 
REMARK    2  A    between atoms: C6_6  and  C7_7 
REMARK    3  A    between atoms: C6_6  and  O9_9 
ROOT
HETATM    1  C1  UNL     1     -32.828   8.442   1.881  1.00 20.00     0.071 C 
HETATM    2  C3  UNL     1     -31.498   8.023   3.897  1.00 20.00     0.033 C 
HETATM    3  C4  UNL     1     -32.299   6.121   2.496  1.00 20.00     0.033 C 
HETATM    4  C7  UNL     1     -32.670   7.518   3.031  1.00 20.00     0.067 C 
HETATM    5  N8  UNL     1     -32.949   9.166   0.983  1.00 20.00    -0.196 NA
ENDROOT
BRANCH   4   6
HETATM    6  C6  UNL     1     -33.981   7.458   3.875  1.00 20.00     0.139 C 
BRANCH   6   7
HETATM    7  C5  UNL     1     -33.771   7.243   5.385  1.00 20.00     0.029 C 
HETATM    8  C2  UNL     1     -34.393   5.939   5.873  1.00 20.00     0.007 C 
ENDBRANCH   6   7
BRANCH   6   9
HETATM    9  O9  UNL     1     -34.832   6.411   3.399  1.00 20.00    -0.394 OA
HETATM   10  H22 UNL     1     -35.739   6.738   3.487  1.00 20.00     0.210 HD
ENDBRANCH   6   9
ENDBRANCH   4   6
TORSDOF 3
ENDMDL
