MODEL 1
REMARK VINA RESULT:      -4.2      0.000      0.000
REMARK  4 active torsions:
REMARK  status: ('A' for Active; 'I' for Inactive)
REMARK    1  A    between atoms: C6_6  and  C9_9 
REMARK    2  A    between atoms: C7_7  and  C8_8 
REMARK    3  A    between atoms: C8_8  and  C9_9 
REMARK    4  A    between atoms: C8_8  and  O11_11 
ROOT
HETATM    1  C1  UNL     1     -35.219  13.815  -5.131  1.00 20.00     0.071 C 
HETATM    2  C5  UNL     1     -33.058  14.399  -4.180  1.00 20.00     0.034 C 
HETATM    3  C9  UNL     1     -34.287  14.958  -4.942  1.00 20.00     0.071 C 
HETATM    4  N10 UNL     1     -35.939  12.913  -5.264  1.00 20.00    -0.196 NA
ENDROOT
BRANCH   3   5
HETATM    5  C6  UNL     1     -33.847  15.452  -6.349  1.00 20.00     0.022 C 
HETATM    6  C2  UNL     1     -34.050  16.938  -6.620  1.00 20.00     0.007 C 
ENDBRANCH   3   5
BRANCH   3   7
HETATM    7  C8  UNL     1     -34.945  16.084  -4.076  1.00 20.00     0.143 C 
BRANCH   7   8
HETATM    8  C7  UNL     1     -34.204  16.539  -2.787  1.00 20.00     0.008 C 
HETATM    9  C3  UNL     1     -35.111  16.747  -1.572  1.00 20.00     0.012 C 
HETATM   10  C4  UNL     1     -33.426  17.840  -3.043  1.00 20.00     0.012 C 
ENDBRANCH   7   8
BRANCH   7  11
HETATM   11  O11 UNL     1     -36.290  15.701  -3.764  1.00 20.00    -0.393 OA
HETATM   12  H28 UNL     1     -36.414  15.898  -2.825  1.00 20.00     0.210 HD
ENDBRANCH   7  11
ENDBRANCH   3   7
TORSDOF 4
ENDMDL
MODEL 2
REMARK VINA RESULT:      -3.9      1.866      2.809
REMARK  4 active torsions:
REMARK  status: ('A' for Active; 'I' for Inactive)
REMARK    1  A    between atoms: C6_6  and  C9_9 
REMARK    2  A    between atoms: C7_7  and  C8_8 
REMARK    3  A    between atoms: C8_8  and  C9_9 
REMARK    4  A    between atoms: C8_8  and  O11_11 
ROOT
HETATM    1  C1  UNL     1     -35.446  13.321  -6.492  1.00 20.00     0.071 C 
HETATM    2  C5  UNL     1     -35.126  15.723  -6.699  1.00 20.00     0.034 C 
HETATM    3  C9  UNL     1     -35.890  14.621  -5.922  1.00 20.00     0.071 C 
HETATM    4  N10 UNL     1     -35.084  12.315  -6.944  1.00 20.00    -0.196 NA
ENDROOT
BRANCH   3   5
HETATM    5  C6  UNL     1     -37.416  14.761  -6.184  1.00 20.00     0.022 C 
HETATM    6  C2  UNL     1     -38.311  14.629  -4.958  1.00 20.00     0.007 C 
ENDBRANCH   3   5
BRANCH   3   7
HETATM    7  C8  UNL     1     -35.517  14.727  -4.405  1.00 20.00     0.143 C 
BRANCH   7   8
HETATM    8  C7  UNL     1     -35.020  16.100  -3.871  1.00 20.00     0.008 C 
HETATM    9  C3  UNL     1     -33.584  16.096  -3.342  1.00 20.00     0.012 C 
HETATM   10  C4  UNL     1     -35.947  16.613  -2.757  1.00 20.00     0.012 C 
ENDBRANCH   7   8
BRANCH   7  11
HETATM   11  O11 UNL     1     -34.568  13.701  -4.089  1.00 20.00    -0.393 OA
HETATM   12  H28 UNL     1     -33.694  14.088  -4.240  1.00 20.00     0.210 HD
ENDBRANCH   7  11
ENDBRANCH   3   7
TORSDOF 4
ENDMDL
MODEL 3
REMARK VINA RESULT:      -3.9     11.375     12.513
REMARK  4 active torsions:
REMARK  status: ('A' for Active; 'I' for Inactive)
REMARK    1  A    between atoms: C6_6  and  C9_9 
REMARK    2  A    between atoms: C7_7  and  C8_8 
REMARK    3  A    between atoms: C8_8  and  C9_9 
REMARK    4  A    between atoms: C8_8  and  O11_11 
ROOT
HETATM    1  C1  UNL     1     -33.441   5.217   3.124  1.00 20.00     0.071 C 
HETATM    2  C5  UNL     1     -35.513   6.492   3.133  1.00 20.00     0.034 C 
HETATM    3  C9  UNL     1     -34.174   6.268   3.880  1.00 20.00     0.071 C 
HETATM    4  N10 UNL     1     -32.880   4.401   2.518  1.00 20.00    -0.196 NA
ENDROOT
BRANCH   3   5
HETATM    5  C6  UNL     1     -34.459   5.717   5.306  1.00 20.00     0.022 C 
HETATM    6  C2  UNL     1     -34.527   4.199   5.427  1.00 20.00     0.007 C 
ENDBRANCH   3   5
BRANCH   3   7
HETATM    7  C8  UNL     1     -33.374   7.613   3.892  1.00 20.00     0.143 C 
BRANCH   7   8
HETATM    8  C7  UNL     1     -32.276   7.818   2.810  1.00 20.00     0.008 C 
HETATM    9  C3  UNL     1     -30.945   8.348   3.346  1.00 20.00     0.012 C 
HETATM   10  C4  UNL     1     -32.774   8.773   1.712  1.00 20.00     0.012 C 
ENDBRANCH   7   8
BRANCH   7  11
HETATM   11  O11 UNL     1     -32.822   7.812   5.200  1.00 20.00    -0.393 OA
HETATM   12  H28 UNL     1     -33.397   7.330   5.810  1.00 20.00     0.210 HD
ENDBRANCH   7  11
ENDBRANCH   3   7
TORSDOF 4
ENDMDL
MODEL 4
REMARK VINA RESULT:      -3.8      1.970      3.830
REMARK  4 active torsions:
REMARK  status: ('A' for Active; 'I' for Inactive)
REMARK    1  A    between atoms: C6_6  and  C9_9 
REMARK    2  A    between atoms: C7_7  and  C8_8 
REMARK    3  A    between atoms: C8_8  and  C9_9 
REMARK    4  A    between atoms: C8_8  and  O11_11 
ROOT
HETATM    1  C1  UNL     1     -37.664  14.689  -4.851  1.00 20.00     0.071 C 
HETATM    2  C5  UNL     1     -36.499  16.613  -5.778  1.00 20.00     0.034 C 
HETATM    3  C9  UNL     1     -36.374  15.427  -4.788  1.00 20.00     0.071 C 
HETATM    4  N10 UNL     1     -38.675  14.121  -4.916  1.00 20.00    -0.196 NA
ENDROOT
BRANCH   3   5
HETATM    5  C6  UNL     1     -36.205  15.971  -3.342  1.00 20.00     0.022 C 
HETATM    6  C2  UNL     1     -34.768  16.152  -2.868  1.00 20.00     0.007 C 
ENDBRANCH   3   5
BRANCH   3   7
HETATM    7  C8  UNL     1     -35.183  14.517  -5.243  1.00 20.00     0.143 C 
BRANCH   7   8
HETATM    8  C7  UNL     1     -34.451  14.883  -6.565  1.00 20.00     0.008 C 
HETATM    9  C3  UNL     1     -34.242  13.709  -7.523  1.00 20.00     0.012 C 
HETATM   10  C4  UNL     1     -33.082  15.516  -6.265  1.00 20.00     0.012 C 
ENDBRANCH   7   8
BRANCH   7  11
HETATM   11  O11 UNL     1     -35.631  13.157  -5.286  1.00 20.00    -0.393 OA
HETATM   12  H28 UNL     1     -36.348  13.130  -5.935  1.00 20.00     0.210 HD
ENDBRANCH   7  11
ENDBRANCH   3   7
TORSDOF 4
ENDMDL
MODEL 5
REMARK VINA RESULT:      -3.7      2.237      3.878
REMARK  4 active torsions:
REMARK  status: ('A' for Active; 'I' for Inactive)
REMARK    1  A    between atoms: C6_6  and  C9_9 
REMARK    2  A    between atoms: C7_7  and  C8_8 
REMARK    3  A    between atoms: C8_8  and  C9_9 
REMARK    4  A    between atoms: C8_8  and  O11_11 
ROOT
HETATM    1  C1  UNL     1     -33.941  16.321  -5.483  1.00 20.00     0.071 C 
HETATM    2  C5  UNL     1     -32.947  14.392  -4.384  1.00 20.00     0.034 C 
HETATM    3  C9  UNL     1     -34.286  15.113  -4.687  1.00 20.00     0.071 C 
HETATM    4  N10 UNL     1     -33.656  17.256  -6.109  1.00 20.00    -0.196 NA
ENDROOT
BRANCH   3   5
HETATM    5  C6  UNL     1     -34.933  15.587  -3.355  1.00 20.00     0.022 C 
HETATM    6  C2  UNL     1     -34.117  16.586  -2.543  1.00 20.00     0.007 C 
ENDBRANCH   3   5
BRANCH   3   7
HETATM    7  C8  UNL     1     -35.205  14.144  -5.503  1.00 20.00     0.143 C 
BRANCH   7   8
HETATM    8  C7  UNL     1     -36.509  14.726  -6.122  1.00 20.00     0.008 C 
HETATM    9  C3  UNL     1     -37.793  14.322  -5.394  1.00 20.00     0.012 C 
HETATM   10  C4  UNL     1     -36.635  14.313  -7.598  1.00 20.00     0.012 C 
ENDBRANCH   7   8
BRANCH   7  11
HETATM   11  O11 UNL     1     -35.509  13.002  -4.693  1.00 20.00    -0.393 OA
HETATM   12  H28 UNL     1     -35.678  13.341  -3.803  1.00 20.00     0.210 HD
ENDBRANCH   7  11
ENDBRANCH   3   7
TORSDOF 4
ENDMDL
MODEL 6
REMARK VINA RESULT:      -3.7     10.339     11.568
REMARK  4 active torsions:
REMARK  status: ('A' for Active; 'I' for Inactive)
REMARK    1  A    between atoms: C6_6  and  C9_9 
REMARK    2  A    between atoms: C7_7  and  C8_8 
REMARK    3  A    between atoms: C8_8  and  C9_9 
REMARK    4  A    between atoms: C8_8  and  O11_11 
ROOT
HETATM    1  C1  UNL     1     -33.042   5.961   3.038  1.00 20.00     0.071 C 
HETATM    2  C5  UNL     1     -34.840   7.596   3.157  1.00 20.00     0.034 C 
HETATM    3  C9  UNL     1     -33.385   7.295   3.601  1.00 20.00     0.071 C 
HETATM    4  N10 UNL     1     -32.788   4.922   2.586  1.00 20.00    -0.196 NA
ENDROOT
BRANCH   3   5
HETATM    5  C6  UNL     1     -33.326   7.188   5.150  1.00 20.00     0.022 C 
HETATM    6  C2  UNL     1     -34.326   6.230   5.786  1.00 20.00     0.007 C 
ENDBRANCH   3   5
BRANCH   3   7
HETATM    7  C8  UNL     1     -32.445   8.406   3.027  1.00 20.00     0.143 C 
BRANCH   7   8
HETATM    8  C7  UNL     1     -32.573   8.762   1.518  1.00 20.00     0.008 C 
HETATM    9  C3  UNL     1     -31.325   8.462   0.685  1.00 20.00     0.012 C 
HETATM   10  C4  UNL     1     -32.930  10.248   1.343  1.00 20.00     0.012 C 
ENDBRANCH   7   8
BRANCH   7  11
HETATM   11  O11 UNL     1     -31.087   8.072   3.342  1.00 20.00    -0.393 OA
HETATM   12  H28 UNL     1     -31.022   8.096   4.307  1.00 20.00     0.210 HD
ENDBRANCH   7  11
ENDBRANCH   3   7
TORSDOF 4
ENDMDL
MODEL 7
REMARK VINA RESULT:      -3.7      1.772      2.372
REMARK  4 active torsions:
REMARK  status: ('A' for Active; 'I' for Inactive)
REMARK    1  A    between atoms: C6_6  and  C9_9 
REMARK    2  A    between atoms: C7_7  and  C8_8 
REMARK    3  A    between atoms: C8_8  and  C9_9 
REMARK    4  A    between atoms: C8_8  and  O11_11 
ROOT
HETATM    1  C1  UNL     1     -35.438  13.758  -5.647  1.00 20.00     0.071 C 
HETATM    2  C5  UNL     1     -34.008  14.550  -7.448  1.00 20.00     0.034 C 
HETATM    3  C9  UNL     1     -34.756  14.976  -6.159  1.00 20.00     0.071 C 
HETATM    4  N10 UNL     1     -35.959  12.797  -5.257  1.00 20.00    -0.196 NA
ENDROOT
BRANCH   3   5
HETATM    5  C6  UNL     1     -35.849  16.023  -6.514  1.00 20.00     0.022 C 
HETATM    6  C2  UNL     1     -35.565  16.885  -7.738  1.00 20.00     0.007 C 
ENDBRANCH   3   5
BRANCH   3   7
HETATM    7  C8  UNL     1     -33.709  15.512  -5.125  1.00 20.00     0.143 C 
BRANCH   7   8
HETATM    8  C7  UNL     1     -34.095  16.756  -4.276  1.00 20.00     0.008 C 
HETATM    9  C3  UNL     1     -33.360  18.042  -4.660  1.00 20.00     0.012 C 
HETATM   10  C4  UNL     1     -33.854  16.485  -2.782  1.00 20.00     0.012 C 
ENDBRANCH   7   8
BRANCH   7  11
HETATM   11  O11 UNL     1     -32.467  15.741  -5.801  1.00 20.00    -0.393 OA
HETATM   12  H28 UNL     1     -32.695  16.104  -6.668  1.00 20.00     0.210 HD
ENDBRANCH   7  11
ENDBRANCH   3   7
TORSDOF 4
ENDMDL
MODEL 8
REMARK VINA RESULT:      -3.6      1.935      2.728
REMARK  4 active torsions:
REMARK  status: ('A' for Active; 'I' for Inactive)
REMARK    1  A    between atoms: C6_6  and  C9_9 
REMARK    2  A    between atoms: C7_7  and  C8_8 
REMARK    3  A    between atoms: C8_8  and  C9_9 
REMARK    4  A    between atoms: C8_8  and  O11_11 
ROOT
HETATM    1  C1  UNL     1     -37.488  14.397  -5.305  1.00 20.00     0.071 C 
HETATM    2  C5  UNL     1     -35.630  13.667  -6.694  1.00 20.00     0.034 C 
HETATM    3  C9  UNL     1     -36.076  14.718  -5.646  1.00 20.00     0.071 C 
HETATM    4  N10 UNL     1     -38.587  14.130  -5.045  1.00 20.00    -0.196 NA
ENDROOT
BRANCH   3   5
HETATM    5  C6  UNL     1     -36.049  16.134  -6.284  1.00 20.00     0.022 C 
HETATM    6  C2  UNL     1     -36.826  17.211  -5.536  1.00 20.00     0.007 C 
ENDBRANCH   3   5
BRANCH   3   7
HETATM    7  C8  UNL     1     -35.152  14.595  -4.388  1.00 20.00     0.143 C 
BRANCH   7   8
HETATM    8  C7  UNL     1     -33.838  15.428  -4.366  1.00 20.00     0.008 C 
HETATM    9  C3  UNL     1     -32.556  14.594  -4.416  1.00 20.00     0.012 C 
HETATM   10  C4  UNL     1     -33.788  16.323  -3.117  1.00 20.00     0.012 C 
ENDBRANCH   7   8
BRANCH   7  11
HETATM   11  O11 UNL     1     -34.864  13.211  -4.159  1.00 20.00    -0.393 OA
HETATM   12  H28 UNL     1     -35.427  12.714  -4.769  1.00 20.00     0.210 HD
ENDBRANCH   7  11
ENDBRANCH   3   7
TORSDOF 4
ENDMDL
MODEL 9
REMARK VINA RESULT:      -3.5     11.276     12.434
REMARK  4 active torsions:
REMARK  status: ('A' for Active; 'I' for Inactive)
REMARK    1  A    between atoms: C6_6  and  C9_9 
REMARK    2  A    between atoms: C7_7  and  C8_8 
REMARK    3  A    between atoms: C8_8  and  C9_9 
REMARK    4  A    between atoms: C8_8  and  O11_11 
ROOT
HETATM    1  C1  UNL     1     -34.255   4.879   4.292  1.00 20.00     0.071 C 
HETATM    2  C5  UNL     1     -35.337   6.376   2.709  1.00 20.00     0.034 C 
HETATM    3  C9  UNL     1     -34.195   6.263   3.752  1.00 20.00     0.071 C 
HETATM    4  N10 UNL     1     -34.311   3.793   4.699  1.00 20.00    -0.196 NA
ENDROOT
BRANCH   3   5
HETATM    5  C6  UNL     1     -34.465   7.246   4.926  1.00 20.00     0.022 C 
HETATM    6  C2  UNL     1     -33.581   7.065   6.155  1.00 20.00     0.007 C 
ENDBRANCH   3   5
BRANCH   3   7
HETATM    7  C8  UNL     1     -32.830   6.529   3.033  1.00 20.00     0.143 C 
BRANCH   7   8
HETATM    8  C7  UNL     1     -32.433   8.004   2.746  1.00 20.00     0.008 C 
HETATM    9  C3  UNL     1     -32.080   8.296   1.286  1.00 20.00     0.012 C 
HETATM   10  C4  UNL     1     -31.245   8.424   3.627  1.00 20.00     0.012 C 
ENDBRANCH   7   8
BRANCH   7  11
HETATM   11  O11 UNL     1     -32.787   5.761   1.824  1.00 20.00    -0.393 OA
HETATM   12  H28 UNL     1     -33.698   5.483   1.650  1.00 20.00     0.210 HD
ENDBRANCH   7  11
ENDBRANCH   3   7
TORSDOF 4
ENDMDL
