MODEL 1
REMARK VINA RESULT:      -6.4      0.000      0.000
REMARK  3 active torsions:
REMARK  status: ('A' for Active; 'I' for Inactive)
REMARK    1  A    between atoms: C3_3  and  C11_11 
REMARK    2  A    between atoms: C8_8  and  N12_12 
REMARK    3  A    between atoms: C11_11  and  N12_12 
ROOT
HETATM    1  C1  UNL     1     -34.189   4.675   4.185  1.00 20.00     0.127 C 
HETATM    2  C4  UNL     1     -34.741   5.955   4.773  1.00 20.00     0.080 C 
HETATM    3  C5  UNL     1     -33.708   4.742   2.751  1.00 20.00     0.080 C 
HETATM    4  C6  UNL     1     -33.781   7.114   4.537  1.00 20.00     0.040 C 
HETATM    5  C7  UNL     1     -32.767   5.925   2.554  1.00 20.00     0.040 C 
HETATM    6  C8  UNL     1     -33.400   7.220   3.061  1.00 20.00     0.189 C 
HETATM    7  O13 UNL     1     -34.225   3.612   4.803  1.00 20.00    -0.298 OA
ENDROOT
BRANCH   6   8
HETATM    8  N12 UNL     1     -32.422   8.329   2.897  1.00 20.00    -0.067 N 
HETATM    9  C10 UNL     1     -31.273   8.230   3.868  1.00 20.00     0.270 C 
HETATM   10  H33 UNL     1     -32.910   9.212   3.117  1.00 20.00     0.280 HD
BRANCH   8  11
HETATM   11  C11 UNL     1     -31.931   8.461   1.479  1.00 20.00     0.268 C 
BRANCH  11  12
HETATM   12  C3  UNL     1     -32.574   9.588   0.721  1.00 20.00    -0.068 C 
HETATM   13  C2  UNL     1     -33.065   9.413  -0.515  1.00 20.00     0.015 C 
HETATM   14  C9  UNL     1     -32.670  10.912   1.424  1.00 20.00     0.044 C 
ENDBRANCH  11  12
ENDBRANCH   8  11
ENDBRANCH   6   8
TORSDOF 3
ENDMDL
MODEL 2
REMARK VINA RESULT:      -5.1      0.693      1.833
REMARK  3 active torsions:
REMARK  status: ('A' for Active; 'I' for Inactive)
REMARK    1  A    between atoms: C3_3  and  C11_11 
REMARK    2  A    between atoms: C8_8  and  N12_12 
REMARK    3  A    between atoms: C11_11  and  N12_12 
ROOT
HETATM    1  C1  UNL     1     -34.554   4.947   4.428  1.00 20.00     0.127 C 
HETATM    2  C4  UNL     1     -33.659   4.777   3.221  1.00 20.00     0.080 C 
HETATM    3  C5  UNL     1     -34.072   5.902   5.498  1.00 20.00     0.080 C 
HETATM    4  C6  UNL     1     -33.262   6.133   2.650  1.00 20.00     0.040 C 
HETATM    5  C7  UNL     1     -33.667   7.238   4.884  1.00 20.00     0.040 C 
HETATM    6  C8  UNL     1     -32.679   7.036   3.737  1.00 20.00     0.189 C 
HETATM    7  O13 UNL     1     -35.567   4.265   4.582  1.00 20.00    -0.298 OA
ENDROOT
BRANCH   6   8
HETATM    8  N12 UNL     1     -32.361   8.361   3.139  1.00 20.00    -0.067 N 
HETATM    9  C10 UNL     1     -31.246   9.068   3.866  1.00 20.00     0.270 C 
HETATM   10  H33 UNL     1     -33.197   8.959   3.242  1.00 20.00     0.280 HD
BRANCH   8  11
HETATM   11  C11 UNL     1     -32.085   8.274   1.660  1.00 20.00     0.268 C 
BRANCH  11  12
HETATM   12  C3  UNL     1     -32.644   9.426   0.874  1.00 20.00    -0.068 C 
HETATM   13  C2  UNL     1     -32.736  10.657   1.402  1.00 20.00     0.015 C 
HETATM   14  C9  UNL     1     -33.067   9.145  -0.539  1.00 20.00     0.044 C 
ENDBRANCH  11  12
ENDBRANCH   8  11
ENDBRANCH   6   8
TORSDOF 3
ENDMDL
MODEL 3
REMARK VINA RESULT:      -4.9     10.775     11.470
REMARK  3 active torsions:
REMARK  status: ('A' for Active; 'I' for Inactive)
REMARK    1  A    between atoms: C3_3  and  C11_11 
REMARK    2  A    between atoms: C8_8  and  N12_12 
REMARK    3  A    between atoms: C11_11  and  N12_12 
ROOT
HETATM    1  C1  UNL     1     -35.755  13.818  -5.033  1.00 20.00     0.127 C 
HETATM    2  C4  UNL     1     -36.930  14.757  -5.190  1.00 20.00     0.080 C 
HETATM    3  C5  UNL     1     -34.405  14.457  -4.789  1.00 20.00     0.080 C 
HETATM    4  C6  UNL     1     -36.966  15.769  -4.052  1.00 20.00     0.040 C 
HETATM    5  C7  UNL     1     -34.490  15.476  -3.658  1.00 20.00     0.040 C 
HETATM    6  C8  UNL     1     -35.619  16.475  -3.903  1.00 20.00     0.189 C 
HETATM    7  O13 UNL     1     -35.872  12.604  -5.199  1.00 20.00    -0.298 OA
ENDROOT
BRANCH   6   8
HETATM    8  N12 UNL     1     -35.693  17.409  -2.747  1.00 20.00    -0.067 N 
HETATM    9  C10 UNL     1     -37.077  17.972  -2.550  1.00 20.00     0.270 C 
HETATM   10  H33 UNL     1     -35.081  18.214  -2.955  1.00 20.00     0.280 HD
BRANCH   8  11
HETATM   11  C11 UNL     1     -35.164  16.796  -1.476  1.00 20.00     0.268 C 
BRANCH  11  12
HETATM   12  C3  UNL     1     -34.218  17.690  -0.725  1.00 20.00    -0.068 C 
HETATM   13  C2  UNL     1     -34.527  18.179   0.486  1.00 20.00     0.015 C 
HETATM   14  C9  UNL     1     -32.898  17.985  -1.377  1.00 20.00     0.044 C 
ENDBRANCH  11  12
ENDBRANCH   8  11
ENDBRANCH   6   8
TORSDOF 3
ENDMDL
MODEL 4
REMARK VINA RESULT:      -4.6     10.788     11.455
REMARK  3 active torsions:
REMARK  status: ('A' for Active; 'I' for Inactive)
REMARK    1  A    between atoms: C3_3  and  C11_11 
REMARK    2  A    between atoms: C8_8  and  N12_12 
REMARK    3  A    between atoms: C11_11  and  N12_12 
ROOT
HETATM    1  C1  UNL     1     -34.443  14.014  -5.422  1.00 20.00     0.127 C 
HETATM    2  C4  UNL     1     -33.300  14.425  -4.521  1.00 20.00     0.080 C 
HETATM    3  C5  UNL     1     -35.832  14.075  -4.825  1.00 20.00     0.080 C 
HETATM    4  C6  UNL     1     -33.590  15.770  -3.865  1.00 20.00     0.040 C 
HETATM    5  C7  UNL     1     -36.073  15.427  -4.163  1.00 20.00     0.040 C 
HETATM    6  C8  UNL     1     -34.954  15.763  -3.178  1.00 20.00     0.189 C 
HETATM    7  O13 UNL     1     -34.246  13.553  -6.546  1.00 20.00    -0.298 OA
ENDROOT
BRANCH   6   8
HETATM    8  N12 UNL     1     -35.209  17.111  -2.604  1.00 20.00    -0.067 N 
HETATM    9  C10 UNL     1     -36.454  17.750  -3.165  1.00 20.00     0.270 C 
HETATM   10  H33 UNL     1     -34.422  17.722  -2.880  1.00 20.00     0.280 HD
BRANCH   8  11
HETATM   11  C11 UNL     1     -35.227  17.104  -1.098  1.00 20.00     0.268 C 
BRANCH  11  12
HETATM   12  C3  UNL     1     -34.110  17.895  -0.477  1.00 20.00    -0.068 C 
HETATM   13  C2  UNL     1     -32.977  18.154  -1.148  1.00 20.00     0.015 C 
HETATM   14  C9  UNL     1     -34.334  18.410   0.916  1.00 20.00     0.044 C 
ENDBRANCH  11  12
ENDBRANCH   8  11
ENDBRANCH   6   8
TORSDOF 3
ENDMDL
MODEL 5
REMARK VINA RESULT:      -4.5     10.881     11.893
REMARK  3 active torsions:
REMARK  status: ('A' for Active; 'I' for Inactive)
REMARK    1  A    between atoms: C3_3  and  C11_11 
REMARK    2  A    between atoms: C8_8  and  N12_12 
REMARK    3  A    between atoms: C11_11  and  N12_12 
ROOT
HETATM    1  C1  UNL     1     -35.389  13.940  -5.322  1.00 20.00     0.127 C 
HETATM    2  C4  UNL     1     -36.179  15.162  -5.736  1.00 20.00     0.080 C 
HETATM    3  C5  UNL     1     -33.884  14.091  -5.279  1.00 20.00     0.080 C 
HETATM    4  C6  UNL     1     -35.743  16.382  -4.934  1.00 20.00     0.040 C 
HETATM    5  C7  UNL     1     -33.491  15.333  -4.486  1.00 20.00     0.040 C 
HETATM    6  C8  UNL     1     -34.227  16.568  -5.001  1.00 20.00     0.189 C 
HETATM    7  O13 UNL     1     -35.934  12.853  -5.133  1.00 20.00    -0.298 OA
ENDROOT
BRANCH   6   8
HETATM    8  N12 UNL     1     -33.851  17.736  -4.160  1.00 20.00    -0.067 N 
HETATM    9  C10 UNL     1     -33.546  18.962  -4.982  1.00 20.00     0.270 C 
HETATM   10  H33 UNL     1     -32.976  17.496  -3.665  1.00 20.00     0.280 HD
BRANCH   8  11
HETATM   11  C11 UNL     1     -34.872  18.031  -3.092  1.00 20.00     0.268 C 
BRANCH  11  12
HETATM   12  C3  UNL     1     -34.436  17.624  -1.713  1.00 20.00    -0.068 C 
HETATM   13  C2  UNL     1     -35.294  17.077  -0.838  1.00 20.00     0.015 C 
HETATM   14  C9  UNL     1     -32.988  17.829  -1.368  1.00 20.00     0.044 C 
ENDBRANCH  11  12
ENDBRANCH   8  11
ENDBRANCH   6   8
TORSDOF 3
ENDMDL
MODEL 6
REMARK VINA RESULT:      -4.5     11.167     12.485
REMARK  3 active torsions:
REMARK  status: ('A' for Active; 'I' for Inactive)
REMARK    1  A    between atoms: C3_3  and  C11_11 
REMARK    2  A    between atoms: C8_8  and  N12_12 
REMARK    3  A    between atoms: C11_11  and  N12_12 
ROOT
HETATM    1  C1  UNL     1     -32.966  18.184  -1.968  1.00 20.00     0.127 C 
HETATM    2  C4  UNL     1     -33.217  19.112  -3.135  1.00 20.00     0.080 C 
HETATM    3  C5  UNL     1     -33.934  17.033  -1.797  1.00 20.00     0.080 C 
HETATM    4  C6  UNL     1     -33.405  18.318  -4.423  1.00 20.00     0.040 C 
HETATM    5  C7  UNL     1     -34.108  16.279  -3.111  1.00 20.00     0.040 C 
HETATM    6  C8  UNL     1     -34.468  17.234  -4.248  1.00 20.00     0.189 C 
HETATM    7  O13 UNL     1     -32.085  18.413  -1.139  1.00 20.00    -0.298 OA
ENDROOT
BRANCH   6   8
HETATM    8  N12 UNL     1     -34.571  16.457  -5.512  1.00 20.00    -0.067 N 
HETATM    9  C10 UNL     1     -33.979  17.191  -6.688  1.00 20.00     0.270 C 
HETATM   10  H33 UNL     1     -35.575  16.335  -5.724  1.00 20.00     0.280 HD
BRANCH   8  11
HETATM   11  C11 UNL     1     -33.996  15.070  -5.385  1.00 20.00     0.268 C 
BRANCH  11  12
HETATM   12  C3  UNL     1     -34.821  14.012  -6.062  1.00 20.00    -0.068 C 
HETATM   13  C2  UNL     1     -34.513  13.559  -7.288  1.00 20.00     0.015 C 
HETATM   14  C9  UNL     1     -35.987  13.462  -5.293  1.00 20.00     0.044 C 
ENDBRANCH  11  12
ENDBRANCH   8  11
ENDBRANCH   6   8
TORSDOF 3
ENDMDL
MODEL 7
REMARK VINA RESULT:      -4.4     10.807     12.172
REMARK  3 active torsions:
REMARK  status: ('A' for Active; 'I' for Inactive)
REMARK    1  A    between atoms: C3_3  and  C11_11 
REMARK    2  A    between atoms: C8_8  and  N12_12 
REMARK    3  A    between atoms: C11_11  and  N12_12 
ROOT
HETATM    1  C1  UNL     1     -32.929  18.301  -1.430  1.00 20.00     0.127 C 
HETATM    2  C4  UNL     1     -33.217  18.947  -2.766  1.00 20.00     0.080 C 
HETATM    3  C5  UNL     1     -34.116  17.730  -0.684  1.00 20.00     0.080 C 
HETATM    4  C6  UNL     1     -34.059  18.025  -3.640  1.00 20.00     0.040 C 
HETATM    5  C7  UNL     1     -34.941  16.830  -1.598  1.00 20.00     0.040 C 
HETATM    6  C8  UNL     1     -35.307  17.551  -2.894  1.00 20.00     0.189 C 
HETATM    7  O13 UNL     1     -31.807  18.333  -0.926  1.00 20.00    -0.298 OA
ENDROOT
BRANCH   6   8
HETATM    8  N12 UNL     1     -36.060  16.614  -3.769  1.00 20.00    -0.067 N 
HETATM    9  C10 UNL     1     -37.353  17.207  -4.270  1.00 20.00     0.270 C 
HETATM   10  H33 UNL     1     -36.322  15.794  -3.197  1.00 20.00     0.280 HD
BRANCH   8  11
HETATM   11  C11 UNL     1     -35.223  16.084  -4.904  1.00 20.00     0.268 C 
BRANCH  11  12
HETATM   12  C3  UNL     1     -34.817  14.647  -4.735  1.00 20.00    -0.068 C 
HETATM   13  C2  UNL     1     -35.684  13.644  -4.945  1.00 20.00     0.015 C 
HETATM   14  C9  UNL     1     -33.390  14.384  -4.350  1.00 20.00     0.044 C 
ENDBRANCH  11  12
ENDBRANCH   8  11
ENDBRANCH   6   8
TORSDOF 3
ENDMDL
MODEL 8
REMARK VINA RESULT:      -4.4     10.671     11.741
REMARK  3 active torsions:
REMARK  status: ('A' for Active; 'I' for Inactive)
REMARK    1  A    between atoms: C3_3  and  C11_11 
REMARK    2  A    between atoms: C8_8  and  N12_12 
REMARK    3  A    between atoms: C11_11  and  N12_12 
ROOT
HETATM    1  C1  UNL     1     -33.617  18.470   0.726  1.00 20.00     0.127 C 
HETATM    2  C4  UNL     1     -32.751  18.813  -0.465  1.00 20.00     0.080 C 
HETATM    3  C5  UNL     1     -35.075  18.182   0.443  1.00 20.00     0.080 C 
HETATM    4  C6  UNL     1     -32.933  17.787  -1.576  1.00 20.00     0.040 C 
HETATM    5  C7  UNL     1     -35.213  17.166  -0.687  1.00 20.00     0.040 C 
HETATM    6  C8  UNL     1     -34.412  17.599  -1.914  1.00 20.00     0.189 C 
HETATM    7  O13 UNL     1     -33.183  18.525   1.877  1.00 20.00    -0.298 OA
ENDROOT
BRANCH   6   8
HETATM    8  N12 UNL     1     -34.535  16.550  -2.961  1.00 20.00    -0.067 N 
HETATM    9  C10 UNL     1     -35.966  16.311  -3.370  1.00 20.00     0.270 C 
HETATM   10  H33 UNL     1     -34.199  15.662  -2.555  1.00 20.00     0.280 HD
BRANCH   8  11
HETATM   11  C11 UNL     1     -33.660  16.824  -4.157  1.00 20.00     0.268 C 
BRANCH  11  12
HETATM   12  C3  UNL     1     -33.309  15.592  -4.942  1.00 20.00    -0.068 C 
HETATM   13  C2  UNL     1     -32.970  14.445  -4.333  1.00 20.00     0.015 C 
HETATM   14  C9  UNL     1     -33.386  15.693  -6.438  1.00 20.00     0.044 C 
ENDBRANCH  11  12
ENDBRANCH   8  11
ENDBRANCH   6   8
TORSDOF 3
ENDMDL
MODEL 9
REMARK VINA RESULT:      -4.4     10.964     11.708
REMARK  3 active torsions:
REMARK  status: ('A' for Active; 'I' for Inactive)
REMARK    1  A    between atoms: C3_3  and  C11_11 
REMARK    2  A    between atoms: C8_8  and  N12_12 
REMARK    3  A    between atoms: C11_11  and  N12_12 
ROOT
HETATM    1  C1  UNL     1     -34.419  18.182  -0.564  1.00 20.00     0.127 C 
HETATM    2  C4  UNL     1     -35.436  17.075  -0.732  1.00 20.00     0.080 C 
HETATM    3  C5  UNL     1     -33.068  17.962  -1.208  1.00 20.00     0.080 C 
HETATM    4  C6  UNL     1     -35.552  16.668  -2.196  1.00 20.00     0.040 C 
HETATM    5  C7  UNL     1     -33.229  17.538  -2.664  1.00 20.00     0.040 C 
HETATM    6  C8  UNL     1     -34.179  16.348  -2.786  1.00 20.00     0.189 C 
HETATM    7  O13 UNL     1     -34.642  19.161   0.147  1.00 20.00    -0.298 OA
ENDROOT
BRANCH   6   8
HETATM    8  N12 UNL     1     -34.344  16.012  -4.226  1.00 20.00    -0.067 N 
HETATM    9  C10 UNL     1     -33.501  16.884  -5.121  1.00 20.00     0.270 C 
HETATM   10  H33 UNL     1     -35.327  16.202  -4.481  1.00 20.00     0.280 HD
BRANCH   8  11
HETATM   11  C11 UNL     1     -34.112  14.550  -4.508  1.00 20.00     0.268 C 
BRANCH  11  12
HETATM   12  C3  UNL     1     -35.067  13.971  -5.513  1.00 20.00    -0.068 C 
HETATM   13  C2  UNL     1     -36.356  13.751  -5.212  1.00 20.00     0.015 C 
HETATM   14  C9  UNL     1     -34.519  13.679  -6.881  1.00 20.00     0.044 C 
ENDBRANCH  11  12
ENDBRANCH   8  11
ENDBRANCH   6   8
TORSDOF 3
ENDMDL
