MODEL 1
REMARK VINA RESULT:      -4.3      0.000      0.000
REMARK  3 active torsions:
REMARK  status: ('A' for Active; 'I' for Inactive)
REMARK    1  A    between atoms: C6_6  and  C7_7 
REMARK    2  A    between atoms: C7_7  and  C8_8 
REMARK    3  A    between atoms: C8_8  and  O10_10 
ROOT
HETATM    1  C1  UNL     1     -33.930  14.352  -4.488  1.00 20.00     0.072 C 
HETATM    2  C3  UNL     1     -34.829  16.198  -5.814  1.00 20.00     0.034 C 
HETATM    3  C7  UNL     1     -35.195  15.069  -4.821  1.00 20.00     0.075 C 
HETATM    4  N9  UNL     1     -32.944  13.796  -4.231  1.00 20.00    -0.196 NA
ENDROOT
BRANCH   3   5
HETATM    5  C6  UNL     1     -35.776  15.677  -3.508  1.00 20.00     0.023 C 
HETATM    6  C2  UNL     1     -34.772  16.396  -2.606  1.00 20.00     0.007 C 
ENDBRANCH   3   5
BRANCH   3   7
HETATM    7  C8  UNL     1     -36.210  14.048  -5.486  1.00 20.00     0.071 C 
HETATM    8  C4  UNL     1     -36.078  13.972  -7.016  1.00 20.00     0.047 C 
HETATM    9  C5  UNL     1     -37.686  14.332  -5.150  1.00 20.00     0.047 C 
BRANCH   7  10
HETATM   10  O10 UNL     1     -35.919  12.717  -5.022  1.00 20.00    -0.389 OA
HETATM   11  H25 UNL     1     -36.757  12.237  -5.059  1.00 20.00     0.210 HD
ENDBRANCH   7  10
ENDBRANCH   3   7
TORSDOF 3
ENDMDL
MODEL 2
REMARK VINA RESULT:      -4.2      2.248      2.879
REMARK  3 active torsions:
REMARK  status: ('A' for Active; 'I' for Inactive)
REMARK    1  A    between atoms: C6_6  and  C7_7 
REMARK    2  A    between atoms: C7_7  and  C8_8 
REMARK    3  A    between atoms: C8_8  and  O10_10 
ROOT
HETATM    1  C1  UNL     1     -35.268  13.823  -5.019  1.00 20.00     0.072 C 
HETATM    2  C3  UNL     1     -33.028  14.490  -4.305  1.00 20.00     0.034 C 
HETATM    3  C7  UNL     1     -34.415  15.016  -4.747  1.00 20.00     0.075 C 
HETATM    4  N9  UNL     1     -35.930  12.894  -5.232  1.00 20.00    -0.196 NA
ENDROOT
BRANCH   3   5
HETATM    5  C6  UNL     1     -35.069  15.837  -3.594  1.00 20.00     0.023 C 
HETATM    6  C2  UNL     1     -34.099  16.499  -2.616  1.00 20.00     0.007 C 
ENDBRANCH   3   5
BRANCH   3   7
HETATM    7  C8  UNL     1     -34.288  15.877  -6.073  1.00 20.00     0.071 C 
HETATM    8  C4  UNL     1     -35.545  16.709  -6.377  1.00 20.00     0.047 C 
HETATM    9  C5  UNL     1     -33.955  15.045  -7.325  1.00 20.00     0.047 C 
BRANCH   7  10
HETATM   10  O10 UNL     1     -33.234  16.843  -5.914  1.00 20.00    -0.389 OA
HETATM   11  H25 UNL     1     -32.631  16.699  -6.655  1.00 20.00     0.210 HD
ENDBRANCH   7  10
ENDBRANCH   3   7
TORSDOF 3
ENDMDL
MODEL 3
REMARK VINA RESULT:      -4.0      2.042      3.135
REMARK  3 active torsions:
REMARK  status: ('A' for Active; 'I' for Inactive)
REMARK    1  A    between atoms: C6_6  and  C7_7 
REMARK    2  A    between atoms: C7_7  and  C8_8 
REMARK    3  A    between atoms: C8_8  and  O10_10 
ROOT
HETATM    1  C1  UNL     1     -37.474  14.616  -4.993  1.00 20.00     0.072 C 
HETATM    2  C3  UNL     1     -35.938  15.938  -3.628  1.00 20.00     0.034 C 
HETATM    3  C7  UNL     1     -36.118  15.238  -4.996  1.00 20.00     0.075 C 
HETATM    4  N9  UNL     1     -38.529  14.132  -4.989  1.00 20.00    -0.196 NA
ENDROOT
BRANCH   3   5
HETATM    5  C6  UNL     1     -36.061  16.288  -6.147  1.00 20.00     0.023 C 
HETATM    6  C2  UNL     1     -35.316  17.584  -5.828  1.00 20.00     0.007 C 
ENDBRANCH   3   5
BRANCH   3   7
HETATM    7  C8  UNL     1     -35.027  14.104  -5.191  1.00 20.00     0.071 C 
HETATM    8  C4  UNL     1     -33.830  14.245  -4.236  1.00 20.00     0.047 C 
HETATM    9  C5  UNL     1     -34.480  14.008  -6.627  1.00 20.00     0.047 C 
BRANCH   7  10
HETATM   10  O10 UNL     1     -35.606  12.826  -4.872  1.00 20.00    -0.389 OA
HETATM   11  H25 UNL     1     -34.884  12.290  -4.519  1.00 20.00     0.210 HD
ENDBRANCH   7  10
ENDBRANCH   3   7
TORSDOF 3
ENDMDL
MODEL 4
REMARK VINA RESULT:      -3.9      1.846      2.757
REMARK  3 active torsions:
REMARK  status: ('A' for Active; 'I' for Inactive)
REMARK    1  A    between atoms: C6_6  and  C7_7 
REMARK    2  A    between atoms: C7_7  and  C8_8 
REMARK    3  A    between atoms: C8_8  and  O10_10 
ROOT
HETATM    1  C1  UNL     1     -35.650  13.957  -5.036  1.00 20.00     0.072 C 
HETATM    2  C3  UNL     1     -34.966  16.042  -6.112  1.00 20.00     0.034 C 
HETATM    3  C7  UNL     1     -35.257  15.367  -4.750  1.00 20.00     0.075 C 
HETATM    4  N9  UNL     1     -35.956  12.861  -5.261  1.00 20.00    -0.196 NA
ENDROOT
BRANCH   3   5
HETATM    5  C6  UNL     1     -33.967  15.351  -3.873  1.00 20.00     0.023 C 
HETATM    6  C2  UNL     1     -32.847  14.430  -4.356  1.00 20.00     0.007 C 
ENDBRANCH   3   5
BRANCH   3   7
HETATM    7  C8  UNL     1     -36.453  16.100  -4.009  1.00 20.00     0.071 C 
HETATM    8  C4  UNL     1     -37.104  17.205  -4.856  1.00 20.00     0.047 C 
HETATM    9  C5  UNL     1     -36.060  16.711  -2.651  1.00 20.00     0.047 C 
BRANCH   7  10
HETATM   10  O10 UNL     1     -37.508  15.154  -3.759  1.00 20.00    -0.389 OA
HETATM   11  H25 UNL     1     -38.248  15.671  -3.416  1.00 20.00     0.210 HD
ENDBRANCH   7  10
ENDBRANCH   3   7
TORSDOF 3
ENDMDL
MODEL 5
REMARK VINA RESULT:      -3.9      1.898      3.626
REMARK  3 active torsions:
REMARK  status: ('A' for Active; 'I' for Inactive)
REMARK    1  A    between atoms: C6_6  and  C7_7 
REMARK    2  A    between atoms: C7_7  and  C8_8 
REMARK    3  A    between atoms: C8_8  and  O10_10 
ROOT
HETATM    1  C1  UNL     1     -36.733  14.394  -5.288  1.00 20.00     0.072 C 
HETATM    2  C3  UNL     1     -35.900  16.652  -5.714  1.00 20.00     0.034 C 
HETATM    3  C7  UNL     1     -35.498  15.160  -5.622  1.00 20.00     0.075 C 
HETATM    4  N9  UNL     1     -37.696  13.800  -5.026  1.00 20.00    -0.196 NA
ENDROOT
BRANCH   3   5
HETATM    5  C6  UNL     1     -34.968  14.662  -7.002  1.00 20.00     0.023 C 
HETATM    6  C2  UNL     1     -35.122  13.166  -7.273  1.00 20.00     0.007 C 
ENDBRANCH   3   5
BRANCH   3   7
HETATM    7  C8  UNL     1     -34.425  14.941  -4.475  1.00 20.00     0.071 C 
HETATM    8  C4  UNL     1     -34.681  15.809  -3.232  1.00 20.00     0.047 C 
HETATM    9  C5  UNL     1     -32.973  15.180  -4.930  1.00 20.00     0.047 C 
BRANCH   7  10
HETATM   10  O10 UNL     1     -34.503  13.585  -4.003  1.00 20.00    -0.389 OA
HETATM   11  H25 UNL     1     -33.597  13.250  -4.013  1.00 20.00     0.210 HD
ENDBRANCH   7  10
ENDBRANCH   3   7
TORSDOF 3
ENDMDL
MODEL 6
REMARK VINA RESULT:      -3.9      1.835      2.520
REMARK  3 active torsions:
REMARK  status: ('A' for Active; 'I' for Inactive)
REMARK    1  A    between atoms: C6_6  and  C7_7 
REMARK    2  A    between atoms: C7_7  and  C8_8 
REMARK    3  A    between atoms: C8_8  and  O10_10 
ROOT
HETATM    1  C1  UNL     1     -35.445  13.886  -4.958  1.00 20.00     0.072 C 
HETATM    2  C3  UNL     1     -33.380  15.003  -4.278  1.00 20.00     0.034 C 
HETATM    3  C7  UNL     1     -34.857  15.229  -4.683  1.00 20.00     0.075 C 
HETATM    4  N9  UNL     1     -35.900  12.840  -5.172  1.00 20.00    -0.196 NA
ENDROOT
BRANCH   3   5
HETATM    5  C6  UNL     1     -35.642  15.878  -3.503  1.00 20.00     0.023 C 
HETATM    6  C2  UNL     1     -34.791  16.439  -2.365  1.00 20.00     0.007 C 
ENDBRANCH   3   5
BRANCH   3   7
HETATM    7  C8  UNL     1     -34.945  16.113  -5.997  1.00 20.00     0.071 C 
HETATM    8  C4  UNL     1     -33.588  16.296  -6.697  1.00 20.00     0.047 C 
HETATM    9  C5  UNL     1     -35.552  17.509  -5.765  1.00 20.00     0.047 C 
BRANCH   7  10
HETATM   10  O10 UNL     1     -35.775  15.446  -6.964  1.00 20.00    -0.389 OA
HETATM   11  H25 UNL     1     -35.836  16.048  -7.717  1.00 20.00     0.210 HD
ENDBRANCH   7  10
ENDBRANCH   3   7
TORSDOF 3
ENDMDL
MODEL 7
REMARK VINA RESULT:      -3.9      1.825      3.343
REMARK  3 active torsions:
REMARK  status: ('A' for Active; 'I' for Inactive)
REMARK    1  A    between atoms: C6_6  and  C7_7 
REMARK    2  A    between atoms: C7_7  and  C8_8 
REMARK    3  A    between atoms: C8_8  and  O10_10 
ROOT
HETATM    1  C1  UNL     1     -35.067  13.338  -6.666  1.00 20.00     0.072 C 
HETATM    2  C3  UNL     1     -36.164  15.486  -6.274  1.00 20.00     0.034 C 
HETATM    3  C7  UNL     1     -34.833  14.711  -6.132  1.00 20.00     0.075 C 
HETATM    4  N9  UNL     1     -35.253  12.270  -7.081  1.00 20.00    -0.196 NA
ENDROOT
BRANCH   3   5
HETATM    5  C6  UNL     1     -33.723  15.390  -6.990  1.00 20.00     0.023 C 
HETATM    6  C2  UNL     1     -33.920  16.879  -7.275  1.00 20.00     0.007 C 
ENDBRANCH   3   5
BRANCH   3   7
HETATM    7  C8  UNL     1     -34.406  14.609  -4.607  1.00 20.00     0.071 C 
HETATM    8  C4  UNL     1     -35.116  15.637  -3.710  1.00 20.00     0.047 C 
HETATM    9  C5  UNL     1     -32.890  14.743  -4.377  1.00 20.00     0.047 C 
BRANCH   7  10
HETATM   10  O10 UNL     1     -34.802  13.327  -4.087  1.00 20.00    -0.389 OA
HETATM   11  H25 UNL     1     -34.407  13.267  -3.208  1.00 20.00     0.210 HD
ENDBRANCH   7  10
ENDBRANCH   3   7
TORSDOF 3
ENDMDL
MODEL 8
REMARK VINA RESULT:      -3.8      2.211      3.644
REMARK  3 active torsions:
REMARK  status: ('A' for Active; 'I' for Inactive)
REMARK    1  A    between atoms: C6_6  and  C7_7 
REMARK    2  A    between atoms: C7_7  and  C8_8 
REMARK    3  A    between atoms: C8_8  and  O10_10 
ROOT
HETATM    1  C1  UNL     1     -35.494  13.911  -5.443  1.00 20.00     0.072 C 
HETATM    2  C3  UNL     1     -36.218  16.245  -5.459  1.00 20.00     0.034 C 
HETATM    3  C7  UNL     1     -35.012  15.302  -5.683  1.00 20.00     0.075 C 
HETATM    4  N9  UNL     1     -35.871  12.829  -5.255  1.00 20.00    -0.196 NA
ENDROOT
BRANCH   3   5
HETATM    5  C6  UNL     1     -34.518  15.405  -7.159  1.00 20.00     0.023 C 
HETATM    6  C2  UNL     1     -34.164  14.081  -7.835  1.00 20.00     0.007 C 
ENDBRANCH   3   5
BRANCH   3   7
HETATM    7  C8  UNL     1     -33.848  15.632  -4.657  1.00 20.00     0.071 C 
HETATM    8  C4  UNL     1     -32.883  14.456  -4.437  1.00 20.00     0.047 C 
HETATM    9  C5  UNL     1     -34.350  16.099  -3.279  1.00 20.00     0.047 C 
BRANCH   7  10
HETATM   10  O10 UNL     1     -33.030  16.689  -5.190  1.00 20.00    -0.389 OA
HETATM   11  H25 UNL     1     -33.077  16.599  -6.151  1.00 20.00     0.210 HD
ENDBRANCH   7  10
ENDBRANCH   3   7
TORSDOF 3
ENDMDL
MODEL 9
REMARK VINA RESULT:      -3.8      1.652      2.325
REMARK  3 active torsions:
REMARK  status: ('A' for Active; 'I' for Inactive)
REMARK    1  A    between atoms: C6_6  and  C7_7 
REMARK    2  A    between atoms: C7_7  and  C8_8 
REMARK    3  A    between atoms: C8_8  and  O10_10 
ROOT
HETATM    1  C1  UNL     1     -35.721  15.608  -4.126  1.00 20.00     0.072 C 
HETATM    2  C3  UNL     1     -33.709  14.228  -4.268  1.00 20.00     0.034 C 
HETATM    3  C7  UNL     1     -34.826  14.911  -5.094  1.00 20.00     0.075 C 
HETATM    4  N9  UNL     1     -36.416  16.149  -3.370  1.00 20.00    -0.196 NA
ENDROOT
BRANCH   3   5
HETATM    5  C6  UNL     1     -34.209  15.976  -6.051  1.00 20.00     0.023 C 
HETATM    6  C2  UNL     1     -33.588  17.198  -5.374  1.00 20.00     0.007 C 
ENDBRANCH   3   5
BRANCH   3   7
HETATM    7  C8  UNL     1     -35.668  13.830  -5.894  1.00 20.00     0.071 C 
HETATM    8  C4  UNL     1     -34.917  13.253  -7.105  1.00 20.00     0.047 C 
HETATM    9  C5  UNL     1     -37.033  14.346  -6.384  1.00 20.00     0.047 C 
BRANCH   7  10
HETATM   10  O10 UNL     1     -35.923  12.700  -5.042  1.00 20.00    -0.389 OA
HETATM   11  H25 UNL     1     -36.091  11.956  -5.635  1.00 20.00     0.210 HD
ENDBRANCH   7  10
ENDBRANCH   3   7
TORSDOF 3
ENDMDL
