MODEL 1
REMARK VINA RESULT:      -4.4      0.000      0.000
REMARK  3 active torsions:
REMARK  status: ('A' for Active; 'I' for Inactive)
REMARK    1  A    between atoms: C5_5  and  C7_7 
REMARK    2  A    between atoms: C6_6  and  C7_7 
REMARK    3  A    between atoms: C6_6  and  O9_9 
ROOT
HETATM    1  C1  UNL     1     -33.845   6.886   5.128  1.00 20.00     0.071 C 
HETATM    2  C4  UNL     1     -35.561   6.176   3.524  1.00 20.00     0.034 C 
HETATM    3  C7  UNL     1     -34.043   6.261   3.795  1.00 20.00     0.070 C 
HETATM    4  N8  UNL     1     -33.692   7.377   6.168  1.00 20.00    -0.196 NA
ENDROOT
BRANCH   3   5
HETATM    5  C5  UNL     1     -33.338   7.120   2.708  1.00 20.00     0.022 C 
HETATM    6  C2  UNL     1     -32.063   7.835   3.149  1.00 20.00     0.007 C 
ENDBRANCH   3   5
BRANCH   3   7
HETATM    7  C6  UNL     1     -33.447   4.815   3.795  1.00 20.00     0.136 C 
HETATM    8  C3  UNL     1     -32.954   4.305   2.440  1.00 20.00     0.041 C 
BRANCH   7   9
HETATM    9  O9  UNL     1     -34.418   3.888   4.290  1.00 20.00    -0.394 OA
HETATM   10  H22 UNL     1     -35.076   4.414   4.767  1.00 20.00     0.210 HD
ENDBRANCH   7   9
ENDBRANCH   3   7
TORSDOF 3
ENDMDL
MODEL 2
REMARK VINA RESULT:      -4.1     12.052     12.805
REMARK  3 active torsions:
REMARK  status: ('A' for Active; 'I' for Inactive)
REMARK    1  A    between atoms: C5_5  and  C7_7 
REMARK    2  A    between atoms: C6_6  and  C7_7 
REMARK    3  A    between atoms: C6_6  and  O9_9 
ROOT
HETATM    1  C1  UNL     1     -35.539  13.922  -4.938  1.00 20.00     0.071 C 
HETATM    2  C4  UNL     1     -35.799  16.286  -5.539  1.00 20.00     0.034 C 
HETATM    3  C7  UNL     1     -34.986  15.279  -4.697  1.00 20.00     0.070 C 
HETATM    4  N8  UNL     1     -35.973  12.862  -5.126  1.00 20.00    -0.196 NA
ENDROOT
BRANCH   3   5
HETATM    5  C5  UNL     1     -35.089  15.621  -3.184  1.00 20.00     0.022 C 
HETATM    6  C2  UNL     1     -34.026  16.575  -2.644  1.00 20.00     0.007 C 
ENDBRANCH   3   5
BRANCH   3   7
HETATM    7  C6  UNL     1     -33.491  15.331  -5.151  1.00 20.00     0.136 C 
HETATM    8  C3  UNL     1     -33.252  15.822  -6.579  1.00 20.00     0.041 C 
BRANCH   7   9
HETATM    9  O9  UNL     1     -32.898  14.035  -5.023  1.00 20.00    -0.394 OA
HETATM   10  H22 UNL     1     -32.016  14.100  -5.418  1.00 20.00     0.210 HD
ENDBRANCH   7   9
ENDBRANCH   3   7
TORSDOF 3
ENDMDL
MODEL 3
REMARK VINA RESULT:      -4.1     12.188     12.741
REMARK  3 active torsions:
REMARK  status: ('A' for Active; 'I' for Inactive)
REMARK    1  A    between atoms: C5_5  and  C7_7 
REMARK    2  A    between atoms: C6_6  and  C7_7 
REMARK    3  A    between atoms: C6_6  and  O9_9 
ROOT
HETATM    1  C1  UNL     1     -37.529  14.623  -4.931  1.00 20.00     0.071 C 
HETATM    2  C4  UNL     1     -35.974  16.124  -6.092  1.00 20.00     0.034 C 
HETATM    3  C7  UNL     1     -36.125  15.109  -4.938  1.00 20.00     0.070 C 
HETATM    4  N8  UNL     1     -38.626  14.245  -4.925  1.00 20.00    -0.196 NA
ENDROOT
BRANCH   3   5
HETATM    5  C5  UNL     1     -35.801  15.778  -3.573  1.00 20.00     0.022 C 
HETATM    6  C2  UNL     1     -34.318  15.982  -3.268  1.00 20.00     0.007 C 
ENDBRANCH   3   5
BRANCH   3   7
HETATM    7  C6  UNL     1     -35.151  13.911  -5.185  1.00 20.00     0.136 C 
HETATM    8  C3  UNL     1     -34.429  13.916  -6.533  1.00 20.00     0.041 C 
BRANCH   7   9
HETATM    9  O9  UNL     1     -35.860  12.674  -5.067  1.00 20.00    -0.394 OA
HETATM   10  H22 UNL     1     -35.200  12.005  -4.834  1.00 20.00     0.210 HD
ENDBRANCH   7   9
ENDBRANCH   3   7
TORSDOF 3
ENDMDL
MODEL 4
REMARK VINA RESULT:      -4.0      1.486      2.770
REMARK  3 active torsions:
REMARK  status: ('A' for Active; 'I' for Inactive)
REMARK    1  A    between atoms: C5_5  and  C7_7 
REMARK    2  A    between atoms: C6_6  and  C7_7 
REMARK    3  A    between atoms: C6_6  and  O9_9 
ROOT
HETATM    1  C1  UNL     1     -33.040   7.024   3.401  1.00 20.00     0.071 C 
HETATM    2  C4  UNL     1     -35.366   6.380   2.956  1.00 20.00     0.034 C 
HETATM    3  C7  UNL     1     -34.113   6.081   3.808  1.00 20.00     0.070 C 
HETATM    4  N8  UNL     1     -32.203   7.761   3.082  1.00 20.00    -0.196 NA
ENDROOT
BRANCH   3   5
HETATM    5  C5  UNL     1     -33.633   4.620   3.583  1.00 20.00     0.022 C 
HETATM    6  C2  UNL     1     -32.858   4.366   2.292  1.00 20.00     0.007 C 
ENDBRANCH   3   5
BRANCH   3   7
HETATM    7  C6  UNL     1     -34.465   6.296   5.317  1.00 20.00     0.136 C 
HETATM    8  C3  UNL     1     -33.615   7.334   6.050  1.00 20.00     0.041 C 
BRANCH   7   9
HETATM    9  O9  UNL     1     -34.358   5.056   6.023  1.00 20.00    -0.394 OA
HETATM   10  H22 UNL     1     -35.252   4.839   6.325  1.00 20.00     0.210 HD
ENDBRANCH   7   9
ENDBRANCH   3   7
TORSDOF 3
ENDMDL
MODEL 5
REMARK VINA RESULT:      -4.0      2.405      3.396
REMARK  3 active torsions:
REMARK  status: ('A' for Active; 'I' for Inactive)
REMARK    1  A    between atoms: C5_5  and  C7_7 
REMARK    2  A    between atoms: C6_6  and  C7_7 
REMARK    3  A    between atoms: C6_6  and  O9_9 
ROOT
HETATM    1  C1  UNL     1     -33.338   5.246   3.082  1.00 20.00     0.071 C 
HETATM    2  C4  UNL     1     -35.461   6.471   3.192  1.00 20.00     0.034 C 
HETATM    3  C7  UNL     1     -34.051   6.328   3.807  1.00 20.00     0.070 C 
HETATM    4  N8  UNL     1     -32.783   4.398   2.515  1.00 20.00    -0.196 NA
ENDROOT
BRANCH   3   5
HETATM    5  C5  UNL     1     -34.144   5.968   5.316  1.00 20.00     0.022 C 
HETATM    6  C2  UNL     1     -34.654   4.565   5.635  1.00 20.00     0.007 C 
ENDBRANCH   3   5
BRANCH   3   7
HETATM    7  C6  UNL     1     -33.283   7.679   3.631  1.00 20.00     0.136 C 
HETATM    8  C3  UNL     1     -32.473   7.815   2.342  1.00 20.00     0.041 C 
BRANCH   7   9
HETATM    9  O9  UNL     1     -32.395   7.881   4.735  1.00 20.00    -0.394 OA
HETATM   10  H22 UNL     1     -32.949   7.900   5.529  1.00 20.00     0.210 HD
ENDBRANCH   7   9
ENDBRANCH   3   7
TORSDOF 3
ENDMDL
MODEL 6
REMARK VINA RESULT:      -4.0      2.093      2.847
REMARK  3 active torsions:
REMARK  status: ('A' for Active; 'I' for Inactive)
REMARK    1  A    between atoms: C5_5  and  C7_7 
REMARK    2  A    between atoms: C6_6  and  C7_7 
REMARK    3  A    between atoms: C6_6  and  O9_9 
ROOT
HETATM    1  C1  UNL     1     -34.217   4.423   4.264  1.00 20.00     0.071 C 
HETATM    2  C4  UNL     1     -35.632   6.285   3.523  1.00 20.00     0.034 C 
HETATM    3  C7  UNL     1     -34.327   5.904   4.257  1.00 20.00     0.070 C 
HETATM    4  N8  UNL     1     -34.132   3.266   4.271  1.00 20.00    -0.196 NA
ENDROOT
BRANCH   3   5
HETATM    5  C5  UNL     1     -34.346   6.431   5.719  1.00 20.00     0.022 C 
HETATM    6  C2  UNL     1     -33.406   7.596   6.019  1.00 20.00     0.007 C 
ENDBRANCH   3   5
BRANCH   3   7
HETATM    7  C6  UNL     1     -33.115   6.523   3.487  1.00 20.00     0.136 C 
HETATM    8  C3  UNL     1     -33.437   7.740   2.619  1.00 20.00     0.041 C 
BRANCH   7   9
HETATM    9  O9  UNL     1     -32.511   5.531   2.652  1.00 20.00    -0.394 OA
HETATM   10  H22 UNL     1     -31.956   6.010   2.019  1.00 20.00     0.210 HD
ENDBRANCH   7   9
ENDBRANCH   3   7
TORSDOF 3
ENDMDL
MODEL 7
REMARK VINA RESULT:      -3.9     11.804     12.720
REMARK  3 active torsions:
REMARK  status: ('A' for Active; 'I' for Inactive)
REMARK    1  A    between atoms: C5_5  and  C7_7 
REMARK    2  A    between atoms: C6_6  and  C7_7 
REMARK    3  A    between atoms: C6_6  and  O9_9 
ROOT
HETATM    1  C1  UNL     1     -33.954  14.297  -4.545  1.00 20.00     0.071 C 
HETATM    2  C4  UNL     1     -35.768  15.754  -3.765  1.00 20.00     0.034 C 
HETATM    3  C7  UNL     1     -35.180  15.011  -4.985  1.00 20.00     0.070 C 
HETATM    4  N8  UNL     1     -32.996  13.741  -4.200  1.00 20.00    -0.196 NA
ENDROOT
BRANCH   3   5
HETATM    5  C5  UNL     1     -34.818  16.014  -6.117  1.00 20.00     0.022 C 
HETATM    6  C2  UNL     1     -34.457  15.395  -7.464  1.00 20.00     0.007 C 
ENDBRANCH   3   5
BRANCH   3   7
HETATM    7  C6  UNL     1     -36.235  13.982  -5.507  1.00 20.00     0.136 C 
HETATM    8  C3  UNL     1     -37.692  14.306  -5.177  1.00 20.00     0.041 C 
BRANCH   7   9
HETATM    9  O9  UNL     1     -35.942  12.680  -4.990  1.00 20.00    -0.394 OA
HETATM   10  H22 UNL     1     -35.011  12.697  -4.724  1.00 20.00     0.210 HD
ENDBRANCH   7   9
ENDBRANCH   3   7
TORSDOF 3
ENDMDL
MODEL 8
REMARK VINA RESULT:      -3.9     12.123     12.946
REMARK  3 active torsions:
REMARK  status: ('A' for Active; 'I' for Inactive)
REMARK    1  A    between atoms: C5_5  and  C7_7 
REMARK    2  A    between atoms: C6_6  and  C7_7 
REMARK    3  A    between atoms: C6_6  and  O9_9 
ROOT
HETATM    1  C1  UNL     1     -35.435  13.915  -5.024  1.00 20.00     0.071 C 
HETATM    2  C4  UNL     1     -33.437  15.000  -4.101  1.00 20.00     0.034 C 
HETATM    3  C7  UNL     1     -34.798  15.237  -4.793  1.00 20.00     0.070 C 
HETATM    4  N8  UNL     1     -35.931  12.882  -5.206  1.00 20.00    -0.196 NA
ENDROOT
BRANCH   3   5
HETATM    5  C5  UNL     1     -34.603  15.965  -6.152  1.00 20.00     0.022 C 
HETATM    6  C2  UNL     1     -33.879  15.168  -7.235  1.00 20.00     0.007 C 
ENDBRANCH   3   5
BRANCH   3   7
HETATM    7  C6  UNL     1     -35.699  16.103  -3.853  1.00 20.00     0.136 C 
HETATM    8  C3  UNL     1     -35.110  16.415  -2.478  1.00 20.00     0.041 C 
BRANCH   7   9
HETATM    9  O9  UNL     1     -36.961  15.457  -3.658  1.00 20.00    -0.394 OA
HETATM   10  H22 UNL     1     -37.237  15.133  -4.528  1.00 20.00     0.210 HD
ENDBRANCH   7   9
ENDBRANCH   3   7
TORSDOF 3
ENDMDL
MODEL 9
REMARK VINA RESULT:      -3.9      2.079      3.123
REMARK  3 active torsions:
REMARK  status: ('A' for Active; 'I' for Inactive)
REMARK    1  A    between atoms: C5_5  and  C7_7 
REMARK    2  A    between atoms: C6_6  and  C7_7 
REMARK    3  A    between atoms: C6_6  and  O9_9 
ROOT
HETATM    1  C1  UNL     1     -32.906   5.812   2.797  1.00 20.00     0.071 C 
HETATM    2  C4  UNL     1     -31.736   7.703   3.835  1.00 20.00     0.034 C 
HETATM    3  C7  UNL     1     -33.080   7.217   3.248  1.00 20.00     0.070 C 
HETATM    4  N8  UNL     1     -32.769   4.716   2.444  1.00 20.00    -0.196 NA
ENDROOT
BRANCH   3   5
HETATM    5  C5  UNL     1     -33.503   8.101   2.042  1.00 20.00     0.022 C 
HETATM    6  C2  UNL     1     -32.411   8.992   1.454  1.00 20.00     0.007 C 
ENDBRANCH   3   5
BRANCH   3   7
HETATM    7  C6  UNL     1     -34.173   7.285   4.364  1.00 20.00     0.136 C 
HETATM    8  C3  UNL     1     -33.648   7.367   5.797  1.00 20.00     0.041 C 
BRANCH   7   9
HETATM    9  O9  UNL     1     -35.034   6.145   4.272  1.00 20.00    -0.394 OA
HETATM   10  H22 UNL     1     -35.531   6.247   3.448  1.00 20.00     0.210 HD
ENDBRANCH   7   9
ENDBRANCH   3   7
TORSDOF 3
ENDMDL
