MODEL 1
REMARK VINA RESULT:      -5.0      0.000      0.000
REMARK  4 active torsions:
REMARK  status: ('A' for Active; 'I' for Inactive)
REMARK    1  A    between atoms: C5_5  and  C7_7 
REMARK    2  A    between atoms: C6_6  and  C8_8 
REMARK    3  A    between atoms: C7_7  and  C8_8 
REMARK    4  A    between atoms: C8_8  and  O10_10 
ROOT
HETATM    1  C1  UNL     1     -33.468   7.475   5.003  1.00 20.00     0.067 C 
HETATM    2  C7  UNL     1     -33.463   7.360   3.523  1.00 20.00     0.126 C 
HETATM    3  N9  UNL     1     -33.475   7.568   6.160  1.00 20.00    -0.197 NA
ENDROOT
BRANCH   2   4
HETATM    4  C5  UNL     1     -32.055   7.675   2.977  1.00 20.00     0.018 C 
HETATM    5  C2  UNL     1     -32.075   8.638   1.793  1.00 20.00     0.006 C 
ENDBRANCH   2   4
BRANCH   2   6
HETATM    6  C8  UNL     1     -34.018   5.965   3.072  1.00 20.00     0.070 C 
HETATM    7  C4  UNL     1     -32.904   4.952   2.775  1.00 20.00     0.047 C 
BRANCH   6   8
HETATM    8  C6  UNL     1     -35.014   5.400   4.117  1.00 20.00     0.034 C 
HETATM    9  C3  UNL     1     -34.483   4.232   4.943  1.00 20.00     0.008 C 
ENDBRANCH   6   8
BRANCH   6  10
HETATM   10  O10 UNL     1     -34.745   6.157   1.847  1.00 20.00    -0.389 OA
HETATM   11  H25 UNL     1     -34.089   6.096   1.139  1.00 20.00     0.210 HD
ENDBRANCH   6  10
ENDBRANCH   2   6
TORSDOF 4
ENDMDL
MODEL 2
REMARK VINA RESULT:      -4.8      1.621      2.416
REMARK  4 active torsions:
REMARK  status: ('A' for Active; 'I' for Inactive)
REMARK    1  A    between atoms: C5_5  and  C7_7 
REMARK    2  A    between atoms: C6_6  and  C8_8 
REMARK    3  A    between atoms: C7_7  and  C8_8 
REMARK    4  A    between atoms: C8_8  and  O10_10 
ROOT
HETATM    1  C1  UNL     1     -32.529   7.901   2.471  1.00 20.00     0.067 C 
HETATM    2  C7  UNL     1     -32.995   7.028   3.577  1.00 20.00     0.126 C 
HETATM    3  N9  UNL     1     -32.159   8.583   1.607  1.00 20.00    -0.197 NA
ENDROOT
BRANCH   2   4
HETATM    4  C5  UNL     1     -33.768   7.866   4.617  1.00 20.00     0.018 C 
HETATM    5  C2  UNL     1     -33.381   7.535   6.056  1.00 20.00     0.006 C 
ENDBRANCH   2   4
BRANCH   2   6
HETATM    6  C8  UNL     1     -33.808   5.810   3.018  1.00 20.00     0.070 C 
HETATM    7  C4  UNL     1     -32.915   4.610   2.672  1.00 20.00     0.047 C 
BRANCH   6   8
HETATM    8  C6  UNL     1     -34.933   5.395   4.001  1.00 20.00     0.034 C 
HETATM    9  C3  UNL     1     -34.545   4.307   4.999  1.00 20.00     0.008 C 
ENDBRANCH   6   8
BRANCH   6  10
HETATM   10  O10 UNL     1     -34.438   6.227   1.796  1.00 20.00    -0.389 OA
HETATM   11  H25 UNL     1     -35.375   6.009   1.895  1.00 20.00     0.210 HD
ENDBRANCH   6  10
ENDBRANCH   2   6
TORSDOF 4
ENDMDL
MODEL 3
REMARK VINA RESULT:      -4.4     11.113     11.985
REMARK  4 active torsions:
REMARK  status: ('A' for Active; 'I' for Inactive)
REMARK    1  A    between atoms: C5_5  and  C7_7 
REMARK    2  A    between atoms: C6_6  and  C8_8 
REMARK    3  A    between atoms: C7_7  and  C8_8 
REMARK    4  A    between atoms: C8_8  and  O10_10 
ROOT
HETATM    1  C1  UNL     1     -33.652  14.242  -4.175  1.00 20.00     0.067 C 
HETATM    2  C7  UNL     1     -35.076  14.602  -3.958  1.00 20.00     0.126 C 
HETATM    3  N9  UNL     1     -32.538  13.959  -4.341  1.00 20.00    -0.197 NA
ENDROOT
BRANCH   2   4
HETATM    4  C5  UNL     1     -35.205  16.124  -3.743  1.00 20.00     0.018 C 
HETATM    5  C2  UNL     1     -34.916  16.550  -2.305  1.00 20.00     0.006 C 
ENDBRANCH   2   4
BRANCH   2   6
HETATM    6  C8  UNL     1     -35.971  14.049  -5.119  1.00 20.00     0.070 C 
HETATM    7  C4  UNL     1     -37.441  14.472  -4.986  1.00 20.00     0.047 C 
BRANCH   6   8
HETATM    8  C6  UNL     1     -35.402  14.459  -6.502  1.00 20.00     0.034 C 
HETATM    9  C3  UNL     1     -35.115  13.297  -7.448  1.00 20.00     0.008 C 
ENDBRANCH   6   8
BRANCH   6  10
HETATM   10  O10 UNL     1     -35.942  12.614  -5.051  1.00 20.00    -0.389 OA
HETATM   11  H25 UNL     1     -36.664  12.309  -5.617  1.00 20.00     0.210 HD
ENDBRANCH   6  10
ENDBRANCH   2   6
TORSDOF 4
ENDMDL
MODEL 4
REMARK VINA RESULT:      -4.4      2.044      2.825
REMARK  4 active torsions:
REMARK  status: ('A' for Active; 'I' for Inactive)
REMARK    1  A    between atoms: C5_5  and  C7_7 
REMARK    2  A    between atoms: C6_6  and  C8_8 
REMARK    3  A    between atoms: C7_7  and  C8_8 
REMARK    4  A    between atoms: C8_8  and  O10_10 
ROOT
HETATM    1  C1  UNL     1     -32.977   4.986   2.642  1.00 20.00     0.067 C 
HETATM    2  C7  UNL     1     -33.326   6.079   3.584  1.00 20.00     0.126 C 
HETATM    3  N9  UNL     1     -32.701   4.132   1.906  1.00 20.00    -0.197 NA
ENDROOT
BRANCH   2   4
HETATM    4  C5  UNL     1     -33.619   7.374   2.799  1.00 20.00     0.018 C 
HETATM    5  C2  UNL     1     -32.352   8.090   2.334  1.00 20.00     0.006 C 
ENDBRANCH   2   4
BRANCH   2   6
HETATM    6  C8  UNL     1     -34.490   5.640   4.538  1.00 20.00     0.070 C 
HETATM    7  C4  UNL     1     -34.469   4.136   4.844  1.00 20.00     0.047 C 
BRANCH   6   8
HETATM    8  C6  UNL     1     -34.476   6.470   5.847  1.00 20.00     0.034 C 
HETATM    9  C3  UNL     1     -33.364   7.512   5.936  1.00 20.00     0.008 C 
ENDBRANCH   6   8
BRANCH   6  10
HETATM   10  O10 UNL     1     -35.732   5.914   3.868  1.00 20.00    -0.389 OA
HETATM   11  H25 UNL     1     -36.181   5.061   3.789  1.00 20.00     0.210 HD
ENDBRANCH   6  10
ENDBRANCH   2   6
TORSDOF 4
ENDMDL
MODEL 5
REMARK VINA RESULT:      -4.4      0.967      1.240
REMARK  4 active torsions:
REMARK  status: ('A' for Active; 'I' for Inactive)
REMARK    1  A    between atoms: C5_5  and  C7_7 
REMARK    2  A    between atoms: C6_6  and  C8_8 
REMARK    3  A    between atoms: C7_7  and  C8_8 
REMARK    4  A    between atoms: C8_8  and  O10_10 
ROOT
HETATM    1  C1  UNL     1     -33.676   7.346   5.125  1.00 20.00     0.067 C 
HETATM    2  C7  UNL     1     -33.645   7.306   3.642  1.00 20.00     0.126 C 
HETATM    3  N9  UNL     1     -33.702   7.381   6.285  1.00 20.00    -0.197 NA
ENDROOT
BRANCH   2   4
HETATM    4  C5  UNL     1     -32.194   7.464   3.143  1.00 20.00     0.018 C 
HETATM    5  C2  UNL     1     -32.035   8.580   2.113  1.00 20.00     0.006 C 
ENDBRANCH   2   4
BRANCH   2   6
HETATM    6  C8  UNL     1     -34.361   6.019   3.106  1.00 20.00     0.070 C 
HETATM    7  C4  UNL     1     -34.748   6.130   1.624  1.00 20.00     0.047 C 
BRANCH   6   8
HETATM    8  C6  UNL     1     -33.495   4.758   3.357  1.00 20.00     0.034 C 
HETATM    9  C3  UNL     1     -34.026   3.820   4.438  1.00 20.00     0.008 C 
ENDBRANCH   6   8
BRANCH   6  10
HETATM   10  O10 UNL     1     -35.582   5.856   3.846  1.00 20.00    -0.389 OA
HETATM   11  H25 UNL     1     -36.204   6.494   3.471  1.00 20.00     0.210 HD
ENDBRANCH   6  10
ENDBRANCH   2   6
TORSDOF 4
ENDMDL
MODEL 6
REMARK VINA RESULT:      -4.3     11.429     12.558
REMARK  4 active torsions:
REMARK  status: ('A' for Active; 'I' for Inactive)
REMARK    1  A    between atoms: C5_5  and  C7_7 
REMARK    2  A    between atoms: C6_6  and  C8_8 
REMARK    3  A    between atoms: C7_7  and  C8_8 
REMARK    4  A    between atoms: C8_8  and  O10_10 
ROOT
HETATM    1  C1  UNL     1     -37.735  14.551  -5.293  1.00 20.00     0.067 C 
HETATM    2  C7  UNL     1     -36.403  15.029  -5.740  1.00 20.00     0.126 C 
HETATM    3  N9  UNL     1     -38.779  14.177  -4.948  1.00 20.00    -0.197 NA
ENDROOT
BRANCH   2   4
HETATM    4  C5  UNL     1     -36.115  16.418  -5.133  1.00 20.00     0.018 C 
HETATM    5  C2  UNL     1     -35.475  17.383  -6.130  1.00 20.00     0.006 C 
ENDBRANCH   2   4
BRANCH   2   6
HETATM    6  C8  UNL     1     -35.297  13.963  -5.431  1.00 20.00     0.070 C 
HETATM    7  C4  UNL     1     -34.384  13.690  -6.634  1.00 20.00     0.047 C 
BRANCH   6   8
HETATM    8  C6  UNL     1     -34.466  14.370  -4.188  1.00 20.00     0.034 C 
HETATM    9  C3  UNL     1     -32.972  14.553  -4.446  1.00 20.00     0.008 C 
ENDBRANCH   6   8
BRANCH   6  10
HETATM   10  O10 UNL     1     -35.957  12.725  -5.119  1.00 20.00    -0.389 OA
HETATM   11  H25 UNL     1     -35.799  12.144  -5.875  1.00 20.00     0.210 HD
ENDBRANCH   6  10
ENDBRANCH   2   6
TORSDOF 4
ENDMDL
MODEL 7
REMARK VINA RESULT:      -4.3     11.734     12.589
REMARK  4 active torsions:
REMARK  status: ('A' for Active; 'I' for Inactive)
REMARK    1  A    between atoms: C5_5  and  C7_7 
REMARK    2  A    between atoms: C6_6  and  C8_8 
REMARK    3  A    between atoms: C7_7  and  C8_8 
REMARK    4  A    between atoms: C8_8  and  O10_10 
ROOT
HETATM    1  C1  UNL     1     -35.307  13.416  -6.304  1.00 20.00     0.067 C 
HETATM    2  C7  UNL     1     -35.439  14.725  -5.615  1.00 20.00     0.126 C 
HETATM    3  N9  UNL     1     -35.206  12.395  -6.847  1.00 20.00    -0.197 NA
ENDROOT
BRANCH   2   4
HETATM    4  C5  UNL     1     -36.667  14.704  -4.682  1.00 20.00     0.018 C 
HETATM    5  C2  UNL     1     -37.980  14.485  -5.429  1.00 20.00     0.006 C 
ENDBRANCH   2   4
BRANCH   2   6
HETATM    6  C8  UNL     1     -34.102  15.109  -4.893  1.00 20.00     0.070 C 
HETATM    7  C4  UNL     1     -33.349  16.242  -5.604  1.00 20.00     0.047 C 
BRANCH   6   8
HETATM    8  C6  UNL     1     -34.357  15.463  -3.406  1.00 20.00     0.034 C 
HETATM    9  C3  UNL     1     -33.650  16.724  -2.916  1.00 20.00     0.008 C 
ENDBRANCH   6   8
BRANCH   6  10
HETATM   10  O10 UNL     1     -33.243  13.957  -4.918  1.00 20.00    -0.389 OA
HETATM   11  H25 UNL     1     -33.808  13.202  -4.707  1.00 20.00     0.210 HD
ENDBRANCH   6  10
ENDBRANCH   2   6
TORSDOF 4
ENDMDL
MODEL 8
REMARK VINA RESULT:      -4.2      1.704      3.435
REMARK  4 active torsions:
REMARK  status: ('A' for Active; 'I' for Inactive)
REMARK    1  A    between atoms: C5_5  and  C7_7 
REMARK    2  A    between atoms: C6_6  and  C8_8 
REMARK    3  A    between atoms: C7_7  and  C8_8 
REMARK    4  A    between atoms: C8_8  and  O10_10 
ROOT
HETATM    1  C1  UNL     1     -34.503   5.202   4.555  1.00 20.00     0.067 C 
HETATM    2  C7  UNL     1     -34.143   6.539   4.018  1.00 20.00     0.126 C 
HETATM    3  N9  UNL     1     -34.788   4.158   4.974  1.00 20.00    -0.197 NA
ENDROOT
BRANCH   2   4
HETATM    4  C5  UNL     1     -33.417   7.361   5.103  1.00 20.00     0.018 C 
HETATM    5  C2  UNL     1     -34.065   7.234   6.480  1.00 20.00     0.006 C 
ENDBRANCH   2   4
BRANCH   2   6
HETATM    6  C8  UNL     1     -33.335   6.402   2.682  1.00 20.00     0.070 C 
HETATM    7  C4  UNL     1     -34.226   6.513   1.436  1.00 20.00     0.047 C 
BRANCH   6   8
HETATM    8  C6  UNL     1     -32.177   7.431   2.626  1.00 20.00     0.034 C 
HETATM    9  C3  UNL     1     -32.413   8.613   1.690  1.00 20.00     0.008 C 
ENDBRANCH   6   8
BRANCH   6  10
HETATM   10  O10 UNL     1     -32.747   5.091   2.658  1.00 20.00    -0.389 OA
HETATM   11  H25 UNL     1     -31.921   5.182   2.163  1.00 20.00     0.210 HD
ENDBRANCH   6  10
ENDBRANCH   2   6
TORSDOF 4
ENDMDL
MODEL 9
REMARK VINA RESULT:      -4.1     11.949     12.444
REMARK  4 active torsions:
REMARK  status: ('A' for Active; 'I' for Inactive)
REMARK    1  A    between atoms: C5_5  and  C7_7 
REMARK    2  A    between atoms: C6_6  and  C8_8 
REMARK    3  A    between atoms: C7_7  and  C8_8 
REMARK    4  A    between atoms: C8_8  and  O10_10 
ROOT
HETATM    1  C1  UNL     1     -33.299  17.989  -2.860  1.00 20.00     0.067 C 
HETATM    2  C7  UNL     1     -33.845  16.613  -2.748  1.00 20.00     0.126 C 
HETATM    3  N9  UNL     1     -32.869  19.064  -2.944  1.00 20.00    -0.197 NA
ENDROOT
BRANCH   2   4
HETATM    4  C5  UNL     1     -35.186  16.642  -1.985  1.00 20.00     0.018 C 
HETATM    5  C2  UNL     1     -35.081  17.318  -0.620  1.00 20.00     0.006 C 
ENDBRANCH   2   4
BRANCH   2   6
HETATM    6  C8  UNL     1     -33.934  15.934  -4.157  1.00 20.00     0.070 C 
HETATM    7  C4  UNL     1     -32.946  14.770  -4.317  1.00 20.00     0.047 C 
BRANCH   6   8
HETATM    8  C6  UNL     1     -35.383  15.474  -4.461  1.00 20.00     0.034 C 
HETATM    9  C3  UNL     1     -35.531  13.990  -4.786  1.00 20.00     0.008 C 
ENDBRANCH   6   8
BRANCH   6  10
HETATM   10  O10 UNL     1     -33.580  16.920  -5.142  1.00 20.00    -0.389 OA
HETATM   11  H25 UNL     1     -33.305  16.423  -5.924  1.00 20.00     0.210 HD
ENDBRANCH   6  10
ENDBRANCH   2   6
TORSDOF 4
ENDMDL
