MODEL 1
REMARK VINA RESULT:      -5.0      0.000      0.000
REMARK  4 active torsions:
REMARK  status: ('A' for Active; 'I' for Inactive)
REMARK    1  A    between atoms: C4_4  and  C5_5 
REMARK    2  A    between atoms: C5_5  and  C7_7 
REMARK    3  A    between atoms: C6_6  and  C7_7 
REMARK    4  A    between atoms: C7_7  and  O9_9 
ROOT
HETATM    1  C1  UNL     1     -34.463   5.420   4.630  1.00 20.00     0.066 C 
HETATM    2  C3  UNL     1     -33.115   5.034   2.615  1.00 20.00     0.028 C 
HETATM    3  C6  UNL     1     -34.061   6.001   3.332  1.00 20.00     0.117 C 
HETATM    4  N8  UNL     1     -34.779   4.966   5.650  1.00 20.00    -0.197 NA
ENDROOT
BRANCH   3   5
HETATM    5  C7  UNL     1     -33.416   7.395   3.492  1.00 20.00     0.135 C 
BRANCH   5   6
HETATM    6  C5  UNL     1     -32.249   7.625   2.517  1.00 20.00     0.033 C 
BRANCH   6   7
HETATM    7  C4  UNL     1     -32.200   9.061   1.986  1.00 20.00    -0.002 C 
HETATM    8  C2  UNL     1     -32.246   9.094   0.467  1.00 20.00     0.005 C 
ENDBRANCH   6   7
ENDBRANCH   5   6
BRANCH   5   9
HETATM    9  O9  UNL     1     -32.974   7.563   4.839  1.00 20.00    -0.394 OA
HETATM   10  H22 UNL     1     -32.316   8.275   4.825  1.00 20.00     0.210 HD
ENDBRANCH   5   9
ENDBRANCH   3   5
TORSDOF 4
ENDMDL
MODEL 2
REMARK VINA RESULT:      -4.7      1.756      1.974
REMARK  4 active torsions:
REMARK  status: ('A' for Active; 'I' for Inactive)
REMARK    1  A    between atoms: C4_4  and  C5_5 
REMARK    2  A    between atoms: C5_5  and  C7_7 
REMARK    3  A    between atoms: C6_6  and  C7_7 
REMARK    4  A    between atoms: C7_7  and  O9_9 
ROOT
HETATM    1  C1  UNL     1     -34.102   6.685   5.302  1.00 20.00     0.066 C 
HETATM    2  C3  UNL     1     -34.473   4.369   4.574  1.00 20.00     0.028 C 
HETATM    3  C6  UNL     1     -34.269   5.817   4.118  1.00 20.00     0.117 C 
HETATM    4  N8  UNL     1     -33.970   7.367   6.230  1.00 20.00    -0.197 NA
ENDROOT
BRANCH   3   5
HETATM    5  C7  UNL     1     -33.079   5.929   3.140  1.00 20.00     0.135 C 
BRANCH   5   6
HETATM    6  C5  UNL     1     -33.205   7.128   2.185  1.00 20.00     0.033 C 
BRANCH   6   7
HETATM    7  C4  UNL     1     -32.063   8.136   2.352  1.00 20.00    -0.002 C 
HETATM    8  C2  UNL     1     -32.017   9.120   1.194  1.00 20.00     0.005 C 
ENDBRANCH   6   7
ENDBRANCH   5   6
BRANCH   5   9
HETATM    9  O9  UNL     1     -32.961   4.716   2.396  1.00 20.00    -0.394 OA
HETATM   10  H22 UNL     1     -32.487   4.941   1.580  1.00 20.00     0.210 HD
ENDBRANCH   5   9
ENDBRANCH   3   5
TORSDOF 4
ENDMDL
MODEL 3
REMARK VINA RESULT:      -4.5      2.774      4.614
REMARK  4 active torsions:
REMARK  status: ('A' for Active; 'I' for Inactive)
REMARK    1  A    between atoms: C4_4  and  C5_5 
REMARK    2  A    between atoms: C5_5  and  C7_7 
REMARK    3  A    between atoms: C6_6  and  C7_7 
REMARK    4  A    between atoms: C7_7  and  O9_9 
ROOT
HETATM    1  C1  UNL     1     -32.167   8.723   1.452  1.00 20.00     0.066 C 
HETATM    2  C3  UNL     1     -31.329   8.206   3.701  1.00 20.00     0.028 C 
HETATM    3  C6  UNL     1     -32.574   8.343   2.821  1.00 20.00     0.117 C 
HETATM    4  N8  UNL     1     -31.850   9.020   0.377  1.00 20.00    -0.197 NA
ENDROOT
BRANCH   3   5
HETATM    5  C7  UNL     1     -33.415   7.048   2.842  1.00 20.00     0.135 C 
BRANCH   5   6
HETATM    6  C5  UNL     1     -34.213   6.878   4.145  1.00 20.00     0.033 C 
BRANCH   6   7
HETATM    7  C4  UNL     1     -34.871   5.499   4.256  1.00 20.00    -0.002 C 
HETATM    8  C2  UNL     1     -34.579   4.850   5.600  1.00 20.00     0.005 C 
ENDBRANCH   6   7
ENDBRANCH   5   6
BRANCH   5   9
HETATM    9  O9  UNL     1     -32.560   5.924   2.636  1.00 20.00    -0.394 OA
HETATM   10  H22 UNL     1     -33.116   5.222   2.263  1.00 20.00     0.210 HD
ENDBRANCH   5   9
ENDBRANCH   3   5
TORSDOF 4
ENDMDL
MODEL 4
REMARK VINA RESULT:      -4.5      2.450      4.147
REMARK  4 active torsions:
REMARK  status: ('A' for Active; 'I' for Inactive)
REMARK    1  A    between atoms: C4_4  and  C5_5 
REMARK    2  A    between atoms: C5_5  and  C7_7 
REMARK    3  A    between atoms: C6_6  and  C7_7 
REMARK    4  A    between atoms: C7_7  and  O9_9 
ROOT
HETATM    1  C1  UNL     1     -32.465   8.357   2.037  1.00 20.00     0.066 C 
HETATM    2  C3  UNL     1     -33.703   6.247   2.246  1.00 20.00     0.028 C 
HETATM    3  C6  UNL     1     -32.517   7.069   2.758  1.00 20.00     0.117 C 
HETATM    4  N8  UNL     1     -32.423   9.369   1.471  1.00 20.00    -0.197 NA
ENDROOT
BRANCH   3   5
HETATM    5  C7  UNL     1     -32.593   7.261   4.289  1.00 20.00     0.135 C 
BRANCH   5   6
HETATM    6  C5  UNL     1     -34.039   7.312   4.811  1.00 20.00     0.033 C 
BRANCH   6   7
HETATM    7  C4  UNL     1     -34.284   6.332   5.962  1.00 20.00    -0.002 C 
HETATM    8  C2  UNL     1     -34.635   4.945   5.447  1.00 20.00     0.005 C 
ENDBRANCH   6   7
ENDBRANCH   5   6
BRANCH   5   9
HETATM    9  O9  UNL     1     -31.895   8.452   4.654  1.00 20.00    -0.394 OA
HETATM   10  H22 UNL     1     -30.976   8.328   4.372  1.00 20.00     0.210 HD
ENDBRANCH   5   9
ENDBRANCH   3   5
TORSDOF 4
ENDMDL
MODEL 5
REMARK VINA RESULT:      -4.4      1.933      4.026
REMARK  4 active torsions:
REMARK  status: ('A' for Active; 'I' for Inactive)
REMARK    1  A    between atoms: C4_4  and  C5_5 
REMARK    2  A    between atoms: C5_5  and  C7_7 
REMARK    3  A    between atoms: C6_6  and  C7_7 
REMARK    4  A    between atoms: C7_7  and  O9_9 
ROOT
HETATM    1  C1  UNL     1     -32.845   7.560   4.480  1.00 20.00     0.066 C 
HETATM    2  C3  UNL     1     -32.563   8.263   2.144  1.00 20.00     0.028 C 
HETATM    3  C6  UNL     1     -32.568   7.076   3.112  1.00 20.00     0.117 C 
HETATM    4  N8  UNL     1     -33.062   7.938   5.555  1.00 20.00    -0.197 NA
ENDROOT
BRANCH   3   5
HETATM    5  C7  UNL     1     -33.576   5.996   2.660  1.00 20.00     0.135 C 
BRANCH   5   6
HETATM    6  C5  UNL     1     -34.775   5.864   3.615  1.00 20.00     0.033 C 
BRANCH   6   7
HETATM    7  C4  UNL     1     -34.728   4.577   4.444  1.00 20.00    -0.002 C 
HETATM    8  C2  UNL     1     -34.627   4.878   5.931  1.00 20.00     0.005 C 
ENDBRANCH   6   7
ENDBRANCH   5   6
BRANCH   5   9
HETATM    9  O9  UNL     1     -32.905   4.742   2.536  1.00 20.00    -0.394 OA
HETATM   10  H22 UNL     1     -33.589   4.082   2.347  1.00 20.00     0.210 HD
ENDBRANCH   5   9
ENDBRANCH   3   5
TORSDOF 4
ENDMDL
MODEL 6
REMARK VINA RESULT:      -4.4      1.532      1.949
REMARK  4 active torsions:
REMARK  status: ('A' for Active; 'I' for Inactive)
REMARK    1  A    between atoms: C4_4  and  C5_5 
REMARK    2  A    between atoms: C5_5  and  C7_7 
REMARK    3  A    between atoms: C6_6  and  C7_7 
REMARK    4  A    between atoms: C7_7  and  O9_9 
ROOT
HETATM    1  C1  UNL     1     -34.494   6.320   3.981  1.00 20.00     0.066 C 
HETATM    2  C3  UNL     1     -33.605   7.413   5.992  1.00 20.00     0.028 C 
HETATM    3  C6  UNL     1     -33.279   6.903   4.586  1.00 20.00     0.117 C 
HETATM    4  N8  UNL     1     -35.447   5.861   3.505  1.00 20.00    -0.197 NA
ENDROOT
BRANCH   3   5
HETATM    5  C7  UNL     1     -32.675   8.026   3.714  1.00 20.00     0.135 C 
BRANCH   5   6
HETATM    6  C5  UNL     1     -32.639   7.665   2.219  1.00 20.00     0.033 C 
BRANCH   6   7
HETATM    7  C4  UNL     1     -31.846   8.679   1.388  1.00 20.00    -0.002 C 
HETATM    8  C2  UNL     1     -32.660   9.935   1.120  1.00 20.00     0.005 C 
ENDBRANCH   6   7
ENDBRANCH   5   6
BRANCH   5   9
HETATM    9  O9  UNL     1     -31.361   8.334   4.179  1.00 20.00    -0.394 OA
HETATM   10  H22 UNL     1     -31.468   8.748   5.049  1.00 20.00     0.210 HD
ENDBRANCH   5   9
ENDBRANCH   3   5
TORSDOF 4
ENDMDL
MODEL 7
REMARK VINA RESULT:      -4.1      2.639      3.871
REMARK  4 active torsions:
REMARK  status: ('A' for Active; 'I' for Inactive)
REMARK    1  A    between atoms: C4_4  and  C5_5 
REMARK    2  A    between atoms: C5_5  and  C7_7 
REMARK    3  A    between atoms: C6_6  and  C7_7 
REMARK    4  A    between atoms: C7_7  and  O9_9 
ROOT
HETATM    1  C1  UNL     1     -32.882   6.673   2.650  1.00 20.00     0.066 C 
HETATM    2  C3  UNL     1     -32.681   4.326   1.957  1.00 20.00     0.028 C 
HETATM    3  C6  UNL     1     -33.031   5.276   3.106  1.00 20.00     0.117 C 
HETATM    4  N8  UNL     1     -32.765   7.771   2.293  1.00 20.00    -0.197 NA
ENDROOT
BRANCH   3   5
HETATM    5  C7  UNL     1     -34.446   4.990   3.653  1.00 20.00     0.135 C 
BRANCH   5   6
HETATM    6  C5  UNL     1     -35.000   6.144   4.505  1.00 20.00     0.033 C 
BRANCH   6   7
HETATM    7  C4  UNL     1     -34.358   6.211   5.894  1.00 20.00    -0.002 C 
HETATM    8  C2  UNL     1     -33.551   7.487   6.073  1.00 20.00     0.005 C 
ENDBRANCH   6   7
ENDBRANCH   5   6
BRANCH   5   9
HETATM    9  O9  UNL     1     -34.426   3.781   4.413  1.00 20.00    -0.394 OA
HETATM   10  H22 UNL     1     -35.325   3.658   4.755  1.00 20.00     0.210 HD
ENDBRANCH   5   9
ENDBRANCH   3   5
TORSDOF 4
ENDMDL
MODEL 8
REMARK VINA RESULT:      -4.1      1.491      1.822
REMARK  4 active torsions:
REMARK  status: ('A' for Active; 'I' for Inactive)
REMARK    1  A    between atoms: C4_4  and  C5_5 
REMARK    2  A    between atoms: C5_5  and  C7_7 
REMARK    3  A    between atoms: C6_6  and  C7_7 
REMARK    4  A    between atoms: C7_7  and  O9_9 
ROOT
HETATM    1  C1  UNL     1     -34.334   5.120   4.574  1.00 20.00     0.066 C 
HETATM    2  C3  UNL     1     -33.790   7.405   5.291  1.00 20.00     0.028 C 
HETATM    3  C6  UNL     1     -33.326   6.195   4.475  1.00 20.00     0.117 C 
HETATM    4  N8  UNL     1     -35.125   4.275   4.651  1.00 20.00    -0.197 NA
ENDROOT
BRANCH   3   5
HETATM    5  C7  UNL     1     -33.038   6.591   3.010  1.00 20.00     0.135 C 
BRANCH   5   6
HETATM    6  C5  UNL     1     -32.870   8.109   2.826  1.00 20.00     0.033 C 
BRANCH   6   7
HETATM    7  C4  UNL     1     -31.841   8.461   1.748  1.00 20.00    -0.002 C 
HETATM    8  C2  UNL     1     -32.384   9.500   0.778  1.00 20.00     0.005 C 
ENDBRANCH   6   7
ENDBRANCH   5   6
BRANCH   5   9
HETATM    9  O9  UNL     1     -34.086   6.106   2.172  1.00 20.00    -0.394 OA
HETATM   10  H22 UNL     1     -34.601   5.484   2.709  1.00 20.00     0.210 HD
ENDBRANCH   5   9
ENDBRANCH   3   5
TORSDOF 4
ENDMDL
MODEL 9
REMARK VINA RESULT:      -4.0     10.914     11.874
REMARK  4 active torsions:
REMARK  status: ('A' for Active; 'I' for Inactive)
REMARK    1  A    between atoms: C4_4  and  C5_5 
REMARK    2  A    between atoms: C5_5  and  C7_7 
REMARK    3  A    between atoms: C6_6  and  C7_7 
REMARK    4  A    between atoms: C7_7  and  O9_9 
ROOT
HETATM    1  C1  UNL     1     -35.428  13.704  -4.682  1.00 20.00     0.066 C 
HETATM    2  C3  UNL     1     -35.675  16.005  -3.858  1.00 20.00     0.028 C 
HETATM    3  C6  UNL     1     -34.800  14.747  -3.845  1.00 20.00     0.117 C 
HETATM    4  N8  UNL     1     -35.920  12.884  -5.338  1.00 20.00    -0.197 NA
ENDROOT
BRANCH   3   5
HETATM    5  C7  UNL     1     -33.359  15.068  -4.297  1.00 20.00     0.135 C 
BRANCH   5   6
HETATM    6  C5  UNL     1     -33.296  16.232  -5.301  1.00 20.00     0.033 C 
BRANCH   6   7
HETATM    7  C4  UNL     1     -33.317  15.755  -6.757  1.00 20.00    -0.002 C 
HETATM    8  C2  UNL     1     -34.612  16.148  -7.451  1.00 20.00     0.005 C 
ENDBRANCH   6   7
ENDBRANCH   5   6
BRANCH   5   9
HETATM    9  O9  UNL     1     -32.767  13.898  -4.861  1.00 20.00    -0.394 OA
HETATM   10  H22 UNL     1     -31.933  14.182  -5.268  1.00 20.00     0.210 HD
ENDBRANCH   5   9
ENDBRANCH   3   5
TORSDOF 4
ENDMDL
