MODEL 1
REMARK VINA RESULT:      -5.9      0.000      0.000
REMARK  1 active torsions:
REMARK  status: ('A' for Active; 'I' for Inactive)
REMARK    1  A    between atoms: C6_6  and  C10_10 
ROOT
HETATM    1  C1  UNL     1     -31.518   8.747   3.164  1.00 20.00    -0.025 A 
HETATM    2  C2  UNL     1     -31.908   7.822   4.056  1.00 20.00    -0.020 A 
HETATM    3  C3  UNL     1     -32.903   6.105   2.418  1.00 20.00     0.020 A 
HETATM    4  C4  UNL     1     -32.399   8.678   1.935  1.00 20.00     0.009 A 
HETATM    5  C5  UNL     1     -33.362   7.529   2.209  1.00 20.00     0.006 A 
HETATM    6  C6  UNL     1     -33.066   7.013   3.612  1.00 20.00    -0.015 A 
HETATM    7  C7  UNL     1     -31.606   8.473   0.654  1.00 20.00     0.014 C 
ENDROOT
BRANCH   6   8
HETATM    8  C10 UNL     1     -34.192   6.787   4.569  1.00 20.00    -0.010 C 
HETATM    9  C8  UNL     1     -34.615   5.308   4.611  1.00 20.00     0.010 C 
HETATM   10  C9  UNL     1     -33.834   7.256   5.990  1.00 20.00     0.010 C 
ENDBRANCH   6   8
TORSDOF 1
ENDMDL
MODEL 2
REMARK VINA RESULT:      -5.5      0.962      3.801
REMARK  1 active torsions:
REMARK  status: ('A' for Active; 'I' for Inactive)
REMARK    1  A    between atoms: C6_6  and  C10_10 
ROOT
HETATM    1  C1  UNL     1     -34.015   6.704   5.515  1.00 20.00    -0.025 A 
HETATM    2  C2  UNL     1     -33.761   7.647   4.594  1.00 20.00    -0.020 A 
HETATM    3  C3  UNL     1     -34.322   6.287   2.484  1.00 20.00     0.020 A 
HETATM    4  C4  UNL     1     -33.795   5.331   4.916  1.00 20.00     0.009 A 
HETATM    5  C5  UNL     1     -33.407   5.595   3.466  1.00 20.00     0.006 A 
HETATM    6  C6  UNL     1     -33.338   7.105   3.282  1.00 20.00    -0.015 A 
HETATM    7  C7  UNL     1     -35.019   4.436   5.031  1.00 20.00     0.014 C 
ENDROOT
BRANCH   6   8
HETATM    8  C10 UNL     1     -32.154   7.714   2.603  1.00 20.00    -0.010 C 
HETATM    9  C8  UNL     1     -32.575   8.726   1.523  1.00 20.00     0.010 C 
HETATM   10  C9  UNL     1     -31.213   8.403   3.607  1.00 20.00     0.010 C 
ENDBRANCH   6   8
TORSDOF 1
ENDMDL
MODEL 3
REMARK VINA RESULT:      -4.9      0.935      4.086
REMARK  1 active torsions:
REMARK  status: ('A' for Active; 'I' for Inactive)
REMARK    1  A    between atoms: C6_6  and  C10_10 
ROOT
HETATM    1  C1  UNL     1     -33.713   4.951   3.157  1.00 20.00    -0.025 A 
HETATM    2  C2  UNL     1     -32.776   5.835   2.777  1.00 20.00    -0.020 A 
HETATM    3  C3  UNL     1     -32.880   7.405   4.812  1.00 20.00     0.020 A 
HETATM    4  C4  UNL     1     -34.720   5.629   4.061  1.00 20.00     0.009 A 
HETATM    5  C5  UNL     1     -34.217   7.061   4.202  1.00 20.00     0.006 A 
HETATM    6  C6  UNL     1     -32.982   7.196   3.322  1.00 20.00    -0.015 A 
HETATM    7  C7  UNL     1     -34.866   4.934   5.406  1.00 20.00     0.014 C 
ENDROOT
BRANCH   6   8
HETATM    8  C10 UNL     1     -32.857   8.365   2.398  1.00 20.00    -0.010 C 
HETATM    9  C8  UNL     1     -31.612   9.212   2.717  1.00 20.00     0.010 C 
HETATM   10  C9  UNL     1     -32.808   7.923   0.925  1.00 20.00     0.010 C 
ENDBRANCH   6   8
TORSDOF 1
ENDMDL
MODEL 4
REMARK VINA RESULT:      -4.9      0.885      4.070
REMARK  1 active torsions:
REMARK  status: ('A' for Active; 'I' for Inactive)
REMARK    1  A    between atoms: C6_6  and  C10_10 
ROOT
HETATM    1  C1  UNL     1     -33.664   5.492   3.059  1.00 20.00    -0.025 A 
HETATM    2  C2  UNL     1     -32.732   6.154   2.354  1.00 20.00    -0.020 A 
HETATM    3  C3  UNL     1     -32.227   8.025   4.045  1.00 20.00     0.020 A 
HETATM    4  C4  UNL     1     -34.375   6.448   3.993  1.00 20.00     0.009 A 
HETATM    5  C5  UNL     1     -33.693   7.793   3.769  1.00 20.00     0.006 A 
HETATM    6  C6  UNL     1     -32.661   7.600   2.665  1.00 20.00    -0.015 A 
HETATM    7  C7  UNL     1     -34.314   6.006   5.446  1.00 20.00     0.014 C 
ENDROOT
BRANCH   6   8
HETATM    8  C10 UNL     1     -32.599   8.575   1.533  1.00 20.00    -0.010 C 
HETATM    9  C8  UNL     1     -32.593  10.030   2.034  1.00 20.00     0.010 C 
HETATM   10  C9  UNL     1     -31.367   8.337   0.644  1.00 20.00     0.010 C 
ENDBRANCH   6   8
TORSDOF 1
ENDMDL
MODEL 5
REMARK VINA RESULT:      -4.5     10.732     11.471
REMARK  1 active torsions:
REMARK  status: ('A' for Active; 'I' for Inactive)
REMARK    1  A    between atoms: C6_6  and  C10_10 
ROOT
HETATM    1  C1  UNL     1     -36.323  15.158  -4.278  1.00 20.00    -0.025 A 
HETATM    2  C2  UNL     1     -35.955  16.279  -3.638  1.00 20.00    -0.020 A 
HETATM    3  C3  UNL     1     -33.529  16.425  -4.482  1.00 20.00     0.020 A 
HETATM    4  C4  UNL     1     -35.111  14.281  -4.513  1.00 20.00     0.009 A 
HETATM    5  C5  UNL     1     -33.939  15.075  -3.947  1.00 20.00     0.006 A 
HETATM    6  C6  UNL     1     -34.507  16.349  -3.336  1.00 20.00    -0.015 A 
HETATM    7  C7  UNL     1     -34.915  13.928  -5.979  1.00 20.00     0.014 C 
ENDROOT
BRANCH   6   8
HETATM    8  C10 UNL     1     -34.079  16.765  -1.965  1.00 20.00    -0.010 C 
HETATM    9  C8  UNL     1     -33.163  18.001  -2.005  1.00 20.00     0.010 C 
HETATM   10  C9  UNL     1     -35.286  17.054  -1.056  1.00 20.00     0.010 C 
ENDBRANCH   6   8
TORSDOF 1
ENDMDL
MODEL 6
REMARK VINA RESULT:      -4.4      1.072      2.344
REMARK  1 active torsions:
REMARK  status: ('A' for Active; 'I' for Inactive)
REMARK    1  A    between atoms: C6_6  and  C10_10 
ROOT
HETATM    1  C1  UNL     1     -33.183   6.762   1.789  1.00 20.00    -0.025 A 
HETATM    2  C2  UNL     1     -34.071   6.183   2.613  1.00 20.00    -0.020 A 
HETATM    3  C3  UNL     1     -33.966   7.879   4.545  1.00 20.00     0.020 A 
HETATM    4  C4  UNL     1     -32.177   7.555   2.596  1.00 20.00     0.009 A 
HETATM    5  C5  UNL     1     -32.626   7.397   4.044  1.00 20.00     0.006 A 
HETATM    6  C6  UNL     1     -33.827   6.462   4.047  1.00 20.00    -0.015 A 
HETATM    7  C7  UNL     1     -32.101   9.013   2.171  1.00 20.00     0.014 C 
ENDROOT
BRANCH   6   8
HETATM    8  C10 UNL     1     -33.877   5.326   5.017  1.00 20.00    -0.010 C 
HETATM    9  C8  UNL     1     -34.877   5.592   6.156  1.00 20.00     0.010 C 
HETATM   10  C9  UNL     1     -34.236   4.000   4.324  1.00 20.00     0.010 C 
ENDBRANCH   6   8
TORSDOF 1
ENDMDL
MODEL 7
REMARK VINA RESULT:      -4.3     10.768     11.613
REMARK  1 active torsions:
REMARK  status: ('A' for Active; 'I' for Inactive)
REMARK    1  A    between atoms: C6_6  and  C10_10 
ROOT
HETATM    1  C1  UNL     1     -33.193  18.001  -1.594  1.00 20.00    -0.025 A 
HETATM    2  C2  UNL     1     -33.468  17.473  -2.798  1.00 20.00    -0.020 A 
HETATM    3  C3  UNL     1     -36.030  17.359  -2.590  1.00 20.00     0.020 A 
HETATM    4  C4  UNL     1     -34.270  17.611  -0.605  1.00 20.00     0.009 A 
HETATM    5  C5  UNL     1     -35.268  16.793  -1.416  1.00 20.00     0.006 A 
HETATM    6  C6  UNL     1     -34.710  16.667  -2.828  1.00 20.00    -0.015 A 
HETATM    7  C7  UNL     1     -34.918  18.813   0.065  1.00 20.00     0.014 C 
ENDROOT
BRANCH   6   8
HETATM    8  C10 UNL     1     -34.682  15.330  -3.495  1.00 20.00    -0.010 C 
HETATM    9  C8  UNL     1     -35.828  15.175  -4.510  1.00 20.00     0.010 C 
HETATM   10  C9  UNL     1     -33.339  15.075  -4.201  1.00 20.00     0.010 C 
ENDBRANCH   6   8
TORSDOF 1
ENDMDL
MODEL 8
REMARK VINA RESULT:      -4.0     10.796     12.152
REMARK  1 active torsions:
REMARK  status: ('A' for Active; 'I' for Inactive)
REMARK    1  A    between atoms: C6_6  and  C10_10 
ROOT
HETATM    1  C1  UNL     1     -33.647  17.102  -4.652  1.00 20.00    -0.025 A 
HETATM    2  C2  UNL     1     -34.219  16.529  -5.723  1.00 20.00    -0.020 A 
HETATM    3  C3  UNL     1     -35.769  14.882  -4.498  1.00 20.00     0.020 A 
HETATM    4  C4  UNL     1     -33.637  16.127  -3.494  1.00 20.00     0.009 A 
HETATM    5  C5  UNL     1     -34.335  14.881  -4.026  1.00 20.00     0.006 A 
HETATM    6  C6  UNL     1     -34.663  15.136  -5.491  1.00 20.00    -0.015 A 
HETATM    7  C7  UNL     1     -34.316  16.682  -2.251  1.00 20.00     0.014 C 
ENDROOT
BRANCH   6   8
HETATM    8  C10 UNL     1     -34.331  14.097  -6.514  1.00 20.00    -0.010 C 
HETATM    9  C8  UNL     1     -35.538  13.192  -6.820  1.00 20.00     0.010 C 
HETATM   10  C9  UNL     1     -33.823  14.729  -7.822  1.00 20.00     0.010 C 
ENDBRANCH   6   8
TORSDOF 1
ENDMDL
MODEL 9
REMARK VINA RESULT:      -4.0     10.785     11.738
REMARK  1 active torsions:
REMARK  status: ('A' for Active; 'I' for Inactive)
REMARK    1  A    between atoms: C6_6  and  C10_10 
ROOT
HETATM    1  C1  UNL     1     -33.225  15.272  -5.006  1.00 20.00    -0.025 A 
HETATM    2  C2  UNL     1     -33.523  15.396  -3.702  1.00 20.00    -0.020 A 
HETATM    3  C3  UNL     1     -36.051  15.818  -3.925  1.00 20.00     0.020 A 
HETATM    4  C4  UNL     1     -34.209  16.068  -5.835  1.00 20.00     0.009 A 
HETATM    5  C5  UNL     1     -35.181  16.664  -4.823  1.00 20.00     0.006 A 
HETATM    6  C6  UNL     1     -34.695  16.262  -3.437  1.00 20.00    -0.015 A 
HETATM    7  C7  UNL     1     -34.915  15.222  -6.884  1.00 20.00     0.014 C 
ENDROOT
BRANCH   6   8
HETATM    8  C10 UNL     1     -34.594  17.295  -2.361  1.00 20.00    -0.010 C 
HETATM    9  C8  UNL     1     -35.470  16.939  -1.146  1.00 20.00     0.010 C 
HETATM   10  C9  UNL     1     -33.140  17.497  -1.900  1.00 20.00     0.010 C 
ENDBRANCH   6   8
TORSDOF 1
ENDMDL
