MODEL 1
REMARK VINA RESULT:      -6.3      0.000      0.000
REMARK  1 active torsions:
REMARK  status: ('A' for Active; 'I' for Inactive)
REMARK    1  A    between atoms: C6_6  and  C10_10 
ROOT
HETATM    1  C1  UNL     1     -31.352   8.652   2.912  1.00 20.00    -0.025 A 
HETATM    2  C2  UNL     1     -31.814   7.898   3.922  1.00 20.00    -0.020 A 
HETATM    3  C3  UNL     1     -32.868   6.017   2.518  1.00 20.00     0.020 A 
HETATM    4  C4  UNL     1     -32.200   8.433   1.676  1.00 20.00     0.009 A 
HETATM    5  C5  UNL     1     -33.253   7.415   2.105  1.00 20.00     0.006 A 
HETATM    6  C6  UNL     1     -33.004   7.091   3.572  1.00 20.00    -0.015 A 
HETATM    7  C7  UNL     1     -32.836   9.735   1.205  1.00 20.00     0.014 C 
ENDROOT
BRANCH   6   8
HETATM    8  C10 UNL     1     -34.156   7.055   4.525  1.00 20.00    -0.010 C 
HETATM    9  C8  UNL     1     -34.883   5.700   4.489  1.00 20.00     0.010 C 
HETATM   10  C9  UNL     1     -33.710   7.356   5.967  1.00 20.00     0.010 C 
ENDBRANCH   6   8
TORSDOF 1
ENDMDL
MODEL 2
REMARK VINA RESULT:      -5.7      1.195      3.870
REMARK  1 active torsions:
REMARK  status: ('A' for Active; 'I' for Inactive)
REMARK    1  A    between atoms: C6_6  and  C10_10 
ROOT
HETATM    1  C1  UNL     1     -34.330   6.165   5.565  1.00 20.00    -0.025 A 
HETATM    2  C2  UNL     1     -33.785   7.235   4.965  1.00 20.00    -0.020 A 
HETATM    3  C3  UNL     1     -34.794   6.890   2.623  1.00 20.00     0.020 A 
HETATM    4  C4  UNL     1     -34.598   5.081   4.541  1.00 20.00     0.009 A 
HETATM    5  C5  UNL     1     -34.127   5.675   3.217  1.00 20.00     0.006 A 
HETATM    6  C6  UNL     1     -33.582   7.067   3.508  1.00 20.00    -0.015 A 
HETATM    7  C7  UNL     1     -33.844   3.802   4.884  1.00 20.00     0.014 C 
ENDROOT
BRANCH   6   8
HETATM    8  C10 UNL     1     -32.279   7.490   2.910  1.00 20.00    -0.010 C 
HETATM    9  C8  UNL     1     -32.484   8.377   1.670  1.00 20.00     0.010 C 
HETATM   10  C9  UNL     1     -31.399   8.234   3.930  1.00 20.00     0.010 C 
ENDBRANCH   6   8
TORSDOF 1
ENDMDL
MODEL 3
REMARK VINA RESULT:      -5.4      1.331      3.941
REMARK  1 active torsions:
REMARK  status: ('A' for Active; 'I' for Inactive)
REMARK    1  A    between atoms: C6_6  and  C10_10 
ROOT
HETATM    1  C1  UNL     1     -35.469   5.883   3.822  1.00 20.00    -0.025 A 
HETATM    2  C2  UNL     1     -34.732   6.635   2.989  1.00 20.00    -0.020 A 
HETATM    3  C3  UNL     1     -33.005   4.849   2.319  1.00 20.00     0.020 A 
HETATM    4  C4  UNL     1     -34.612   4.785   4.418  1.00 20.00     0.009 A 
HETATM    5  C5  UNL     1     -33.232   4.995   3.803  1.00 20.00     0.006 A 
HETATM    6  C6  UNL     1     -33.317   6.212   2.892  1.00 20.00    -0.015 A 
HETATM    7  C7  UNL     1     -34.571   4.882   5.938  1.00 20.00     0.014 C 
ENDROOT
BRANCH   6   8
HETATM    8  C10 UNL     1     -32.248   7.255   2.952  1.00 20.00    -0.010 C 
HETATM    9  C8  UNL     1     -32.342   8.236   1.771  1.00 20.00     0.010 C 
HETATM   10  C9  UNL     1     -32.295   8.042   4.274  1.00 20.00     0.010 C 
ENDBRANCH   6   8
TORSDOF 1
ENDMDL
MODEL 4
REMARK VINA RESULT:      -4.4     10.408     11.678
REMARK  1 active torsions:
REMARK  status: ('A' for Active; 'I' for Inactive)
REMARK    1  A    between atoms: C6_6  and  C10_10 
ROOT
HETATM    1  C1  UNL     1     -33.306  18.824  -2.991  1.00 20.00    -0.025 A 
HETATM    2  C2  UNL     1     -33.666  17.905  -3.902  1.00 20.00    -0.020 A 
HETATM    3  C3  UNL     1     -35.405  16.648  -2.483  1.00 20.00     0.020 A 
HETATM    4  C4  UNL     1     -33.519  18.274  -1.595  1.00 20.00     0.009 A 
HETATM    5  C5  UNL     1     -34.072  16.869  -1.813  1.00 20.00     0.006 A 
HETATM    6  C6  UNL     1     -34.144  16.633  -3.315  1.00 20.00    -0.015 A 
HETATM    7  C7  UNL     1     -32.215  18.249  -0.808  1.00 20.00     0.014 C 
ENDROOT
BRANCH   6   8
HETATM    8  C10 UNL     1     -33.644  15.345  -3.885  1.00 20.00    -0.010 C 
HETATM    9  C8  UNL     1     -34.786  14.337  -4.101  1.00 20.00     0.010 C 
HETATM   10  C9  UNL     1     -32.898  15.562  -5.213  1.00 20.00     0.010 C 
ENDBRANCH   6   8
TORSDOF 1
ENDMDL
MODEL 5
REMARK VINA RESULT:      -4.4      1.107      3.900
REMARK  1 active torsions:
REMARK  status: ('A' for Active; 'I' for Inactive)
REMARK    1  A    between atoms: C6_6  and  C10_10 
ROOT
HETATM    1  C1  UNL     1     -33.236   5.364   2.958  1.00 20.00    -0.025 A 
HETATM    2  C2  UNL     1     -32.431   6.165   2.243  1.00 20.00    -0.020 A 
HETATM    3  C3  UNL     1     -32.106   8.017   3.999  1.00 20.00     0.020 A 
HETATM    4  C4  UNL     1     -34.012   6.184   3.969  1.00 20.00     0.009 A 
HETATM    5  C5  UNL     1     -33.539   7.617   3.749  1.00 20.00     0.006 A 
HETATM    6  C6  UNL     1     -32.527   7.596   2.611  1.00 20.00    -0.015 A 
HETATM    7  C7  UNL     1     -35.514   6.047   3.753  1.00 20.00     0.014 C 
ENDROOT
BRANCH   6   8
HETATM    8  C10 UNL     1     -32.621   8.615   1.521  1.00 20.00    -0.010 C 
HETATM    9  C8  UNL     1     -32.629  10.048   2.081  1.00 20.00     0.010 C 
HETATM   10  C9  UNL     1     -31.472   8.470   0.507  1.00 20.00     0.010 C 
ENDBRANCH   6   8
TORSDOF 1
ENDMDL
MODEL 6
REMARK VINA RESULT:      -4.3      1.185      2.214
REMARK  1 active torsions:
REMARK  status: ('A' for Active; 'I' for Inactive)
REMARK    1  A    between atoms: C6_6  and  C10_10 
ROOT
HETATM    1  C1  UNL     1     -32.566   5.674   2.487  1.00 20.00    -0.025 A 
HETATM    2  C2  UNL     1     -33.405   5.077   3.348  1.00 20.00    -0.020 A 
HETATM    3  C3  UNL     1     -35.459   6.577   2.952  1.00 20.00     0.020 A 
HETATM    4  C4  UNL     1     -32.952   7.129   2.316  1.00 20.00     0.009 A 
HETATM    5  C5  UNL     1     -34.170   7.314   3.216  1.00 20.00     0.006 A 
HETATM    6  C6  UNL     1     -34.442   5.979   3.897  1.00 20.00    -0.015 A 
HETATM    7  C7  UNL     1     -31.810   8.053   2.718  1.00 20.00     0.014 C 
ENDROOT
BRANCH   6   8
HETATM    8  C10 UNL     1     -34.724   5.944   5.365  1.00 20.00    -0.010 C 
HETATM    9  C8  UNL     1     -34.457   4.552   5.962  1.00 20.00     0.010 C 
HETATM   10  C9  UNL     1     -33.896   6.993   6.128  1.00 20.00     0.010 C 
ENDBRANCH   6   8
TORSDOF 1
ENDMDL
MODEL 7
REMARK VINA RESULT:      -4.3     10.489     11.446
REMARK  1 active torsions:
REMARK  status: ('A' for Active; 'I' for Inactive)
REMARK    1  A    between atoms: C6_6  and  C10_10 
ROOT
HETATM    1  C1  UNL     1     -35.449  15.865  -5.865  1.00 20.00    -0.025 A 
HETATM    2  C2  UNL     1     -34.882  16.656  -4.940  1.00 20.00    -0.020 A 
HETATM    3  C3  UNL     1     -33.051  15.031  -4.146  1.00 20.00     0.020 A 
HETATM    4  C4  UNL     1     -35.236  14.410  -5.498  1.00 20.00     0.009 A 
HETATM    5  C5  UNL     1     -34.442  14.452  -4.197  1.00 20.00     0.006 A 
HETATM    6  C6  UNL     1     -34.235  15.916  -3.833  1.00 20.00    -0.015 A 
HETATM    7  C7  UNL     1     -36.566  13.687  -5.323  1.00 20.00     0.014 C 
ENDROOT
BRANCH   6   8
HETATM    8  C10 UNL     1     -34.474  16.368  -2.428  1.00 20.00    -0.010 C 
HETATM    9  C8  UNL     1     -33.379  17.336  -1.948  1.00 20.00     0.010 C 
HETATM   10  C9  UNL     1     -35.851  17.037  -2.273  1.00 20.00     0.010 C 
ENDBRANCH   6   8
TORSDOF 1
ENDMDL
MODEL 8
REMARK VINA RESULT:      -4.2     10.544     12.143
REMARK  1 active torsions:
REMARK  status: ('A' for Active; 'I' for Inactive)
REMARK    1  A    between atoms: C6_6  and  C10_10 
ROOT
HETATM    1  C1  UNL     1     -35.746  16.839  -3.951  1.00 20.00    -0.025 A 
HETATM    2  C2  UNL     1     -35.715  16.347  -5.200  1.00 20.00    -0.020 A 
HETATM    3  C3  UNL     1     -35.180  13.900  -4.613  1.00 20.00     0.020 A 
HETATM    4  C4  UNL     1     -34.858  16.006  -3.048  1.00 20.00     0.009 A 
HETATM    5  C5  UNL     1     -34.287  14.924  -3.959  1.00 20.00     0.006 A 
HETATM    6  C6  UNL     1     -34.835  15.168  -5.359  1.00 20.00    -0.015 A 
HETATM    7  C7  UNL     1     -33.757  16.854  -2.424  1.00 20.00     0.014 C 
ENDROOT
BRANCH   6   8
HETATM    8  C10 UNL     1     -33.911  15.112  -6.533  1.00 20.00    -0.010 C 
HETATM    9  C8  UNL     1     -34.317  14.008  -7.524  1.00 20.00     0.010 C 
HETATM   10  C9  UNL     1     -33.846  16.461  -7.270  1.00 20.00     0.010 C 
ENDBRANCH   6   8
TORSDOF 1
ENDMDL
MODEL 9
REMARK VINA RESULT:      -4.1     10.696     11.661
REMARK  1 active torsions:
REMARK  status: ('A' for Active; 'I' for Inactive)
REMARK    1  A    between atoms: C6_6  and  C10_10 
ROOT
HETATM    1  C1  UNL     1     -33.280  15.346  -5.099  1.00 20.00    -0.025 A 
HETATM    2  C2  UNL     1     -33.466  15.478  -3.776  1.00 20.00    -0.020 A 
HETATM    3  C3  UNL     1     -36.033  15.666  -3.788  1.00 20.00     0.020 A 
HETATM    4  C4  UNL     1     -34.413  16.017  -5.848  1.00 20.00     0.009 A 
HETATM    5  C5  UNL     1     -35.320  16.576  -4.756  1.00 20.00     0.006 A 
HETATM    6  C6  UNL     1     -34.684  16.238  -3.415  1.00 20.00    -0.015 A 
HETATM    7  C7  UNL     1     -33.892  17.117  -6.764  1.00 20.00     0.014 C 
ENDROOT
BRANCH   6   8
HETATM    8  C10 UNL     1     -34.589  17.289  -2.357  1.00 20.00    -0.010 C 
HETATM    9  C8  UNL     1     -35.468  16.952  -1.139  1.00 20.00     0.010 C 
HETATM   10  C9  UNL     1     -33.137  17.501  -1.895  1.00 20.00     0.010 C 
ENDBRANCH   6   8
TORSDOF 1
ENDMDL
