MODEL 1
REMARK VINA RESULT:      -6.2      0.000      0.000
REMARK  0 active torsions:
REMARK  status: ('A' for Active; 'I' for Inactive)
ROOT
HETATM    1  C1  UNL     1     -33.553   7.086   5.159  1.00 20.00    -0.058 C 
HETATM    2  C2  UNL     1     -34.332   5.917   4.752  1.00 20.00    -0.061 C 
HETATM    3  C3  UNL     1     -32.850   7.440   2.782  1.00 20.00    -0.085 C 
HETATM    4  C4  UNL     1     -33.836   7.803   6.259  1.00 20.00     0.020 C 
HETATM    5  C5  UNL     1     -34.639   4.914   5.590  1.00 20.00     0.019 C 
HETATM    6  C6  UNL     1     -32.639   8.464   1.943  1.00 20.00     0.014 C 
HETATM    7  C7  UNL     1     -32.421   7.469   4.230  1.00 20.00     0.071 C 
HETATM    8  C8  UNL     1     -34.739   5.894   3.296  1.00 20.00     0.042 C 
HETATM    9  C9  UNL     1     -33.558   6.177   2.361  1.00 20.00     0.038 C 
ENDROOT
TORSDOF 0
ENDMDL
MODEL 2
REMARK VINA RESULT:      -5.5      0.603      3.225
REMARK  0 active torsions:
REMARK  status: ('A' for Active; 'I' for Inactive)
ROOT
HETATM    1  C1  UNL     1     -32.856   7.690   4.251  1.00 20.00    -0.058 C 
HETATM    2  C2  UNL     1     -32.900   7.215   2.867  1.00 20.00    -0.061 C 
HETATM    3  C3  UNL     1     -34.417   5.852   4.926  1.00 20.00    -0.085 C 
HETATM    4  C4  UNL     1     -31.822   8.388   4.748  1.00 20.00     0.020 C 
HETATM    5  C5  UNL     1     -32.646   8.007   1.813  1.00 20.00     0.019 C 
HETATM    6  C6  UNL     1     -34.588   5.013   5.957  1.00 20.00     0.014 C 
HETATM    7  C7  UNL     1     -34.042   7.304   5.108  1.00 20.00     0.071 C 
HETATM    8  C8  UNL     1     -33.294   5.765   2.700  1.00 20.00     0.042 C 
HETATM    9  C9  UNL     1     -34.560   5.415   3.490  1.00 20.00     0.038 C 
ENDROOT
TORSDOF 0
ENDMDL
MODEL 3
REMARK VINA RESULT:      -5.3      1.094      2.549
REMARK  0 active torsions:
REMARK  status: ('A' for Active; 'I' for Inactive)
ROOT
HETATM    1  C1  UNL     1     -33.473   5.489   3.185  1.00 20.00    -0.058 C 
HETATM    2  C2  UNL     1     -34.191   5.501   4.460  1.00 20.00    -0.061 C 
HETATM    3  C3  UNL     1     -32.558   7.766   3.685  1.00 20.00    -0.085 C 
HETATM    4  C4  UNL     1     -33.111   4.355   2.564  1.00 20.00     0.020 C 
HETATM    5  C5  UNL     1     -35.293   4.769   4.686  1.00 20.00     0.019 C 
HETATM    6  C6  UNL     1     -31.410   8.440   3.524  1.00 20.00     0.014 C 
HETATM    7  C7  UNL     1     -33.123   6.851   2.624  1.00 20.00     0.071 C 
HETATM    8  C8  UNL     1     -33.623   6.434   5.506  1.00 20.00     0.042 C 
HETATM    9  C9  UNL     1     -33.374   7.841   4.951  1.00 20.00     0.038 C 
ENDROOT
TORSDOF 0
ENDMDL
MODEL 4
REMARK VINA RESULT:      -4.8      0.675      2.557
REMARK  0 active torsions:
REMARK  status: ('A' for Active; 'I' for Inactive)
ROOT
HETATM    1  C1  UNL     1     -34.353   5.864   5.151  1.00 20.00    -0.058 C 
HETATM    2  C2  UNL     1     -33.650   7.133   5.341  1.00 20.00    -0.061 C 
HETATM    3  C3  UNL     1     -33.591   5.805   2.766  1.00 20.00    -0.085 C 
HETATM    4  C4  UNL     1     -34.617   5.019   6.161  1.00 20.00     0.020 C 
HETATM    5  C5  UNL     1     -33.993   8.025   6.284  1.00 20.00     0.019 C 
HETATM    6  C6  UNL     1     -33.166   4.899   1.874  1.00 20.00     0.014 C 
HETATM    7  C7  UNL     1     -34.730   5.537   3.721  1.00 20.00     0.071 C 
HETATM    8  C8  UNL     1     -32.524   7.394   4.366  1.00 20.00     0.042 C 
HETATM    9  C9  UNL     1     -32.952   7.163   2.913  1.00 20.00     0.038 C 
ENDROOT
TORSDOF 0
ENDMDL
MODEL 5
REMARK VINA RESULT:      -4.7      1.254      2.867
REMARK  0 active torsions:
REMARK  status: ('A' for Active; 'I' for Inactive)
ROOT
HETATM    1  C1  UNL     1     -33.304   6.699   2.998  1.00 20.00    -0.058 C 
HETATM    2  C2  UNL     1     -32.941   7.374   4.244  1.00 20.00    -0.061 C 
HETATM    3  C3  UNL     1     -32.146   8.495   1.693  1.00 20.00    -0.085 C 
HETATM    4  C4  UNL     1     -33.547   5.380   2.928  1.00 20.00     0.020 C 
HETATM    5  C5  UNL     1     -33.629   7.220   5.387  1.00 20.00     0.019 C 
HETATM    6  C6  UNL     1     -31.384   8.601   0.595  1.00 20.00     0.014 C 
HETATM    7  C7  UNL     1     -33.347   7.582   1.769  1.00 20.00     0.071 C 
HETATM    8  C8  UNL     1     -31.748   8.298   4.148  1.00 20.00     0.042 C 
HETATM    9  C9  UNL     1     -31.857   9.260   2.960  1.00 20.00     0.038 C 
ENDROOT
TORSDOF 0
ENDMDL
MODEL 6
REMARK VINA RESULT:      -4.6      1.152      3.223
REMARK  0 active torsions:
REMARK  status: ('A' for Active; 'I' for Inactive)
ROOT
HETATM    1  C1  UNL     1     -32.994   6.635   3.137  1.00 20.00    -0.058 C 
HETATM    2  C2  UNL     1     -33.285   5.210   2.971  1.00 20.00    -0.061 C 
HETATM    3  C3  UNL     1     -34.242   6.632   5.308  1.00 20.00    -0.085 C 
HETATM    4  C4  UNL     1     -31.936   7.233   2.566  1.00 20.00     0.020 C 
HETATM    5  C5  UNL     1     -33.312   4.604   1.774  1.00 20.00     0.019 C 
HETATM    6  C6  UNL     1     -34.135   7.185   6.524  1.00 20.00     0.014 C 
HETATM    7  C7  UNL     1     -33.948   7.392   4.036  1.00 20.00     0.071 C 
HETATM    8  C8  UNL     1     -33.595   4.467   4.251  1.00 20.00     0.042 C 
HETATM    9  C9  UNL     1     -34.642   5.193   5.102  1.00 20.00     0.038 C 
ENDROOT
TORSDOF 0
ENDMDL
MODEL 7
REMARK VINA RESULT:      -4.5      0.926      3.645
REMARK  0 active torsions:
REMARK  status: ('A' for Active; 'I' for Inactive)
ROOT
HETATM    1  C1  UNL     1     -32.799   7.373   2.742  1.00 20.00    -0.058 C 
HETATM    2  C2  UNL     1     -32.270   7.973   3.967  1.00 20.00    -0.061 C 
HETATM    3  C3  UNL     1     -34.312   5.920   4.111  1.00 20.00    -0.085 C 
HETATM    4  C4  UNL     1     -32.786   8.005   1.557  1.00 20.00     0.020 C 
HETATM    5  C5  UNL     1     -31.056   8.541   4.039  1.00 20.00     0.019 C 
HETATM    6  C6  UNL     1     -35.563   5.442   4.051  1.00 20.00     0.014 C 
HETATM    7  C7  UNL     1     -33.409   5.996   2.902  1.00 20.00     0.071 C 
HETATM    8  C8  UNL     1     -33.179   7.873   5.172  1.00 20.00     0.042 C 
HETATM    9  C9  UNL     1     -33.703   6.449   5.385  1.00 20.00     0.038 C 
ENDROOT
TORSDOF 0
ENDMDL
MODEL 8
REMARK VINA RESULT:      -4.2     11.184     12.707
REMARK  0 active torsions:
REMARK  status: ('A' for Active; 'I' for Inactive)
ROOT
HETATM    1  C1  UNL     1     -35.240  14.068  -5.319  1.00 20.00    -0.058 C 
HETATM    2  C2  UNL     1     -34.512  14.453  -6.529  1.00 20.00    -0.061 C 
HETATM    3  C3  UNL     1     -33.775  15.579  -3.962  1.00 20.00    -0.085 C 
HETATM    4  C4  UNL     1     -36.506  13.622  -5.342  1.00 20.00     0.020 C 
HETATM    5  C5  UNL     1     -34.449  13.678  -7.622  1.00 20.00     0.019 C 
HETATM    6  C6  UNL     1     -33.892  16.417  -2.922  1.00 20.00     0.014 C 
HETATM    7  C7  UNL     1     -34.482  14.246  -4.020  1.00 20.00     0.071 C 
HETATM    8  C8  UNL     1     -33.795  15.782  -6.448  1.00 20.00     0.042 C 
HETATM    9  C9  UNL     1     -32.946  15.905  -5.179  1.00 20.00     0.038 C 
ENDROOT
TORSDOF 0
ENDMDL
MODEL 9
REMARK VINA RESULT:      -4.2      1.295      2.640
REMARK  0 active torsions:
REMARK  status: ('A' for Active; 'I' for Inactive)
ROOT
HETATM    1  C1  UNL     1     -33.179   7.077   3.650  1.00 20.00    -0.058 C 
HETATM    2  C2  UNL     1     -33.955   6.748   4.846  1.00 20.00    -0.061 C 
HETATM    3  C3  UNL     1     -33.302   4.686   2.917  1.00 20.00    -0.085 C 
HETATM    4  C4  UNL     1     -33.151   8.310   3.117  1.00 20.00     0.020 C 
HETATM    5  C5  UNL     1     -33.899   7.471   5.976  1.00 20.00     0.019 C 
HETATM    6  C6  UNL     1     -33.450   3.995   1.778  1.00 20.00     0.014 C 
HETATM    7  C7  UNL     1     -32.437   5.919   3.018  1.00 20.00     0.071 C 
HETATM    8  C8  UNL     1     -34.803   5.501   4.736  1.00 20.00     0.042 C 
HETATM    9  C9  UNL     1     -34.009   4.307   4.195  1.00 20.00     0.038 C 
ENDROOT
TORSDOF 0
ENDMDL
