MODEL 1
REMARK VINA RESULT:      -4.1      0.000      0.000
REMARK  3 active torsions:
REMARK  status: ('A' for Active; 'I' for Inactive)
REMARK    1  A    between atoms: C1_1  and  C7_7 
REMARK    2  A    between atoms: C1_1  and  C8_8 
REMARK    3  A    between atoms: C8_8  and  O10_10 
ROOT
HETATM    1  C1  UNL     1     -33.571   7.047   4.508  1.00 20.00     0.163 C 
HETATM    2  O9  UNL     1     -33.663   7.760   5.511  1.00 20.00    -0.294 OA
ENDROOT
BRANCH   1   3
HETATM    3  C7  UNL     1     -34.349   5.737   4.414  1.00 20.00     0.050 C 
HETATM    4  C2  UNL     1     -34.581   5.177   5.813  1.00 20.00     0.017 C 
HETATM    5  C3  UNL     1     -35.667   5.974   3.685  1.00 20.00     0.017 C 
ENDBRANCH   1   3
BRANCH   1   6
HETATM    6  C8  UNL     1     -32.678   7.450   3.327  1.00 20.00     0.113 C 
HETATM    7  C4  UNL     1     -32.379   6.250   2.436  1.00 20.00     0.054 C 
HETATM    8  C5  UNL     1     -31.400   8.137   3.800  1.00 20.00     0.054 C 
BRANCH   6   9
HETATM    9  O10 UNL     1     -33.414   8.382   2.536  1.00 20.00    -0.378 OA
HETATM   10  C6  UNL     1     -32.575   9.045   1.604  1.00 20.00     0.203 C 
ENDBRANCH   6   9
ENDBRANCH   1   6
TORSDOF 3
ENDMDL
MODEL 2
REMARK VINA RESULT:      -4.0      1.488      3.962
REMARK  3 active torsions:
REMARK  status: ('A' for Active; 'I' for Inactive)
REMARK    1  A    between atoms: C1_1  and  C7_7 
REMARK    2  A    between atoms: C1_1  and  C8_8 
REMARK    3  A    between atoms: C8_8  and  O10_10 
ROOT
HETATM    1  C1  UNL     1     -33.104   6.518   3.102  1.00 20.00     0.163 C 
HETATM    2  O9  UNL     1     -32.573   5.629   2.432  1.00 20.00    -0.294 OA
ENDROOT
BRANCH   1   3
HETATM    3  C7  UNL     1     -32.672   7.974   2.941  1.00 20.00     0.050 C 
HETATM    4  C2  UNL     1     -31.326   8.188   3.625  1.00 20.00     0.017 C 
HETATM    5  C3  UNL     1     -32.603   8.328   1.459  1.00 20.00     0.017 C 
ENDBRANCH   1   3
BRANCH   1   6
HETATM    6  C8  UNL     1     -34.211   6.196   4.115  1.00 20.00     0.113 C 
HETATM    7  C4  UNL     1     -35.590   6.364   3.486  1.00 20.00     0.054 C 
HETATM    8  C5  UNL     1     -34.064   7.024   5.388  1.00 20.00     0.054 C 
BRANCH   6   9
HETATM    9  O10 UNL     1     -34.079   4.819   4.464  1.00 20.00    -0.378 OA
HETATM   10  C6  UNL     1     -34.537   4.574   5.784  1.00 20.00     0.203 C 
ENDBRANCH   6   9
ENDBRANCH   1   6
TORSDOF 3
ENDMDL
MODEL 3
REMARK VINA RESULT:      -3.9      1.660      2.351
REMARK  3 active torsions:
REMARK  status: ('A' for Active; 'I' for Inactive)
REMARK    1  A    between atoms: C1_1  and  C7_7 
REMARK    2  A    between atoms: C1_1  and  C8_8 
REMARK    3  A    between atoms: C8_8  and  O10_10 
ROOT
HETATM    1  C1  UNL     1     -34.474   5.994   3.916  1.00 20.00     0.163 C 
HETATM    2  O9  UNL     1     -35.692   6.065   3.730  1.00 20.00    -0.294 OA
ENDROOT
BRANCH   1   3
HETATM    3  C7  UNL     1     -33.909   5.923   5.333  1.00 20.00     0.050 C 
HETATM    4  C2  UNL     1     -33.919   7.314   5.958  1.00 20.00     0.017 C 
HETATM    5  C3  UNL     1     -34.724   4.936   6.162  1.00 20.00     0.017 C 
ENDBRANCH   1   3
BRANCH   1   6
HETATM    6  C8  UNL     1     -33.491   5.973   2.739  1.00 20.00     0.113 C 
HETATM    7  C4  UNL     1     -34.155   6.489   1.466  1.00 20.00     0.054 C 
HETATM    8  C5  UNL     1     -32.884   4.587   2.540  1.00 20.00     0.054 C 
BRANCH   6   9
HETATM    9  O10 UNL     1     -32.434   6.880   3.052  1.00 20.00    -0.378 OA
HETATM   10  C6  UNL     1     -32.540   8.077   2.298  1.00 20.00     0.203 C 
ENDBRANCH   6   9
ENDBRANCH   1   6
TORSDOF 3
ENDMDL
MODEL 4
REMARK VINA RESULT:      -3.9      1.784      2.767
REMARK  3 active torsions:
REMARK  status: ('A' for Active; 'I' for Inactive)
REMARK    1  A    between atoms: C1_1  and  C7_7 
REMARK    2  A    between atoms: C1_1  and  C8_8 
REMARK    3  A    between atoms: C8_8  and  O10_10 
ROOT
HETATM    1  C1  UNL     1     -32.206   8.132   2.743  1.00 20.00     0.163 C 
HETATM    2  O9  UNL     1     -31.271   8.200   3.545  1.00 20.00    -0.294 OA
ENDROOT
BRANCH   1   3
HETATM    3  C7  UNL     1     -33.377   7.185   2.997  1.00 20.00     0.050 C 
HETATM    4  C2  UNL     1     -32.977   5.762   2.622  1.00 20.00     0.017 C 
HETATM    5  C3  UNL     1     -33.804   7.276   4.458  1.00 20.00     0.017 C 
ENDBRANCH   1   3
BRANCH   1   6
HETATM    6  C8  UNL     1     -32.225   8.989   1.472  1.00 20.00     0.113 C 
HETATM    7  C4  UNL     1     -30.978   8.743   0.629  1.00 20.00     0.054 C 
HETATM    8  C5  UNL     1     -32.405  10.470   1.797  1.00 20.00     0.054 C 
BRANCH   6   9
HETATM    9  O10 UNL     1     -33.343   8.568   0.691  1.00 20.00    -0.378 OA
HETATM   10  C6  UNL     1     -33.398   9.257  -0.548  1.00 20.00     0.203 C 
ENDBRANCH   6   9
ENDBRANCH   1   6
TORSDOF 3
ENDMDL
MODEL 5
REMARK VINA RESULT:      -3.9     11.522     12.600
REMARK  3 active torsions:
REMARK  status: ('A' for Active; 'I' for Inactive)
REMARK    1  A    between atoms: C1_1  and  C7_7 
REMARK    2  A    between atoms: C1_1  and  C8_8 
REMARK    3  A    between atoms: C8_8  and  O10_10 
ROOT
HETATM    1  C1  UNL     1     -35.865  13.930  -5.421  1.00 20.00     0.163 C 
HETATM    2  O9  UNL     1     -35.952  12.724  -5.175  1.00 20.00    -0.294 OA
ENDROOT
BRANCH   1   3
HETATM    3  C7  UNL     1     -34.588  14.507  -6.027  1.00 20.00     0.050 C 
HETATM    4  C2  UNL     1     -33.461  14.449  -5.000  1.00 20.00     0.017 C 
HETATM    5  C3  UNL     1     -34.226  13.736  -7.292  1.00 20.00     0.017 C 
ENDBRANCH   1   3
BRANCH   1   6
HETATM    6  C8  UNL     1     -37.028  14.886  -5.127  1.00 20.00     0.113 C 
HETATM    7  C4  UNL     1     -37.335  15.759  -6.340  1.00 20.00     0.054 C 
HETATM    8  C5  UNL     1     -36.764  15.724  -3.879  1.00 20.00     0.054 C 
BRANCH   6   9
HETATM    9  O10 UNL     1     -38.186  14.087  -4.888  1.00 20.00    -0.378 OA
HETATM   10  C6  UNL     1     -39.374  14.780  -5.237  1.00 20.00     0.203 C 
ENDBRANCH   6   9
ENDBRANCH   1   6
TORSDOF 3
ENDMDL
MODEL 6
REMARK VINA RESULT:      -3.8     11.271     12.255
REMARK  3 active torsions:
REMARK  status: ('A' for Active; 'I' for Inactive)
REMARK    1  A    between atoms: C1_1  and  C7_7 
REMARK    2  A    between atoms: C1_1  and  C8_8 
REMARK    3  A    between atoms: C8_8  and  O10_10 
ROOT
HETATM    1  C1  UNL     1     -34.993  14.469  -4.687  1.00 20.00     0.163 C 
HETATM    2  O9  UNL     1     -34.461  13.545  -4.065  1.00 20.00    -0.294 OA
ENDROOT
BRANCH   1   3
HETATM    3  C7  UNL     1     -34.674  15.921  -4.340  1.00 20.00     0.050 C 
HETATM    4  C2  UNL     1     -34.829  16.136  -2.838  1.00 20.00     0.017 C 
HETATM    5  C3  UNL     1     -33.263  16.263  -4.807  1.00 20.00     0.017 C 
ENDBRANCH   1   3
BRANCH   1   6
HETATM    6  C8  UNL     1     -35.987  14.192  -5.822  1.00 20.00     0.113 C 
HETATM    7  C4  UNL     1     -35.414  13.186  -6.814  1.00 20.00     0.054 C 
HETATM    8  C5  UNL     1     -36.422  15.482  -6.512  1.00 20.00     0.054 C 
BRANCH   6   9
HETATM    9  O10 UNL     1     -37.141  13.589  -5.240  1.00 20.00    -0.378 OA
HETATM   10  C6  UNL     1     -38.166  14.545  -5.016  1.00 20.00     0.203 C 
ENDBRANCH   6   9
ENDBRANCH   1   6
TORSDOF 3
ENDMDL
MODEL 7
REMARK VINA RESULT:      -3.8      1.502      1.989
REMARK  3 active torsions:
REMARK  status: ('A' for Active; 'I' for Inactive)
REMARK    1  A    between atoms: C1_1  and  C7_7 
REMARK    2  A    between atoms: C1_1  and  C8_8 
REMARK    3  A    between atoms: C8_8  and  O10_10 
ROOT
HETATM    1  C1  UNL     1     -33.014   6.870   2.991  1.00 20.00     0.163 C 
HETATM    2  O9  UNL     1     -32.687   5.740   2.619  1.00 20.00    -0.294 OA
ENDROOT
BRANCH   1   3
HETATM    3  C7  UNL     1     -34.185   7.060   3.953  1.00 20.00     0.050 C 
HETATM    4  C2  UNL     1     -35.148   5.885   3.827  1.00 20.00     0.017 C 
HETATM    5  C3  UNL     1     -33.661   7.199   5.379  1.00 20.00     0.017 C 
ENDBRANCH   1   3
BRANCH   1   6
HETATM    6  C8  UNL     1     -32.261   8.115   2.505  1.00 20.00     0.113 C 
HETATM    7  C4  UNL     1     -31.669   7.886   1.118  1.00 20.00     0.054 C 
HETATM    8  C5  UNL     1     -31.199   8.554   3.509  1.00 20.00     0.054 C 
BRANCH   6   9
HETATM    9  O10 UNL     1     -33.216   9.168   2.381  1.00 20.00    -0.378 OA
HETATM   10  C6  UNL     1     -32.879  10.048   1.320  1.00 20.00     0.203 C 
ENDBRANCH   6   9
ENDBRANCH   1   6
TORSDOF 3
ENDMDL
MODEL 8
REMARK VINA RESULT:      -3.8     11.015     11.891
REMARK  3 active torsions:
REMARK  status: ('A' for Active; 'I' for Inactive)
REMARK    1  A    between atoms: C1_1  and  C7_7 
REMARK    2  A    between atoms: C1_1  and  C8_8 
REMARK    3  A    between atoms: C8_8  and  O10_10 
ROOT
HETATM    1  C1  UNL     1     -34.909  15.768  -3.613  1.00 20.00     0.163 C 
HETATM    2  O9  UNL     1     -36.124  15.908  -3.453  1.00 20.00    -0.294 OA
ENDROOT
BRANCH   1   3
HETATM    3  C7  UNL     1     -33.920  16.618  -2.820  1.00 20.00     0.050 C 
HETATM    4  C2  UNL     1     -33.582  17.880  -3.608  1.00 20.00     0.017 C 
HETATM    5  C3  UNL     1     -34.512  16.958  -1.456  1.00 20.00     0.017 C 
ENDBRANCH   1   3
BRANCH   1   6
HETATM    6  C8  UNL     1     -34.353  14.741  -4.608  1.00 20.00     0.113 C 
HETATM    7  C4  UNL     1     -32.909  14.383  -4.271  1.00 20.00     0.054 C 
HETATM    8  C5  UNL     1     -34.496  15.222  -6.049  1.00 20.00     0.054 C 
BRANCH   6   9
HETATM    9  O10 UNL     1     -35.121  13.547  -4.461  1.00 20.00    -0.378 OA
HETATM   10  C6  UNL     1     -35.908  13.294  -5.614  1.00 20.00     0.203 C 
ENDBRANCH   6   9
ENDBRANCH   1   6
TORSDOF 3
ENDMDL
MODEL 9
REMARK VINA RESULT:      -3.8      1.816      4.024
REMARK  3 active torsions:
REMARK  status: ('A' for Active; 'I' for Inactive)
REMARK    1  A    between atoms: C1_1  and  C7_7 
REMARK    2  A    between atoms: C1_1  and  C8_8 
REMARK    3  A    between atoms: C8_8  and  O10_10 
ROOT
HETATM    1  C1  UNL     1     -32.272   8.134   2.719  1.00 20.00     0.163 C 
HETATM    2  O9  UNL     1     -31.361   8.544   3.443  1.00 20.00    -0.294 OA
ENDROOT
BRANCH   1   3
HETATM    3  C7  UNL     1     -32.520   8.767   1.352  1.00 20.00     0.050 C 
HETATM    4  C2  UNL     1     -32.840  10.248   1.524  1.00 20.00     0.017 C 
HETATM    5  C3  UNL     1     -31.298   8.562   0.462  1.00 20.00     0.017 C 
ENDBRANCH   1   3
BRANCH   1   6
HETATM    6  C8  UNL     1     -33.182   6.981   3.164  1.00 20.00     0.113 C 
HETATM    7  C4  UNL     1     -34.356   6.814   2.205  1.00 20.00     0.054 C 
HETATM    8  C5  UNL     1     -33.648   7.160   4.606  1.00 20.00     0.054 C 
BRANCH   6   9
HETATM    9  O10 UNL     1     -32.413   5.781   3.091  1.00 20.00    -0.378 OA
HETATM   10  C6  UNL     1     -33.225   4.667   2.756  1.00 20.00     0.203 C 
ENDBRANCH   6   9
ENDBRANCH   1   6
TORSDOF 3
ENDMDL
