MODEL 1
REMARK VINA RESULT:      -6.8      0.000      0.000
REMARK  2 active torsions:
REMARK  status: ('A' for Active; 'I' for Inactive)
REMARK    1  A    between atoms: C3_3  and  C11_11 
REMARK    2  A    between atoms: C9_9  and  C11_11 
ROOT
HETATM    1  C1  UNL     1     -34.045   6.792   5.228  1.00 20.00     0.127 C 
HETATM    2  C4  UNL     1     -34.698   5.452   5.477  1.00 20.00     0.078 C 
HETATM    3  C5  UNL     1     -34.332   7.437   3.892  1.00 20.00     0.083 C 
HETATM    4  C6  UNL     1     -34.004   4.324   4.730  1.00 20.00     0.007 C 
HETATM    5  C7  UNL     1     -33.872   4.541   3.219  1.00 20.00     0.001 C 
HETATM    6  C8  UNL     1     -32.822   5.594   2.855  1.00 20.00     0.005 C 
HETATM    7  C9  UNL     1     -33.325   7.050   2.807  1.00 20.00    -0.004 C 
HETATM    8  O12 UNL     1     -33.290   7.308   6.050  1.00 20.00    -0.298 OA
ENDROOT
BRANCH   7   9
HETATM    9  C11 UNL     1     -32.126   8.006   2.810  1.00 20.00     0.037 C 
BRANCH   9  10
HETATM   10  C3  UNL     1     -32.067   8.851   1.566  1.00 20.00    -0.093 C 
HETATM   11  C2  UNL     1     -31.328   8.483   0.507  1.00 20.00     0.014 C 
HETATM   12  C10 UNL     1     -32.830  10.144   1.577  1.00 20.00     0.042 C 
ENDBRANCH   9  10
ENDBRANCH   7   9
TORSDOF 2
ENDMDL
MODEL 2
REMARK VINA RESULT:      -5.8      1.487      2.212
REMARK  2 active torsions:
REMARK  status: ('A' for Active; 'I' for Inactive)
REMARK    1  A    between atoms: C3_3  and  C11_11 
REMARK    2  A    between atoms: C9_9  and  C11_11 
ROOT
HETATM    1  C1  UNL     1     -34.664   5.765   3.849  1.00 20.00     0.127 C 
HETATM    2  C4  UNL     1     -34.584   5.531   5.340  1.00 20.00     0.078 C 
HETATM    3  C5  UNL     1     -33.346   5.879   3.119  1.00 20.00     0.083 C 
HETATM    4  C6  UNL     1     -34.218   6.793   6.104  1.00 20.00     0.007 C 
HETATM    5  C7  UNL     1     -32.927   7.473   5.637  1.00 20.00     0.001 C 
HETATM    6  C8  UNL     1     -33.079   8.184   4.289  1.00 20.00     0.005 C 
HETATM    7  C9  UNL     1     -32.822   7.315   3.043  1.00 20.00    -0.004 C 
HETATM    8  O12 UNL     1     -35.741   5.896   3.269  1.00 20.00    -0.298 OA
ENDROOT
BRANCH   7   9
HETATM    9  C11 UNL     1     -33.367   8.028   1.801  1.00 20.00     0.037 C 
BRANCH   9  10
HETATM   10  C3  UNL     1     -32.394   9.034   1.246  1.00 20.00    -0.093 C 
HETATM   11  C2  UNL     1     -31.224   8.651   0.712  1.00 20.00     0.014 C 
HETATM   12  C10 UNL     1     -32.767  10.484   1.357  1.00 20.00     0.042 C 
ENDBRANCH   9  10
ENDBRANCH   7   9
TORSDOF 2
ENDMDL
MODEL 3
REMARK VINA RESULT:      -5.2     11.237     12.468
REMARK  2 active torsions:
REMARK  status: ('A' for Active; 'I' for Inactive)
REMARK    1  A    between atoms: C3_3  and  C11_11 
REMARK    2  A    between atoms: C9_9  and  C11_11 
ROOT
HETATM    1  C1  UNL     1     -35.720  13.738  -5.933  1.00 20.00     0.127 C 
HETATM    2  C4  UNL     1     -35.540  13.700  -7.434  1.00 20.00     0.078 C 
HETATM    3  C5  UNL     1     -35.950  15.100  -5.322  1.00 20.00     0.083 C 
HETATM    4  C6  UNL     1     -34.161  14.177  -7.861  1.00 20.00     0.007 C 
HETATM    5  C7  UNL     1     -33.775  15.568  -7.348  1.00 20.00     0.001 C 
HETATM    6  C8  UNL     1     -33.453  15.585  -5.851  1.00 20.00     0.005 C 
HETATM    7  C9  UNL     1     -34.655  15.803  -4.912  1.00 20.00    -0.004 C 
HETATM    8  O12 UNL     1     -35.643  12.722  -5.245  1.00 20.00    -0.298 OA
ENDROOT
BRANCH   7   9
HETATM    9  C11 UNL     1     -34.260  15.425  -3.480  1.00 20.00     0.037 C 
BRANCH   9  10
HETATM   10  C3  UNL     1     -34.461  16.561  -2.513  1.00 20.00    -0.093 C 
HETATM   11  C2  UNL     1     -35.668  16.823  -1.985  1.00 20.00     0.014 C 
HETATM   12  C10 UNL     1     -33.267  17.416  -2.199  1.00 20.00     0.042 C 
ENDBRANCH   9  10
ENDBRANCH   7   9
TORSDOF 2
ENDMDL
MODEL 4
REMARK VINA RESULT:      -5.0     11.494     12.311
REMARK  2 active torsions:
REMARK  status: ('A' for Active; 'I' for Inactive)
REMARK    1  A    between atoms: C3_3  and  C11_11 
REMARK    2  A    between atoms: C9_9  and  C11_11 
ROOT
HETATM    1  C1  UNL     1     -33.647  15.271  -6.280  1.00 20.00     0.127 C 
HETATM    2  C4  UNL     1     -34.183  14.025  -6.947  1.00 20.00     0.078 C 
HETATM    3  C5  UNL     1     -33.231  15.128  -4.834  1.00 20.00     0.083 C 
HETATM    4  C6  UNL     1     -35.608  13.709  -6.519  1.00 20.00     0.007 C 
HETATM    5  C7  UNL     1     -35.812  13.591  -5.005  1.00 20.00     0.001 C 
HETATM    6  C8  UNL     1     -35.765  14.942  -4.288  1.00 20.00     0.005 C 
HETATM    7  C9  UNL     1     -34.365  15.417  -3.850  1.00 20.00    -0.004 C 
HETATM    8  O12 UNL     1     -33.591  16.349  -6.869  1.00 20.00    -0.298 OA
ENDROOT
BRANCH   7   9
HETATM    9  C11 UNL     1     -34.417  16.909  -3.502  1.00 20.00     0.037 C 
BRANCH   9  10
HETATM   10  C3  UNL     1     -34.285  17.156  -2.022  1.00 20.00    -0.093 C 
HETATM   11  C2  UNL     1     -35.299  16.905  -1.180  1.00 20.00     0.014 C 
HETATM   12  C10 UNL     1     -32.988  17.736  -1.536  1.00 20.00     0.042 C 
ENDBRANCH   9  10
ENDBRANCH   7   9
TORSDOF 2
ENDMDL
MODEL 5
REMARK VINA RESULT:      -4.6     10.960     12.165
REMARK  2 active torsions:
REMARK  status: ('A' for Active; 'I' for Inactive)
REMARK    1  A    between atoms: C3_3  and  C11_11 
REMARK    2  A    between atoms: C9_9  and  C11_11 
ROOT
HETATM    1  C1  UNL     1     -32.661  18.699  -0.823  1.00 20.00     0.127 C 
HETATM    2  C4  UNL     1     -33.308  19.263   0.422  1.00 20.00     0.078 C 
HETATM    3  C5  UNL     1     -33.459  18.812  -2.100  1.00 20.00     0.083 C 
HETATM    4  C6  UNL     1     -34.399  18.355   0.967  1.00 20.00     0.007 C 
HETATM    5  C7  UNL     1     -35.493  17.990  -0.041  1.00 20.00     0.001 C 
HETATM    6  C8  UNL     1     -35.020  16.991  -1.101  1.00 20.00     0.005 C 
HETATM    7  C9  UNL     1     -34.366  17.607  -2.353  1.00 20.00    -0.004 C 
HETATM    8  O12 UNL     1     -31.565  18.143  -0.788  1.00 20.00    -0.298 OA
ENDROOT
BRANCH   7   9
HETATM    9  C11 UNL     1     -33.618  16.516  -3.128  1.00 20.00     0.037 C 
BRANCH   9  10
HETATM   10  C3  UNL     1     -34.531  15.724  -4.025  1.00 20.00    -0.093 C 
HETATM   11  C2  UNL     1     -34.426  14.389  -4.125  1.00 20.00     0.014 C 
HETATM   12  C10 UNL     1     -35.532  16.494  -4.838  1.00 20.00     0.042 C 
ENDBRANCH   9  10
ENDBRANCH   7   9
TORSDOF 2
ENDMDL
MODEL 6
REMARK VINA RESULT:      -4.6     11.168     11.982
REMARK  2 active torsions:
REMARK  status: ('A' for Active; 'I' for Inactive)
REMARK    1  A    between atoms: C3_3  and  C11_11 
REMARK    2  A    between atoms: C9_9  and  C11_11 
ROOT
HETATM    1  C1  UNL     1     -37.146  15.246  -4.885  1.00 20.00     0.127 C 
HETATM    2  C4  UNL     1     -36.796  14.459  -6.127  1.00 20.00     0.078 C 
HETATM    3  C5  UNL     1     -36.283  16.452  -4.594  1.00 20.00     0.083 C 
HETATM    4  C6  UNL     1     -35.564  13.589  -5.930  1.00 20.00     0.007 C 
HETATM    5  C7  UNL     1     -34.319  14.340  -5.450  1.00 20.00     0.001 C 
HETATM    6  C8  UNL     1     -34.405  14.764  -3.981  1.00 20.00     0.005 C 
HETATM    7  C9  UNL     1     -35.071  16.129  -3.718  1.00 20.00    -0.004 C 
HETATM    8  O12 UNL     1     -38.055  14.901  -4.132  1.00 20.00    -0.298 OA
ENDROOT
BRANCH   7   9
HETATM    9  C11 UNL     1     -35.426  16.247  -2.232  1.00 20.00     0.037 C 
BRANCH   9  10
HETATM   10  C3  UNL     1     -34.488  17.162  -1.491  1.00 20.00    -0.093 C 
HETATM   11  C2  UNL     1     -33.255  17.421  -1.955  1.00 20.00     0.014 C 
HETATM   12  C10 UNL     1     -34.972  17.736  -0.191  1.00 20.00     0.042 C 
ENDBRANCH   9  10
ENDBRANCH   7   9
TORSDOF 2
ENDMDL
MODEL 7
REMARK VINA RESULT:      -4.3     11.094     12.240
REMARK  2 active torsions:
REMARK  status: ('A' for Active; 'I' for Inactive)
REMARK    1  A    between atoms: C3_3  and  C11_11 
REMARK    2  A    between atoms: C9_9  and  C11_11 
ROOT
HETATM    1  C1  UNL     1     -35.751  18.133  -0.923  1.00 20.00     0.127 C 
HETATM    2  C4  UNL     1     -35.147  18.731   0.327  1.00 20.00     0.078 C 
HETATM    3  C5  UNL     1     -35.249  16.763  -1.318  1.00 20.00     0.083 C 
HETATM    4  C6  UNL     1     -33.741  19.262   0.092  1.00 20.00     0.007 C 
HETATM    5  C7  UNL     1     -32.761  18.242  -0.497  1.00 20.00     0.001 C 
HETATM    6  C8  UNL     1     -33.027  17.939  -1.974  1.00 20.00     0.005 C 
HETATM    7  C9  UNL     1     -34.039  16.811  -2.252  1.00 20.00    -0.004 C 
HETATM    8  O12 UNL     1     -36.573  18.744  -1.602  1.00 20.00    -0.298 OA
ENDROOT
BRANCH   7   9
HETATM    9  C11 UNL     1     -34.485  16.874  -3.717  1.00 20.00     0.037 C 
BRANCH   9  10
HETATM   10  C3  UNL     1     -34.073  15.650  -4.493  1.00 20.00    -0.093 C 
HETATM   11  C2  UNL     1     -34.457  14.421  -4.112  1.00 20.00     0.014 C 
HETATM   12  C10 UNL     1     -33.180  15.859  -5.681  1.00 20.00     0.042 C 
ENDBRANCH   9  10
ENDBRANCH   7   9
TORSDOF 2
ENDMDL
MODEL 8
REMARK VINA RESULT:      -4.3     11.434     12.370
REMARK  2 active torsions:
REMARK  status: ('A' for Active; 'I' for Inactive)
REMARK    1  A    between atoms: C3_3  and  C11_11 
REMARK    2  A    between atoms: C9_9  and  C11_11 
ROOT
HETATM    1  C1  UNL     1     -33.621  15.146  -6.235  1.00 20.00     0.127 C 
HETATM    2  C4  UNL     1     -34.186  13.917  -6.911  1.00 20.00     0.078 C 
HETATM    3  C5  UNL     1     -33.252  14.997  -4.778  1.00 20.00     0.083 C 
HETATM    4  C6  UNL     1     -35.634  13.660  -6.522  1.00 20.00     0.007 C 
HETATM    5  C7  UNL     1     -35.885  13.561  -5.014  1.00 20.00     0.001 C 
HETATM    6  C8  UNL     1     -35.805  14.914  -4.303  1.00 20.00     0.005 C 
HETATM    7  C9  UNL     1     -34.402  15.337  -3.828  1.00 20.00    -0.004 C 
HETATM    8  O12 UNL     1     -33.506  16.217  -6.829  1.00 20.00    -0.298 OA
ENDROOT
BRANCH   7   9
HETATM    9  C11 UNL     1     -34.405  16.832  -3.490  1.00 20.00     0.037 C 
BRANCH   9  10
HETATM   10  C3  UNL     1     -35.401  17.173  -2.413  1.00 20.00    -0.093 C 
HETATM   11  C2  UNL     1     -35.184  16.837  -1.132  1.00 20.00     0.014 C 
HETATM   12  C10 UNL     1     -36.665  17.861  -2.840  1.00 20.00     0.042 C 
ENDBRANCH   9  10
ENDBRANCH   7   9
TORSDOF 2
ENDMDL
MODEL 9
REMARK VINA RESULT:      -4.1     11.035     12.367
REMARK  2 active torsions:
REMARK  status: ('A' for Active; 'I' for Inactive)
REMARK    1  A    between atoms: C3_3  and  C11_11 
REMARK    2  A    between atoms: C9_9  and  C11_11 
ROOT
HETATM    1  C1  UNL     1     -34.987  13.852  -5.565  1.00 20.00     0.127 C 
HETATM    2  C4  UNL     1     -36.021  13.931  -6.665  1.00 20.00     0.078 C 
HETATM    3  C5  UNL     1     -35.477  14.137  -4.165  1.00 20.00     0.083 C 
HETATM    4  C6  UNL     1     -36.368  15.366  -7.028  1.00 20.00     0.007 C 
HETATM    5  C7  UNL     1     -36.825  16.233  -5.851  1.00 20.00     0.001 C 
HETATM    6  C8  UNL     1     -35.679  16.618  -4.911  1.00 20.00     0.005 C 
HETATM    7  C9  UNL     1     -35.377  15.614  -3.781  1.00 20.00    -0.004 C 
HETATM    8  O12 UNL     1     -33.805  13.609  -5.803  1.00 20.00    -0.298 OA
ENDROOT
BRANCH   7   9
HETATM    9  C11 UNL     1     -34.005  15.927  -3.172  1.00 20.00     0.037 C 
BRANCH   9  10
HETATM   10  C3  UNL     1     -34.060  17.075  -2.201  1.00 20.00    -0.093 C 
HETATM   11  C2  UNL     1     -33.133  18.046  -2.215  1.00 20.00     0.014 C 
HETATM   12  C10 UNL     1     -35.167  17.065  -1.187  1.00 20.00     0.042 C 
ENDBRANCH   9  10
ENDBRANCH   7   9
TORSDOF 2
ENDMDL
