MODEL 1
REMARK VINA RESULT:      -6.2      0.000      0.000
REMARK  3 active torsions:
REMARK  status: ('A' for Active; 'I' for Inactive)
REMARK    1  A    between atoms: C2_2  and  C3_3 
REMARK    2  A    between atoms: C3_3  and  C7_7 
REMARK    3  A    between atoms: C8_8  and  C11_11 
ROOT
HETATM    1  C4  UNL     1     -31.869   7.645   3.791  1.00 20.00     0.013 C 
HETATM    2  C5  UNL     1     -31.988   9.016   3.140  1.00 20.00     0.005 C 
HETATM    3  C6  UNL     1     -32.955   7.455   1.599  1.00 20.00     0.017 C 
HETATM    4  C7  UNL     1     -32.743   6.727   2.932  1.00 20.00     0.060 C 
HETATM    5  C8  UNL     1     -32.043   8.684   1.654  1.00 20.00    -0.014 C 
ENDROOT
BRANCH   4   6
HETATM    6  C3  UNL     1     -34.059   6.474   3.600  1.00 20.00     0.158 C 
HETATM    7  O12 UNL     1     -35.093   6.412   2.932  1.00 20.00    -0.292 OA
BRANCH   6   8
HETATM    8  C2  UNL     1     -34.116   6.295   5.088  1.00 20.00    -0.025 C 
HETATM    9  C1  UNL     1     -33.840   7.306   5.924  1.00 20.00     0.022 C 
HETATM   10  C9  UNL     1     -34.497   4.933   5.587  1.00 20.00     0.051 C 
ENDBRANCH   6   8
ENDBRANCH   4   6
BRANCH   5  11
HETATM   11  C11 UNL     1     -32.538   9.837   0.800  1.00 20.00     0.000 C 
HETATM   12  C10 UNL     1     -33.160   9.363  -0.476  1.00 20.00     0.005 C 
ENDBRANCH   5  11
TORSDOF 3
ENDMDL
MODEL 2
REMARK VINA RESULT:      -6.2      1.182      1.431
REMARK  3 active torsions:
REMARK  status: ('A' for Active; 'I' for Inactive)
REMARK    1  A    between atoms: C2_2  and  C3_3 
REMARK    2  A    between atoms: C3_3  and  C7_7 
REMARK    3  A    between atoms: C8_8  and  C11_11 
ROOT
HETATM    1  C4  UNL     1     -31.363   8.004   3.751  1.00 20.00     0.013 C 
HETATM    2  C5  UNL     1     -31.632   9.287   2.978  1.00 20.00     0.005 C 
HETATM    3  C6  UNL     1     -33.159   7.651   2.117  1.00 20.00     0.017 C 
HETATM    4  C7  UNL     1     -32.529   7.079   3.393  1.00 20.00     0.060 C 
HETATM    5  C8  UNL     1     -32.223   8.777   1.669  1.00 20.00    -0.014 C 
ENDROOT
BRANCH   4   6
HETATM    6  C3  UNL     1     -33.538   7.048   4.499  1.00 20.00     0.158 C 
HETATM    7  O12 UNL     1     -33.509   7.898   5.391  1.00 20.00    -0.292 OA
BRANCH   6   8
HETATM    8  C2  UNL     1     -34.587   5.976   4.520  1.00 20.00    -0.025 C 
HETATM    9  C1  UNL     1     -35.570   5.944   3.608  1.00 20.00     0.022 C 
HETATM   10  C9  UNL     1     -34.477   4.948   5.606  1.00 20.00     0.051 C 
ENDBRANCH   6   8
ENDBRANCH   4   6
BRANCH   5  11
HETATM   11  C11 UNL     1     -32.926   9.859   0.867  1.00 20.00     0.000 C 
HETATM   12  C10 UNL     1     -33.177   9.436  -0.546  1.00 20.00     0.005 C 
ENDBRANCH   5  11
TORSDOF 3
ENDMDL
MODEL 3
REMARK VINA RESULT:      -5.9      1.571      4.766
REMARK  3 active torsions:
REMARK  status: ('A' for Active; 'I' for Inactive)
REMARK    1  A    between atoms: C2_2  and  C3_3 
REMARK    2  A    between atoms: C3_3  and  C7_7 
REMARK    3  A    between atoms: C8_8  and  C11_11 
ROOT
HETATM    1  C4  UNL     1     -33.645   8.133   5.104  1.00 20.00     0.013 C 
HETATM    2  C5  UNL     1     -33.664   6.728   5.692  1.00 20.00     0.005 C 
HETATM    3  C6  UNL     1     -34.236   6.496   3.375  1.00 20.00     0.017 C 
HETATM    4  C7  UNL     1     -33.722   7.925   3.590  1.00 20.00     0.060 C 
HETATM    5  C8  UNL     1     -34.621   5.986   4.766  1.00 20.00    -0.014 C 
ENDROOT
BRANCH   4   6
HETATM    6  C3  UNL     1     -32.371   8.090   2.965  1.00 20.00     0.158 C 
HETATM    7  O12 UNL     1     -31.376   7.591   3.494  1.00 20.00    -0.292 OA
BRANCH   6   8
HETATM    8  C2  UNL     1     -32.231   8.865   1.688  1.00 20.00    -0.025 C 
HETATM    9  C1  UNL     1     -31.417   8.452   0.706  1.00 20.00     0.022 C 
HETATM   10  C9  UNL     1     -33.047  10.118   1.571  1.00 20.00     0.051 C 
ENDBRANCH   6   8
ENDBRANCH   4   6
BRANCH   5  11
HETATM   11  C11 UNL     1     -34.532   4.476   4.899  1.00 20.00     0.000 C 
HETATM   12  C10 UNL     1     -33.786   3.857   3.759  1.00 20.00     0.005 C 
ENDBRANCH   5  11
TORSDOF 3
ENDMDL
MODEL 4
REMARK VINA RESULT:      -5.6      1.583      4.942
REMARK  3 active torsions:
REMARK  status: ('A' for Active; 'I' for Inactive)
REMARK    1  A    between atoms: C2_2  and  C3_3 
REMARK    2  A    between atoms: C3_3  and  C7_7 
REMARK    3  A    between atoms: C8_8  and  C11_11 
ROOT
HETATM    1  C4  UNL     1     -34.509   6.648   2.033  1.00 20.00     0.013 C 
HETATM    2  C5  UNL     1     -35.140   6.157   3.329  1.00 20.00     0.005 C 
HETATM    3  C6  UNL     1     -32.832   5.515   3.419  1.00 20.00     0.017 C 
HETATM    4  C7  UNL     1     -33.002   6.487   2.245  1.00 20.00     0.060 C 
HETATM    5  C8  UNL     1     -34.238   4.994   3.726  1.00 20.00    -0.014 C 
ENDROOT
BRANCH   4   6
HETATM    6  C3  UNL     1     -32.371   7.806   2.569  1.00 20.00     0.158 C 
HETATM    7  O12 UNL     1     -32.042   8.071   3.727  1.00 20.00    -0.292 OA
BRANCH   6   8
HETATM    8  C2  UNL     1     -32.138   8.808   1.477  1.00 20.00    -0.025 C 
HETATM    9  C1  UNL     1     -31.297   8.554   0.464  1.00 20.00     0.022 C 
HETATM   10  C9  UNL     1     -32.894  10.099   1.577  1.00 20.00     0.051 C 
ENDBRANCH   6   8
ENDBRANCH   4   6
BRANCH   5  11
HETATM   11  C11 UNL     1     -34.417   4.565   5.172  1.00 20.00     0.000 C 
HETATM   12  C10 UNL     1     -34.486   5.737   6.100  1.00 20.00     0.005 C 
ENDBRANCH   5  11
TORSDOF 3
ENDMDL
MODEL 5
REMARK VINA RESULT:      -5.1     10.386     11.223
REMARK  3 active torsions:
REMARK  status: ('A' for Active; 'I' for Inactive)
REMARK    1  A    between atoms: C2_2  and  C3_3 
REMARK    2  A    between atoms: C3_3  and  C7_7 
REMARK    3  A    between atoms: C8_8  and  C11_11 
ROOT
HETATM    1  C4  UNL     1     -33.396  16.581  -4.825  1.00 20.00     0.013 C 
HETATM    2  C5  UNL     1     -34.157  15.961  -5.989  1.00 20.00     0.005 C 
HETATM    3  C6  UNL     1     -34.286  14.385  -4.187  1.00 20.00     0.017 C 
HETATM    4  C7  UNL     1     -33.740  15.701  -3.621  1.00 20.00     0.060 C 
HETATM    5  C8  UNL     1     -34.064  14.468  -5.700  1.00 20.00    -0.014 C 
ENDROOT
BRANCH   4   6
HETATM    6  C3  UNL     1     -34.772  16.364  -2.761  1.00 20.00     0.158 C 
HETATM    7  O12 UNL     1     -35.969  16.263  -3.037  1.00 20.00    -0.292 OA
BRANCH   6   8
HETATM    8  C2  UNL     1     -34.344  17.153  -1.559  1.00 20.00    -0.025 C 
HETATM    9  C1  UNL     1     -33.122  17.697  -1.480  1.00 20.00     0.022 C 
HETATM   10  C9  UNL     1     -35.352  17.300  -0.458  1.00 20.00     0.051 C 
ENDBRANCH   6   8
ENDBRANCH   4   6
BRANCH   5  11
HETATM   11  C11 UNL     1     -35.056  13.640  -6.498  1.00 20.00     0.000 C 
HETATM   12  C10 UNL     1     -36.406  13.610  -5.855  1.00 20.00     0.005 C 
ENDBRANCH   5  11
TORSDOF 3
ENDMDL
MODEL 6
REMARK VINA RESULT:      -5.0     10.292     11.887
REMARK  3 active torsions:
REMARK  status: ('A' for Active; 'I' for Inactive)
REMARK    1  A    between atoms: C2_2  and  C3_3 
REMARK    2  A    between atoms: C3_3  and  C7_7 
REMARK    3  A    between atoms: C8_8  and  C11_11 
ROOT
HETATM    1  C4  UNL     1     -36.664  14.775  -4.640  1.00 20.00     0.013 C 
HETATM    2  C5  UNL     1     -35.938  16.056  -4.251  1.00 20.00     0.005 C 
HETATM    3  C6  UNL     1     -34.322  14.292  -4.091  1.00 20.00     0.017 C 
HETATM    4  C7  UNL     1     -35.556  13.734  -4.811  1.00 20.00     0.060 C 
HETATM    5  C8  UNL     1     -34.807  15.549  -3.364  1.00 20.00    -0.014 C 
ENDROOT
BRANCH   4   6
HETATM    6  C3  UNL     1     -35.255  13.516  -6.262  1.00 20.00     0.158 C 
HETATM    7  O12 UNL     1     -35.158  12.373  -6.712  1.00 20.00    -0.292 OA
BRANCH   6   8
HETATM    8  C2  UNL     1     -35.074  14.696  -7.170  1.00 20.00    -0.025 C 
HETATM    9  C1  UNL     1     -33.883  15.298  -7.303  1.00 20.00     0.022 C 
HETATM   10  C9  UNL     1     -36.288  15.163  -7.916  1.00 20.00     0.051 C 
ENDBRANCH   6   8
ENDBRANCH   4   6
BRANCH   5  11
HETATM   11  C11 UNL     1     -33.711  16.577  -3.146  1.00 20.00     0.000 C 
HETATM   12  C10 UNL     1     -33.772  17.179  -1.777  1.00 20.00     0.005 C 
ENDBRANCH   5  11
TORSDOF 3
ENDMDL
MODEL 7
REMARK VINA RESULT:      -4.9     10.247     11.784
REMARK  3 active torsions:
REMARK  status: ('A' for Active; 'I' for Inactive)
REMARK    1  A    between atoms: C2_2  and  C3_3 
REMARK    2  A    between atoms: C3_3  and  C7_7 
REMARK    3  A    between atoms: C8_8  and  C11_11 
ROOT
HETATM    1  C4  UNL     1     -33.561  14.429  -4.130  1.00 20.00     0.013 C 
HETATM    2  C5  UNL     1     -33.609  15.913  -3.793  1.00 20.00     0.005 C 
HETATM    3  C6  UNL     1     -34.232  15.728  -6.100  1.00 20.00     0.017 C 
HETATM    4  C7  UNL     1     -34.236  14.317  -5.499  1.00 20.00     0.060 C 
HETATM    5  C8  UNL     1     -33.387  16.576  -5.147  1.00 20.00    -0.014 C 
ENDROOT
BRANCH   4   6
HETATM    6  C3  UNL     1     -35.641  13.818  -5.356  1.00 20.00     0.158 C 
HETATM    7  O12 UNL     1     -35.862  12.612  -5.230  1.00 20.00    -0.292 OA
BRANCH   6   8
HETATM    8  C2  UNL     1     -36.781  14.793  -5.365  1.00 20.00    -0.025 C 
HETATM    9  C1  UNL     1     -37.218  15.367  -4.235  1.00 20.00     0.022 C 
HETATM   10  C9  UNL     1     -37.401  15.088  -6.698  1.00 20.00     0.051 C 
ENDBRANCH   6   8
ENDBRANCH   4   6
BRANCH   5  11
HETATM   11  C11 UNL     1     -33.761  18.048  -5.162  1.00 20.00     0.000 C 
HETATM   12  C10 UNL     1     -35.204  18.256  -5.499  1.00 20.00     0.005 C 
ENDBRANCH   5  11
TORSDOF 3
ENDMDL
MODEL 8
REMARK VINA RESULT:      -4.8     10.560     11.505
REMARK  3 active torsions:
REMARK  status: ('A' for Active; 'I' for Inactive)
REMARK    1  A    between atoms: C2_2  and  C3_3 
REMARK    2  A    between atoms: C3_3  and  C7_7 
REMARK    3  A    between atoms: C8_8  and  C11_11 
ROOT
HETATM    1  C4  UNL     1     -33.651  16.501  -4.205  1.00 20.00     0.013 C 
HETATM    2  C5  UNL     1     -33.604  16.631  -2.688  1.00 20.00     0.005 C 
HETATM    3  C6  UNL     1     -35.904  16.272  -3.261  1.00 20.00     0.017 C 
HETATM    4  C7  UNL     1     -35.061  15.989  -4.510  1.00 20.00     0.060 C 
HETATM    5  C8  UNL     1     -35.009  17.111  -2.345  1.00 20.00    -0.014 C 
ENDROOT
BRANCH   4   6
HETATM    6  C3  UNL     1     -35.037  14.519  -4.797  1.00 20.00     0.158 C 
HETATM    7  O12 UNL     1     -34.517  13.737  -3.999  1.00 20.00    -0.292 OA
BRANCH   6   8
HETATM    8  C2  UNL     1     -35.651  13.998  -6.063  1.00 20.00    -0.025 C 
HETATM    9  C1  UNL     1     -36.960  14.143  -6.315  1.00 20.00     0.022 C 
HETATM   10  C9  UNL     1     -34.728  13.312  -7.025  1.00 20.00     0.051 C 
ENDBRANCH   6   8
ENDBRANCH   4   6
BRANCH   5  11
HETATM   11  C11 UNL     1     -35.350  16.962  -0.873  1.00 20.00     0.000 C 
HETATM   12  C10 UNL     1     -34.539  17.880  -0.014  1.00 20.00     0.005 C 
ENDBRANCH   5  11
TORSDOF 3
ENDMDL
MODEL 9
REMARK VINA RESULT:      -4.8      1.393      4.991
REMARK  3 active torsions:
REMARK  status: ('A' for Active; 'I' for Inactive)
REMARK    1  A    between atoms: C2_2  and  C3_3 
REMARK    2  A    between atoms: C3_3  and  C7_7 
REMARK    3  A    between atoms: C8_8  and  C11_11 
ROOT
HETATM    1  C4  UNL     1     -32.694   6.367   2.236  1.00 20.00     0.013 C 
HETATM    2  C5  UNL     1     -33.808   6.025   3.217  1.00 20.00     0.005 C 
HETATM    3  C6  UNL     1     -32.584   7.839   4.196  1.00 20.00     0.017 C 
HETATM    4  C7  UNL     1     -32.124   7.695   2.740  1.00 20.00     0.060 C 
HETATM    5  C8  UNL     1     -33.246   6.505   4.550  1.00 20.00    -0.014 C 
ENDROOT
BRANCH   4   6
HETATM    6  C3  UNL     1     -32.637   8.837   1.918  1.00 20.00     0.158 C 
HETATM    7  O12 UNL     1     -33.442   9.636   2.399  1.00 20.00    -0.292 OA
BRANCH   6   8
HETATM    8  C2  UNL     1     -32.168   9.005   0.503  1.00 20.00    -0.025 C 
HETATM    9  C1  UNL     1     -30.917   8.688   0.140  1.00 20.00     0.022 C 
HETATM   10  C9  UNL     1     -33.168   9.542  -0.477  1.00 20.00     0.051 C 
ENDBRANCH   6   8
ENDBRANCH   4   6
BRANCH   5  11
HETATM   11  C11 UNL     1     -34.300   6.627   5.635  1.00 20.00     0.000 C 
HETATM   12  C10 UNL     1     -34.779   5.288   6.105  1.00 20.00     0.005 C 
ENDBRANCH   5  11
TORSDOF 3
ENDMDL
