MODEL 1
REMARK VINA RESULT:      -5.9      0.000      0.000
REMARK  3 active torsions:
REMARK  status: ('A' for Active; 'I' for Inactive)
REMARK    1  A    between atoms: C7_7  and  C8_8 
REMARK    2  A    between atoms: C7_7  and  C9_9 
REMARK    3  A    between atoms: C8_8  and  N10_10 
ROOT
HETATM    1  C1  UNL     1     -33.165   5.671   2.840  1.00 20.00     0.239 C 
HETATM    2  C2  UNL     1     -32.477   7.509   4.181  1.00 20.00     0.239 C 
HETATM    3  C3  UNL     1     -34.311   5.933   3.818  1.00 20.00     0.012 C 
HETATM    4  C4  UNL     1     -33.896   7.179   4.634  1.00 20.00     0.012 C 
HETATM    5  C5  UNL     1     -34.659   4.677   4.607  1.00 20.00     0.012 C 
HETATM    6  C6  UNL     1     -33.994   7.082   6.150  1.00 20.00     0.012 C 
HETATM    7  N10 UNL     1     -32.402   6.968   2.779  1.00 20.00    -0.070 N 
HETATM    8  H30 UNL     1     -31.437   6.748   2.582  1.00 20.00     0.279 HD
ENDROOT
BRANCH   7   9
HETATM    9  C8  UNL     1     -32.895   7.916   1.726  1.00 20.00     0.236 C 
BRANCH   9  10
HETATM   10  C7  UNL     1     -32.136   9.237   1.793  1.00 20.00     0.043 C 
BRANCH  10  11
HETATM   11  C9  UNL     1     -32.549  10.292   0.768  1.00 20.00     0.116 C 
HETATM   12 CL11 UNL     1     -33.299   9.568  -0.672  1.00 20.00    -0.130 Cl
ENDBRANCH  10  11
ENDBRANCH   9  10
ENDBRANCH   7   9
TORSDOF 3
ENDMDL
MODEL 2
REMARK VINA RESULT:      -4.7      1.020      1.959
REMARK  3 active torsions:
REMARK  status: ('A' for Active; 'I' for Inactive)
REMARK    1  A    between atoms: C7_7  and  C8_8 
REMARK    2  A    between atoms: C7_7  and  C9_9 
REMARK    3  A    between atoms: C8_8  and  N10_10 
ROOT
HETATM    1  C1  UNL     1     -34.009   7.641   4.401  1.00 20.00     0.239 C 
HETATM    2  C2  UNL     1     -33.670   6.072   2.648  1.00 20.00     0.239 C 
HETATM    3  C3  UNL     1     -33.708   6.304   5.082  1.00 20.00     0.012 C 
HETATM    4  C4  UNL     1     -33.409   5.305   3.941  1.00 20.00     0.012 C 
HETATM    5  C5  UNL     1     -34.814   5.923   6.058  1.00 20.00     0.012 C 
HETATM    6  C6  UNL     1     -34.151   3.977   3.967  1.00 20.00     0.012 C 
HETATM    7  N10 UNL     1     -33.430   7.511   3.017  1.00 20.00    -0.070 N 
HETATM    8  H30 UNL     1     -33.981   8.087   2.398  1.00 20.00     0.279 HD
ENDROOT
BRANCH   7   9
HETATM    9  C8  UNL     1     -31.997   7.943   2.913  1.00 20.00     0.236 C 
BRANCH   9  10
HETATM   10  C7  UNL     1     -31.706   8.514   1.530  1.00 20.00     0.043 C 
BRANCH  10  11
HETATM   11  C9  UNL     1     -32.555   9.714   1.115  1.00 20.00     0.116 C 
HETATM   12 CL11 UNL     1     -33.234   9.520  -0.516  1.00 20.00    -0.130 Cl
ENDBRANCH  10  11
ENDBRANCH   9  10
ENDBRANCH   7   9
TORSDOF 3
ENDMDL
MODEL 3
REMARK VINA RESULT:      -4.2     10.617     11.362
REMARK  3 active torsions:
REMARK  status: ('A' for Active; 'I' for Inactive)
REMARK    1  A    between atoms: C7_7  and  C8_8 
REMARK    2  A    between atoms: C7_7  and  C9_9 
REMARK    3  A    between atoms: C8_8  and  N10_10 
ROOT
HETATM    1  C1  UNL     1     -33.637  16.782  -3.887  1.00 20.00     0.239 C 
HETATM    2  C2  UNL     1     -35.848  16.341  -3.132  1.00 20.00     0.239 C 
HETATM    3  C3  UNL     1     -33.593  16.893  -2.362  1.00 20.00     0.012 C 
HETATM    4  C4  UNL     1     -35.011  16.526  -1.869  1.00 20.00     0.012 C 
HETATM    5  C5  UNL     1     -33.039  18.243  -1.924  1.00 20.00     0.012 C 
HETATM    6  C6  UNL     1     -35.676  17.482  -0.889  1.00 20.00     0.012 C 
HETATM    7  N10 UNL     1     -34.848  15.936  -4.181  1.00 20.00    -0.070 N 
HETATM    8  H30 UNL     1     -35.209  16.217  -5.080  1.00 20.00     0.279 HD
ENDROOT
BRANCH   7   9
HETATM    9  C8  UNL     1     -34.565  14.463  -4.225  1.00 20.00     0.236 C 
BRANCH   9  10
HETATM   10  C7  UNL     1     -35.723  13.711  -4.870  1.00 20.00     0.043 C 
BRANCH  10  11
HETATM   11  C9  UNL     1     -35.888  13.910  -6.375  1.00 20.00     0.116 C 
HETATM   12 CL11 UNL     1     -34.410  13.491  -7.270  1.00 20.00    -0.130 Cl
ENDBRANCH  10  11
ENDBRANCH   9  10
ENDBRANCH   7   9
TORSDOF 3
ENDMDL
MODEL 4
REMARK VINA RESULT:      -4.1     10.502     11.669
REMARK  3 active torsions:
REMARK  status: ('A' for Active; 'I' for Inactive)
REMARK    1  A    between atoms: C7_7  and  C8_8 
REMARK    2  A    between atoms: C7_7  and  C9_9 
REMARK    3  A    between atoms: C8_8  and  N10_10 
ROOT
HETATM    1  C1  UNL     1     -33.027  15.564  -5.581  1.00 20.00     0.239 C 
HETATM    2  C2  UNL     1     -34.400  14.417  -4.015  1.00 20.00     0.239 C 
HETATM    3  C3  UNL     1     -34.349  15.287  -6.300  1.00 20.00     0.012 C 
HETATM    4  C4  UNL     1     -35.267  14.614  -5.255  1.00 20.00     0.012 C 
HETATM    5  C5  UNL     1     -34.119  14.531  -7.602  1.00 20.00     0.012 C 
HETATM    6  C6  UNL     1     -35.961  13.324  -5.666  1.00 20.00     0.012 C 
HETATM    7  N10 UNL     1     -33.362  15.503  -4.114  1.00 20.00    -0.070 N 
HETATM    8  H30 UNL     1     -32.538  15.192  -3.623  1.00 20.00     0.279 HD
ENDROOT
BRANCH   7   9
HETATM    9  C8  UNL     1     -33.790  16.818  -3.532  1.00 20.00     0.236 C 
BRANCH   9  10
HETATM   10  C7  UNL     1     -34.646  16.604  -2.288  1.00 20.00     0.043 C 
BRANCH  10  11
HETATM   11  C9  UNL     1     -34.207  17.369  -1.041  1.00 20.00     0.116 C 
HETATM   12 CL11 UNL     1     -32.622  18.144  -1.255  1.00 20.00    -0.130 Cl
ENDBRANCH  10  11
ENDBRANCH   9  10
ENDBRANCH   7   9
TORSDOF 3
ENDMDL
MODEL 5
REMARK VINA RESULT:      -3.9     10.455     11.735
REMARK  3 active torsions:
REMARK  status: ('A' for Active; 'I' for Inactive)
REMARK    1  A    between atoms: C7_7  and  C8_8 
REMARK    2  A    between atoms: C7_7  and  C9_9 
REMARK    3  A    between atoms: C8_8  and  N10_10 
ROOT
HETATM    1  C1  UNL     1     -34.312  14.396  -4.028  1.00 20.00     0.239 C 
HETATM    2  C2  UNL     1     -32.962  15.666  -5.517  1.00 20.00     0.239 C 
HETATM    3  C3  UNL     1     -34.822  15.836  -3.939  1.00 20.00     0.012 C 
HETATM    4  C4  UNL     1     -33.997  16.643  -4.966  1.00 20.00     0.012 C 
HETATM    5  C5  UNL     1     -34.809  16.335  -2.500  1.00 20.00     0.012 C 
HETATM    6  C6  UNL     1     -33.351  17.933  -4.481  1.00 20.00     0.012 C 
HETATM    7  N10 UNL     1     -33.606  14.316  -5.356  1.00 20.00    -0.070 N 
HETATM    8  H30 UNL     1     -32.873  13.629  -5.273  1.00 20.00     0.279 HD
ENDROOT
BRANCH   7   9
HETATM    9  C8  UNL     1     -34.498  13.920  -6.497  1.00 20.00     0.236 C 
BRANCH   9  10
HETATM   10  C7  UNL     1     -35.833  13.396  -5.980  1.00 20.00     0.043 C 
BRANCH  10  11
HETATM   11  C9  UNL     1     -37.059  14.231  -6.344  1.00 20.00     0.116 C 
HETATM   12 CL11 UNL     1     -38.108  14.525  -4.939  1.00 20.00    -0.130 Cl
ENDBRANCH  10  11
ENDBRANCH   9  10
ENDBRANCH   7   9
TORSDOF 3
ENDMDL
MODEL 6
REMARK VINA RESULT:      -3.8     10.956     11.876
REMARK  3 active torsions:
REMARK  status: ('A' for Active; 'I' for Inactive)
REMARK    1  A    between atoms: C7_7  and  C8_8 
REMARK    2  A    between atoms: C7_7  and  C9_9 
REMARK    3  A    between atoms: C8_8  and  N10_10 
ROOT
HETATM    1  C1  UNL     1     -33.547  16.736  -3.242  1.00 20.00     0.239 C 
HETATM    2  C2  UNL     1     -35.082  17.100  -5.020  1.00 20.00     0.239 C 
HETATM    3  C3  UNL     1     -34.899  16.218  -2.748  1.00 20.00     0.012 C 
HETATM    4  C4  UNL     1     -35.876  16.381  -3.934  1.00 20.00     0.012 C 
HETATM    5  C5  UNL     1     -35.294  16.879  -1.433  1.00 20.00     0.012 C 
HETATM    6  C6  UNL     1     -37.201  17.075  -3.653  1.00 20.00     0.012 C 
HETATM    7  N10 UNL     1     -33.652  16.723  -4.744  1.00 20.00    -0.070 N 
HETATM    8  H30 UNL     1     -33.061  17.459  -5.100  1.00 20.00     0.279 HD
ENDROOT
BRANCH   7   9
HETATM    9  C8  UNL     1     -33.225  15.429  -5.373  1.00 20.00     0.236 C 
BRANCH   9  10
HETATM   10  C7  UNL     1     -33.690  15.355  -6.823  1.00 20.00     0.043 C 
BRANCH  10  11
HETATM   11  C9  UNL     1     -34.344  14.041  -7.244  1.00 20.00     0.116 C 
HETATM   12 CL11 UNL     1     -35.540  13.478  -6.055  1.00 20.00    -0.130 Cl
ENDBRANCH  10  11
ENDBRANCH   9  10
ENDBRANCH   7   9
TORSDOF 3
ENDMDL
MODEL 7
REMARK VINA RESULT:      -3.8     10.619     11.954
REMARK  3 active torsions:
REMARK  status: ('A' for Active; 'I' for Inactive)
REMARK    1  A    between atoms: C7_7  and  C8_8 
REMARK    2  A    between atoms: C7_7  and  C9_9 
REMARK    3  A    between atoms: C8_8  and  N10_10 
ROOT
HETATM    1  C1  UNL     1     -34.689  16.289  -3.018  1.00 20.00     0.239 C 
HETATM    2  C2  UNL     1     -34.050  17.637  -4.870  1.00 20.00     0.239 C 
HETATM    3  C3  UNL     1     -33.780  15.416  -3.884  1.00 20.00     0.012 C 
HETATM    4  C4  UNL     1     -33.302  16.319  -5.043  1.00 20.00     0.012 C 
HETATM    5  C5  UNL     1     -34.471  14.113  -4.267  1.00 20.00     0.012 C 
HETATM    6  C6  UNL     1     -33.446  15.773  -6.457  1.00 20.00     0.012 C 
HETATM    7  N10 UNL     1     -34.340  17.705  -3.395  1.00 20.00    -0.070 N 
HETATM    8  H30 UNL     1     -35.166  18.270  -3.265  1.00 20.00     0.279 HD
ENDROOT
BRANCH   7   9
HETATM    9  C8  UNL     1     -33.230  18.297  -2.576  1.00 20.00     0.236 C 
BRANCH   9  10
HETATM   10  C7  UNL     1     -33.274  17.769  -1.147  1.00 20.00     0.043 C 
BRANCH  10  11
HETATM   11  C9  UNL     1     -34.223  18.499  -0.198  1.00 20.00     0.116 C 
HETATM   12 CL11 UNL     1     -35.577  17.470   0.317  1.00 20.00    -0.130 Cl
ENDBRANCH  10  11
ENDBRANCH   9  10
ENDBRANCH   7   9
TORSDOF 3
ENDMDL
MODEL 8
REMARK VINA RESULT:      -3.7     11.005     11.638
REMARK  3 active torsions:
REMARK  status: ('A' for Active; 'I' for Inactive)
REMARK    1  A    between atoms: C7_7  and  C8_8 
REMARK    2  A    between atoms: C7_7  and  C9_9 
REMARK    3  A    between atoms: C8_8  and  N10_10 
ROOT
HETATM    1  C1  UNL     1     -35.895  16.125  -4.005  1.00 20.00     0.239 C 
HETATM    2  C2  UNL     1     -33.893  16.137  -5.288  1.00 20.00     0.239 C 
HETATM    3  C3  UNL     1     -35.660  14.676  -4.438  1.00 20.00     0.012 C 
HETATM    4  C4  UNL     1     -34.317  14.674  -5.202  1.00 20.00     0.012 C 
HETATM    5  C5  UNL     1     -36.872  14.119  -5.173  1.00 20.00     0.012 C 
HETATM    6  C6  UNL     1     -34.294  14.001  -6.567  1.00 20.00     0.012 C 
HETATM    7  N10 UNL     1     -34.541  16.780  -4.091  1.00 20.00    -0.070 N 
HETATM    8  H30 UNL     1     -34.685  17.756  -4.302  1.00 20.00     0.279 HD
ENDROOT
BRANCH   7   9
HETATM    9  C8  UNL     1     -33.736  16.683  -2.829  1.00 20.00     0.236 C 
BRANCH   9  10
HETATM   10  C7  UNL     1     -34.623  16.892  -1.607  1.00 20.00     0.043 C 
BRANCH  10  11
HETATM   11  C9  UNL     1     -34.100  17.881  -0.568  1.00 20.00     0.116 C 
HETATM   12 CL11 UNL     1     -32.387  18.281  -0.828  1.00 20.00    -0.130 Cl
ENDBRANCH  10  11
ENDBRANCH   9  10
ENDBRANCH   7   9
TORSDOF 3
ENDMDL
MODEL 9
REMARK VINA RESULT:      -3.7     10.924     12.040
REMARK  3 active torsions:
REMARK  status: ('A' for Active; 'I' for Inactive)
REMARK    1  A    between atoms: C7_7  and  C8_8 
REMARK    2  A    between atoms: C7_7  and  C9_9 
REMARK    3  A    between atoms: C8_8  and  N10_10 
ROOT
HETATM    1  C1  UNL     1     -35.317  14.545  -4.716  1.00 20.00     0.239 C 
HETATM    2  C2  UNL     1     -34.609  16.647  -5.573  1.00 20.00     0.239 C 
HETATM    3  C3  UNL     1     -34.435  14.233  -5.926  1.00 20.00     0.012 C 
HETATM    4  C4  UNL     1     -33.912  15.596  -6.433  1.00 20.00     0.012 C 
HETATM    5  C5  UNL     1     -35.174  13.362  -6.934  1.00 20.00     0.012 C 
HETATM    6  C6  UNL     1     -34.065  15.893  -7.918  1.00 20.00     0.012 C 
HETATM    7  N10 UNL     1     -34.909  15.929  -4.285  1.00 20.00    -0.070 N 
HETATM    8  H30 UNL     1     -35.713  16.369  -3.863  1.00 20.00     0.279 HD
ENDROOT
BRANCH   7   9
HETATM    9  C8  UNL     1     -33.784  15.952  -3.292  1.00 20.00     0.236 C 
BRANCH   9  10
HETATM   10  C7  UNL     1     -34.078  16.938  -2.167  1.00 20.00     0.043 C 
BRANCH  10  11
HETATM   11  C9  UNL     1     -35.493  16.890  -1.595  1.00 20.00     0.116 C 
HETATM   12 CL11 UNL     1     -35.533  17.322   0.129  1.00 20.00    -0.130 Cl
ENDBRANCH  10  11
ENDBRANCH   9  10
ENDBRANCH   7   9
TORSDOF 3
ENDMDL
