MODEL 1
REMARK VINA RESULT:      -5.2      0.000      0.000
REMARK  2 active torsions:
REMARK  status: ('A' for Active; 'I' for Inactive)
REMARK    1  A    between atoms: C2_2  and  C10_10 
REMARK    2  A    between atoms: C7_7  and  C10_10 
ROOT
HETATM    1  C3  UNL     1     -33.386   7.581   5.408  1.00 20.00     0.002 C 
HETATM    2  C4  UNL     1     -32.421   8.134   4.365  1.00 20.00     0.005 C 
HETATM    3  C5  UNL     1     -33.597   6.077   5.245  1.00 20.00     0.016 C 
HETATM    4  C6  UNL     1     -33.086   6.297   2.757  1.00 20.00     0.020 C 
HETATM    5  C7  UNL     1     -32.883   7.810   2.939  1.00 20.00    -0.010 C 
HETATM    6  C8  UNL     1     -33.979   5.668   3.825  1.00 20.00     0.058 C 
HETATM    7 BR11 UNL     1     -35.857   6.113   3.480  1.00 20.00    -0.091 Br
ENDROOT
BRANCH   5   8
HETATM    8  C10 UNL     1     -31.881   8.344   1.915  1.00 20.00     0.037 C 
BRANCH   8   9
HETATM    9  C2  UNL     1     -32.469   9.419   1.038  1.00 20.00    -0.093 C 
HETATM   10  C1  UNL     1     -32.661  10.666   1.497  1.00 20.00     0.014 C 
HETATM   11  C9  UNL     1     -32.871   9.026  -0.353  1.00 20.00     0.042 C 
ENDBRANCH   8   9
ENDBRANCH   5   8
TORSDOF 2
ENDMDL
MODEL 2
REMARK VINA RESULT:      -5.0      1.663      2.419
REMARK  2 active torsions:
REMARK  status: ('A' for Active; 'I' for Inactive)
REMARK    1  A    between atoms: C2_2  and  C10_10 
REMARK    2  A    between atoms: C7_7  and  C10_10 
ROOT
HETATM    1  C3  UNL     1     -33.418   4.123   3.942  1.00 20.00     0.002 C 
HETATM    2  C4  UNL     1     -33.053   4.899   2.680  1.00 20.00     0.005 C 
HETATM    3  C5  UNL     1     -34.795   4.519   4.472  1.00 20.00     0.016 C 
HETATM    4  C6  UNL     1     -34.510   6.827   3.428  1.00 20.00     0.020 C 
HETATM    5  C7  UNL     1     -33.124   6.414   2.908  1.00 20.00    -0.010 C 
HETATM    6  C8  UNL     1     -34.969   6.025   4.645  1.00 20.00     0.058 C 
HETATM    7 BR11 UNL     1     -34.019   6.633   6.249  1.00 20.00    -0.091 Br
ENDROOT
BRANCH   5   8
HETATM    8  C10 UNL     1     -32.788   7.166   1.620  1.00 20.00     0.037 C 
BRANCH   8   9
HETATM    9  C2  UNL     1     -32.059   8.459   1.880  1.00 20.00    -0.093 C 
HETATM   10  C1  UNL     1     -31.383   8.661   3.022  1.00 20.00     0.014 C 
HETATM   11  C9  UNL     1     -32.157   9.525   0.829  1.00 20.00     0.042 C 
ENDBRANCH   8   9
ENDBRANCH   5   8
TORSDOF 2
ENDMDL
MODEL 3
REMARK VINA RESULT:      -4.5     10.281     11.328
REMARK  2 active torsions:
REMARK  status: ('A' for Active; 'I' for Inactive)
REMARK    1  A    between atoms: C2_2  and  C10_10 
REMARK    2  A    between atoms: C7_7  and  C10_10 
ROOT
HETATM    1  C3  UNL     1     -35.841  13.538  -4.955  1.00 20.00     0.002 C 
HETATM    2  C4  UNL     1     -34.614  14.195  -4.330  1.00 20.00     0.005 C 
HETATM    3  C5  UNL     1     -36.422  14.381  -6.088  1.00 20.00     0.016 C 
HETATM    4  C6  UNL     1     -35.495  16.479  -4.973  1.00 20.00     0.020 C 
HETATM    5  C7  UNL     1     -34.922  15.614  -3.838  1.00 20.00    -0.010 C 
HETATM    6  C8  UNL     1     -36.677  15.834  -5.694  1.00 20.00     0.058 C 
HETATM    7 BR11 UNL     1     -38.290  15.956  -4.585  1.00 20.00    -0.091 Br
ENDROOT
BRANCH   5   8
HETATM    8  C10 UNL     1     -33.668  16.263  -3.250  1.00 20.00     0.037 C 
BRANCH   8   9
HETATM    9  C2  UNL     1     -33.958  17.046  -1.996  1.00 20.00    -0.093 C 
HETATM   10  C1  UNL     1     -33.037  17.856  -1.451  1.00 20.00     0.014 C 
HETATM   11  C9  UNL     1     -35.302  16.848  -1.359  1.00 20.00     0.042 C 
ENDBRANCH   8   9
ENDBRANCH   5   8
TORSDOF 2
ENDMDL
MODEL 4
REMARK VINA RESULT:      -4.5     10.212     11.281
REMARK  2 active torsions:
REMARK  status: ('A' for Active; 'I' for Inactive)
REMARK    1  A    between atoms: C2_2  and  C10_10 
REMARK    2  A    between atoms: C7_7  and  C10_10 
ROOT
HETATM    1  C3  UNL     1     -35.615  13.542  -4.863  1.00 20.00     0.002 C 
HETATM    2  C4  UNL     1     -34.459  14.284  -4.198  1.00 20.00     0.005 C 
HETATM    3  C5  UNL     1     -36.223  14.350  -6.008  1.00 20.00     0.016 C 
HETATM    4  C6  UNL     1     -35.489  16.501  -4.852  1.00 20.00     0.020 C 
HETATM    5  C7  UNL     1     -34.887  15.672  -3.706  1.00 20.00    -0.010 C 
HETATM    6  C8  UNL     1     -36.598  15.776  -5.613  1.00 20.00     0.058 C 
HETATM    7 BR11 UNL     1     -38.247  15.768  -4.552  1.00 20.00    -0.091 Br
ENDROOT
BRANCH   5   8
HETATM    8  C10 UNL     1     -33.703  16.407  -3.076  1.00 20.00     0.037 C 
BRANCH   8   9
HETATM    9  C2  UNL     1     -34.070  17.093  -1.785  1.00 20.00    -0.093 C 
HETATM   10  C1  UNL     1     -35.280  16.929  -1.227  1.00 20.00     0.014 C 
HETATM   11  C9  UNL     1     -33.042  17.999  -1.174  1.00 20.00     0.042 C 
ENDBRANCH   8   9
ENDBRANCH   5   8
TORSDOF 2
ENDMDL
MODEL 5
REMARK VINA RESULT:      -4.2     10.603     11.336
REMARK  2 active torsions:
REMARK  status: ('A' for Active; 'I' for Inactive)
REMARK    1  A    between atoms: C2_2  and  C10_10 
REMARK    2  A    between atoms: C7_7  and  C10_10 
ROOT
HETATM    1  C3  UNL     1     -36.462  15.102  -4.773  1.00 20.00     0.002 C 
HETATM    2  C4  UNL     1     -36.110  15.699  -3.414  1.00 20.00     0.005 C 
HETATM    3  C5  UNL     1     -35.461  14.030  -5.198  1.00 20.00     0.016 C 
HETATM    4  C6  UNL     1     -33.663  15.187  -3.810  1.00 20.00     0.020 C 
HETATM    5  C7  UNL     1     -34.683  16.261  -3.397  1.00 20.00    -0.010 C 
HETATM    6  C8  UNL     1     -34.008  14.492  -5.126  1.00 20.00     0.058 C 
HETATM    7 BR11 UNL     1     -33.602  15.673  -6.638  1.00 20.00    -0.091 Br
ENDROOT
BRANCH   5   8
HETATM    8  C10 UNL     1     -34.343  16.821  -2.015  1.00 20.00     0.037 C 
BRANCH   8   9
HETATM    9  C2  UNL     1     -33.320  17.925  -2.075  1.00 20.00    -0.093 C 
HETATM   10  C1  UNL     1     -32.506  18.180  -1.039  1.00 20.00     0.014 C 
HETATM   11  C9  UNL     1     -33.279  18.755  -3.325  1.00 20.00     0.042 C 
ENDBRANCH   8   9
ENDBRANCH   5   8
TORSDOF 2
ENDMDL
MODEL 6
REMARK VINA RESULT:      -4.2     10.126     11.201
REMARK  2 active torsions:
REMARK  status: ('A' for Active; 'I' for Inactive)
REMARK    1  A    between atoms: C2_2  and  C10_10 
REMARK    2  A    between atoms: C7_7  and  C10_10 
ROOT
HETATM    1  C3  UNL     1     -35.224  17.176  -0.634  1.00 20.00     0.002 C 
HETATM    2  C4  UNL     1     -35.241  16.635  -2.060  1.00 20.00     0.005 C 
HETATM    3  C5  UNL     1     -34.842  18.654  -0.593  1.00 20.00     0.016 C 
HETATM    4  C6  UNL     1     -33.509  18.347  -2.745  1.00 20.00     0.020 C 
HETATM    5  C7  UNL     1     -33.899  16.860  -2.766  1.00 20.00    -0.010 C 
HETATM    6  C8  UNL     1     -33.554  18.970  -1.350  1.00 20.00     0.058 C 
HETATM    7 BR11 UNL     1     -32.000  18.392  -0.305  1.00 20.00    -0.091 Br
ENDROOT
BRANCH   5   8
HETATM    8  C10 UNL     1     -33.955  16.341  -4.204  1.00 20.00     0.037 C 
BRANCH   8   9
HETATM    9  C2  UNL     1     -33.837  14.841  -4.280  1.00 20.00    -0.093 C 
HETATM   10  C1  UNL     1     -32.649  14.228  -4.164  1.00 20.00     0.014 C 
HETATM   11  C9  UNL     1     -35.097  14.067  -4.536  1.00 20.00     0.042 C 
ENDBRANCH   8   9
ENDBRANCH   5   8
TORSDOF 2
ENDMDL
MODEL 7
REMARK VINA RESULT:      -4.1     10.455     11.131
REMARK  2 active torsions:
REMARK  status: ('A' for Active; 'I' for Inactive)
REMARK    1  A    between atoms: C2_2  and  C10_10 
REMARK    2  A    between atoms: C7_7  and  C10_10 
ROOT
HETATM    1  C3  UNL     1     -33.425  18.815  -0.465  1.00 20.00     0.002 C 
HETATM    2  C4  UNL     1     -32.949  17.792  -1.491  1.00 20.00     0.005 C 
HETATM    3  C5  UNL     1     -34.526  18.250   0.430  1.00 20.00     0.016 C 
HETATM    4  C6  UNL     1     -35.220  16.677  -1.453  1.00 20.00     0.020 C 
HETATM    5  C7  UNL     1     -34.110  17.262  -2.341  1.00 20.00    -0.010 C 
HETATM    6  C8  UNL     1     -35.682  17.627  -0.349  1.00 20.00     0.058 C 
HETATM    7 BR11 UNL     1     -36.820  19.035  -1.104  1.00 20.00    -0.091 Br
ENDROOT
BRANCH   5   8
HETATM    8  C10 UNL     1     -33.612  16.214  -3.337  1.00 20.00     0.037 C 
BRANCH   8   9
HETATM    9  C2  UNL     1     -34.685  15.778  -4.301  1.00 20.00    -0.093 C 
HETATM   10  C1  UNL     1     -35.361  16.670  -5.043  1.00 20.00     0.014 C 
HETATM   11  C9  UNL     1     -34.994  14.311  -4.365  1.00 20.00     0.042 C 
ENDBRANCH   8   9
ENDBRANCH   5   8
TORSDOF 2
ENDMDL
MODEL 8
REMARK VINA RESULT:      -4.0     10.590     11.748
REMARK  2 active torsions:
REMARK  status: ('A' for Active; 'I' for Inactive)
REMARK    1  A    between atoms: C2_2  and  C10_10 
REMARK    2  A    between atoms: C7_7  and  C10_10 
ROOT
HETATM    1  C3  UNL     1     -36.304  17.392  -5.169  1.00 20.00     0.002 C 
HETATM    2  C4  UNL     1     -36.389  17.435  -3.646  1.00 20.00     0.005 C 
HETATM    3  C5  UNL     1     -36.125  15.967  -5.687  1.00 20.00     0.016 C 
HETATM    4  C6  UNL     1     -34.983  15.336  -3.497  1.00 20.00     0.020 C 
HETATM    5  C7  UNL     1     -35.167  16.777  -2.993  1.00 20.00    -0.010 C 
HETATM    6  C8  UNL     1     -34.974  15.218  -5.020  1.00 20.00     0.058 C 
HETATM    7 BR11 UNL     1     -33.259  15.846  -5.734  1.00 20.00    -0.091 Br
ENDROOT
BRANCH   5   8
HETATM    8  C10 UNL     1     -35.294  16.801  -1.470  1.00 20.00     0.037 C 
BRANCH   8   9
HETATM    9  C2  UNL     1     -34.227  17.640  -0.815  1.00 20.00    -0.093 C 
HETATM   10  C1  UNL     1     -34.421  18.198   0.390  1.00 20.00     0.014 C 
HETATM   11  C9  UNL     1     -32.959  17.860  -1.586  1.00 20.00     0.042 C 
ENDBRANCH   8   9
ENDBRANCH   5   8
TORSDOF 2
ENDMDL
MODEL 9
REMARK VINA RESULT:      -3.9     10.583     11.545
REMARK  2 active torsions:
REMARK  status: ('A' for Active; 'I' for Inactive)
REMARK    1  A    between atoms: C2_2  and  C10_10 
REMARK    2  A    between atoms: C7_7  and  C10_10 
ROOT
HETATM    1  C3  UNL     1     -33.790  16.258  -3.071  1.00 20.00     0.002 C 
HETATM    2  C4  UNL     1     -34.160  14.984  -3.823  1.00 20.00     0.005 C 
HETATM    3  C5  UNL     1     -34.939  16.754  -2.195  1.00 20.00     0.016 C 
HETATM    4  C6  UNL     1     -36.599  15.658  -3.789  1.00 20.00     0.020 C 
HETATM    5  C7  UNL     1     -35.431  15.172  -4.662  1.00 20.00    -0.010 C 
HETATM    6  C8  UNL     1     -36.261  16.886  -2.945  1.00 20.00     0.058 C 
HETATM    7 BR11 UNL     1     -36.238  18.491  -4.072  1.00 20.00    -0.091 Br
ENDROOT
BRANCH   5   8
HETATM    8  C10 UNL     1     -35.799  13.871  -5.376  1.00 20.00     0.037 C 
BRANCH   8   9
HETATM    9  C2  UNL     1     -35.601  13.956  -6.867  1.00 20.00    -0.093 C 
HETATM   10  C1  UNL     1     -34.445  13.583  -7.440  1.00 20.00     0.014 C 
HETATM   11  C9  UNL     1     -36.732  14.514  -7.680  1.00 20.00     0.042 C 
ENDBRANCH   8   9
ENDBRANCH   5   8
TORSDOF 2
ENDMDL
