MODEL 1
REMARK VINA RESULT:      -6.5      0.000      0.000
REMARK  5 active torsions:
REMARK  status: ('A' for Active; 'I' for Inactive)
REMARK    1  A    between atoms: C2_2  and  C5_5 
REMARK    2  A    between atoms: C5_5  and  C7_7 
REMARK    3  A    between atoms: C6_6  and  C9_9 
REMARK    4  A    between atoms: C7_7  and  C8_8 
REMARK    5  A    between atoms: C8_8  and  C9_9 
ROOT
HETATM    1  C7  UNL     1     -32.056   8.108   2.858  1.00 20.00     0.006 C 
ENDROOT
BRANCH   1   2
HETATM    2  C5  UNL     1     -31.679   8.504   1.423  1.00 20.00     0.033 C 
BRANCH   2   3
HETATM    3  C2  UNL     1     -32.522   9.611   0.835  1.00 20.00    -0.093 C 
HETATM    4  C1  UNL     1     -32.727  10.762   1.494  1.00 20.00     0.014 C 
HETATM    5  C3  UNL     1     -33.152   9.354  -0.503  1.00 20.00     0.042 C 
ENDBRANCH   2   3
ENDBRANCH   1   2
BRANCH   1   6
HETATM    6  C8  UNL     1     -32.913   6.836   2.923  1.00 20.00     0.020 C 
BRANCH   6   7
HETATM    7  C9  UNL     1     -34.039   6.914   3.968  1.00 20.00     0.082 C 
HETATM    8 CL10 UNL     1     -33.378   7.435   5.550  1.00 20.00    -0.125 Cl
BRANCH   7   9
HETATM    9  C6  UNL     1     -34.747   5.559   4.104  1.00 20.00     0.016 C 
HETATM   10  C4  UNL     1     -34.665   4.965   5.504  1.00 20.00     0.006 C 
ENDBRANCH   7   9
ENDBRANCH   6   7
ENDBRANCH   1   6
TORSDOF 5
ENDMDL
MODEL 2
REMARK VINA RESULT:      -6.5      0.052      1.110
REMARK  5 active torsions:
REMARK  status: ('A' for Active; 'I' for Inactive)
REMARK    1  A    between atoms: C2_2  and  C5_5 
REMARK    2  A    between atoms: C5_5  and  C7_7 
REMARK    3  A    between atoms: C6_6  and  C9_9 
REMARK    4  A    between atoms: C7_7  and  C8_8 
REMARK    5  A    between atoms: C8_8  and  C9_9 
ROOT
HETATM    1  C7  UNL     1     -32.059   8.098   2.837  1.00 20.00     0.006 C 
ENDROOT
BRANCH   1   2
HETATM    2  C5  UNL     1     -31.657   8.487   1.407  1.00 20.00     0.033 C 
BRANCH   2   3
HETATM    3  C2  UNL     1     -32.544   9.528   0.766  1.00 20.00    -0.093 C 
HETATM    4  C1  UNL     1     -33.095   9.331  -0.442  1.00 20.00     0.014 C 
HETATM    5  C3  UNL     1     -32.752  10.809   1.520  1.00 20.00     0.042 C 
ENDBRANCH   2   3
ENDBRANCH   1   2
BRANCH   1   6
HETATM    6  C8  UNL     1     -32.926   6.833   2.894  1.00 20.00     0.020 C 
BRANCH   6   7
HETATM    7  C9  UNL     1     -34.043   6.908   3.949  1.00 20.00     0.082 C 
HETATM    8 CL10 UNL     1     -33.369   7.434   5.525  1.00 20.00    -0.125 Cl
BRANCH   7   9
HETATM    9  C6  UNL     1     -34.743   5.550   4.094  1.00 20.00     0.016 C 
HETATM   10  C4  UNL     1     -34.656   4.964   5.498  1.00 20.00     0.006 C 
ENDBRANCH   7   9
ENDBRANCH   6   7
ENDBRANCH   1   6
TORSDOF 5
ENDMDL
MODEL 3
REMARK VINA RESULT:      -6.1      1.358      1.358
REMARK  5 active torsions:
REMARK  status: ('A' for Active; 'I' for Inactive)
REMARK    1  A    between atoms: C2_2  and  C5_5 
REMARK    2  A    between atoms: C5_5  and  C7_7 
REMARK    3  A    between atoms: C6_6  and  C9_9 
REMARK    4  A    between atoms: C7_7  and  C8_8 
REMARK    5  A    between atoms: C8_8  and  C9_9 
ROOT
HETATM    1  C7  UNL     1     -31.987   8.097   2.787  1.00 20.00     0.006 C 
ENDROOT
BRANCH   1   2
HETATM    2  C5  UNL     1     -31.622   8.533   1.361  1.00 20.00     0.033 C 
BRANCH   2   3
HETATM    3  C2  UNL     1     -32.486   9.638   0.800  1.00 20.00    -0.093 C 
HETATM    4  C1  UNL     1     -32.670  10.789   1.465  1.00 20.00     0.014 C 
HETATM    5  C3  UNL     1     -33.161   9.379  -0.516  1.00 20.00     0.042 C 
ENDBRANCH   2   3
ENDBRANCH   1   2
BRANCH   1   6
HETATM    6  C8  UNL     1     -33.379   7.456   2.881  1.00 20.00     0.020 C 
BRANCH   6   7
HETATM    7  C9  UNL     1     -33.380   6.113   3.630  1.00 20.00     0.082 C 
HETATM    8 CL10 UNL     1     -32.965   4.779   2.507  1.00 20.00    -0.125 Cl
BRANCH   7   9
HETATM    9  C6  UNL     1     -34.746   5.858   4.281  1.00 20.00     0.016 C 
HETATM   10  C4  UNL     1     -34.669   5.030   5.559  1.00 20.00     0.006 C 
ENDBRANCH   7   9
ENDBRANCH   6   7
ENDBRANCH   1   6
TORSDOF 5
ENDMDL
MODEL 4
REMARK VINA RESULT:      -6.0      1.330      5.190
REMARK  5 active torsions:
REMARK  status: ('A' for Active; 'I' for Inactive)
REMARK    1  A    between atoms: C2_2  and  C5_5 
REMARK    2  A    between atoms: C5_5  and  C7_7 
REMARK    3  A    between atoms: C6_6  and  C9_9 
REMARK    4  A    between atoms: C7_7  and  C8_8 
REMARK    5  A    between atoms: C8_8  and  C9_9 
ROOT
HETATM    1  C7  UNL     1     -33.188   6.272   2.912  1.00 20.00     0.006 C 
ENDROOT
BRANCH   1   2
HETATM    2  C5  UNL     1     -34.496   6.047   3.682  1.00 20.00     0.033 C 
BRANCH   2   3
HETATM    3  C2  UNL     1     -34.341   5.997   5.184  1.00 20.00    -0.093 C 
HETATM    4  C1  UNL     1     -34.667   4.901   5.886  1.00 20.00     0.014 C 
HETATM    5  C3  UNL     1     -33.841   7.240   5.863  1.00 20.00     0.042 C 
ENDBRANCH   2   3
ENDBRANCH   1   2
BRANCH   1   6
HETATM    6  C8  UNL     1     -33.258   7.460   1.943  1.00 20.00     0.020 C 
BRANCH   6   7
HETATM    7  C9  UNL     1     -31.976   8.310   1.927  1.00 20.00     0.082 C 
HETATM    8 CL10 UNL     1     -31.322   8.471   3.588  1.00 20.00    -0.125 Cl
BRANCH   7   9
HETATM    9  C6  UNL     1     -32.252   9.694   1.324  1.00 20.00     0.016 C 
HETATM   10  C4  UNL     1     -32.950   9.643  -0.029  1.00 20.00     0.006 C 
ENDBRANCH   7   9
ENDBRANCH   6   7
ENDBRANCH   1   6
TORSDOF 5
ENDMDL
MODEL 5
REMARK VINA RESULT:      -5.8      1.312      1.449
REMARK  5 active torsions:
REMARK  status: ('A' for Active; 'I' for Inactive)
REMARK    1  A    between atoms: C2_2  and  C5_5 
REMARK    2  A    between atoms: C5_5  and  C7_7 
REMARK    3  A    between atoms: C6_6  and  C9_9 
REMARK    4  A    between atoms: C7_7  and  C8_8 
REMARK    5  A    between atoms: C8_8  and  C9_9 
ROOT
HETATM    1  C7  UNL     1     -32.242   8.001   2.663  1.00 20.00     0.006 C 
ENDROOT
BRANCH   1   2
HETATM    2  C5  UNL     1     -31.724   8.529   1.318  1.00 20.00     0.033 C 
BRANCH   2   3
HETATM    3  C2  UNL     1     -32.532   9.665   0.735  1.00 20.00    -0.093 C 
HETATM    4  C1  UNL     1     -32.715  10.812   1.407  1.00 20.00     0.014 C 
HETATM    5  C3  UNL     1     -33.152   9.441  -0.614  1.00 20.00     0.042 C 
ENDBRANCH   2   3
ENDBRANCH   1   2
BRANCH   1   6
HETATM    6  C8  UNL     1     -33.081   6.723   2.523  1.00 20.00     0.020 C 
BRANCH   6   7
HETATM    7  C9  UNL     1     -33.640   6.214   3.862  1.00 20.00     0.082 C 
HETATM    8 CL10 UNL     1     -35.403   5.922   3.723  1.00 20.00    -0.125 Cl
BRANCH   7   9
HETATM    9  C6  UNL     1     -33.351   7.217   4.987  1.00 20.00     0.016 C 
HETATM   10  C4  UNL     1     -34.134   6.944   6.266  1.00 20.00     0.006 C 
ENDBRANCH   7   9
ENDBRANCH   6   7
ENDBRANCH   1   6
TORSDOF 5
ENDMDL
MODEL 6
REMARK VINA RESULT:      -5.4      2.056      5.245
REMARK  5 active torsions:
REMARK  status: ('A' for Active; 'I' for Inactive)
REMARK    1  A    between atoms: C2_2  and  C5_5 
REMARK    2  A    between atoms: C5_5  and  C7_7 
REMARK    3  A    between atoms: C6_6  and  C9_9 
REMARK    4  A    between atoms: C7_7  and  C8_8 
REMARK    5  A    between atoms: C8_8  and  C9_9 
ROOT
HETATM    1  C7  UNL     1     -32.739   6.859   2.952  1.00 20.00     0.006 C 
ENDROOT
BRANCH   1   2
HETATM    2  C5  UNL     1     -34.146   6.687   3.542  1.00 20.00     0.033 C 
BRANCH   2   3
HETATM    3  C2  UNL     1     -34.175   6.381   5.021  1.00 20.00    -0.093 C 
HETATM    4  C1  UNL     1     -33.765   7.278   5.930  1.00 20.00     0.014 C 
HETATM    5  C3  UNL     1     -34.648   5.015   5.428  1.00 20.00     0.042 C 
ENDBRANCH   2   3
ENDBRANCH   1   2
BRANCH   1   6
HETATM    6  C8  UNL     1     -32.395   8.322   2.639  1.00 20.00     0.020 C 
BRANCH   6   7
HETATM    7  C9  UNL     1     -32.557   8.680   1.152  1.00 20.00     0.082 C 
HETATM    8 CL10 UNL     1     -30.982   8.539   0.308  1.00 20.00    -0.125 Cl
BRANCH   7   9
HETATM    9  C6  UNL     1     -33.123  10.098   0.995  1.00 20.00     0.016 C 
HETATM   10  C4  UNL     1     -32.429  11.134   1.871  1.00 20.00     0.006 C 
ENDBRANCH   7   9
ENDBRANCH   6   7
ENDBRANCH   1   6
TORSDOF 5
ENDMDL
MODEL 7
REMARK VINA RESULT:      -5.4      1.855      5.130
REMARK  5 active torsions:
REMARK  status: ('A' for Active; 'I' for Inactive)
REMARK    1  A    between atoms: C2_2  and  C5_5 
REMARK    2  A    between atoms: C5_5  and  C7_7 
REMARK    3  A    between atoms: C6_6  and  C9_9 
REMARK    4  A    between atoms: C7_7  and  C8_8 
REMARK    5  A    between atoms: C8_8  and  C9_9 
ROOT
HETATM    1  C7  UNL     1     -32.667   7.165   2.729  1.00 20.00     0.006 C 
ENDROOT
BRANCH   1   2
HETATM    2  C5  UNL     1     -34.067   7.155   3.360  1.00 20.00     0.033 C 
BRANCH   2   3
HETATM    3  C2  UNL     1     -34.146   6.471   4.705  1.00 20.00    -0.093 C 
HETATM    4  C1  UNL     1     -34.622   5.222   4.829  1.00 20.00     0.014 C 
HETATM    5  C3  UNL     1     -33.704   7.261   5.902  1.00 20.00     0.042 C 
ENDBRANCH   2   3
ENDBRANCH   1   2
BRANCH   1   6
HETATM    6  C8  UNL     1     -31.936   8.502   2.913  1.00 20.00     0.020 C 
BRANCH   6   7
HETATM    7  C9  UNL     1     -31.838   9.325   1.618  1.00 20.00     0.082 C 
HETATM    8 CL10 UNL     1     -32.776  10.844   1.780  1.00 20.00    -0.125 Cl
BRANCH   7   9
HETATM    9  C6  UNL     1     -32.343   8.511   0.419  1.00 20.00     0.016 C 
HETATM   10  C4  UNL     1     -33.189   9.320  -0.557  1.00 20.00     0.006 C 
ENDBRANCH   7   9
ENDBRANCH   6   7
ENDBRANCH   1   6
TORSDOF 5
ENDMDL
MODEL 8
REMARK VINA RESULT:      -4.7      2.251      5.014
REMARK  5 active torsions:
REMARK  status: ('A' for Active; 'I' for Inactive)
REMARK    1  A    between atoms: C2_2  and  C5_5 
REMARK    2  A    between atoms: C5_5  and  C7_7 
REMARK    3  A    between atoms: C6_6  and  C9_9 
REMARK    4  A    between atoms: C7_7  and  C8_8 
REMARK    5  A    between atoms: C8_8  and  C9_9 
ROOT
HETATM    1  C7  UNL     1     -33.375   6.125   2.817  1.00 20.00     0.006 C 
ENDROOT
BRANCH   1   2
HETATM    2  C5  UNL     1     -34.639   6.167   3.686  1.00 20.00     0.033 C 
BRANCH   2   3
HETATM    3  C2  UNL     1     -34.395   5.959   5.163  1.00 20.00    -0.093 C 
HETATM    4  C1  UNL     1     -34.622   4.775   5.751  1.00 20.00     0.014 C 
HETATM    5  C3  UNL     1     -33.923   7.146   5.951  1.00 20.00     0.042 C 
ENDBRANCH   2   3
ENDBRANCH   1   2
BRANCH   1   6
HETATM    6  C8  UNL     1     -33.374   7.186   1.707  1.00 20.00     0.020 C 
BRANCH   6   7
HETATM    7  C9  UNL     1     -32.517   8.417   2.044  1.00 20.00     0.082 C 
HETATM    8 CL10 UNL     1     -31.792   9.092   0.550  1.00 20.00    -0.125 Cl
BRANCH   7   9
HETATM    9  C6  UNL     1     -31.421   8.054   3.055  1.00 20.00     0.016 C 
HETATM   10  C4  UNL     1     -31.443   8.909   4.316  1.00 20.00     0.006 C 
ENDBRANCH   7   9
ENDBRANCH   6   7
ENDBRANCH   1   6
TORSDOF 5
ENDMDL
MODEL 9
REMARK VINA RESULT:      -4.7      1.560      2.432
REMARK  5 active torsions:
REMARK  status: ('A' for Active; 'I' for Inactive)
REMARK    1  A    between atoms: C2_2  and  C5_5 
REMARK    2  A    between atoms: C5_5  and  C7_7 
REMARK    3  A    between atoms: C6_6  and  C9_9 
REMARK    4  A    between atoms: C7_7  and  C8_8 
REMARK    5  A    between atoms: C8_8  and  C9_9 
ROOT
HETATM    1  C7  UNL     1     -32.625   5.675   3.114  1.00 20.00     0.006 C 
ENDROOT
BRANCH   1   2
HETATM    2  C5  UNL     1     -33.040   6.801   2.157  1.00 20.00     0.033 C 
BRANCH   2   3
HETATM    3  C2  UNL     1     -32.268   8.088   2.329  1.00 20.00    -0.093 C 
HETATM    4  C1  UNL     1     -31.514   8.314   3.415  1.00 20.00     0.014 C 
HETATM    5  C3  UNL     1     -32.411   9.121   1.249  1.00 20.00     0.042 C 
ENDBRANCH   2   3
ENDBRANCH   1   2
BRANCH   1   6
HETATM    6  C8  UNL     1     -33.691   4.578   3.249  1.00 20.00     0.020 C 
BRANCH   6   7
HETATM    7  C9  UNL     1     -34.776   4.909   4.288  1.00 20.00     0.082 C 
HETATM    8 CL10 UNL     1     -35.837   6.218   3.678  1.00 20.00    -0.125 Cl
BRANCH   7   9
HETATM    9  C6  UNL     1     -34.140   5.314   5.624  1.00 20.00     0.016 C 
HETATM   10  C4  UNL     1     -34.132   6.819   5.866  1.00 20.00     0.006 C 
ENDBRANCH   7   9
ENDBRANCH   6   7
ENDBRANCH   1   6
TORSDOF 5
ENDMDL
