MODEL 1
REMARK VINA RESULT:      -4.3      0.000      0.000
REMARK  4 active torsions:
REMARK  status: ('A' for Active; 'I' for Inactive)
REMARK    1  A    between atoms: C2_2  and  C7_7 
REMARK    2  A    between atoms: C6_6  and  C7_7 
REMARK    3  A    between atoms: C6_6  and  S9_9 
REMARK    4  A    between atoms: C7_7  and  N8_8 
ROOT
HETATM    1  C7  UNL     1     -33.849   6.932   3.586  1.00 20.00     0.257 C 
ENDROOT
BRANCH   1   2
HETATM    2  C2  UNL     1     -33.985   6.661   5.078  1.00 20.00    -0.060 C 
HETATM    3  C1  UNL     1     -33.509   7.532   5.984  1.00 20.00     0.016 C 
HETATM    4  C3  UNL     1     -34.664   5.393   5.521  1.00 20.00     0.044 C 
ENDBRANCH   1   2
BRANCH   1   5
HETATM    5  C6  UNL     1     -32.457   7.440   3.163  1.00 20.00     0.113 C 
BRANCH   5   6
HETATM    6  S9  UNL     1     -32.536   9.000   2.225  1.00 20.00    -0.171 SA
HETATM    7  C5  UNL     1     -31.460   8.527   0.852  1.00 20.00     0.089 C 
ENDBRANCH   5   6
ENDBRANCH   1   5
BRANCH   1   8
HETATM    8  N8  UNL     1     -34.173   5.726   2.808  1.00 20.00     0.088 N 
HETATM    9  C4  UNL     1     -32.975   4.945   2.561  1.00 20.00     0.307 C 
HETATM   10  H24 UNL     1     -34.843   5.174   3.334  1.00 20.00     0.316 HD
ENDBRANCH   1   8
TORSDOF 4
ENDMDL
MODEL 2
REMARK VINA RESULT:      -3.9      1.268      2.545
REMARK  4 active torsions:
REMARK  status: ('A' for Active; 'I' for Inactive)
REMARK    1  A    between atoms: C2_2  and  C7_7 
REMARK    2  A    between atoms: C6_6  and  C7_7 
REMARK    3  A    between atoms: C6_6  and  S9_9 
REMARK    4  A    between atoms: C7_7  and  N8_8 
ROOT
HETATM    1  C7  UNL     1     -33.301   6.594   3.755  1.00 20.00     0.257 C 
ENDROOT
BRANCH   1   2
HETATM    2  C2  UNL     1     -33.576   5.125   3.467  1.00 20.00    -0.060 C 
HETATM    3  C1  UNL     1     -33.036   4.520   2.396  1.00 20.00     0.016 C 
HETATM    4  C3  UNL     1     -34.468   4.361   4.408  1.00 20.00     0.044 C 
ENDBRANCH   1   2
BRANCH   1   5
HETATM    5  C6  UNL     1     -33.327   7.497   2.506  1.00 20.00     0.113 C 
BRANCH   5   6
HETATM    6  S9  UNL     1     -31.816   8.499   2.333  1.00 20.00    -0.171 SA
HETATM    7  C5  UNL     1     -32.412   9.645   1.071  1.00 20.00     0.089 C 
ENDBRANCH   5   6
ENDBRANCH   1   5
BRANCH   1   8
HETATM    8  N8  UNL     1     -34.258   7.118   4.743  1.00 20.00     0.088 N 
HETATM    9  C4  UNL     1     -33.577   7.452   5.980  1.00 20.00     0.307 C 
HETATM   10  H24 UNL     1     -34.698   7.947   4.357  1.00 20.00     0.316 HD
ENDBRANCH   1   8
TORSDOF 4
ENDMDL
MODEL 3
REMARK VINA RESULT:      -3.4     11.364     11.956
REMARK  4 active torsions:
REMARK  status: ('A' for Active; 'I' for Inactive)
REMARK    1  A    between atoms: C2_2  and  C7_7 
REMARK    2  A    between atoms: C6_6  and  C7_7 
REMARK    3  A    between atoms: C6_6  and  S9_9 
REMARK    4  A    between atoms: C7_7  and  N8_8 
ROOT
HETATM    1  C7  UNL     1     -35.133  16.438  -3.253  1.00 20.00     0.257 C 
ENDROOT
BRANCH   1   2
HETATM    2  C2  UNL     1     -34.639  16.991  -1.923  1.00 20.00    -0.060 C 
HETATM    3  C1  UNL     1     -35.452  17.048  -0.855  1.00 20.00     0.016 C 
HETATM    4  C3  UNL     1     -33.217  17.477  -1.829  1.00 20.00     0.044 C 
ENDBRANCH   1   2
BRANCH   1   5
HETATM    5  C6  UNL     1     -34.391  15.173  -3.724  1.00 20.00     0.113 C 
BRANCH   5   6
HETATM    6  S9  UNL     1     -33.196  15.516  -5.056  1.00 20.00    -0.171 SA
HETATM    7  C5  UNL     1     -33.828  17.133  -5.557  1.00 20.00     0.089 C 
ENDBRANCH   5   6
ENDBRANCH   1   5
BRANCH   1   8
HETATM    8  N8  UNL     1     -36.575  16.151  -3.192  1.00 20.00     0.088 N 
HETATM    9  C4  UNL     1     -36.968  15.296  -4.297  1.00 20.00     0.307 C 
HETATM   10  H24 UNL     1     -36.774  15.690  -2.311  1.00 20.00     0.316 HD
ENDBRANCH   1   8
TORSDOF 4
ENDMDL
MODEL 4
REMARK VINA RESULT:      -3.4     11.491     11.943
REMARK  4 active torsions:
REMARK  status: ('A' for Active; 'I' for Inactive)
REMARK    1  A    between atoms: C2_2  and  C7_7 
REMARK    2  A    between atoms: C6_6  and  C7_7 
REMARK    3  A    between atoms: C6_6  and  S9_9 
REMARK    4  A    between atoms: C7_7  and  N8_8 
ROOT
HETATM    1  C7  UNL     1     -34.527  15.755  -3.363  1.00 20.00     0.257 C 
ENDROOT
BRANCH   1   2
HETATM    2  C2  UNL     1     -34.363  16.737  -2.211  1.00 20.00    -0.060 C 
HETATM    3  C1  UNL     1     -33.215  17.413  -2.039  1.00 20.00     0.016 C 
HETATM    4  C3  UNL     1     -35.516  16.935  -1.264  1.00 20.00     0.044 C 
ENDBRANCH   1   2
BRANCH   1   5
HETATM    5  C6  UNL     1     -35.532  16.209  -4.440  1.00 20.00     0.113 C 
BRANCH   5   6
HETATM    6  S9  UNL     1     -37.002  15.137  -4.523  1.00 20.00    -0.171 SA
HETATM    7  C5  UNL     1     -36.217  13.681  -5.247  1.00 20.00     0.089 C 
ENDBRANCH   5   6
ENDBRANCH   1   5
BRANCH   1   8
HETATM    8  N8  UNL     1     -33.230  15.485  -4.004  1.00 20.00     0.088 N 
HETATM    9  C4  UNL     1     -33.244  15.934  -5.384  1.00 20.00     0.307 C 
HETATM   10  H24 UNL     1     -32.508  15.977  -3.488  1.00 20.00     0.316 HD
ENDBRANCH   1   8
TORSDOF 4
ENDMDL
MODEL 5
REMARK VINA RESULT:      -3.4      1.816      3.758
REMARK  4 active torsions:
REMARK  status: ('A' for Active; 'I' for Inactive)
REMARK    1  A    between atoms: C2_2  and  C7_7 
REMARK    2  A    between atoms: C6_6  and  C7_7 
REMARK    3  A    between atoms: C6_6  and  S9_9 
REMARK    4  A    between atoms: C7_7  and  N8_8 
ROOT
HETATM    1  C7  UNL     1     -32.993   6.843   3.346  1.00 20.00     0.257 C 
ENDROOT
BRANCH   1   2
HETATM    2  C2  UNL     1     -32.162   7.989   2.788  1.00 20.00    -0.060 C 
HETATM    3  C1  UNL     1     -31.143   8.510   3.493  1.00 20.00     0.016 C 
HETATM    4  C3  UNL     1     -32.506   8.532   1.427  1.00 20.00     0.044 C 
ENDBRANCH   1   2
BRANCH   1   5
HETATM    5  C6  UNL     1     -34.193   7.293   4.202  1.00 20.00     0.113 C 
BRANCH   5   6
HETATM    6  S9  UNL     1     -34.047   6.774   5.942  1.00 20.00    -0.171 SA
HETATM    7  C5  UNL     1     -34.600   5.065   5.747  1.00 20.00     0.089 C 
ENDBRANCH   5   6
ENDBRANCH   1   5
BRANCH   1   8
HETATM    8  N8  UNL     1     -33.479   5.976   2.261  1.00 20.00     0.088 N 
HETATM    9  C4  UNL     1     -33.048   4.607   2.475  1.00 20.00     0.307 C 
HETATM   10  H24 UNL     1     -34.492   6.020   2.244  1.00 20.00     0.316 HD
ENDBRANCH   1   8
TORSDOF 4
ENDMDL
MODEL 6
REMARK VINA RESULT:      -3.3      2.092      3.992
REMARK  4 active torsions:
REMARK  status: ('A' for Active; 'I' for Inactive)
REMARK    1  A    between atoms: C2_2  and  C7_7 
REMARK    2  A    between atoms: C6_6  and  C7_7 
REMARK    3  A    between atoms: C6_6  and  S9_9 
REMARK    4  A    between atoms: C7_7  and  N8_8 
ROOT
HETATM    1  C7  UNL     1     -33.457   7.694   3.747  1.00 20.00     0.257 C 
ENDROOT
BRANCH   1   2
HETATM    2  C2  UNL     1     -32.333   8.158   2.831  1.00 20.00    -0.060 C 
HETATM    3  C1  UNL     1     -31.065   8.221   3.271  1.00 20.00     0.016 C 
HETATM    4  C3  UNL     1     -32.671   8.549   1.417  1.00 20.00     0.044 C 
ENDBRANCH   1   2
BRANCH   1   5
HETATM    5  C6  UNL     1     -34.267   6.504   3.197  1.00 20.00     0.113 C 
BRANCH   5   6
HETATM    6  S9  UNL     1     -33.265   4.993   3.026  1.00 20.00    -0.171 SA
HETATM    7  C5  UNL     1     -34.115   3.981   4.259  1.00 20.00     0.089 C 
ENDBRANCH   5   6
ENDBRANCH   1   5
BRANCH   1   8
HETATM    8  N8  UNL     1     -32.932   7.342   5.076  1.00 20.00     0.088 N 
HETATM    9  C4  UNL     1     -34.020   7.180   6.023  1.00 20.00     0.307 C 
HETATM   10  H24 UNL     1     -32.412   6.474   4.996  1.00 20.00     0.316 HD
ENDBRANCH   1   8
TORSDOF 4
ENDMDL
MODEL 7
REMARK VINA RESULT:      -3.3     11.418     12.407
REMARK  4 active torsions:
REMARK  status: ('A' for Active; 'I' for Inactive)
REMARK    1  A    between atoms: C2_2  and  C7_7 
REMARK    2  A    between atoms: C6_6  and  C7_7 
REMARK    3  A    between atoms: C6_6  and  S9_9 
REMARK    4  A    between atoms: C7_7  and  N8_8 
ROOT
HETATM    1  C7  UNL     1     -34.830  14.406  -5.584  1.00 20.00     0.257 C 
ENDROOT
BRANCH   1   2
HETATM    2  C2  UNL     1     -33.977  14.774  -4.377  1.00 20.00    -0.060 C 
HETATM    3  C1  UNL     1     -32.735  14.282  -4.234  1.00 20.00     0.016 C 
HETATM    4  C3  UNL     1     -34.557  15.701  -3.343  1.00 20.00     0.044 C 
ENDBRANCH   1   2
BRANCH   1   5
HETATM    5  C6  UNL     1     -35.345  15.617  -6.385  1.00 20.00     0.113 C 
BRANCH   5   6
HETATM    6  S9  UNL     1     -37.135  15.885  -6.176  1.00 20.00    -0.171 SA
HETATM    7  C5  UNL     1     -37.542  14.304  -5.403  1.00 20.00     0.089 C 
ENDBRANCH   5   6
ENDBRANCH   1   5
BRANCH   1   8
HETATM    8  N8  UNL     1     -34.089  13.514  -6.491  1.00 20.00     0.088 N 
HETATM    9  C4  UNL     1     -34.219  13.968  -7.863  1.00 20.00     0.307 C 
HETATM   10  H24 UNL     1     -33.112  13.518  -6.217  1.00 20.00     0.316 HD
ENDBRANCH   1   8
TORSDOF 4
ENDMDL
MODEL 8
REMARK VINA RESULT:      -3.3     11.587     12.242
REMARK  4 active torsions:
REMARK  status: ('A' for Active; 'I' for Inactive)
REMARK    1  A    between atoms: C2_2  and  C7_7 
REMARK    2  A    between atoms: C6_6  and  C7_7 
REMARK    3  A    between atoms: C6_6  and  S9_9 
REMARK    4  A    between atoms: C7_7  and  N8_8 
ROOT
HETATM    1  C7  UNL     1     -33.754  16.425  -3.257  1.00 20.00     0.257 C 
ENDROOT
BRANCH   1   2
HETATM    2  C2  UNL     1     -33.989  17.103  -1.914  1.00 20.00    -0.060 C 
HETATM    3  C1  UNL     1     -35.144  16.933  -1.249  1.00 20.00     0.016 C 
HETATM    4  C3  UNL     1     -32.899  17.972  -1.345  1.00 20.00     0.044 C 
ENDBRANCH   1   2
BRANCH   1   5
HETATM    5  C6  UNL     1     -34.921  15.535  -3.726  1.00 20.00     0.113 C 
BRANCH   5   6
HETATM    6  S9  UNL     1     -34.413  14.314  -4.978  1.00 20.00    -0.171 SA
HETATM    7  C5  UNL     1     -36.016  13.520  -5.227  1.00 20.00     0.089 C 
ENDBRANCH   5   6
ENDBRANCH   1   5
BRANCH   1   8
HETATM    8  N8  UNL     1     -33.466  17.423  -4.299  1.00 20.00     0.088 N 
HETATM    9  C4  UNL     1     -34.684  18.105  -4.698  1.00 20.00     0.307 C 
HETATM   10  H24 UNL     1     -32.802  18.093  -3.928  1.00 20.00     0.316 HD
ENDBRANCH   1   8
TORSDOF 4
ENDMDL
MODEL 9
REMARK VINA RESULT:      -3.3     11.526     12.122
REMARK  4 active torsions:
REMARK  status: ('A' for Active; 'I' for Inactive)
REMARK    1  A    between atoms: C2_2  and  C7_7 
REMARK    2  A    between atoms: C6_6  and  C7_7 
REMARK    3  A    between atoms: C6_6  and  S9_9 
REMARK    4  A    between atoms: C7_7  and  N8_8 
ROOT
HETATM    1  C7  UNL     1     -35.896  15.140  -4.598  1.00 20.00     0.257 C 
ENDROOT
BRANCH   1   2
HETATM    2  C2  UNL     1     -34.694  15.517  -3.742  1.00 20.00    -0.060 C 
HETATM    3  C1  UNL     1     -34.841  16.270  -2.640  1.00 20.00     0.016 C 
HETATM    4  C3  UNL     1     -33.332  15.028  -4.158  1.00 20.00     0.044 C 
ENDBRANCH   1   2
BRANCH   1   5
HETATM    5  C6  UNL     1     -35.897  13.674  -5.073  1.00 20.00     0.113 C 
BRANCH   5   6
HETATM    6  S9  UNL     1     -35.415  13.504  -6.822  1.00 20.00    -0.171 SA
HETATM    7  C5  UNL     1     -35.689  15.215  -7.331  1.00 20.00     0.089 C 
ENDBRANCH   5   6
ENDBRANCH   1   5
BRANCH   1   8
HETATM    8  N8  UNL     1     -37.151  15.410  -3.878  1.00 20.00     0.088 N 
HETATM    9  C4  UNL     1     -38.288  14.953  -4.656  1.00 20.00     0.307 C 
HETATM   10  H24 UNL     1     -37.122  14.922  -2.989  1.00 20.00     0.316 HD
ENDBRANCH   1   8
TORSDOF 4
ENDMDL
