MODEL 1
REMARK VINA RESULT:      -5.2      0.000      0.000
REMARK  3 active torsions:
REMARK  status: ('A' for Active; 'I' for Inactive)
REMARK    1  A    between atoms: C2_2  and  C9_9 
REMARK    2  A    between atoms: C7_7  and  C9_9 
REMARK    3  A    between atoms: C9_9  and  O11_11 
ROOT
HETATM    1  C3  UNL     1     -33.987   7.169   4.387  1.00 20.00     0.034 C 
HETATM    2  C4  UNL     1     -32.580   6.010   2.663  1.00 20.00     0.034 C 
HETATM    3  C5  UNL     1     -34.834   5.903   4.444  1.00 20.00     0.168 C 
HETATM    4  C6  UNL     1     -33.506   4.809   2.818  1.00 20.00     0.168 C 
HETATM    5  C7  UNL     1     -33.314   7.308   3.017  1.00 20.00     0.023 C 
HETATM    6  O10 UNL     1     -34.047   4.752   4.137  1.00 20.00    -0.391 OA
ENDROOT
BRANCH   5   7
HETATM    7  C9  UNL     1     -32.364   8.502   2.990  1.00 20.00     0.150 C 
BRANCH   7   8
HETATM    8  C2  UNL     1     -32.224   9.104   1.611  1.00 20.00    -0.064 C 
HETATM    9  C1  UNL     1     -31.418   8.549   0.692  1.00 20.00     0.016 C 
HETATM   10  C8  UNL     1     -33.022  10.339   1.292  1.00 20.00     0.045 C 
ENDBRANCH   7   8
BRANCH   7  11
HETATM   11  O11 UNL     1     -31.080   8.092   3.452  1.00 20.00    -0.391 OA
HETATM   12  H27 UNL     1     -30.779   8.774   4.073  1.00 20.00     0.210 HD
ENDBRANCH   7  11
ENDBRANCH   5   7
TORSDOF 3
ENDMDL
MODEL 2
REMARK VINA RESULT:      -4.4     10.516     11.170
REMARK  3 active torsions:
REMARK  status: ('A' for Active; 'I' for Inactive)
REMARK    1  A    between atoms: C2_2  and  C9_9 
REMARK    2  A    between atoms: C7_7  and  C9_9 
REMARK    3  A    between atoms: C9_9  and  O11_11 
ROOT
HETATM    1  C3  UNL     1     -33.523  15.732  -3.913  1.00 20.00     0.034 C 
HETATM    2  C4  UNL     1     -35.930  15.084  -4.203  1.00 20.00     0.034 C 
HETATM    3  C5  UNL     1     -33.160  14.384  -4.525  1.00 20.00     0.168 C 
HETATM    4  C6  UNL     1     -35.431  13.773  -4.799  1.00 20.00     0.168 C 
HETATM    5  C7  UNL     1     -34.896  15.666  -3.232  1.00 20.00     0.023 C 
HETATM    6  O10 UNL     1     -34.169  13.955  -5.439  1.00 20.00    -0.391 OA
ENDROOT
BRANCH   5   7
HETATM    7  C9  UNL     1     -35.327  17.039  -2.727  1.00 20.00     0.150 C 
BRANCH   7   8
HETATM    8  C2  UNL     1     -34.749  17.369  -1.370  1.00 20.00    -0.064 C 
HETATM    9  C1  UNL     1     -35.489  17.252  -0.256  1.00 20.00     0.016 C 
HETATM   10  C8  UNL     1     -33.316  17.822  -1.301  1.00 20.00     0.045 C 
ENDBRANCH   7   8
BRANCH   7  11
HETATM   11  O11 UNL     1     -36.749  17.087  -2.652  1.00 20.00    -0.391 OA
HETATM   12  H27 UNL     1     -37.015  17.954  -2.999  1.00 20.00     0.210 HD
ENDBRANCH   7  11
ENDBRANCH   5   7
TORSDOF 3
ENDMDL
MODEL 3
REMARK VINA RESULT:      -4.4      1.367      4.404
REMARK  3 active torsions:
REMARK  status: ('A' for Active; 'I' for Inactive)
REMARK    1  A    between atoms: C2_2  and  C9_9 
REMARK    2  A    between atoms: C7_7  and  C9_9 
REMARK    3  A    between atoms: C9_9  and  O11_11 
ROOT
HETATM    1  C3  UNL     1     -33.629   7.773   1.629  1.00 20.00     0.034 C 
HETATM    2  C4  UNL     1     -31.926   7.401   3.434  1.00 20.00     0.034 C 
HETATM    3  C5  UNL     1     -32.806   8.983   1.200  1.00 20.00     0.168 C 
HETATM    4  C6  UNL     1     -31.199   8.631   2.904  1.00 20.00     0.168 C 
HETATM    5  C7  UNL     1     -33.425   7.480   3.120  1.00 20.00     0.023 C 
HETATM    6  O10 UNL     1     -31.424   8.789   1.504  1.00 20.00    -0.391 OA
ENDROOT
BRANCH   5   7
HETATM    7  C9  UNL     1     -34.142   6.199   3.532  1.00 20.00     0.150 C 
BRANCH   7   8
HETATM    8  C2  UNL     1     -34.267   6.057   5.031  1.00 20.00    -0.064 C 
HETATM    9  C1  UNL     1     -34.670   4.903   5.585  1.00 20.00     0.016 C 
HETATM   10  C8  UNL     1     -33.916   7.243   5.888  1.00 20.00     0.045 C 
ENDBRANCH   7   8
BRANCH   7  11
HETATM   11  O11 UNL     1     -33.433   5.076   3.014  1.00 20.00    -0.391 OA
HETATM   12  H27 UNL     1     -33.958   4.291   3.237  1.00 20.00     0.210 HD
ENDBRANCH   7  11
ENDBRANCH   5   7
TORSDOF 3
ENDMDL
MODEL 4
REMARK VINA RESULT:      -4.3      1.483      2.314
REMARK  3 active torsions:
REMARK  status: ('A' for Active; 'I' for Inactive)
REMARK    1  A    between atoms: C2_2  and  C9_9 
REMARK    2  A    between atoms: C7_7  and  C9_9 
REMARK    3  A    between atoms: C9_9  and  O11_11 
ROOT
HETATM    1  C3  UNL     1     -33.916   5.192   3.115  1.00 20.00     0.034 C 
HETATM    2  C4  UNL     1     -34.154   6.987   4.852  1.00 20.00     0.034 C 
HETATM    3  C5  UNL     1     -34.085   4.179   4.241  1.00 20.00     0.168 C 
HETATM    4  C6  UNL     1     -34.310   5.873   5.880  1.00 20.00     0.168 C 
HETATM    5  C7  UNL     1     -33.332   6.505   3.651  1.00 20.00     0.023 C 
HETATM    6  O10 UNL     1     -34.896   4.715   5.287  1.00 20.00    -0.391 OA
ENDROOT
BRANCH   5   7
HETATM    7  C9  UNL     1     -33.276   7.568   2.559  1.00 20.00     0.150 C 
BRANCH   7   8
HETATM    8  C2  UNL     1     -31.911   8.203   2.433  1.00 20.00    -0.064 C 
HETATM    9  C1  UNL     1     -31.106   8.332   3.500  1.00 20.00     0.016 C 
HETATM   10  C8  UNL     1     -31.472   8.677   1.074  1.00 20.00     0.045 C 
ENDBRANCH   7   8
BRANCH   7  11
HETATM   11  O11 UNL     1     -34.237   8.582   2.841  1.00 20.00    -0.391 OA
HETATM   12  H27 UNL     1     -34.904   8.178   3.419  1.00 20.00     0.210 HD
ENDBRANCH   7  11
ENDBRANCH   5   7
TORSDOF 3
ENDMDL
MODEL 5
REMARK VINA RESULT:      -4.3     10.685     11.501
REMARK  3 active torsions:
REMARK  status: ('A' for Active; 'I' for Inactive)
REMARK    1  A    between atoms: C2_2  and  C9_9 
REMARK    2  A    between atoms: C7_7  and  C9_9 
REMARK    3  A    between atoms: C9_9  and  O11_11 
ROOT
HETATM    1  C3  UNL     1     -34.671  14.142  -4.341  1.00 20.00     0.034 C 
HETATM    2  C4  UNL     1     -35.538  16.356  -5.143  1.00 20.00     0.034 C 
HETATM    3  C5  UNL     1     -35.850  13.499  -5.062  1.00 20.00     0.168 C 
HETATM    4  C6  UNL     1     -36.668  15.588  -5.819  1.00 20.00     0.168 C 
HETATM    5  C7  UNL     1     -35.006  15.581  -3.931  1.00 20.00     0.023 C 
HETATM    6  O10 UNL     1     -36.240  14.280  -6.192  1.00 20.00    -0.391 OA
ENDROOT
BRANCH   5   7
HETATM    7  C9  UNL     1     -33.793  16.276  -3.323  1.00 20.00     0.150 C 
BRANCH   7   8
HETATM    8  C2  UNL     1     -34.116  16.987  -2.029  1.00 20.00    -0.064 C 
HETATM    9  C1  UNL     1     -35.319  16.853  -1.447  1.00 20.00     0.016 C 
HETATM   10  C8  UNL     1     -33.048  17.842  -1.403  1.00 20.00     0.045 C 
ENDBRANCH   7   8
BRANCH   7  11
HETATM   11  O11 UNL     1     -33.275  17.220  -4.256  1.00 20.00    -0.391 OA
HETATM   12  H27 UNL     1     -32.595  17.729  -3.786  1.00 20.00     0.210 HD
ENDBRANCH   7  11
ENDBRANCH   5   7
TORSDOF 3
ENDMDL
MODEL 6
REMARK VINA RESULT:      -4.3     10.708     11.724
REMARK  3 active torsions:
REMARK  status: ('A' for Active; 'I' for Inactive)
REMARK    1  A    between atoms: C2_2  and  C9_9 
REMARK    2  A    between atoms: C7_7  and  C9_9 
REMARK    3  A    between atoms: C9_9  and  O11_11 
ROOT
HETATM    1  C3  UNL     1     -35.098  14.299  -4.505  1.00 20.00     0.034 C 
HETATM    2  C4  UNL     1     -33.953  14.688  -6.703  1.00 20.00     0.034 C 
HETATM    3  C5  UNL     1     -35.965  13.269  -5.220  1.00 20.00     0.168 C 
HETATM    4  C6  UNL     1     -34.884  13.636  -7.294  1.00 20.00     0.168 C 
HETATM    5  C7  UNL     1     -34.600  15.364  -5.489  1.00 20.00     0.023 C 
HETATM    6  O10 UNL     1     -35.255  12.676  -6.307  1.00 20.00    -0.391 OA
ENDROOT
BRANCH   5   7
HETATM    7  C9  UNL     1     -33.630  16.327  -4.813  1.00 20.00     0.150 C 
BRANCH   7   8
HETATM    8  C2  UNL     1     -34.263  17.088  -3.672  1.00 20.00    -0.064 C 
HETATM    9  C1  UNL     1     -35.321  17.888  -3.876  1.00 20.00     0.016 C 
HETATM   10  C8  UNL     1     -33.682  16.915  -2.295  1.00 20.00     0.045 C 
ENDBRANCH   7   8
BRANCH   7  11
HETATM   11  O11 UNL     1     -33.141  17.256  -5.778  1.00 20.00    -0.391 OA
HETATM   12  H27 UNL     1     -33.206  16.818  -6.641  1.00 20.00     0.210 HD
ENDBRANCH   7  11
ENDBRANCH   5   7
TORSDOF 3
ENDMDL
MODEL 7
REMARK VINA RESULT:      -4.2     10.582     11.346
REMARK  3 active torsions:
REMARK  status: ('A' for Active; 'I' for Inactive)
REMARK    1  A    between atoms: C2_2  and  C9_9 
REMARK    2  A    between atoms: C7_7  and  C9_9 
REMARK    3  A    between atoms: C9_9  and  O11_11 
ROOT
HETATM    1  C3  UNL     1     -35.569  16.885  -1.825  1.00 20.00     0.034 C 
HETATM    2  C4  UNL     1     -33.258  17.787  -2.199  1.00 20.00     0.034 C 
HETATM    3  C5  UNL     1     -35.418  17.300  -0.366  1.00 20.00     0.168 C 
HETATM    4  C6  UNL     1     -33.237  18.151  -0.719  1.00 20.00     0.168 C 
HETATM    5  C7  UNL     1     -34.199  16.604  -2.452  1.00 20.00     0.023 C 
HETATM    6  O10 UNL     1     -34.555  18.430  -0.247  1.00 20.00    -0.391 OA
ENDROOT
BRANCH   5   7
HETATM    7  C9  UNL     1     -34.326  16.311  -3.944  1.00 20.00     0.150 C 
BRANCH   7   8
HETATM    8  C2  UNL     1     -34.090  14.856  -4.275  1.00 20.00    -0.064 C 
HETATM    9  C1  UNL     1     -32.853  14.335  -4.266  1.00 20.00     0.016 C 
HETATM   10  C8  UNL     1     -35.284  14.002  -4.605  1.00 20.00     0.045 C 
ENDBRANCH   7   8
BRANCH   7  11
HETATM   11  O11 UNL     1     -33.388  17.110  -4.661  1.00 20.00    -0.391 OA
HETATM   12  H27 UNL     1     -32.508  16.864  -4.335  1.00 20.00     0.210 HD
ENDBRANCH   7  11
ENDBRANCH   5   7
TORSDOF 3
ENDMDL
MODEL 8
REMARK VINA RESULT:      -4.2      1.479      4.634
REMARK  3 active torsions:
REMARK  status: ('A' for Active; 'I' for Inactive)
REMARK    1  A    between atoms: C2_2  and  C9_9 
REMARK    2  A    between atoms: C7_7  and  C9_9 
REMARK    3  A    between atoms: C9_9  and  O11_11 
ROOT
HETATM    1  C3  UNL     1     -32.567   7.830   4.459  1.00 20.00     0.034 C 
HETATM    2  C4  UNL     1     -33.460   7.552   2.130  1.00 20.00     0.034 C 
HETATM    3  C5  UNL     1     -31.309   8.416   3.830  1.00 20.00     0.168 C 
HETATM    4  C6  UNL     1     -32.151   8.154   1.632  1.00 20.00     0.168 C 
HETATM    5  C7  UNL     1     -33.260   6.867   3.487  1.00 20.00     0.023 C 
HETATM    6  O10 UNL     1     -31.613   9.061   2.593  1.00 20.00    -0.391 OA
ENDROOT
BRANCH   5   7
HETATM    7  C9  UNL     1     -34.586   6.372   4.054  1.00 20.00     0.150 C 
BRANCH   7   8
HETATM    8  C2  UNL     1     -34.441   5.094   4.847  1.00 20.00    -0.064 C 
HETATM    9  C1  UNL     1     -34.686   5.067   6.167  1.00 20.00     0.016 C 
HETATM   10  C8  UNL     1     -34.024   3.848   4.114  1.00 20.00     0.045 C 
ENDBRANCH   7   8
BRANCH   7  11
HETATM   11  O11 UNL     1     -35.504   6.156   2.985  1.00 20.00    -0.391 OA
HETATM   12  H27 UNL     1     -35.913   7.015   2.794  1.00 20.00     0.210 HD
ENDBRANCH   7  11
ENDBRANCH   5   7
TORSDOF 3
ENDMDL
MODEL 9
REMARK VINA RESULT:      -4.2      1.657      4.507
REMARK  3 active torsions:
REMARK  status: ('A' for Active; 'I' for Inactive)
REMARK    1  A    between atoms: C2_2  and  C9_9 
REMARK    2  A    between atoms: C7_7  and  C9_9 
REMARK    3  A    between atoms: C9_9  and  O11_11 
ROOT
HETATM    1  C3  UNL     1     -32.543   8.008   0.816  1.00 20.00     0.034 C 
HETATM    2  C4  UNL     1     -32.280   9.869   2.480  1.00 20.00     0.034 C 
HETATM    3  C5  UNL     1     -32.902   9.075  -0.212  1.00 20.00     0.168 C 
HETATM    4  C6  UNL     1     -32.654  10.830   1.357  1.00 20.00     0.168 C 
HETATM    5  C7  UNL     1     -32.890   8.484   2.232  1.00 20.00     0.023 C 
HETATM    6  O10 UNL     1     -32.254  10.310   0.091  1.00 20.00    -0.391 OA
ENDROOT
BRANCH   5   7
HETATM    7  C9  UNL     1     -32.420   7.480   3.280  1.00 20.00     0.150 C 
BRANCH   7   8
HETATM    8  C2  UNL     1     -33.562   6.876   4.063  1.00 20.00    -0.064 C 
HETATM    9  C1  UNL     1     -34.425   6.026   3.483  1.00 20.00     0.016 C 
HETATM   10  C8  UNL     1     -33.700   7.244   5.515  1.00 20.00     0.045 C 
ENDBRANCH   7   8
BRANCH   7  11
HETATM   11  O11 UNL     1     -31.526   8.127   4.183  1.00 20.00    -0.391 OA
HETATM   12  H27 UNL     1     -31.988   8.914   4.512  1.00 20.00     0.210 HD
ENDBRANCH   7  11
ENDBRANCH   5   7
TORSDOF 3
ENDMDL
