MODEL 1
REMARK VINA RESULT:      -4.9      0.000      0.000
REMARK  4 active torsions:
REMARK  status: ('A' for Active; 'I' for Inactive)
REMARK    1  A    between atoms: C2_2  and  C9_9 
REMARK    2  A    between atoms: C5_5  and  C9_9 
REMARK    3  A    between atoms: C8_8  and  C9_9 
REMARK    4  A    between atoms: C9_9  and  O10_10 
ROOT
HETATM    1  C9  UNL     1     -33.684   6.502   3.596  1.00 20.00     0.083 C 
ENDROOT
BRANCH   1   2
HETATM    2  C2  UNL     1     -34.044   6.340   5.080  1.00 20.00    -0.059 C 
HETATM    3  C1  UNL     1     -33.844   7.292   6.008  1.00 20.00     0.017 C 
HETATM    4  C6  UNL     1     -34.668   5.030   5.497  1.00 20.00     0.046 C 
ENDBRANCH   1   2
BRANCH   1   5
HETATM    5  C5  UNL     1     -33.180   7.874   3.171  1.00 20.00     0.024 A 
HETATM    6  C3  UNL     1     -31.718   8.207   3.268  1.00 20.00     0.008 A 
HETATM    7  C4  UNL     1     -32.359   8.024   1.921  1.00 20.00     0.008 A 
ENDBRANCH   1   5
BRANCH   1   8
HETATM    8  C8  UNL     1     -32.684   5.413   3.124  1.00 20.00     0.038 C 
HETATM    9  C7  UNL     1     -33.261   4.359   2.187  1.00 20.00     0.008 C 
ENDBRANCH   1   8
BRANCH   1  10
HETATM   10  O10 UNL     1     -34.886   6.270   2.835  1.00 20.00    -0.385 OA
HETATM   11  H26 UNL     1     -34.593   6.093   1.933  1.00 20.00     0.211 HD
ENDBRANCH   1  10
TORSDOF 4
ENDMDL
MODEL 2
REMARK VINA RESULT:      -4.4     11.120     12.526
REMARK  4 active torsions:
REMARK  status: ('A' for Active; 'I' for Inactive)
REMARK    1  A    between atoms: C2_2  and  C9_9 
REMARK    2  A    between atoms: C5_5  and  C9_9 
REMARK    3  A    between atoms: C8_8  and  C9_9 
REMARK    4  A    between atoms: C9_9  and  O10_10 
ROOT
HETATM    1  C9  UNL     1     -35.524  14.086  -5.111  1.00 20.00     0.083 C 
ENDROOT
BRANCH   1   2
HETATM    2  C2  UNL     1     -35.116  14.336  -6.570  1.00 20.00    -0.059 C 
HETATM    3  C1  UNL     1     -34.608  13.391  -7.380  1.00 20.00     0.017 C 
HETATM    4  C6  UNL     1     -35.316  15.732  -7.110  1.00 20.00     0.046 C 
ENDBRANCH   1   2
BRANCH   1   5
HETATM    5  C5  UNL     1     -34.422  14.227  -4.071  1.00 20.00     0.024 A 
HETATM    6  C3  UNL     1     -33.103  14.846  -4.443  1.00 20.00     0.008 A 
HETATM    7  C4  UNL     1     -34.051  15.583  -3.539  1.00 20.00     0.008 A 
ENDBRANCH   1   5
BRANCH   1   8
HETATM    8  C8  UNL     1     -36.741  14.955  -4.697  1.00 20.00     0.038 C 
HETATM    9  C7  UNL     1     -38.103  14.407  -5.107  1.00 20.00     0.008 C 
ENDBRANCH   1   8
BRANCH   1  10
HETATM   10  O10 UNL     1     -35.980  12.722  -5.020  1.00 20.00    -0.385 OA
HETATM   11  H26 UNL     1     -35.182  12.181  -4.993  1.00 20.00     0.211 HD
ENDBRANCH   1  10
TORSDOF 4
ENDMDL
MODEL 3
REMARK VINA RESULT:      -4.2      0.904      3.009
REMARK  4 active torsions:
REMARK  status: ('A' for Active; 'I' for Inactive)
REMARK    1  A    between atoms: C2_2  and  C9_9 
REMARK    2  A    between atoms: C5_5  and  C9_9 
REMARK    3  A    between atoms: C8_8  and  C9_9 
REMARK    4  A    between atoms: C9_9  and  O10_10 
ROOT
HETATM    1  C9  UNL     1     -33.769   6.359   3.442  1.00 20.00     0.083 C 
ENDROOT
BRANCH   1   2
HETATM    2  C2  UNL     1     -33.623   4.830   3.432  1.00 20.00    -0.059 C 
HETATM    3  C1  UNL     1     -34.233   4.013   4.308  1.00 20.00     0.017 C 
HETATM    4  C6  UNL     1     -32.745   4.230   2.360  1.00 20.00     0.046 C 
ENDBRANCH   1   2
BRANCH   1   5
HETATM    5  C5  UNL     1     -34.392   6.968   4.690  1.00 20.00     0.024 A 
HETATM    6  C3  UNL     1     -34.266   6.272   6.016  1.00 20.00     0.008 A 
HETATM    7  C4  UNL     1     -33.517   7.550   5.765  1.00 20.00     0.008 A 
ENDBRANCH   1   5
BRANCH   1   8
HETATM    8  C8  UNL     1     -32.423   7.068   3.135  1.00 20.00     0.038 C 
HETATM    9  C7  UNL     1     -32.498   8.201   2.119  1.00 20.00     0.008 C 
ENDBRANCH   1   8
BRANCH   1  10
HETATM   10  O10 UNL     1     -34.643   6.714   2.352  1.00 20.00    -0.385 OA
HETATM   11  H26 UNL     1     -34.068   7.066   1.661  1.00 20.00     0.211 HD
ENDBRANCH   1  10
TORSDOF 4
ENDMDL
MODEL 4
REMARK VINA RESULT:      -4.1     11.048     12.507
REMARK  4 active torsions:
REMARK  status: ('A' for Active; 'I' for Inactive)
REMARK    1  A    between atoms: C2_2  and  C9_9 
REMARK    2  A    between atoms: C5_5  and  C9_9 
REMARK    3  A    between atoms: C8_8  and  C9_9 
REMARK    4  A    between atoms: C9_9  and  O10_10 
ROOT
HETATM    1  C9  UNL     1     -35.507  13.979  -5.126  1.00 20.00     0.083 C 
ENDROOT
BRANCH   1   2
HETATM    2  C2  UNL     1     -36.747  14.854  -4.889  1.00 20.00    -0.059 C 
HETATM    3  C1  UNL     1     -38.006  14.450  -5.127  1.00 20.00     0.017 C 
HETATM    4  C6  UNL     1     -36.514  16.243  -4.347  1.00 20.00     0.046 C 
ENDBRANCH   1   2
BRANCH   1   5
HETATM    5  C5  UNL     1     -34.847  14.104  -6.492  1.00 20.00     0.024 A 
HETATM    6  C3  UNL     1     -35.516  13.535  -7.712  1.00 20.00     0.008 A 
HETATM    7  C4  UNL     1     -35.424  15.025  -7.531  1.00 20.00     0.008 A 
ENDBRANCH   1   5
BRANCH   1   8
HETATM    8  C8  UNL     1     -34.442  14.177  -4.015  1.00 20.00     0.038 C 
HETATM    9  C7  UNL     1     -33.087  14.686  -4.493  1.00 20.00     0.008 C 
ENDBRANCH   1   8
BRANCH   1  10
HETATM   10  O10 UNL     1     -35.923  12.604  -5.014  1.00 20.00    -0.385 OA
HETATM   11  H26 UNL     1     -35.216  12.084  -5.415  1.00 20.00     0.211 HD
ENDBRANCH   1  10
TORSDOF 4
ENDMDL
MODEL 5
REMARK VINA RESULT:      -4.1      1.088      3.617
REMARK  4 active torsions:
REMARK  status: ('A' for Active; 'I' for Inactive)
REMARK    1  A    between atoms: C2_2  and  C9_9 
REMARK    2  A    between atoms: C5_5  and  C9_9 
REMARK    3  A    between atoms: C8_8  and  C9_9 
REMARK    4  A    between atoms: C9_9  and  O10_10 
ROOT
HETATM    1  C9  UNL     1     -33.489   7.134   3.576  1.00 20.00     0.083 C 
ENDROOT
BRANCH   1   2
HETATM    2  C2  UNL     1     -32.422   7.947   2.830  1.00 20.00    -0.059 C 
HETATM    3  C1  UNL     1     -32.544   8.357   1.556  1.00 20.00     0.017 C 
HETATM    4  C6  UNL     1     -31.172   8.306   3.598  1.00 20.00     0.046 C 
ENDBRANCH   1   2
BRANCH   1   5
HETATM    5  C5  UNL     1     -33.942   5.844   2.906  1.00 20.00     0.024 A 
HETATM    6  C3  UNL     1     -32.951   4.751   2.619  1.00 20.00     0.008 A 
HETATM    7  C4  UNL     1     -33.990   4.562   3.689  1.00 20.00     0.008 A 
ENDBRANCH   1   5
BRANCH   1   8
HETATM    8  C8  UNL     1     -33.070   6.838   5.040  1.00 20.00     0.038 C 
HETATM    9  C7  UNL     1     -34.018   7.365   6.110  1.00 20.00     0.008 C 
ENDBRANCH   1   8
BRANCH   1  10
HETATM   10  O10 UNL     1     -34.666   7.960   3.676  1.00 20.00    -0.385 OA
HETATM   11  H26 UNL     1     -34.611   8.583   2.942  1.00 20.00     0.211 HD
ENDBRANCH   1  10
TORSDOF 4
ENDMDL
MODEL 6
REMARK VINA RESULT:      -4.0     11.363     12.335
REMARK  4 active torsions:
REMARK  status: ('A' for Active; 'I' for Inactive)
REMARK    1  A    between atoms: C2_2  and  C9_9 
REMARK    2  A    between atoms: C5_5  and  C9_9 
REMARK    3  A    between atoms: C8_8  and  C9_9 
REMARK    4  A    between atoms: C9_9  and  O10_10 
ROOT
HETATM    1  C9  UNL     1     -35.571  14.280  -4.982  1.00 20.00     0.083 C 
ENDROOT
BRANCH   1   2
HETATM    2  C2  UNL     1     -34.364  14.813  -4.196  1.00 20.00    -0.059 C 
HETATM    3  C1  UNL     1     -33.100  14.400  -4.391  1.00 20.00     0.017 C 
HETATM    4  C6  UNL     1     -34.636  15.873  -3.155  1.00 20.00     0.046 C 
ENDBRANCH   1   2
BRANCH   1   5
HETATM    5  C5  UNL     1     -36.933  14.824  -4.574  1.00 20.00     0.024 A 
HETATM    6  C3  UNL     1     -37.593  15.902  -5.388  1.00 20.00     0.008 A 
HETATM    7  C4  UNL     1     -38.151  14.506  -5.396  1.00 20.00     0.008 A 
ENDBRANCH   1   5
BRANCH   1   8
HETATM    8  C8  UNL     1     -35.382  14.450  -6.513  1.00 20.00     0.038 C 
HETATM    9  C7  UNL     1     -35.097  13.166  -7.282  1.00 20.00     0.008 C 
ENDBRANCH   1   8
BRANCH   1  10
HETATM   10  O10 UNL     1     -35.632  12.857  -4.762  1.00 20.00    -0.385 OA
HETATM   11  H26 UNL     1     -35.615  12.741  -3.804  1.00 20.00     0.211 HD
ENDBRANCH   1  10
TORSDOF 4
ENDMDL
MODEL 7
REMARK VINA RESULT:      -3.8      1.545      2.822
REMARK  4 active torsions:
REMARK  status: ('A' for Active; 'I' for Inactive)
REMARK    1  A    between atoms: C2_2  and  C9_9 
REMARK    2  A    between atoms: C5_5  and  C9_9 
REMARK    3  A    between atoms: C8_8  and  C9_9 
REMARK    4  A    between atoms: C9_9  and  O10_10 
ROOT
HETATM    1  C9  UNL     1     -33.008   7.352   3.209  1.00 20.00     0.083 C 
ENDROOT
BRANCH   1   2
HETATM    2  C2  UNL     1     -33.626   5.954   3.068  1.00 20.00    -0.059 C 
HETATM    3  C1  UNL     1     -32.976   4.894   2.559  1.00 20.00     0.017 C 
HETATM    4  C6  UNL     1     -35.048   5.781   3.545  1.00 20.00     0.046 C 
ENDBRANCH   1   2
BRANCH   1   5
HETATM    5  C5  UNL     1     -33.050   8.236   1.970  1.00 20.00     0.024 A 
HETATM    6  C3  UNL     1     -32.405   9.593   1.985  1.00 20.00     0.008 A 
HETATM    7  C4  UNL     1     -31.800   8.482   1.173  1.00 20.00     0.008 A 
ENDBRANCH   1   5
BRANCH   1   8
HETATM    8  C8  UNL     1     -33.600   8.125   4.417  1.00 20.00     0.038 C 
HETATM    9  C7  UNL     1     -33.424   7.451   5.773  1.00 20.00     0.008 C 
ENDBRANCH   1   8
BRANCH   1  10
HETATM   10  O10 UNL     1     -31.611   7.175   3.519  1.00 20.00    -0.385 OA
HETATM   11  H26 UNL     1     -31.151   7.893   3.068  1.00 20.00     0.211 HD
ENDBRANCH   1  10
TORSDOF 4
ENDMDL
MODEL 8
REMARK VINA RESULT:      -3.7     11.653     13.144
REMARK  4 active torsions:
REMARK  status: ('A' for Active; 'I' for Inactive)
REMARK    1  A    between atoms: C2_2  and  C9_9 
REMARK    2  A    between atoms: C5_5  and  C9_9 
REMARK    3  A    between atoms: C8_8  and  C9_9 
REMARK    4  A    between atoms: C9_9  and  O10_10 
ROOT
HETATM    1  C9  UNL     1     -34.002  15.197  -5.377  1.00 20.00     0.083 C 
ENDROOT
BRANCH   1   2
HETATM    2  C2  UNL     1     -34.764  14.068  -6.085  1.00 20.00    -0.059 C 
HETATM    3  C1  UNL     1     -34.441  13.590  -7.299  1.00 20.00     0.017 C 
HETATM    4  C6  UNL     1     -35.939  13.467  -5.351  1.00 20.00     0.046 C 
ENDBRANCH   1   2
BRANCH   1   5
HETATM    5  C5  UNL     1     -34.459  16.615  -5.686  1.00 20.00     0.024 A 
HETATM    6  C3  UNL     1     -34.217  17.210  -7.045  1.00 20.00     0.008 A 
HETATM    7  C4  UNL     1     -35.613  16.852  -6.619  1.00 20.00     0.008 A 
ENDBRANCH   1   5
BRANCH   1   8
HETATM    8  C8  UNL     1     -33.961  14.988  -3.840  1.00 20.00     0.038 C 
HETATM    9  C7  UNL     1     -34.544  16.127  -3.011  1.00 20.00     0.008 C 
ENDBRANCH   1   8
BRANCH   1  10
HETATM   10  O10 UNL     1     -32.628  15.123  -5.808  1.00 20.00    -0.385 OA
HETATM   11  H26 UNL     1     -32.210  15.931  -5.486  1.00 20.00     0.211 HD
ENDBRANCH   1  10
TORSDOF 4
ENDMDL
MODEL 9
REMARK VINA RESULT:      -3.6     11.722     12.912
REMARK  4 active torsions:
REMARK  status: ('A' for Active; 'I' for Inactive)
REMARK    1  A    between atoms: C2_2  and  C9_9 
REMARK    2  A    between atoms: C5_5  and  C9_9 
REMARK    3  A    between atoms: C8_8  and  C9_9 
REMARK    4  A    between atoms: C9_9  and  O10_10 
ROOT
HETATM    1  C9  UNL     1     -34.322  15.145  -4.986  1.00 20.00     0.083 C 
ENDROOT
BRANCH   1   2
HETATM    2  C2  UNL     1     -34.520  16.078  -6.189  1.00 20.00    -0.059 C 
HETATM    3  C1  UNL     1     -33.610  16.247  -7.164  1.00 20.00     0.017 C 
HETATM    4  C6  UNL     1     -35.825  16.833  -6.266  1.00 20.00     0.046 C 
ENDBRANCH   1   2
BRANCH   1   5
HETATM    5  C5  UNL     1     -33.620  15.745  -3.776  1.00 20.00     0.024 A 
HETATM    6  C3  UNL     1     -33.596  17.235  -3.577  1.00 20.00     0.008 A 
HETATM    7  C4  UNL     1     -34.423  16.369  -2.668  1.00 20.00     0.008 A 
ENDBRANCH   1   5
BRANCH   1   8
HETATM    8  C8  UNL     1     -35.657  14.491  -4.539  1.00 20.00     0.038 C 
HETATM    9  C7  UNL     1     -36.119  13.309  -5.382  1.00 20.00     0.008 C 
ENDBRANCH   1   8
BRANCH   1  10
HETATM   10  O10 UNL     1     -33.490  14.051  -5.422  1.00 20.00    -0.385 OA
HETATM   11  H26 UNL     1     -32.661  14.454  -5.709  1.00 20.00     0.211 HD
ENDBRANCH   1  10
TORSDOF 4
ENDMDL
