MODEL 1
REMARK VINA RESULT:      -5.6      0.000      0.000
REMARK  3 active torsions:
REMARK  status: ('A' for Active; 'I' for Inactive)
REMARK    1  A    between atoms: C2_2  and  C10_10 
REMARK    2  A    between atoms: C5_5  and  C10_10 
REMARK    3  A    between atoms: C7_7  and  O11_11 
ROOT
HETATM    1  C3  UNL     1     -33.649   7.438   5.408  1.00 20.00     0.008 C 
HETATM    2  C4  UNL     1     -34.373   6.175   5.853  1.00 20.00     0.032 C 
HETATM    3  C5  UNL     1     -33.137   7.160   3.978  1.00 20.00    -0.004 C 
HETATM    4  C6  UNL     1     -33.658   5.748   3.628  1.00 20.00     0.015 C 
HETATM    5  C7  UNL     1     -34.862   5.558   4.552  1.00 20.00     0.122 C 
HETATM    6  C9  UNL     1     -33.982   5.488   2.162  1.00 20.00     0.013 C 
ENDROOT
BRANCH   3   7
HETATM    7  C10 UNL     1     -33.565   8.276   3.027  1.00 20.00     0.038 C 
BRANCH   7   8
HETATM    8  C2  UNL     1     -32.421   8.809   2.198  1.00 20.00    -0.093 C 
HETATM    9  C1  UNL     1     -31.156   8.420   2.419  1.00 20.00     0.014 C 
HETATM   10  C8  UNL     1     -32.757   9.820   1.139  1.00 20.00     0.042 C 
ENDBRANCH   7   8
ENDBRANCH   3   7
BRANCH   5  11
HETATM   11  O11 UNL     1     -35.181   4.194   4.745  1.00 20.00    -0.395 OA
HETATM   12  H29 UNL     1     -35.726   4.149   5.546  1.00 20.00     0.210 HD
ENDBRANCH   5  11
TORSDOF 3
ENDMDL
MODEL 2
REMARK VINA RESULT:      -5.4      1.046      2.110
REMARK  3 active torsions:
REMARK  status: ('A' for Active; 'I' for Inactive)
REMARK    1  A    between atoms: C2_2  and  C10_10 
REMARK    2  A    between atoms: C5_5  and  C10_10 
REMARK    3  A    between atoms: C7_7  and  O11_11 
ROOT
HETATM    1  C3  UNL     1     -33.569   5.817   2.451  1.00 20.00     0.008 C 
HETATM    2  C4  UNL     1     -34.085   4.782   3.441  1.00 20.00     0.032 C 
HETATM    3  C5  UNL     1     -33.597   7.172   3.189  1.00 20.00    -0.004 C 
HETATM    4  C6  UNL     1     -34.070   6.842   4.624  1.00 20.00     0.015 C 
HETATM    5  C7  UNL     1     -33.721   5.364   4.798  1.00 20.00     0.122 C 
HETATM    6  C9  UNL     1     -33.521   7.723   5.739  1.00 20.00     0.013 C 
ENDROOT
BRANCH   3   7
HETATM    7  C10 UNL     1     -32.242   7.870   3.085  1.00 20.00     0.038 C 
BRANCH   7   8
HETATM    8  C2  UNL     1     -32.122   8.733   1.853  1.00 20.00    -0.093 C 
HETATM    9  C1  UNL     1     -31.321   8.390   0.833  1.00 20.00     0.014 C 
HETATM   10  C8  UNL     1     -32.911  10.011   1.834  1.00 20.00     0.042 C 
ENDBRANCH   7   8
ENDBRANCH   3   7
BRANCH   5  11
HETATM   11  O11 UNL     1     -34.483   4.748   5.817  1.00 20.00    -0.395 OA
HETATM   12  H29 UNL     1     -33.885   4.142   6.281  1.00 20.00     0.210 HD
ENDBRANCH   5  11
TORSDOF 3
ENDMDL
MODEL 3
REMARK VINA RESULT:      -4.7     10.842     11.566
REMARK  3 active torsions:
REMARK  status: ('A' for Active; 'I' for Inactive)
REMARK    1  A    between atoms: C2_2  and  C10_10 
REMARK    2  A    between atoms: C5_5  and  C10_10 
REMARK    3  A    between atoms: C7_7  and  O11_11 
ROOT
HETATM    1  C3  UNL     1     -36.662  15.463  -4.059  1.00 20.00     0.008 C 
HETATM    2  C4  UNL     1     -36.780  14.338  -5.078  1.00 20.00     0.032 C 
HETATM    3  C5  UNL     1     -35.270  15.312  -3.410  1.00 20.00    -0.004 C 
HETATM    4  C6  UNL     1     -34.605  14.128  -4.148  1.00 20.00     0.015 C 
HETATM    5  C7  UNL     1     -35.341  14.065  -5.486  1.00 20.00     0.122 C 
HETATM    6  C9  UNL     1     -33.090  14.186  -4.299  1.00 20.00     0.013 C 
ENDROOT
BRANCH   3   7
HETATM    7  C10 UNL     1     -34.506  16.634  -3.462  1.00 20.00     0.038 C 
BRANCH   7   8
HETATM    8  C2  UNL     1     -34.201  17.187  -2.091  1.00 20.00    -0.093 C 
HETATM    9  C1  UNL     1     -33.014  17.746  -1.809  1.00 20.00     0.014 C 
HETATM   10  C8  UNL     1     -35.271  17.052  -1.046  1.00 20.00     0.042 C 
ENDBRANCH   7   8
ENDBRANCH   3   7
BRANCH   5  11
HETATM   11  O11 UNL     1     -35.237  12.794  -6.097  1.00 20.00    -0.395 OA
HETATM   12  H29 UNL     1     -35.401  12.139  -5.401  1.00 20.00     0.210 HD
ENDBRANCH   5  11
TORSDOF 3
ENDMDL
MODEL 4
REMARK VINA RESULT:      -4.7     10.995     11.881
REMARK  3 active torsions:
REMARK  status: ('A' for Active; 'I' for Inactive)
REMARK    1  A    between atoms: C2_2  and  C10_10 
REMARK    2  A    between atoms: C5_5  and  C10_10 
REMARK    3  A    between atoms: C7_7  and  O11_11 
ROOT
HETATM    1  C3  UNL     1     -36.006  15.683  -4.770  1.00 20.00     0.008 C 
HETATM    2  C4  UNL     1     -35.864  14.682  -5.908  1.00 20.00     0.032 C 
HETATM    3  C5  UNL     1     -34.850  15.389  -3.791  1.00 20.00    -0.004 C 
HETATM    4  C6  UNL     1     -34.034  14.257  -4.455  1.00 20.00     0.015 C 
HETATM    5  C7  UNL     1     -34.375  14.378  -5.940  1.00 20.00     0.122 C 
HETATM    6  C9  UNL     1     -32.535  14.251  -4.182  1.00 20.00     0.013 C 
ENDROOT
BRANCH   3   7
HETATM    7  C10 UNL     1     -34.073  16.666  -3.477  1.00 20.00     0.038 C 
BRANCH   7   8
HETATM    8  C2  UNL     1     -34.189  17.081  -2.030  1.00 20.00    -0.093 C 
HETATM    9  C1  UNL     1     -35.311  16.862  -1.327  1.00 20.00     0.014 C 
HETATM   10  C8  UNL     1     -33.008  17.783  -1.423  1.00 20.00     0.042 C 
ENDBRANCH   7   8
ENDBRANCH   3   7
BRANCH   5  11
HETATM   11  O11 UNL     1     -34.134  13.176  -6.646  1.00 20.00    -0.395 OA
HETATM   12  H29 UNL     1     -33.212  12.933  -6.472  1.00 20.00     0.210 HD
ENDBRANCH   5  11
TORSDOF 3
ENDMDL
MODEL 5
REMARK VINA RESULT:      -4.3     11.322     12.560
REMARK  3 active torsions:
REMARK  status: ('A' for Active; 'I' for Inactive)
REMARK    1  A    between atoms: C2_2  and  C10_10 
REMARK    2  A    between atoms: C5_5  and  C10_10 
REMARK    3  A    between atoms: C7_7  and  O11_11 
ROOT
HETATM    1  C3  UNL     1     -34.381  14.445  -4.050  1.00 20.00     0.008 C 
HETATM    2  C4  UNL     1     -34.173  14.306  -5.552  1.00 20.00     0.032 C 
HETATM    3  C5  UNL     1     -33.895  15.862  -3.677  1.00 20.00    -0.004 C 
HETATM    4  C6  UNL     1     -33.485  16.516  -5.016  1.00 20.00     0.015 C 
HETATM    5  C7  UNL     1     -34.273  15.733  -6.066  1.00 20.00     0.122 C 
HETATM    6  C9  UNL     1     -33.678  18.024  -5.122  1.00 20.00     0.013 C 
ENDROOT
BRANCH   3   7
HETATM    7  C10 UNL     1     -34.965  16.605  -2.879  1.00 20.00     0.038 C 
BRANCH   7   8
HETATM    8  C2  UNL     1     -34.433  17.193  -1.594  1.00 20.00    -0.093 C 
HETATM    9  C1  UNL     1     -33.162  17.610  -1.487  1.00 20.00     0.014 C 
HETATM   10  C8  UNL     1     -35.379  17.257  -0.429  1.00 20.00     0.042 C 
ENDBRANCH   7   8
ENDBRANCH   3   7
BRANCH   5  11
HETATM   11  O11 UNL     1     -33.697  15.833  -7.354  1.00 20.00    -0.395 OA
HETATM   12  H29 UNL     1     -33.095  15.079  -7.446  1.00 20.00     0.210 HD
ENDBRANCH   5  11
TORSDOF 3
ENDMDL
MODEL 6
REMARK VINA RESULT:      -4.3     11.251     12.040
REMARK  3 active torsions:
REMARK  status: ('A' for Active; 'I' for Inactive)
REMARK    1  A    between atoms: C2_2  and  C10_10 
REMARK    2  A    between atoms: C5_5  and  C10_10 
REMARK    3  A    between atoms: C7_7  and  O11_11 
ROOT
HETATM    1  C3  UNL     1     -33.303  17.447  -1.688  1.00 20.00     0.008 C 
HETATM    2  C4  UNL     1     -34.412  17.888  -0.743  1.00 20.00     0.032 C 
HETATM    3  C5  UNL     1     -33.960  16.492  -2.708  1.00 20.00    -0.004 C 
HETATM    4  C6  UNL     1     -35.462  16.479  -2.342  1.00 20.00     0.015 C 
HETATM    5  C7  UNL     1     -35.671  17.794  -1.590  1.00 20.00     0.122 C 
HETATM    6  C9  UNL     1     -36.440  16.285  -3.494  1.00 20.00     0.013 C 
ENDROOT
BRANCH   3   7
HETATM    7  C10 UNL     1     -33.633  16.921  -4.136  1.00 20.00     0.038 C 
BRANCH   7   8
HETATM    8  C2  UNL     1     -33.297  15.756  -5.035  1.00 20.00    -0.093 C 
HETATM    9  C1  UNL     1     -33.338  15.867  -6.371  1.00 20.00     0.014 C 
HETATM   10  C8  UNL     1     -32.951  14.456  -4.368  1.00 20.00     0.042 C 
ENDBRANCH   7   8
ENDBRANCH   3   7
BRANCH   5  11
HETATM   11  O11 UNL     1     -36.818  17.765  -0.764  1.00 20.00    -0.395 OA
HETATM   12  H29 UNL     1     -36.534  18.068   0.113  1.00 20.00     0.210 HD
ENDBRANCH   5  11
TORSDOF 3
ENDMDL
MODEL 7
REMARK VINA RESULT:      -4.2     11.399     12.505
REMARK  3 active torsions:
REMARK  status: ('A' for Active; 'I' for Inactive)
REMARK    1  A    between atoms: C2_2  and  C10_10 
REMARK    2  A    between atoms: C5_5  and  C10_10 
REMARK    3  A    between atoms: C7_7  and  O11_11 
ROOT
HETATM    1  C3  UNL     1     -33.455  16.078  -6.203  1.00 20.00     0.008 C 
HETATM    2  C4  UNL     1     -33.631  15.187  -7.425  1.00 20.00     0.032 C 
HETATM    3  C5  UNL     1     -34.583  15.692  -5.223  1.00 20.00    -0.004 C 
HETATM    4  C6  UNL     1     -35.331  14.524  -5.905  1.00 20.00     0.015 C 
HETATM    5  C7  UNL     1     -34.301  13.940  -6.872  1.00 20.00     0.122 C 
HETATM    6  C9  UNL     1     -35.946  13.479  -4.981  1.00 20.00     0.013 C 
ENDROOT
BRANCH   3   7
HETATM    7  C10 UNL     1     -34.013  15.391  -3.838  1.00 20.00     0.038 C 
BRANCH   7   8
HETATM    8  C2  UNL     1     -34.245  16.512  -2.854  1.00 20.00    -0.093 C 
HETATM    9  C1  UNL     1     -33.310  17.445  -2.621  1.00 20.00     0.014 C 
HETATM   10  C8  UNL     1     -35.556  16.516  -2.119  1.00 20.00     0.042 C 
ENDBRANCH   7   8
ENDBRANCH   3   7
BRANCH   5  11
HETATM   11  O11 UNL     1     -34.904  13.202  -7.918  1.00 20.00    -0.395 OA
HETATM   12  H29 UNL     1     -34.303  13.258  -8.676  1.00 20.00     0.210 HD
ENDBRANCH   5  11
TORSDOF 3
ENDMDL
MODEL 8
REMARK VINA RESULT:      -4.1     10.965     11.763
REMARK  3 active torsions:
REMARK  status: ('A' for Active; 'I' for Inactive)
REMARK    1  A    between atoms: C2_2  and  C10_10 
REMARK    2  A    between atoms: C5_5  and  C10_10 
REMARK    3  A    between atoms: C7_7  and  O11_11 
ROOT
HETATM    1  C3  UNL     1     -33.564  15.467  -3.762  1.00 20.00     0.008 C 
HETATM    2  C4  UNL     1     -33.688  14.208  -4.607  1.00 20.00     0.032 C 
HETATM    3  C5  UNL     1     -34.945  16.156  -3.810  1.00 20.00    -0.004 C 
HETATM    4  C6  UNL     1     -35.842  15.208  -4.639  1.00 20.00     0.015 C 
HETATM    5  C7  UNL     1     -35.161  13.845  -4.508  1.00 20.00     0.122 C 
HETATM    6  C9  UNL     1     -37.320  15.177  -4.270  1.00 20.00     0.013 C 
ENDROOT
BRANCH   3   7
HETATM    7  C10 UNL     1     -35.441  16.466  -2.399  1.00 20.00     0.038 C 
BRANCH   7   8
HETATM    8  C2  UNL     1     -34.854  17.740  -1.840  1.00 20.00    -0.093 C 
HETATM    9  C1  UNL     1     -34.061  17.731  -0.758  1.00 20.00     0.014 C 
HETATM   10  C8  UNL     1     -35.225  19.023  -2.527  1.00 20.00     0.042 C 
ENDBRANCH   7   8
ENDBRANCH   3   7
BRANCH   5  11
HETATM   11  O11 UNL     1     -35.521  12.962  -5.552  1.00 20.00    -0.395 OA
HETATM   12  H29 UNL     1     -34.779  12.955  -6.175  1.00 20.00     0.210 HD
ENDBRANCH   5  11
TORSDOF 3
ENDMDL
MODEL 9
REMARK VINA RESULT:      -4.0      0.986      2.181
REMARK  3 active torsions:
REMARK  status: ('A' for Active; 'I' for Inactive)
REMARK    1  A    between atoms: C2_2  and  C10_10 
REMARK    2  A    between atoms: C5_5  and  C10_10 
REMARK    3  A    between atoms: C7_7  and  O11_11 
ROOT
HETATM    1  C3  UNL     1     -33.434   6.057   2.264  1.00 20.00     0.008 C 
HETATM    2  C4  UNL     1     -33.532   4.574   2.592  1.00 20.00     0.032 C 
HETATM    3  C5  UNL     1     -34.166   6.799   3.402  1.00 20.00    -0.004 C 
HETATM    4  C6  UNL     1     -34.600   5.695   4.393  1.00 20.00     0.015 C 
HETATM    5  C7  UNL     1     -33.636   4.543   4.109  1.00 20.00     0.122 C 
HETATM    6  C9  UNL     1     -34.650   6.085   5.865  1.00 20.00     0.013 C 
ENDROOT
BRANCH   3   7
HETATM    7  C10 UNL     1     -33.279   7.897   3.986  1.00 20.00     0.038 C 
BRANCH   7   8
HETATM    8  C2  UNL     1     -32.164   8.305   3.054  1.00 20.00    -0.093 C 
HETATM    9  C1  UNL     1     -30.876   8.094   3.368  1.00 20.00     0.014 C 
HETATM   10  C8  UNL     1     -32.556   8.991   1.777  1.00 20.00     0.042 C 
ENDBRANCH   7   8
ENDBRANCH   3   7
BRANCH   5  11
HETATM   11  O11 UNL     1     -34.146   3.296   4.540  1.00 20.00    -0.395 OA
HETATM   12  H29 UNL     1     -34.173   2.723   3.759  1.00 20.00     0.210 HD
ENDBRANCH   5  11
TORSDOF 3
ENDMDL
