MODEL 1
REMARK VINA RESULT:      -5.9      0.000      0.000
REMARK  4 active torsions:
REMARK  status: ('A' for Active; 'I' for Inactive)
REMARK    1  A    between atoms: C2_2  and  C5_5 
REMARK    2  A    between atoms: C5_5  and  C6_6 
REMARK    3  A    between atoms: C6_6  and  C7_7 
REMARK    4  A    between atoms: C7_7  and  C8_8 
ROOT
HETATM    1  C6  UNL     1     -32.425   8.006   2.982  1.00 20.00     0.006 C 
ENDROOT
BRANCH   1   2
HETATM    2  C5  UNL     1     -31.834   8.372   1.613  1.00 20.00     0.033 C 
BRANCH   2   3
HETATM    3  C2  UNL     1     -32.535   9.507   0.904  1.00 20.00    -0.093 C 
HETATM    4  C1  UNL     1     -32.719  10.697   1.496  1.00 20.00     0.014 C 
HETATM    5  C3  UNL     1     -33.051   9.235  -0.480  1.00 20.00     0.042 C 
ENDBRANCH   2   3
ENDBRANCH   1   2
BRANCH   1   6
HETATM    6  C7  UNL     1     -33.169   6.663   2.975  1.00 20.00     0.020 C 
BRANCH   6   7
HETATM    7  C8  UNL     1     -34.223   6.547   4.086  1.00 20.00     0.078 C 
HETATM    8  C4  UNL     1     -34.575   5.089   4.357  1.00 20.00     0.026 C 
HETATM    9 CL9  UNL     1     -33.641   7.292   5.606  1.00 20.00    -0.125 Cl
ENDBRANCH   6   7
ENDBRANCH   1   6
TORSDOF 4
ENDMDL
MODEL 2
REMARK VINA RESULT:      -5.9      0.071      1.171
REMARK  4 active torsions:
REMARK  status: ('A' for Active; 'I' for Inactive)
REMARK    1  A    between atoms: C2_2  and  C5_5 
REMARK    2  A    between atoms: C5_5  and  C6_6 
REMARK    3  A    between atoms: C6_6  and  C7_7 
REMARK    4  A    between atoms: C7_7  and  C8_8 
ROOT
HETATM    1  C6  UNL     1     -32.387   8.026   2.941  1.00 20.00     0.006 C 
ENDROOT
BRANCH   1   2
HETATM    2  C5  UNL     1     -31.821   8.357   1.552  1.00 20.00     0.033 C 
BRANCH   2   3
HETATM    3  C2  UNL     1     -32.551   9.456   0.816  1.00 20.00    -0.093 C 
HETATM    4  C1  UNL     1     -33.020   9.275  -0.429  1.00 20.00     0.014 C 
HETATM    5  C3  UNL     1     -32.698  10.773   1.522  1.00 20.00     0.042 C 
ENDBRANCH   2   3
ENDBRANCH   1   2
BRANCH   1   6
HETATM    6  C7  UNL     1     -33.089   6.662   2.994  1.00 20.00     0.020 C 
BRANCH   6   7
HETATM    7  C8  UNL     1     -34.185   6.585   4.067  1.00 20.00     0.078 C 
HETATM    8  C4  UNL     1     -34.604   5.142   4.319  1.00 20.00     0.026 C 
HETATM    9 CL9  UNL     1     -33.629   7.302   5.609  1.00 20.00    -0.125 Cl
ENDBRANCH   6   7
ENDBRANCH   1   6
TORSDOF 4
ENDMDL
MODEL 3
REMARK VINA RESULT:      -5.8      2.258      4.978
REMARK  4 active torsions:
REMARK  status: ('A' for Active; 'I' for Inactive)
REMARK    1  A    between atoms: C2_2  and  C5_5 
REMARK    2  A    between atoms: C5_5  and  C6_6 
REMARK    3  A    between atoms: C6_6  and  C7_7 
REMARK    4  A    between atoms: C7_7  and  C8_8 
ROOT
HETATM    1  C6  UNL     1     -32.220   7.827   3.169  1.00 20.00     0.006 C 
ENDROOT
BRANCH   1   2
HETATM    2  C5  UNL     1     -33.378   6.823   3.081  1.00 20.00     0.033 C 
BRANCH   2   3
HETATM    3  C2  UNL     1     -34.027   6.488   4.403  1.00 20.00    -0.093 C 
HETATM    4  C1  UNL     1     -34.925   5.495   4.512  1.00 20.00     0.014 C 
HETATM    5  C3  UNL     1     -33.654   7.335   5.584  1.00 20.00     0.042 C 
ENDBRANCH   2   3
ENDBRANCH   1   2
BRANCH   1   6
HETATM    6  C7  UNL     1     -31.824   8.408   1.805  1.00 20.00     0.020 C 
BRANCH   6   7
HETATM    7  C8  UNL     1     -32.890   9.339   1.210  1.00 20.00     0.078 C 
HETATM    8  C4  UNL     1     -32.565  10.800   1.500  1.00 20.00     0.026 C 
HETATM    9 CL9  UNL     1     -33.023   9.119  -0.561  1.00 20.00    -0.125 Cl
ENDBRANCH   6   7
ENDBRANCH   1   6
TORSDOF 4
ENDMDL
MODEL 4
REMARK VINA RESULT:      -5.8      2.266      4.879
REMARK  4 active torsions:
REMARK  status: ('A' for Active; 'I' for Inactive)
REMARK    1  A    between atoms: C2_2  and  C5_5 
REMARK    2  A    between atoms: C5_5  and  C6_6 
REMARK    3  A    between atoms: C6_6  and  C7_7 
REMARK    4  A    between atoms: C7_7  and  C8_8 
ROOT
HETATM    1  C6  UNL     1     -32.169   7.862   3.178  1.00 20.00     0.006 C 
ENDROOT
BRANCH   1   2
HETATM    2  C5  UNL     1     -33.352   6.883   3.164  1.00 20.00     0.033 C 
BRANCH   2   3
HETATM    3  C2  UNL     1     -33.951   6.595   4.521  1.00 20.00    -0.093 C 
HETATM    4  C1  UNL     1     -33.629   7.328   5.599  1.00 20.00     0.014 C 
HETATM    5  C3  UNL     1     -34.894   5.431   4.621  1.00 20.00     0.042 C 
ENDBRANCH   2   3
ENDBRANCH   1   2
BRANCH   1   6
HETATM    6  C7  UNL     1     -31.818   8.399   1.783  1.00 20.00     0.020 C 
BRANCH   6   7
HETATM    7  C8  UNL     1     -32.887   9.343   1.211  1.00 20.00     0.078 C 
HETATM    8  C4  UNL     1     -32.553  10.798   1.519  1.00 20.00     0.026 C 
HETATM    9 CL9  UNL     1     -33.037   9.148  -0.562  1.00 20.00    -0.125 Cl
ENDBRANCH   6   7
ENDBRANCH   1   6
TORSDOF 4
ENDMDL
MODEL 5
REMARK VINA RESULT:      -5.7      1.100      1.314
REMARK  4 active torsions:
REMARK  status: ('A' for Active; 'I' for Inactive)
REMARK    1  A    between atoms: C2_2  and  C5_5 
REMARK    2  A    between atoms: C5_5  and  C6_6 
REMARK    3  A    between atoms: C6_6  and  C7_7 
REMARK    4  A    between atoms: C7_7  and  C8_8 
ROOT
HETATM    1  C6  UNL     1     -32.109   8.046   2.869  1.00 20.00     0.006 C 
ENDROOT
BRANCH   1   2
HETATM    2  C5  UNL     1     -31.646   8.488   1.474  1.00 20.00     0.033 C 
BRANCH   2   3
HETATM    3  C2  UNL     1     -32.481   9.579   0.846  1.00 20.00    -0.093 C 
HETATM    4  C1  UNL     1     -32.700  10.745   1.475  1.00 20.00     0.014 C 
HETATM    5  C3  UNL     1     -33.088   9.291  -0.497  1.00 20.00     0.042 C 
ENDBRANCH   2   3
ENDBRANCH   1   2
BRANCH   1   6
HETATM    6  C7  UNL     1     -33.333   7.119   2.831  1.00 20.00     0.020 C 
BRANCH   6   7
HETATM    7  C8  UNL     1     -33.610   6.424   4.172  1.00 20.00     0.078 C 
HETATM    8  C4  UNL     1     -33.549   7.417   5.326  1.00 20.00     0.026 C 
HETATM    9 CL9  UNL     1     -35.217   5.638   4.171  1.00 20.00    -0.125 Cl
ENDBRANCH   6   7
ENDBRANCH   1   6
TORSDOF 4
ENDMDL
MODEL 6
REMARK VINA RESULT:      -5.4      2.372      4.891
REMARK  4 active torsions:
REMARK  status: ('A' for Active; 'I' for Inactive)
REMARK    1  A    between atoms: C2_2  and  C5_5 
REMARK    2  A    between atoms: C5_5  and  C6_6 
REMARK    3  A    between atoms: C6_6  and  C7_7 
REMARK    4  A    between atoms: C7_7  and  C8_8 
ROOT
HETATM    1  C6  UNL     1     -33.154   5.980   2.882  1.00 20.00     0.006 C 
ENDROOT
BRANCH   1   2
HETATM    2  C5  UNL     1     -34.462   6.173   3.663  1.00 20.00     0.033 C 
BRANCH   2   3
HETATM    3  C2  UNL     1     -34.326   6.059   5.163  1.00 20.00    -0.093 C 
HETATM    4  C1  UNL     1     -34.665   4.935   5.814  1.00 20.00     0.014 C 
HETATM    5  C3  UNL     1     -33.831   7.270   5.900  1.00 20.00     0.042 C 
ENDBRANCH   2   3
ENDBRANCH   1   2
BRANCH   1   6
HETATM    6  C7  UNL     1     -32.945   7.039   1.790  1.00 20.00     0.020 C 
BRANCH   6   7
HETATM    7  C8  UNL     1     -32.566   8.419   2.347  1.00 20.00     0.078 C 
HETATM    8  C4  UNL     1     -31.408   8.312   3.332  1.00 20.00     0.026 C 
HETATM    9 CL9  UNL     1     -32.104   9.541   1.032  1.00 20.00    -0.125 Cl
ENDBRANCH   6   7
ENDBRANCH   1   6
TORSDOF 4
ENDMDL
MODEL 7
REMARK VINA RESULT:      -5.4      1.037      1.886
REMARK  4 active torsions:
REMARK  status: ('A' for Active; 'I' for Inactive)
REMARK    1  A    between atoms: C2_2  and  C5_5 
REMARK    2  A    between atoms: C5_5  and  C6_6 
REMARK    3  A    between atoms: C6_6  and  C7_7 
REMARK    4  A    between atoms: C7_7  and  C8_8 
ROOT
HETATM    1  C6  UNL     1     -33.257   6.163   3.057  1.00 20.00     0.006 C 
ENDROOT
BRANCH   1   2
HETATM    2  C5  UNL     1     -33.128   7.215   1.946  1.00 20.00     0.033 C 
BRANCH   2   3
HETATM    3  C2  UNL     1     -32.213   8.372   2.273  1.00 20.00    -0.093 C 
HETATM    4  C1  UNL     1     -31.431   8.361   3.365  1.00 20.00     0.014 C 
HETATM    5  C3  UNL     1     -32.240   9.551   1.344  1.00 20.00     0.042 C 
ENDBRANCH   2   3
ENDBRANCH   1   2
BRANCH   1   6
HETATM    6  C7  UNL     1     -34.698   5.990   3.556  1.00 20.00     0.020 C 
BRANCH   6   7
HETATM    7  C8  UNL     1     -34.809   5.946   5.087  1.00 20.00     0.078 C 
HETATM    8  C4  UNL     1     -34.415   4.575   5.625  1.00 20.00     0.026 C 
HETATM    9 CL9  UNL     1     -33.765   7.186   5.846  1.00 20.00    -0.125 Cl
ENDBRANCH   6   7
ENDBRANCH   1   6
TORSDOF 4
ENDMDL
MODEL 8
REMARK VINA RESULT:      -4.3      2.673      4.770
REMARK  4 active torsions:
REMARK  status: ('A' for Active; 'I' for Inactive)
REMARK    1  A    between atoms: C2_2  and  C5_5 
REMARK    2  A    between atoms: C5_5  and  C6_6 
REMARK    3  A    between atoms: C6_6  and  C7_7 
REMARK    4  A    between atoms: C7_7  and  C8_8 
ROOT
HETATM    1  C6  UNL     1     -33.272   7.264   5.649  1.00 20.00     0.006 C 
ENDROOT
BRANCH   1   2
HETATM    2  C5  UNL     1     -34.453   6.329   5.943  1.00 20.00     0.033 C 
BRANCH   2   3
HETATM    3  C2  UNL     1     -34.775   5.348   4.840  1.00 20.00    -0.093 C 
HETATM    4  C1  UNL     1     -34.247   4.113   4.823  1.00 20.00     0.014 C 
HETATM    5  C3  UNL     1     -35.681   5.825   3.742  1.00 20.00     0.042 C 
ENDBRANCH   2   3
ENDBRANCH   1   2
BRANCH   1   6
HETATM    6  C7  UNL     1     -33.402   7.989   4.302  1.00 20.00     0.020 C 
BRANCH   6   7
HETATM    7  C8  UNL     1     -32.264   7.660   3.324  1.00 20.00     0.078 C 
HETATM    8  C4  UNL     1     -32.555   6.375   2.558  1.00 20.00     0.026 C 
HETATM    9 CL9  UNL     1     -32.018   8.988   2.150  1.00 20.00    -0.125 Cl
ENDBRANCH   6   7
ENDBRANCH   1   6
TORSDOF 4
ENDMDL
MODEL 9
REMARK VINA RESULT:      -4.0     10.020     10.586
REMARK  4 active torsions:
REMARK  status: ('A' for Active; 'I' for Inactive)
REMARK    1  A    between atoms: C2_2  and  C5_5 
REMARK    2  A    between atoms: C5_5  and  C6_6 
REMARK    3  A    between atoms: C6_6  and  C7_7 
REMARK    4  A    between atoms: C7_7  and  C8_8 
ROOT
HETATM    1  C6  UNL     1     -35.017  15.499  -3.664  1.00 20.00     0.006 C 
ENDROOT
BRANCH   1   2
HETATM    2  C5  UNL     1     -33.792  16.316  -3.228  1.00 20.00     0.033 C 
BRANCH   2   3
HETATM    3  C2  UNL     1     -33.971  17.087  -1.941  1.00 20.00    -0.093 C 
HETATM    4  C1  UNL     1     -32.985  17.843  -1.433  1.00 20.00     0.014 C 
HETATM    5  C3  UNL     1     -35.288  16.942  -1.233  1.00 20.00     0.042 C 
ENDBRANCH   2   3
ENDBRANCH   1   2
BRANCH   1   6
HETATM    6  C7  UNL     1     -34.644  14.150  -4.294  1.00 20.00     0.020 C 
BRANCH   6   7
HETATM    7  C8  UNL     1     -35.797  13.510  -5.083  1.00 20.00     0.078 C 
HETATM    8  C4  UNL     1     -37.045  14.383  -5.033  1.00 20.00     0.026 C 
HETATM    9 CL9  UNL     1     -35.342  13.251  -6.794  1.00 20.00    -0.125 Cl
ENDBRANCH   6   7
ENDBRANCH   1   6
TORSDOF 4
ENDMDL
