MODEL 1
REMARK VINA RESULT:      -6.4      0.000      0.000
REMARK  3 active torsions:
REMARK  status: ('A' for Active; 'I' for Inactive)
REMARK    1  A    between atoms: C2_2  and  C9_9 
REMARK    2  A    between atoms: C3_3  and  C5_5 
REMARK    3  A    between atoms: C3_3  and  C9_9 
ROOT
HETATM    1  C3  UNL     1     -33.164   6.013   2.864  1.00 20.00     0.135 C 
HETATM    2  O10 UNL     1     -32.955   4.815   2.680  1.00 20.00    -0.297 OA
ENDROOT
BRANCH   1   3
HETATM    3  C5  UNL     1     -32.188   7.052   2.372  1.00 20.00     0.060 A 
HETATM    4  C4  UNL     1     -31.730   8.089   3.332  1.00 20.00     0.017 A 
HETATM    5  C6  UNL     1     -32.682   8.458   2.225  1.00 20.00    -0.007 A 
HETATM    6  C8  UNL     1     -32.211   9.273   1.071  1.00 20.00     0.011 C 
ENDBRANCH   1   3
BRANCH   1   7
HETATM    7  C9  UNL     1     -34.373   6.542   3.623  1.00 20.00     0.111 C 
BRANCH   7   8
HETATM    8  C2  UNL     1     -34.316   6.187   5.084  1.00 20.00    -0.086 C 
HETATM    9  C1  UNL     1     -34.669   4.969   5.526  1.00 20.00     0.014 C 
HETATM   10  C7  UNL     1     -33.816   7.249   6.021  1.00 20.00     0.043 C 
ENDBRANCH   7   8
ENDBRANCH   1   7
TORSDOF 3
ENDMDL
MODEL 2
REMARK VINA RESULT:      -5.8      1.855      4.682
REMARK  3 active torsions:
REMARK  status: ('A' for Active; 'I' for Inactive)
REMARK    1  A    between atoms: C2_2  and  C9_9 
REMARK    2  A    between atoms: C3_3  and  C5_5 
REMARK    3  A    between atoms: C3_3  and  C9_9 
ROOT
HETATM    1  C3  UNL     1     -31.945   8.122   2.623  1.00 20.00     0.135 C 
HETATM    2  O10 UNL     1     -31.322   8.389   3.650  1.00 20.00    -0.297 OA
ENDROOT
BRANCH   1   3
HETATM    3  C5  UNL     1     -33.144   7.208   2.664  1.00 20.00     0.060 A 
HETATM    4  C4  UNL     1     -33.890   7.093   3.944  1.00 20.00     0.017 A 
HETATM    5  C6  UNL     1     -33.033   5.950   3.468  1.00 20.00    -0.007 A 
HETATM    6  C8  UNL     1     -33.665   4.704   2.952  1.00 20.00     0.011 C 
ENDBRANCH   1   3
BRANCH   1   7
HETATM    7  C9  UNL     1     -31.548   8.639   1.248  1.00 20.00     0.111 C 
BRANCH   7   8
HETATM    8  C2  UNL     1     -32.523   9.662   0.732  1.00 20.00    -0.086 C 
HETATM    9  C1  UNL     1     -32.789  10.787   1.414  1.00 20.00     0.014 C 
HETATM   10  C7  UNL     1     -33.161   9.380  -0.599  1.00 20.00     0.043 C 
ENDBRANCH   7   8
ENDBRANCH   1   7
TORSDOF 3
ENDMDL
MODEL 3
REMARK VINA RESULT:      -5.8      1.878      4.582
REMARK  3 active torsions:
REMARK  status: ('A' for Active; 'I' for Inactive)
REMARK    1  A    between atoms: C2_2  and  C9_9 
REMARK    2  A    between atoms: C3_3  and  C5_5 
REMARK    3  A    between atoms: C3_3  and  C9_9 
ROOT
HETATM    1  C3  UNL     1     -31.906   8.129   2.549  1.00 20.00     0.135 C 
HETATM    2  O10 UNL     1     -31.278   8.397   3.572  1.00 20.00    -0.297 OA
ENDROOT
BRANCH   1   3
HETATM    3  C5  UNL     1     -33.105   7.216   2.596  1.00 20.00     0.060 A 
HETATM    4  C4  UNL     1     -33.877   7.143   3.864  1.00 20.00     0.017 A 
HETATM    5  C6  UNL     1     -33.011   5.985   3.443  1.00 20.00    -0.007 A 
HETATM    6  C8  UNL     1     -33.631   4.722   2.955  1.00 20.00     0.011 C 
ENDBRANCH   1   3
BRANCH   1   7
HETATM    7  C9  UNL     1     -31.514   8.644   1.171  1.00 20.00     0.111 C 
BRANCH   7   8
HETATM    8  C2  UNL     1     -32.525   9.617   0.629  1.00 20.00    -0.086 C 
HETATM    9  C1  UNL     1     -33.151   9.404  -0.539  1.00 20.00     0.014 C 
HETATM   10  C7  UNL     1     -32.826  10.823   1.473  1.00 20.00     0.043 C 
ENDBRANCH   7   8
ENDBRANCH   1   7
TORSDOF 3
ENDMDL
MODEL 4
REMARK VINA RESULT:      -5.6      1.571      2.203
REMARK  3 active torsions:
REMARK  status: ('A' for Active; 'I' for Inactive)
REMARK    1  A    between atoms: C2_2  and  C9_9 
REMARK    2  A    between atoms: C3_3  and  C5_5 
REMARK    3  A    between atoms: C3_3  and  C9_9 
ROOT
HETATM    1  C3  UNL     1     -32.527   7.839   2.988  1.00 20.00     0.135 C 
HETATM    2  O10 UNL     1     -31.563   8.062   3.719  1.00 20.00    -0.297 OA
ENDROOT
BRANCH   1   3
HETATM    3  C5  UNL     1     -32.435   8.063   1.500  1.00 20.00     0.060 A 
HETATM    4  C4  UNL     1     -31.224   8.742   0.970  1.00 20.00     0.017 A 
HETATM    5  C6  UNL     1     -32.542   9.471   0.999  1.00 20.00    -0.007 A 
HETATM    6  C8  UNL     1     -33.281   9.735  -0.266  1.00 20.00     0.011 C 
ENDBRANCH   1   3
BRANCH   1   7
HETATM    7  C9  UNL     1     -33.879   7.372   3.509  1.00 20.00     0.111 C 
BRANCH   7   8
HETATM    8  C2  UNL     1     -33.918   5.881   3.709  1.00 20.00    -0.086 C 
HETATM    9  C1  UNL     1     -33.315   5.042   2.852  1.00 20.00     0.014 C 
HETATM   10  C7  UNL     1     -34.635   5.379   4.929  1.00 20.00     0.043 C 
ENDBRANCH   7   8
ENDBRANCH   1   7
TORSDOF 3
ENDMDL
MODEL 5
REMARK VINA RESULT:      -5.5      1.541      1.644
REMARK  3 active torsions:
REMARK  status: ('A' for Active; 'I' for Inactive)
REMARK    1  A    between atoms: C2_2  and  C9_9 
REMARK    2  A    between atoms: C3_3  and  C5_5 
REMARK    3  A    between atoms: C3_3  and  C9_9 
ROOT
HETATM    1  C3  UNL     1     -33.270   7.220   3.804  1.00 20.00     0.135 C 
HETATM    2  O10 UNL     1     -32.935   7.694   4.889  1.00 20.00    -0.297 OA
ENDROOT
BRANCH   1   3
HETATM    3  C5  UNL     1     -32.498   7.542   2.550  1.00 20.00     0.060 A 
HETATM    4  C4  UNL     1     -31.289   8.397   2.675  1.00 20.00     0.017 A 
HETATM    5  C6  UNL     1     -32.541   8.953   2.049  1.00 20.00    -0.007 A 
HETATM    6  C8  UNL     1     -32.600   9.198   0.581  1.00 20.00     0.011 C 
ENDBRANCH   1   3
BRANCH   1   7
HETATM    7  C9  UNL     1     -34.486   6.323   3.626  1.00 20.00     0.111 C 
BRANCH   7   8
HETATM    8  C2  UNL     1     -34.430   5.117   4.524  1.00 20.00    -0.086 C 
HETATM    9  C1  UNL     1     -34.072   3.910   4.060  1.00 20.00     0.014 C 
HETATM   10  C7  UNL     1     -34.764   5.335   5.973  1.00 20.00     0.043 C 
ENDBRANCH   7   8
ENDBRANCH   1   7
TORSDOF 3
ENDMDL
MODEL 6
REMARK VINA RESULT:      -5.4      1.530      4.545
REMARK  3 active torsions:
REMARK  status: ('A' for Active; 'I' for Inactive)
REMARK    1  A    between atoms: C2_2  and  C9_9 
REMARK    2  A    between atoms: C3_3  and  C5_5 
REMARK    3  A    between atoms: C3_3  and  C9_9 
ROOT
HETATM    1  C3  UNL     1     -32.712   7.780   3.513  1.00 20.00     0.135 C 
HETATM    2  O10 UNL     1     -31.647   8.134   4.017  1.00 20.00    -0.297 OA
ENDROOT
BRANCH   1   3
HETATM    3  C5  UNL     1     -33.854   7.305   4.374  1.00 20.00     0.060 A 
HETATM    4  C4  UNL     1     -33.692   7.377   5.850  1.00 20.00     0.017 A 
HETATM    5  C6  UNL     1     -33.659   6.041   5.154  1.00 20.00    -0.007 A 
HETATM    6  C8  UNL     1     -34.800   5.094   5.294  1.00 20.00     0.011 C 
ENDBRANCH   1   3
BRANCH   1   7
HETATM    7  C9  UNL     1     -32.953   7.750   2.010  1.00 20.00     0.111 C 
BRANCH   7   8
HETATM    8  C2  UNL     1     -32.286   8.903   1.312  1.00 20.00    -0.086 C 
HETATM    9  C1  UNL     1     -31.165   8.737   0.593  1.00 20.00     0.014 C 
HETATM   10  C7  UNL     1     -32.951  10.245   1.432  1.00 20.00     0.043 C 
ENDBRANCH   7   8
ENDBRANCH   1   7
TORSDOF 3
ENDMDL
MODEL 7
REMARK VINA RESULT:      -4.8      0.808      3.873
REMARK  3 active torsions:
REMARK  status: ('A' for Active; 'I' for Inactive)
REMARK    1  A    between atoms: C2_2  and  C9_9 
REMARK    2  A    between atoms: C3_3  and  C5_5 
REMARK    3  A    between atoms: C3_3  and  C9_9 
ROOT
HETATM    1  C3  UNL     1     -33.226   5.864   2.810  1.00 20.00     0.135 C 
HETATM    2  O10 UNL     1     -32.807   4.917   2.147  1.00 20.00    -0.297 OA
ENDROOT
BRANCH   1   3
HETATM    3  C5  UNL     1     -33.610   5.683   4.257  1.00 20.00     0.060 A 
HETATM    4  C4  UNL     1     -35.054   5.545   4.584  1.00 20.00     0.017 A 
HETATM    5  C6  UNL     1     -34.321   6.813   4.935  1.00 20.00    -0.007 A 
HETATM    6  C8  UNL     1     -33.997   7.124   6.355  1.00 20.00     0.011 C 
ENDBRANCH   1   3
BRANCH   1   7
HETATM    7  C9  UNL     1     -33.433   7.258   2.235  1.00 20.00     0.111 C 
BRANCH   7   8
HETATM    8  C2  UNL     1     -32.150   8.044   2.197  1.00 20.00    -0.086 C 
HETATM    9  C1  UNL     1     -31.685   8.576   1.056  1.00 20.00     0.014 C 
HETATM   10  C7  UNL     1     -31.431   8.232   3.503  1.00 20.00     0.043 C 
ENDBRANCH   7   8
ENDBRANCH   1   7
TORSDOF 3
ENDMDL
MODEL 8
REMARK VINA RESULT:      -4.6      1.726      2.309
REMARK  3 active torsions:
REMARK  status: ('A' for Active; 'I' for Inactive)
REMARK    1  A    between atoms: C2_2  and  C9_9 
REMARK    2  A    between atoms: C3_3  and  C5_5 
REMARK    3  A    between atoms: C3_3  and  C9_9 
ROOT
HETATM    1  C3  UNL     1     -33.197   7.458   4.888  1.00 20.00     0.135 C 
HETATM    2  O10 UNL     1     -32.407   8.150   5.529  1.00 20.00    -0.297 OA
ENDROOT
BRANCH   1   3
HETATM    3  C5  UNL     1     -33.228   7.516   3.381  1.00 20.00     0.060 A 
HETATM    4  C4  UNL     1     -32.224   6.715   2.632  1.00 20.00     0.017 A 
HETATM    5  C6  UNL     1     -32.100   8.215   2.688  1.00 20.00    -0.007 A 
HETATM    6  C8  UNL     1     -32.391   9.038   1.482  1.00 20.00     0.011 C 
ENDBRANCH   1   3
BRANCH   1   7
HETATM    7  C9  UNL     1     -34.217   6.536   5.540  1.00 20.00     0.111 C 
BRANCH   7   8
HETATM    8  C2  UNL     1     -34.783   5.544   4.560  1.00 20.00    -0.086 C 
HETATM    9  C1  UNL     1     -35.727   5.894   3.672  1.00 20.00     0.014 C 
HETATM   10  C7  UNL     1     -34.220   4.152   4.602  1.00 20.00     0.043 C 
ENDBRANCH   7   8
ENDBRANCH   1   7
TORSDOF 3
ENDMDL
MODEL 9
REMARK VINA RESULT:      -4.3     10.894     12.193
REMARK  3 active torsions:
REMARK  status: ('A' for Active; 'I' for Inactive)
REMARK    1  A    between atoms: C2_2  and  C9_9 
REMARK    2  A    between atoms: C3_3  and  C5_5 
REMARK    3  A    between atoms: C3_3  and  C9_9 
ROOT
HETATM    1  C3  UNL     1     -35.247  13.773  -5.281  1.00 20.00     0.135 C 
HETATM    2  O10 UNL     1     -35.980  12.788  -5.206  1.00 20.00    -0.297 OA
ENDROOT
BRANCH   1   3
HETATM    3  C5  UNL     1     -35.149  14.567  -6.559  1.00 20.00     0.060 A 
HETATM    4  C4  UNL     1     -34.290  14.033  -7.648  1.00 20.00     0.017 A 
HETATM    5  C6  UNL     1     -33.846  15.239  -6.863  1.00 20.00    -0.007 A 
HETATM    6  C8  UNL     1     -33.858  16.589  -7.492  1.00 20.00     0.011 C 
ENDBRANCH   1   3
BRANCH   1   7
HETATM    7  C9  UNL     1     -34.361  14.243  -4.135  1.00 20.00     0.111 C 
BRANCH   7   8
HETATM    8  C2  UNL     1     -34.818  15.563  -3.579  1.00 20.00    -0.086 C 
HETATM    9  C1  UNL     1     -36.122  15.864  -3.464  1.00 20.00     0.014 C 
HETATM   10  C7  UNL     1     -33.748  16.517  -3.129  1.00 20.00     0.043 C 
ENDBRANCH   7   8
ENDBRANCH   1   7
TORSDOF 3
ENDMDL
