MODEL 1
REMARK VINA RESULT:      -4.0      0.000      0.000
REMARK  4 active torsions:
REMARK  status: ('A' for Active; 'I' for Inactive)
REMARK    1  A    between atoms: C2_2  and  C7_7 
REMARK    2  A    between atoms: C6_6  and  C7_7 
REMARK    3  A    between atoms: C6_6  and  S9_9 
REMARK    4  A    between atoms: C7_7  and  N8_8 
ROOT
HETATM    1  C7  UNL     1     -33.314   6.600   3.705  1.00 20.00     0.257 C 
ENDROOT
BRANCH   1   2
HETATM    2  C2  UNL     1     -33.890   6.548   5.113  1.00 20.00    -0.060 C 
HETATM    3  C1  UNL     1     -33.670   7.545   5.988  1.00 20.00     0.016 C 
HETATM    4  C3  UNL     1     -34.716   5.354   5.511  1.00 20.00     0.044 C 
ENDBRANCH   1   2
BRANCH   1   5
HETATM    5  C6  UNL     1     -33.442   7.972   3.019  1.00 20.00     0.113 C 
BRANCH   5   6
HETATM    6  S9  UNL     1     -31.935   8.446   2.112  1.00 20.00    -0.171 SA
HETATM    7  C5  UNL     1     -32.622   9.833   1.181  1.00 20.00     0.089 C 
ENDBRANCH   5   6
ENDBRANCH   1   5
BRANCH   1   8
HETATM    8  N8  UNL     1     -33.950   5.589   2.845  1.00 20.00     0.088 N 
HETATM    9  C4  UNL     1     -32.976   4.600   2.422  1.00 20.00     0.307 C 
HETATM   10  H24 UNL     1     -34.341   6.058   2.034  1.00 20.00     0.316 HD
ENDBRANCH   1   8
TORSDOF 4
ENDMDL
MODEL 2
REMARK VINA RESULT:      -3.9      1.218      2.500
REMARK  4 active torsions:
REMARK  status: ('A' for Active; 'I' for Inactive)
REMARK    1  A    between atoms: C2_2  and  C7_7 
REMARK    2  A    between atoms: C6_6  and  C7_7 
REMARK    3  A    between atoms: C6_6  and  S9_9 
REMARK    4  A    between atoms: C7_7  and  N8_8 
ROOT
HETATM    1  C7  UNL     1     -33.864   6.812   3.647  1.00 20.00     0.257 C 
ENDROOT
BRANCH   1   2
HETATM    2  C2  UNL     1     -33.789   5.294   3.553  1.00 20.00    -0.060 C 
HETATM    3  C1  UNL     1     -33.038   4.696   2.612  1.00 20.00     0.016 C 
HETATM    4  C3  UNL     1     -34.575   4.472   4.539  1.00 20.00     0.044 C 
ENDBRANCH   1   2
BRANCH   1   5
HETATM    5  C6  UNL     1     -33.500   7.546   2.344  1.00 20.00     0.113 C 
BRANCH   5   6
HETATM    6  S9  UNL     1     -31.897   8.405   2.446  1.00 20.00    -0.171 SA
HETATM    7  C5  UNL     1     -31.912   9.172   0.810  1.00 20.00     0.089 C 
ENDBRANCH   5   6
ENDBRANCH   1   5
BRANCH   1   8
HETATM    8  N8  UNL     1     -32.990   7.311   4.722  1.00 20.00     0.088 N 
HETATM    9  C4  UNL     1     -33.725   7.402   5.970  1.00 20.00     0.307 C 
HETATM   10  H24 UNL     1     -32.646   8.228   4.455  1.00 20.00     0.316 HD
ENDBRANCH   1   8
TORSDOF 4
ENDMDL
MODEL 3
REMARK VINA RESULT:      -3.9      1.228      2.561
REMARK  4 active torsions:
REMARK  status: ('A' for Active; 'I' for Inactive)
REMARK    1  A    between atoms: C2_2  and  C7_7 
REMARK    2  A    between atoms: C6_6  and  C7_7 
REMARK    3  A    between atoms: C6_6  and  S9_9 
REMARK    4  A    between atoms: C7_7  and  N8_8 
ROOT
HETATM    1  C7  UNL     1     -33.900   6.796   3.697  1.00 20.00     0.257 C 
ENDROOT
BRANCH   1   2
HETATM    2  C2  UNL     1     -33.866   5.275   3.637  1.00 20.00    -0.060 C 
HETATM    3  C1  UNL     1     -34.576   4.532   4.503  1.00 20.00     0.016 C 
HETATM    4  C3  UNL     1     -33.017   4.614   2.583  1.00 20.00     0.044 C 
ENDBRANCH   1   2
BRANCH   1   5
HETATM    5  C6  UNL     1     -33.503   7.490   2.381  1.00 20.00     0.113 C 
BRANCH   5   6
HETATM    6  S9  UNL     1     -31.902   8.351   2.497  1.00 20.00    -0.171 SA
HETATM    7  C5  UNL     1     -31.916   9.137   0.871  1.00 20.00     0.089 C 
ENDBRANCH   5   6
ENDBRANCH   1   5
BRANCH   1   8
HETATM    8  N8  UNL     1     -33.025   7.295   4.769  1.00 20.00     0.088 N 
HETATM    9  C4  UNL     1     -33.762   7.405   6.014  1.00 20.00     0.307 C 
HETATM   10  H24 UNL     1     -32.670   8.206   4.495  1.00 20.00     0.316 HD
ENDBRANCH   1   8
TORSDOF 4
ENDMDL
MODEL 4
REMARK VINA RESULT:      -3.5     11.353     12.186
REMARK  4 active torsions:
REMARK  status: ('A' for Active; 'I' for Inactive)
REMARK    1  A    between atoms: C2_2  and  C7_7 
REMARK    2  A    between atoms: C6_6  and  C7_7 
REMARK    3  A    between atoms: C6_6  and  S9_9 
REMARK    4  A    between atoms: C7_7  and  N8_8 
ROOT
HETATM    1  C7  UNL     1     -34.847  14.301  -5.632  1.00 20.00     0.257 C 
ENDROOT
BRANCH   1   2
HETATM    2  C2  UNL     1     -34.015  14.726  -4.430  1.00 20.00    -0.060 C 
HETATM    3  C1  UNL     1     -32.756  14.286  -4.269  1.00 20.00     0.016 C 
HETATM    4  C3  UNL     1     -34.633  15.655  -3.419  1.00 20.00     0.044 C 
ENDBRANCH   1   2
BRANCH   1   5
HETATM    5  C6  UNL     1     -36.091  13.467  -5.277  1.00 20.00     0.113 C 
BRANCH   5   6
HETATM    6  S9  UNL     1     -37.625  14.449  -5.304  1.00 20.00    -0.171 SA
HETATM    7  C5  UNL     1     -37.055  15.787  -6.375  1.00 20.00     0.089 C 
ENDBRANCH   5   6
ENDBRANCH   1   5
BRANCH   1   8
HETATM    8  N8  UNL     1     -34.029  13.535  -6.586  1.00 20.00     0.088 N 
HETATM    9  C4  UNL     1     -34.133  14.107  -7.915  1.00 20.00     0.307 C 
HETATM   10  H24 UNL     1     -34.362  12.576  -6.595  1.00 20.00     0.316 HD
ENDBRANCH   1   8
TORSDOF 4
ENDMDL
MODEL 5
REMARK VINA RESULT:      -3.5     11.326     12.174
REMARK  4 active torsions:
REMARK  status: ('A' for Active; 'I' for Inactive)
REMARK    1  A    between atoms: C2_2  and  C7_7 
REMARK    2  A    between atoms: C6_6  and  C7_7 
REMARK    3  A    between atoms: C6_6  and  S9_9 
REMARK    4  A    between atoms: C7_7  and  N8_8 
ROOT
HETATM    1  C7  UNL     1     -34.880  14.310  -5.620  1.00 20.00     0.257 C 
ENDROOT
BRANCH   1   2
HETATM    2  C2  UNL     1     -34.072  14.750  -4.407  1.00 20.00    -0.060 C 
HETATM    3  C1  UNL     1     -34.597  15.580  -3.490  1.00 20.00     0.016 C 
HETATM    4  C3  UNL     1     -32.666  14.234  -4.252  1.00 20.00     0.044 C 
ENDBRANCH   1   2
BRANCH   1   5
HETATM    5  C6  UNL     1     -36.130  13.478  -5.280  1.00 20.00     0.113 C 
BRANCH   5   6
HETATM    6  S9  UNL     1     -37.666  14.453  -5.365  1.00 20.00    -0.171 SA
HETATM    7  C5  UNL     1     -37.063  15.792  -6.416  1.00 20.00     0.089 C 
ENDBRANCH   5   6
ENDBRANCH   1   5
BRANCH   1   8
HETATM    8  N8  UNL     1     -34.043  13.535  -6.550  1.00 20.00     0.088 N 
HETATM    9  C4  UNL     1     -34.109  14.102  -7.884  1.00 20.00     0.307 C 
HETATM   10  H24 UNL     1     -34.382  12.578  -6.564  1.00 20.00     0.316 HD
ENDBRANCH   1   8
TORSDOF 4
ENDMDL
MODEL 6
REMARK VINA RESULT:      -3.4      2.314      4.638
REMARK  4 active torsions:
REMARK  status: ('A' for Active; 'I' for Inactive)
REMARK    1  A    between atoms: C2_2  and  C7_7 
REMARK    2  A    between atoms: C6_6  and  C7_7 
REMARK    3  A    between atoms: C6_6  and  S9_9 
REMARK    4  A    between atoms: C7_7  and  N8_8 
ROOT
HETATM    1  C7  UNL     1     -32.328   8.193   1.876  1.00 20.00     0.257 C 
ENDROOT
BRANCH   1   2
HETATM    2  C2  UNL     1     -32.656   9.360   0.955  1.00 20.00    -0.060 C 
HETATM    3  C1  UNL     1     -32.642  10.625   1.409  1.00 20.00     0.016 C 
HETATM    4  C3  UNL     1     -32.999   9.069  -0.482  1.00 20.00     0.044 C 
ENDBRANCH   1   2
BRANCH   1   5
HETATM    5  C6  UNL     1     -33.522   7.685   2.704  1.00 20.00     0.113 C 
BRANCH   5   6
HETATM    6  S9  UNL     1     -33.604   5.867   2.775  1.00 20.00    -0.171 SA
HETATM    7  C5  UNL     1     -34.745   5.716   4.168  1.00 20.00     0.089 C 
ENDBRANCH   5   6
ENDBRANCH   1   5
BRANCH   1   8
HETATM    8  N8  UNL     1     -31.238   8.548   2.798  1.00 20.00     0.088 N 
HETATM    9  C4  UNL     1     -31.674   8.408   4.175  1.00 20.00     0.307 C 
HETATM   10  H24 UNL     1     -30.967   9.510   2.618  1.00 20.00     0.316 HD
ENDBRANCH   1   8
TORSDOF 4
ENDMDL
MODEL 7
REMARK VINA RESULT:      -3.4     11.334     11.904
REMARK  4 active torsions:
REMARK  status: ('A' for Active; 'I' for Inactive)
REMARK    1  A    between atoms: C2_2  and  C7_7 
REMARK    2  A    between atoms: C6_6  and  C7_7 
REMARK    3  A    between atoms: C6_6  and  S9_9 
REMARK    4  A    between atoms: C7_7  and  N8_8 
ROOT
HETATM    1  C7  UNL     1     -35.039  16.282  -3.108  1.00 20.00     0.257 C 
ENDROOT
BRANCH   1   2
HETATM    2  C2  UNL     1     -34.506  16.991  -1.871  1.00 20.00    -0.060 C 
HETATM    3  C1  UNL     1     -33.248  17.461  -1.832  1.00 20.00     0.016 C 
HETATM    4  C3  UNL     1     -35.420  17.158  -0.686  1.00 20.00     0.044 C 
ENDBRANCH   1   2
BRANCH   1   5
HETATM    5  C6  UNL     1     -34.633  16.940  -4.439  1.00 20.00     0.113 C 
BRANCH   5   6
HETATM    6  S9  UNL     1     -33.328  16.015  -5.310  1.00 20.00    -0.171 SA
HETATM    7  C5  UNL     1     -33.440  14.472  -4.377  1.00 20.00     0.089 C 
ENDBRANCH   5   6
ENDBRANCH   1   5
BRANCH   1   8
HETATM    8  N8  UNL     1     -36.507  16.189  -3.063  1.00 20.00     0.088 N 
HETATM    9  C4  UNL     1     -37.002  15.433  -4.198  1.00 20.00     0.307 C 
HETATM   10  H24 UNL     1     -36.888  17.129  -3.081  1.00 20.00     0.316 HD
ENDBRANCH   1   8
TORSDOF 4
ENDMDL
MODEL 8
REMARK VINA RESULT:      -3.3      1.811      3.772
REMARK  4 active torsions:
REMARK  status: ('A' for Active; 'I' for Inactive)
REMARK    1  A    between atoms: C2_2  and  C7_7 
REMARK    2  A    between atoms: C6_6  and  C7_7 
REMARK    3  A    between atoms: C6_6  and  S9_9 
REMARK    4  A    between atoms: C7_7  and  N8_8 
ROOT
HETATM    1  C7  UNL     1     -33.235   7.010   2.714  1.00 20.00     0.257 C 
ENDROOT
BRANCH   1   2
HETATM    2  C2  UNL     1     -32.276   8.179   2.535  1.00 20.00    -0.060 C 
HETATM    3  C1  UNL     1     -31.275   8.391   3.406  1.00 20.00     0.016 C 
HETATM    4  C3  UNL     1     -32.471   9.097   1.358  1.00 20.00     0.044 C 
ENDBRANCH   1   2
BRANCH   1   5
HETATM    5  C6  UNL     1     -34.329   7.245   3.771  1.00 20.00     0.113 C 
BRANCH   5   6
HETATM    6  S9  UNL     1     -33.734   6.966   5.471  1.00 20.00    -0.171 SA
HETATM    7  C5  UNL     1     -34.622   5.429   5.804  1.00 20.00     0.089 C 
ENDBRANCH   5   6
ENDBRANCH   1   5
BRANCH   1   8
HETATM    8  N8  UNL     1     -32.502   5.784   3.067  1.00 20.00     0.088 N 
HETATM    9  C4  UNL     1     -33.159   4.620   2.501  1.00 20.00     0.307 C 
HETATM   10  H24 UNL     1     -32.474   5.707   4.079  1.00 20.00     0.316 HD
ENDBRANCH   1   8
TORSDOF 4
ENDMDL
MODEL 9
REMARK VINA RESULT:      -3.2     11.333     12.221
REMARK  4 active torsions:
REMARK  status: ('A' for Active; 'I' for Inactive)
REMARK    1  A    between atoms: C2_2  and  C7_7 
REMARK    2  A    between atoms: C6_6  and  C7_7 
REMARK    3  A    between atoms: C6_6  and  S9_9 
REMARK    4  A    between atoms: C7_7  and  N8_8 
ROOT
HETATM    1  C7  UNL     1     -33.742  16.357  -3.281  1.00 20.00     0.257 C 
ENDROOT
BRANCH   1   2
HETATM    2  C2  UNL     1     -33.929  17.091  -1.961  1.00 20.00    -0.060 C 
HETATM    3  C1  UNL     1     -32.951  17.860  -1.453  1.00 20.00     0.016 C 
HETATM    4  C3  UNL     1     -35.237  16.939  -1.230  1.00 20.00     0.044 C 
ENDBRANCH   1   2
BRANCH   1   5
HETATM    5  C6  UNL     1     -33.572  17.281  -4.500  1.00 20.00     0.113 C 
BRANCH   5   6
HETATM    6  S9  UNL     1     -35.157  17.942  -5.107  1.00 20.00    -0.171 SA
HETATM    7  C5  UNL     1     -35.135  17.193  -6.751  1.00 20.00     0.089 C 
ENDBRANCH   5   6
ENDBRANCH   1   5
BRANCH   1   8
HETATM    8  N8  UNL     1     -34.874  15.451  -3.538  1.00 20.00     0.088 N 
HETATM    9  C4  UNL     1     -34.412  14.233  -4.177  1.00 20.00     0.307 C 
HETATM   10  H24 UNL     1     -35.536  15.929  -4.141  1.00 20.00     0.316 HD
ENDBRANCH   1   8
TORSDOF 4
ENDMDL
