MODEL 1
REMARK VINA RESULT:      -5.9      0.000      0.000
REMARK  3 active torsions:
REMARK  status: ('A' for Active; 'I' for Inactive)
REMARK    1  A    between atoms: C2_2  and  C9_9 
REMARK    2  A    between atoms: C3_3  and  C5_5 
REMARK    3  A    between atoms: C3_3  and  C9_9 
ROOT
HETATM    1  C3  UNL     1     -32.145   8.059   2.791  1.00 20.00     0.135 C 
HETATM    2  O10 UNL     1     -31.352   8.124   3.730  1.00 20.00    -0.297 OA
ENDROOT
BRANCH   1   3
HETATM    3  C5  UNL     1     -33.566   7.611   3.011  1.00 20.00     0.060 A 
HETATM    4  C4  UNL     1     -33.884   6.887   4.273  1.00 20.00     0.017 A 
HETATM    5  C6  UNL     1     -33.898   6.159   2.957  1.00 20.00    -0.007 A 
HETATM    6  C8  UNL     1     -32.891   5.095   2.683  1.00 20.00     0.011 C 
ENDBRANCH   1   3
BRANCH   1   7
HETATM    7  C9  UNL     1     -31.759   8.373   1.352  1.00 20.00     0.111 C 
BRANCH   7   8
HETATM    8  C2  UNL     1     -32.542   9.536   0.803  1.00 20.00    -0.086 C 
HETATM    9  C1  UNL     1     -32.619  10.703   1.460  1.00 20.00     0.014 C 
HETATM   10  C7  UNL     1     -33.205   9.337  -0.531  1.00 20.00     0.043 C 
ENDBRANCH   7   8
ENDBRANCH   1   7
TORSDOF 3
ENDMDL
MODEL 2
REMARK VINA RESULT:      -5.5      0.724      4.331
REMARK  3 active torsions:
REMARK  status: ('A' for Active; 'I' for Inactive)
REMARK    1  A    between atoms: C2_2  and  C9_9 
REMARK    2  A    between atoms: C3_3  and  C5_5 
REMARK    3  A    between atoms: C3_3  and  C9_9 
ROOT
HETATM    1  C3  UNL     1     -32.458   7.926   2.828  1.00 20.00     0.135 C 
HETATM    2  O10 UNL     1     -31.436   8.124   3.484  1.00 20.00    -0.297 OA
ENDROOT
BRANCH   1   3
HETATM    3  C5  UNL     1     -32.465   8.114   1.333  1.00 20.00     0.060 A 
HETATM    4  C4  UNL     1     -31.299   8.798   0.708  1.00 20.00     0.017 A 
HETATM    5  C6  UNL     1     -32.637   9.481   0.762  1.00 20.00    -0.007 A 
HETATM    6  C8  UNL     1     -32.817  10.703   1.596  1.00 20.00     0.011 C 
ENDBRANCH   1   3
BRANCH   1   7
HETATM    7  C9  UNL     1     -33.787   7.529   3.456  1.00 20.00     0.111 C 
BRANCH   7   8
HETATM    8  C2  UNL     1     -33.882   6.043   3.675  1.00 20.00    -0.086 C 
HETATM    9  C1  UNL     1     -33.303   5.171   2.836  1.00 20.00     0.014 C 
HETATM   10  C7  UNL     1     -34.628   5.584   4.896  1.00 20.00     0.043 C 
ENDBRANCH   7   8
ENDBRANCH   1   7
TORSDOF 3
ENDMDL
MODEL 3
REMARK VINA RESULT:      -5.4      1.614      4.345
REMARK  3 active torsions:
REMARK  status: ('A' for Active; 'I' for Inactive)
REMARK    1  A    between atoms: C2_2  and  C9_9 
REMARK    2  A    between atoms: C3_3  and  C5_5 
REMARK    3  A    between atoms: C3_3  and  C9_9 
ROOT
HETATM    1  C3  UNL     1     -33.083   6.471   2.875  1.00 20.00     0.135 C 
HETATM    2  O10 UNL     1     -33.210   5.386   2.308  1.00 20.00    -0.297 OA
ENDROOT
BRANCH   1   3
HETATM    3  C5  UNL     1     -31.793   7.244   2.785  1.00 20.00     0.060 A 
HETATM    4  C4  UNL     1     -31.757   8.614   3.368  1.00 20.00     0.017 A 
HETATM    5  C6  UNL     1     -31.703   8.423   1.878  1.00 20.00    -0.007 A 
HETATM    6  C8  UNL     1     -32.831   8.893   1.025  1.00 20.00     0.011 C 
ENDBRANCH   1   3
BRANCH   1   7
HETATM    7  C9  UNL     1     -34.174   7.092   3.737  1.00 20.00     0.111 C 
BRANCH   7   8
HETATM    8  C2  UNL     1     -34.148   6.561   5.145  1.00 20.00    -0.086 C 
HETATM    9  C1  UNL     1     -33.705   7.307   6.169  1.00 20.00     0.014 C 
HETATM   10  C7  UNL     1     -34.670   5.167   5.354  1.00 20.00     0.043 C 
ENDBRANCH   7   8
ENDBRANCH   1   7
TORSDOF 3
ENDMDL
MODEL 4
REMARK VINA RESULT:      -5.4      1.510      2.011
REMARK  3 active torsions:
REMARK  status: ('A' for Active; 'I' for Inactive)
REMARK    1  A    between atoms: C2_2  and  C9_9 
REMARK    2  A    between atoms: C3_3  and  C5_5 
REMARK    3  A    between atoms: C3_3  and  C9_9 
ROOT
HETATM    1  C3  UNL     1     -32.919   6.948   3.138  1.00 20.00     0.135 C 
HETATM    2  O10 UNL     1     -32.825   5.908   2.488  1.00 20.00    -0.297 OA
ENDROOT
BRANCH   1   3
HETATM    3  C5  UNL     1     -34.084   7.177   4.065  1.00 20.00     0.060 A 
HETATM    4  C4  UNL     1     -33.876   6.943   5.521  1.00 20.00     0.017 A 
HETATM    5  C6  UNL     1     -34.745   6.013   4.721  1.00 20.00    -0.007 A 
HETATM    6  C8  UNL     1     -34.324   4.600   4.505  1.00 20.00     0.011 C 
ENDBRANCH   1   3
BRANCH   1   7
HETATM    7  C9  UNL     1     -31.916   8.089   3.033  1.00 20.00     0.111 C 
BRANCH   7   8
HETATM    8  C2  UNL     1     -32.042   8.829   1.729  1.00 20.00    -0.086 C 
HETATM    9  C1  UNL     1     -31.346   8.463   0.643  1.00 20.00     0.014 C 
HETATM   10  C7  UNL     1     -33.009   9.979   1.694  1.00 20.00     0.043 C 
ENDBRANCH   7   8
ENDBRANCH   1   7
TORSDOF 3
ENDMDL
MODEL 5
REMARK VINA RESULT:      -5.1      1.012      1.779
REMARK  3 active torsions:
REMARK  status: ('A' for Active; 'I' for Inactive)
REMARK    1  A    between atoms: C2_2  and  C9_9 
REMARK    2  A    between atoms: C3_3  and  C5_5 
REMARK    3  A    between atoms: C3_3  and  C9_9 
ROOT
HETATM    1  C3  UNL     1     -32.660   7.585   3.088  1.00 20.00     0.135 C 
HETATM    2  O10 UNL     1     -31.629   7.984   3.628  1.00 20.00    -0.297 OA
ENDROOT
BRANCH   1   3
HETATM    3  C5  UNL     1     -33.258   6.252   3.455  1.00 20.00     0.060 A 
HETATM    4  C4  UNL     1     -34.740   6.155   3.560  1.00 20.00     0.017 A 
HETATM    5  C6  UNL     1     -33.886   6.069   4.794  1.00 20.00    -0.007 A 
HETATM    6  C8  UNL     1     -33.954   7.144   5.824  1.00 20.00     0.011 C 
ENDBRANCH   1   3
BRANCH   1   7
HETATM    7  C9  UNL     1     -33.382   8.362   1.996  1.00 20.00     0.111 C 
BRANCH   7   8
HETATM    8  C2  UNL     1     -32.453   9.285   1.255  1.00 20.00    -0.086 C 
HETATM    9  C1  UNL     1     -32.612  10.617   1.289  1.00 20.00     0.014 C 
HETATM   10  C7  UNL     1     -31.320   8.646   0.503  1.00 20.00     0.043 C 
ENDBRANCH   7   8
ENDBRANCH   1   7
TORSDOF 3
ENDMDL
MODEL 6
REMARK VINA RESULT:      -5.1      1.641      2.758
REMARK  3 active torsions:
REMARK  status: ('A' for Active; 'I' for Inactive)
REMARK    1  A    between atoms: C2_2  and  C9_9 
REMARK    2  A    between atoms: C3_3  and  C5_5 
REMARK    3  A    between atoms: C3_3  and  C9_9 
ROOT
HETATM    1  C3  UNL     1     -33.251   5.824   2.979  1.00 20.00     0.135 C 
HETATM    2  O10 UNL     1     -32.271   5.182   2.605  1.00 20.00    -0.297 OA
ENDROOT
BRANCH   1   3
HETATM    3  C5  UNL     1     -34.322   5.179   3.820  1.00 20.00     0.060 A 
HETATM    4  C4  UNL     1     -35.586   5.934   4.042  1.00 20.00     0.017 A 
HETATM    5  C6  UNL     1     -34.622   5.722   5.175  1.00 20.00    -0.007 A 
HETATM    6  C8  UNL     1     -33.906   6.885   5.772  1.00 20.00     0.011 C 
ENDBRANCH   1   3
BRANCH   1   7
HETATM    7  C9  UNL     1     -33.489   7.279   2.597  1.00 20.00     0.111 C 
BRANCH   7   8
HETATM    8  C2  UNL     1     -32.204   8.060   2.534  1.00 20.00    -0.086 C 
HETATM    9  C1  UNL     1     -31.438   8.241   3.622  1.00 20.00     0.014 C 
HETATM   10  C7  UNL     1     -31.804   8.601   1.191  1.00 20.00     0.043 C 
ENDBRANCH   7   8
ENDBRANCH   1   7
TORSDOF 3
ENDMDL
MODEL 7
REMARK VINA RESULT:      -4.8      1.234      4.100
REMARK  3 active torsions:
REMARK  status: ('A' for Active; 'I' for Inactive)
REMARK    1  A    between atoms: C2_2  and  C9_9 
REMARK    2  A    between atoms: C3_3  and  C5_5 
REMARK    3  A    between atoms: C3_3  and  C9_9 
ROOT
HETATM    1  C3  UNL     1     -32.591   7.848   2.468  1.00 20.00     0.135 C 
HETATM    2  O10 UNL     1     -32.035   6.761   2.320  1.00 20.00    -0.297 OA
ENDROOT
BRANCH   1   3
HETATM    3  C5  UNL     1     -31.951   9.118   1.970  1.00 20.00     0.060 A 
HETATM    4  C4  UNL     1     -32.829  10.296   1.728  1.00 20.00     0.017 A 
HETATM    5  C6  UNL     1     -32.201   9.570   0.572  1.00 20.00    -0.007 A 
HETATM    6  C8  UNL     1     -33.057   8.823  -0.393  1.00 20.00     0.011 C 
ENDBRANCH   1   3
BRANCH   1   7
HETATM    7  C9  UNL     1     -33.921   8.012   3.192  1.00 20.00     0.111 C 
BRANCH   7   8
HETATM    8  C2  UNL     1     -34.058   7.047   4.339  1.00 20.00    -0.086 C 
HETATM    9  C1  UNL     1     -33.536   7.312   5.546  1.00 20.00     0.014 C 
HETATM   10  C7  UNL     1     -34.834   5.787   4.075  1.00 20.00     0.043 C 
ENDBRANCH   7   8
ENDBRANCH   1   7
TORSDOF 3
ENDMDL
MODEL 8
REMARK VINA RESULT:      -4.5      1.485      2.536
REMARK  3 active torsions:
REMARK  status: ('A' for Active; 'I' for Inactive)
REMARK    1  A    between atoms: C2_2  and  C9_9 
REMARK    2  A    between atoms: C3_3  and  C5_5 
REMARK    3  A    between atoms: C3_3  and  C9_9 
ROOT
HETATM    1  C3  UNL     1     -33.868   7.120   4.556  1.00 20.00     0.135 C 
HETATM    2  O10 UNL     1     -33.205   7.503   5.519  1.00 20.00    -0.297 OA
ENDROOT
BRANCH   1   3
HETATM    3  C5  UNL     1     -34.780   5.927   4.673  1.00 20.00     0.060 A 
HETATM    4  C4  UNL     1     -34.315   4.766   5.481  1.00 20.00     0.017 A 
HETATM    5  C6  UNL     1     -34.420   4.654   3.986  1.00 20.00    -0.007 A 
HETATM    6  C8  UNL     1     -33.189   4.484   3.163  1.00 20.00     0.011 C 
ENDBRANCH   1   3
BRANCH   1   7
HETATM    7  C9  UNL     1     -33.795   7.772   3.182  1.00 20.00     0.111 C 
BRANCH   7   8
HETATM    8  C2  UNL     1     -32.387   8.157   2.818  1.00 20.00    -0.086 C 
HETATM    9  C1  UNL     1     -31.378   8.045   3.696  1.00 20.00     0.014 C 
HETATM   10  C7  UNL     1     -32.158   8.644   1.415  1.00 20.00     0.043 C 
ENDBRANCH   7   8
ENDBRANCH   1   7
TORSDOF 3
ENDMDL
MODEL 9
REMARK VINA RESULT:      -4.1      9.432     10.990
REMARK  3 active torsions:
REMARK  status: ('A' for Active; 'I' for Inactive)
REMARK    1  A    between atoms: C2_2  and  C9_9 
REMARK    2  A    between atoms: C3_3  and  C5_5 
REMARK    3  A    between atoms: C3_3  and  C9_9 
ROOT
HETATM    1  C3  UNL     1     -35.446  13.835  -5.127  1.00 20.00     0.135 C 
HETATM    2  O10 UNL     1     -35.955  12.715  -5.145  1.00 20.00    -0.297 OA
ENDROOT
BRANCH   1   3
HETATM    3  C5  UNL     1     -35.895  14.902  -6.092  1.00 20.00     0.060 A 
HETATM    4  C4  UNL     1     -36.647  14.477  -7.304  1.00 20.00     0.017 A 
HETATM    5  C6  UNL     1     -35.246  15.006  -7.430  1.00 20.00    -0.007 A 
HETATM    6  C8  UNL     1     -34.148  14.107  -7.883  1.00 20.00     0.011 C 
ENDBRANCH   1   3
BRANCH   1   7
HETATM    7  C9  UNL     1     -34.314  14.222  -4.185  1.00 20.00     0.111 C 
BRANCH   7   8
HETATM    8  C2  UNL     1     -34.383  15.673  -3.792  1.00 20.00    -0.086 C 
HETATM    9  C1  UNL     1     -35.226  16.104  -2.840  1.00 20.00     0.014 C 
HETATM   10  C7  UNL     1     -33.441  16.611  -4.492  1.00 20.00     0.043 C 
ENDBRANCH   7   8
ENDBRANCH   1   7
TORSDOF 3
ENDMDL
