MODEL 1
REMARK VINA RESULT:      -5.6      0.000      0.000
REMARK  2 active torsions:
REMARK  status: ('A' for Active; 'I' for Inactive)
REMARK    1  A    between atoms: C7_7  and  C8_8 
REMARK    2  A    between atoms: C7_7  and  N9_9 
ROOT
HETATM    1  C1  UNL     1     -32.998   6.100   2.700  1.00 20.00     0.277 C 
HETATM    2  C2  UNL     1     -33.251   7.673   4.379  1.00 20.00     0.277 C 
HETATM    3  C3  UNL     1     -34.202   5.607   3.512  1.00 20.00     0.015 C 
HETATM    4  C4  UNL     1     -34.372   6.660   4.630  1.00 20.00     0.015 C 
HETATM    5  C5  UNL     1     -34.043   4.156   3.940  1.00 20.00     0.012 C 
HETATM    6  C6  UNL     1     -34.373   6.156   6.066  1.00 20.00     0.012 C 
HETATM    7  N9  UNL     1     -33.015   7.543   2.940  1.00 20.00     0.090 N 
ENDROOT
BRANCH   7   8
HETATM    8  C7  UNL     1     -31.779   8.188   2.523  1.00 20.00     0.287 C 
BRANCH   8   9
HETATM    9  C8  UNL     1     -31.885   8.818   1.144  1.00 20.00     0.144 C 
HETATM   10 CL10 UNL     1     -32.807  10.341   1.198  1.00 20.00    -0.129 Cl
ENDBRANCH   8   9
ENDBRANCH   7   8
TORSDOF 2
ENDMDL
MODEL 2
REMARK VINA RESULT:      -4.9      1.210      2.077
REMARK  2 active torsions:
REMARK  status: ('A' for Active; 'I' for Inactive)
REMARK    1  A    between atoms: C7_7  and  C8_8 
REMARK    2  A    between atoms: C7_7  and  N9_9 
ROOT
HETATM    1  C1  UNL     1     -32.334   7.984   4.073  1.00 20.00     0.277 C 
HETATM    2  C2  UNL     1     -33.449   6.870   2.379  1.00 20.00     0.277 C 
HETATM    3  C3  UNL     1     -33.079   6.848   4.784  1.00 20.00     0.015 C 
HETATM    4  C4  UNL     1     -33.821   6.103   3.651  1.00 20.00     0.015 C 
HETATM    5  C5  UNL     1     -33.918   7.360   5.947  1.00 20.00     0.012 C 
HETATM    6  C6  UNL     1     -35.326   5.936   3.796  1.00 20.00     0.012 C 
HETATM    7  N9  UNL     1     -32.152   7.455   2.721  1.00 20.00     0.090 N 
ENDROOT
BRANCH   7   8
HETATM    8  C7  UNL     1     -31.743   8.484   1.776  1.00 20.00     0.287 C 
BRANCH   8   9
HETATM    9  C8  UNL     1     -32.885   9.408   1.387  1.00 20.00     0.144 C 
HETATM   10 CL10 UNL     1     -33.089   9.476  -0.381  1.00 20.00    -0.129 Cl
ENDBRANCH   8   9
ENDBRANCH   7   8
TORSDOF 2
ENDMDL
MODEL 3
REMARK VINA RESULT:      -3.8     11.277     11.848
REMARK  2 active torsions:
REMARK  status: ('A' for Active; 'I' for Inactive)
REMARK    1  A    between atoms: C7_7  and  C8_8 
REMARK    2  A    between atoms: C7_7  and  N9_9 
ROOT
HETATM    1  C1  UNL     1     -33.707  16.815  -3.421  1.00 20.00     0.277 C 
HETATM    2  C2  UNL     1     -35.912  16.551  -2.768  1.00 20.00     0.277 C 
HETATM    3  C3  UNL     1     -33.684  17.003  -1.900  1.00 20.00     0.015 C 
HETATM    4  C4  UNL     1     -35.155  16.823  -1.464  1.00 20.00     0.015 C 
HETATM    5  C5  UNL     1     -32.991  18.297  -1.498  1.00 20.00     0.012 C 
HETATM    6  C6  UNL     1     -35.788  17.952  -0.664  1.00 20.00     0.012 C 
HETATM    7  N9  UNL     1     -34.880  15.964  -3.624  1.00 20.00     0.090 N 
ENDROOT
BRANCH   7   8
HETATM    8  C7  UNL     1     -35.287  15.907  -5.021  1.00 20.00     0.287 C 
BRANCH   8   9
HETATM    9  C8  UNL     1     -34.885  14.605  -5.694  1.00 20.00     0.144 C 
HETATM   10 CL10 UNL     1     -36.007  13.287  -5.275  1.00 20.00    -0.129 Cl
ENDBRANCH   8   9
ENDBRANCH   7   8
TORSDOF 2
ENDMDL
MODEL 4
REMARK VINA RESULT:      -3.8     11.047     11.817
REMARK  2 active torsions:
REMARK  status: ('A' for Active; 'I' for Inactive)
REMARK    1  A    between atoms: C7_7  and  C8_8 
REMARK    2  A    between atoms: C7_7  and  N9_9 
ROOT
HETATM    1  C1  UNL     1     -35.095  15.380  -3.729  1.00 20.00     0.277 C 
HETATM    2  C2  UNL     1     -33.400  15.896  -5.218  1.00 20.00     0.277 C 
HETATM    3  C3  UNL     1     -34.965  14.134  -4.612  1.00 20.00     0.015 C 
HETATM    4  C4  UNL     1     -33.831  14.478  -5.604  1.00 20.00     0.015 C 
HETATM    5  C5  UNL     1     -36.303  13.715  -5.203  1.00 20.00     0.012 C 
HETATM    6  C6  UNL     1     -34.144  14.363  -7.088  1.00 20.00     0.012 C 
HETATM    7  N9  UNL     1     -33.757  15.968  -3.800  1.00 20.00     0.090 N 
ENDROOT
BRANCH   7   8
HETATM    8  C7  UNL     1     -33.724  17.331  -3.290  1.00 20.00     0.287 C 
BRANCH   8   9
HETATM    9  C8  UNL     1     -33.322  17.397  -1.826  1.00 20.00     0.144 C 
HETATM   10 CL10 UNL     1     -34.746  17.319  -0.759  1.00 20.00    -0.129 Cl
ENDBRANCH   8   9
ENDBRANCH   7   8
TORSDOF 2
ENDMDL
MODEL 5
REMARK VINA RESULT:      -3.7     11.025     12.324
REMARK  2 active torsions:
REMARK  status: ('A' for Active; 'I' for Inactive)
REMARK    1  A    between atoms: C7_7  and  C8_8 
REMARK    2  A    between atoms: C7_7  and  N9_9 
ROOT
HETATM    1  C1  UNL     1     -34.572  15.521  -6.094  1.00 20.00     0.277 C 
HETATM    2  C2  UNL     1     -34.630  14.578  -3.980  1.00 20.00     0.277 C 
HETATM    3  C3  UNL     1     -33.518  16.298  -5.296  1.00 20.00     0.015 C 
HETATM    4  C4  UNL     1     -33.555  15.665  -3.886  1.00 20.00     0.015 C 
HETATM    5  C5  UNL     1     -33.730  17.802  -5.390  1.00 20.00     0.012 C 
HETATM    6  C6  UNL     1     -33.793  16.600  -2.709  1.00 20.00     0.012 C 
HETATM    7  N9  UNL     1     -34.615  14.231  -5.403  1.00 20.00     0.090 N 
ENDROOT
BRANCH   7   8
HETATM    8  C7  UNL     1     -35.770  13.435  -5.790  1.00 20.00     0.287 C 
BRANCH   8   9
HETATM    9  C8  UNL     1     -36.929  14.287  -6.281  1.00 20.00     0.144 C 
HETATM   10 CL10 UNL     1     -38.163  14.494  -5.013  1.00 20.00    -0.129 Cl
ENDBRANCH   8   9
ENDBRANCH   7   8
TORSDOF 2
ENDMDL
MODEL 6
REMARK VINA RESULT:      -3.6     11.295     11.918
REMARK  2 active torsions:
REMARK  status: ('A' for Active; 'I' for Inactive)
REMARK    1  A    between atoms: C7_7  and  C8_8 
REMARK    2  A    between atoms: C7_7  and  N9_9 
ROOT
HETATM    1  C1  UNL     1     -33.898  18.242   0.464  1.00 20.00     0.277 C 
HETATM    2  C2  UNL     1     -31.673  18.469  -0.134  1.00 20.00     0.277 C 
HETATM    3  C3  UNL     1     -33.266  19.028   1.619  1.00 20.00     0.015 C 
HETATM    4  C4  UNL     1     -31.782  19.182   1.218  1.00 20.00     0.015 C 
HETATM    5  C5  UNL     1     -33.561  18.387   2.968  1.00 20.00     0.012 C 
HETATM    6  C6  UNL     1     -30.738  18.686   2.208  1.00 20.00     0.012 C 
HETATM    7  N9  UNL     1     -33.032  18.579  -0.667  1.00 20.00     0.090 N 
ENDROOT
BRANCH   7   8
HETATM    8  C7  UNL     1     -33.250  17.703  -1.810  1.00 20.00     0.287 C 
BRANCH   8   9
HETATM    9  C8  UNL     1     -34.544  16.915  -1.703  1.00 20.00     0.144 C 
HETATM   10 CL10 UNL     1     -34.749  15.816  -3.089  1.00 20.00    -0.129 Cl
ENDBRANCH   8   9
ENDBRANCH   7   8
TORSDOF 2
ENDMDL
MODEL 7
REMARK VINA RESULT:      -3.6     11.132     11.622
REMARK  2 active torsions:
REMARK  status: ('A' for Active; 'I' for Inactive)
REMARK    1  A    between atoms: C7_7  and  C8_8 
REMARK    2  A    between atoms: C7_7  and  N9_9 
ROOT
HETATM    1  C1  UNL     1     -35.143  17.058  -1.249  1.00 20.00     0.277 C 
HETATM    2  C2  UNL     1     -32.983  17.885  -1.338  1.00 20.00     0.277 C 
HETATM    3  C3  UNL     1     -35.111  18.167  -0.190  1.00 20.00     0.015 C 
HETATM    4  C4  UNL     1     -33.670  18.721  -0.253  1.00 20.00     0.015 C 
HETATM    5  C5  UNL     1     -35.611  17.676   1.161  1.00 20.00     0.012 C 
HETATM    6  C6  UNL     1     -32.873  18.735   1.043  1.00 20.00     0.012 C 
HETATM    7  N9  UNL     1     -34.103  17.478  -2.188  1.00 20.00     0.090 N 
ENDROOT
BRANCH   7   8
HETATM    8  C7  UNL     1     -33.735  16.418  -3.116  1.00 20.00     0.287 C 
BRANCH   8   9
HETATM    9  C8  UNL     1     -34.940  15.645  -3.627  1.00 20.00     0.144 C 
HETATM   10 CL10 UNL     1     -34.489  13.993  -4.116  1.00 20.00    -0.129 Cl
ENDBRANCH   8   9
ENDBRANCH   7   8
TORSDOF 2
ENDMDL
MODEL 8
REMARK VINA RESULT:      -3.4     11.025     11.687
REMARK  2 active torsions:
REMARK  status: ('A' for Active; 'I' for Inactive)
REMARK    1  A    between atoms: C7_7  and  C8_8 
REMARK    2  A    between atoms: C7_7  and  N9_9 
ROOT
HETATM    1  C1  UNL     1     -35.649  15.800  -2.788  1.00 20.00     0.277 C 
HETATM    2  C2  UNL     1     -33.447  16.165  -3.398  1.00 20.00     0.277 C 
HETATM    3  C3  UNL     1     -35.334  17.208  -2.269  1.00 20.00     0.015 C 
HETATM    4  C4  UNL     1     -33.864  17.452  -2.681  1.00 20.00     0.015 C 
HETATM    5  C5  UNL     1     -35.679  17.360  -0.795  1.00 20.00     0.012 C 
HETATM    6  C6  UNL     1     -32.886  17.831  -1.578  1.00 20.00     0.012 C 
HETATM    7  N9  UNL     1     -34.719  15.652  -3.908  1.00 20.00     0.090 N 
ENDROOT
BRANCH   7   8
HETATM    8  C7  UNL     1     -34.617  14.273  -4.363  1.00 20.00     0.287 C 
BRANCH   8   9
HETATM    9  C8  UNL     1     -35.843  13.822  -5.141  1.00 20.00     0.144 C 
HETATM   10 CL10 UNL     1     -35.395  13.185  -6.742  1.00 20.00    -0.129 Cl
ENDBRANCH   8   9
ENDBRANCH   7   8
TORSDOF 2
ENDMDL
MODEL 9
REMARK VINA RESULT:      -3.4     11.267     11.941
REMARK  2 active torsions:
REMARK  status: ('A' for Active; 'I' for Inactive)
REMARK    1  A    between atoms: C7_7  and  C8_8 
REMARK    2  A    between atoms: C7_7  and  N9_9 
ROOT
HETATM    1  C1  UNL     1     -35.515  17.090  -1.465  1.00 20.00     0.277 C 
HETATM    2  C2  UNL     1     -33.376  17.733  -2.073  1.00 20.00     0.277 C 
HETATM    3  C3  UNL     1     -35.126  16.122  -2.589  1.00 20.00     0.015 C 
HETATM    4  C4  UNL     1     -33.697  16.550  -2.992  1.00 20.00     0.015 C 
HETATM    5  C5  UNL     1     -36.177  16.079  -3.689  1.00 20.00     0.012 C 
HETATM    6  C6  UNL     1     -33.457  16.886  -4.456  1.00 20.00     0.012 C 
HETATM    7  N9  UNL     1     -34.218  17.472  -0.904  1.00 20.00     0.090 N 
ENDROOT
BRANCH   7   8
HETATM    8  C7  UNL     1     -34.315  18.627  -0.024  1.00 20.00     0.287 C 
BRANCH   8   9
HETATM    9  C8  UNL     1     -33.278  18.603   1.087  1.00 20.00     0.144 C 
HETATM   10 CL10 UNL     1     -34.037  18.335   2.675  1.00 20.00    -0.129 Cl
ENDBRANCH   8   9
ENDBRANCH   7   8
TORSDOF 2
ENDMDL
