MODEL 1
REMARK VINA RESULT:      -6.3      0.000      0.000
REMARK  2 active torsions:
REMARK  status: ('A' for Active; 'I' for Inactive)
REMARK    1  A    between atoms: C2_2  and  C9_9 
REMARK    2  A    between atoms: C6_6  and  C9_9 
ROOT
HETATM    1  C3  UNL     1     -33.068   5.945   2.405  1.00 20.00     0.006 C 
HETATM    2  C4  UNL     1     -33.698   4.997   3.431  1.00 20.00     0.020 C 
HETATM    3  C5  UNL     1     -33.618   7.159   4.436  1.00 20.00     0.025 C 
HETATM    4  C6  UNL     1     -33.242   7.364   2.967  1.00 20.00    -0.009 C 
HETATM    5  C7  UNL     1     -34.475   5.904   4.377  1.00 20.00     0.082 C 
HETATM    6 CL10 UNL     1     -34.712   5.174   5.970  1.00 20.00    -0.125 Cl
ENDROOT
BRANCH   4   7
HETATM    7  C9  UNL     1     -32.012   8.238   2.785  1.00 20.00     0.037 C 
BRANCH   7   8
HETATM    8  C2  UNL     1     -32.023   8.996   1.480  1.00 20.00    -0.093 C 
HETATM    9  C1  UNL     1     -31.316   8.577   0.419  1.00 20.00     0.014 C 
HETATM   10  C8  UNL     1     -32.832  10.261   1.431  1.00 20.00     0.042 C 
ENDBRANCH   7   8
ENDBRANCH   4   7
TORSDOF 2
ENDMDL
MODEL 2
REMARK VINA RESULT:      -6.2      0.050      1.110
REMARK  2 active torsions:
REMARK  status: ('A' for Active; 'I' for Inactive)
REMARK    1  A    between atoms: C2_2  and  C9_9 
REMARK    2  A    between atoms: C6_6  and  C9_9 
ROOT
HETATM    1  C3  UNL     1     -33.077   5.967   2.400  1.00 20.00     0.006 C 
HETATM    2  C4  UNL     1     -33.699   5.008   3.419  1.00 20.00     0.020 C 
HETATM    3  C5  UNL     1     -33.627   7.163   4.442  1.00 20.00     0.025 C 
HETATM    4  C6  UNL     1     -33.256   7.381   2.974  1.00 20.00    -0.009 C 
HETATM    5  C7  UNL     1     -34.478   5.903   4.374  1.00 20.00     0.082 C 
HETATM    6 CL10 UNL     1     -34.707   5.160   5.962  1.00 20.00    -0.125 Cl
ENDROOT
BRANCH   4   7
HETATM    7  C9  UNL     1     -32.031   8.262   2.795  1.00 20.00     0.037 C 
BRANCH   7   8
HETATM    8  C2  UNL     1     -32.080   9.080   1.527  1.00 20.00    -0.093 C 
HETATM    9  C1  UNL     1     -32.813  10.200   1.442  1.00 20.00     0.014 C 
HETATM   10  C8  UNL     1     -31.299   8.564   0.352  1.00 20.00     0.042 C 
ENDBRANCH   7   8
ENDBRANCH   4   7
TORSDOF 2
ENDMDL
MODEL 3
REMARK VINA RESULT:      -5.3      2.695      4.880
REMARK  2 active torsions:
REMARK  status: ('A' for Active; 'I' for Inactive)
REMARK    1  A    between atoms: C2_2  and  C9_9 
REMARK    2  A    between atoms: C6_6  and  C9_9 
ROOT
HETATM    1  C3  UNL     1     -31.583   7.972   3.079  1.00 20.00     0.006 C 
HETATM    2  C4  UNL     1     -31.373   8.768   1.787  1.00 20.00     0.020 C 
HETATM    3  C5  UNL     1     -33.639   8.020   1.786  1.00 20.00     0.025 C 
HETATM    4  C6  UNL     1     -33.093   7.705   3.180  1.00 20.00    -0.009 C 
HETATM    5  C7  UNL     1     -32.771   9.194   1.358  1.00 20.00     0.082 C 
HETATM    6 CL10 UNL     1     -32.877   9.513  -0.377  1.00 20.00    -0.125 Cl
ENDROOT
BRANCH   4   7
HETATM    7  C9  UNL     1     -33.425   6.297   3.644  1.00 20.00     0.037 C 
BRANCH   7   8
HETATM    8  C2  UNL     1     -33.976   6.259   5.048  1.00 20.00    -0.093 C 
HETATM    9  C1  UNL     1     -33.812   7.287   5.894  1.00 20.00     0.014 C 
HETATM   10  C8  UNL     1     -34.687   5.005   5.470  1.00 20.00     0.042 C 
ENDBRANCH   7   8
ENDBRANCH   4   7
TORSDOF 2
ENDMDL
MODEL 4
REMARK VINA RESULT:      -5.3      2.673      4.799
REMARK  2 active torsions:
REMARK  status: ('A' for Active; 'I' for Inactive)
REMARK    1  A    between atoms: C2_2  and  C9_9 
REMARK    2  A    between atoms: C6_6  and  C9_9 
ROOT
HETATM    1  C3  UNL     1     -31.622   7.923   3.126  1.00 20.00     0.006 C 
HETATM    2  C4  UNL     1     -31.414   8.760   1.860  1.00 20.00     0.020 C 
HETATM    3  C5  UNL     1     -33.662   7.963   1.808  1.00 20.00     0.025 C 
HETATM    4  C6  UNL     1     -33.127   7.621   3.200  1.00 20.00    -0.009 C 
HETATM    5  C7  UNL     1     -32.816   9.167   1.425  1.00 20.00     0.082 C 
HETATM    6 CL10 UNL     1     -32.908   9.534  -0.302  1.00 20.00    -0.125 Cl
ENDROOT
BRANCH   4   7
HETATM    7  C9  UNL     1     -33.433   6.193   3.620  1.00 20.00     0.037 C 
BRANCH   7   8
HETATM    8  C2  UNL     1     -34.037   6.107   5.000  1.00 20.00    -0.093 C 
HETATM    9  C1  UNL     1     -34.740   5.034   5.392  1.00 20.00     0.014 C 
HETATM   10  C8  UNL     1     -33.848   7.292   5.904  1.00 20.00     0.042 C 
ENDBRANCH   7   8
ENDBRANCH   4   7
TORSDOF 2
ENDMDL
MODEL 5
REMARK VINA RESULT:      -5.2      1.304      2.288
REMARK  2 active torsions:
REMARK  status: ('A' for Active; 'I' for Inactive)
REMARK    1  A    between atoms: C2_2  and  C9_9 
REMARK    2  A    between atoms: C6_6  and  C9_9 
ROOT
HETATM    1  C3  UNL     1     -31.760   8.280   3.707  1.00 20.00     0.006 C 
HETATM    2  C4  UNL     1     -32.981   7.649   4.383  1.00 20.00     0.020 C 
HETATM    3  C5  UNL     1     -33.097   7.086   2.068  1.00 20.00     0.025 C 
HETATM    4  C6  UNL     1     -31.718   7.714   2.279  1.00 20.00    -0.009 C 
HETATM    5  C7  UNL     1     -33.411   6.527   3.447  1.00 20.00     0.082 C 
HETATM    6 CL10 UNL     1     -35.119   6.110   3.633  1.00 20.00    -0.125 Cl
ENDROOT
BRANCH   4   7
HETATM    7  C9  UNL     1     -31.373   8.757   1.229  1.00 20.00     0.037 C 
BRANCH   7   8
HETATM    8  C2  UNL     1     -32.563   9.590   0.821  1.00 20.00    -0.093 C 
HETATM    9  C1  UNL     1     -33.035  10.571   1.605  1.00 20.00     0.014 C 
HETATM   10  C8  UNL     1     -33.221   9.249  -0.486  1.00 20.00     0.042 C 
ENDBRANCH   7   8
ENDBRANCH   4   7
TORSDOF 2
ENDMDL
MODEL 6
REMARK VINA RESULT:      -4.9      2.621      4.873
REMARK  2 active torsions:
REMARK  status: ('A' for Active; 'I' for Inactive)
REMARK    1  A    between atoms: C2_2  and  C9_9 
REMARK    2  A    between atoms: C6_6  and  C9_9 
ROOT
HETATM    1  C3  UNL     1     -32.712   7.431   4.218  1.00 20.00     0.006 C 
HETATM    2  C4  UNL     1     -31.588   8.041   3.375  1.00 20.00     0.020 C 
HETATM    3  C5  UNL     1     -33.429   7.652   1.908  1.00 20.00     0.025 C 
HETATM    4  C6  UNL     1     -33.960   7.410   3.322  1.00 20.00    -0.009 C 
HETATM    5  C7  UNL     1     -32.287   8.627   2.156  1.00 20.00     0.082 C 
HETATM    6 CL10 UNL     1     -31.209   8.770   0.762  1.00 20.00    -0.125 Cl
ENDROOT
BRANCH   4   7
HETATM    7  C9  UNL     1     -34.765   6.127   3.442  1.00 20.00     0.037 C 
BRANCH   7   8
HETATM    8  C2  UNL     1     -34.492   5.385   4.728  1.00 20.00    -0.093 C 
HETATM    9  C1  UNL     1     -34.630   5.979   5.923  1.00 20.00     0.014 C 
HETATM   10  C8  UNL     1     -34.024   3.963   4.610  1.00 20.00     0.042 C 
ENDBRANCH   7   8
ENDBRANCH   4   7
TORSDOF 2
ENDMDL
MODEL 7
REMARK VINA RESULT:      -4.3     11.026     11.985
REMARK  2 active torsions:
REMARK  status: ('A' for Active; 'I' for Inactive)
REMARK    1  A    between atoms: C2_2  and  C9_9 
REMARK    2  A    between atoms: C6_6  and  C9_9 
ROOT
HETATM    1  C3  UNL     1     -34.164  14.409  -4.158  1.00 20.00     0.006 C 
HETATM    2  C4  UNL     1     -34.018  14.409  -5.683  1.00 20.00     0.020 C 
HETATM    3  C5  UNL     1     -34.263  16.684  -5.005  1.00 20.00     0.025 C 
HETATM    4  C6  UNL     1     -34.079  15.878  -3.717  1.00 20.00    -0.009 C 
HETATM    5  C7  UNL     1     -33.550  15.816  -6.031  1.00 20.00     0.082 C 
HETATM    6 CL10 UNL     1     -33.951  16.270  -7.692  1.00 20.00    -0.125 Cl
ENDROOT
BRANCH   4   7
HETATM    7  C9  UNL     1     -35.088  16.242  -2.640  1.00 20.00     0.037 C 
BRANCH   7   8
HETATM    8  C2  UNL     1     -34.494  17.100  -1.550  1.00 20.00    -0.093 C 
HETATM    9  C1  UNL     1     -33.240  17.571  -1.633  1.00 20.00     0.014 C 
HETATM   10  C8  UNL     1     -35.355  17.374  -0.350  1.00 20.00     0.042 C 
ENDBRANCH   7   8
ENDBRANCH   4   7
TORSDOF 2
ENDMDL
MODEL 8
REMARK VINA RESULT:      -4.2     10.841     11.554
REMARK  2 active torsions:
REMARK  status: ('A' for Active; 'I' for Inactive)
REMARK    1  A    between atoms: C2_2  and  C9_9 
REMARK    2  A    between atoms: C6_6  and  C9_9 
ROOT
HETATM    1  C3  UNL     1     -35.418  17.175  -1.108  1.00 20.00     0.006 C 
HETATM    2  C4  UNL     1     -34.533  17.851  -0.056  1.00 20.00     0.020 C 
HETATM    3  C5  UNL     1     -33.151  17.404  -1.949  1.00 20.00     0.025 C 
HETATM    4  C6  UNL     1     -34.584  17.113  -2.397  1.00 20.00    -0.009 C 
HETATM    5  C7  UNL     1     -33.361  18.426  -0.841  1.00 20.00     0.082 C 
HETATM    6 CL10 UNL     1     -31.919  18.642   0.159  1.00 20.00    -0.125 Cl
ENDROOT
BRANCH   4   7
HETATM    7  C9  UNL     1     -34.719  15.793  -3.137  1.00 20.00     0.037 C 
BRANCH   7   8
HETATM    8  C2  UNL     1     -33.776  15.683  -4.311  1.00 20.00    -0.093 C 
HETATM    9  C1  UNL     1     -32.934  14.647  -4.440  1.00 20.00     0.014 C 
HETATM   10  C8  UNL     1     -33.796  16.805  -5.310  1.00 20.00     0.042 C 
ENDBRANCH   7   8
ENDBRANCH   4   7
TORSDOF 2
ENDMDL
MODEL 9
REMARK VINA RESULT:      -4.2     10.727     11.592
REMARK  2 active torsions:
REMARK  status: ('A' for Active; 'I' for Inactive)
REMARK    1  A    between atoms: C2_2  and  C9_9 
REMARK    2  A    between atoms: C6_6  and  C9_9 
ROOT
HETATM    1  C3  UNL     1     -35.489  16.598  -4.794  1.00 20.00     0.006 C 
HETATM    2  C4  UNL     1     -35.841  15.640  -5.936  1.00 20.00     0.020 C 
HETATM    3  C5  UNL     1     -34.632  14.377  -4.313  1.00 20.00     0.025 C 
HETATM    4  C6  UNL     1     -34.928  15.728  -3.659  1.00 20.00    -0.009 C 
HETATM    5  C7  UNL     1     -35.768  14.250  -5.318  1.00 20.00     0.082 C 
HETATM    6 CL10 UNL     1     -35.465  12.990  -6.521  1.00 20.00    -0.125 Cl
ENDROOT
BRANCH   4   7
HETATM    7  C9  UNL     1     -33.714  16.336  -2.977  1.00 20.00     0.037 C 
BRANCH   7   8
HETATM    8  C2  UNL     1     -34.070  17.098  -1.724  1.00 20.00    -0.093 C 
HETATM    9  C1  UNL     1     -35.272  16.970  -1.142  1.00 20.00     0.014 C 
HETATM   10  C8  UNL     1     -33.031  18.034  -1.175  1.00 20.00     0.042 C 
ENDBRANCH   7   8
ENDBRANCH   4   7
TORSDOF 2
ENDMDL
