MODEL 1
REMARK VINA RESULT:      -6.3      0.000      0.000
REMARK  0 active torsions:
REMARK  status: ('A' for Active; 'I' for Inactive)
ROOT
HETATM    1  C1  UNL     1     -32.947   8.015   4.100  1.00 20.00     0.063 A 
HETATM    2  C2  UNL     1     -32.462   6.726   2.088  1.00 20.00     0.098 A 
HETATM    3  C3  UNL     1     -33.622   5.721   3.896  1.00 20.00     0.055 A 
HETATM    4  C4  UNL     1     -33.565   6.896   4.636  1.00 20.00    -0.037 A 
HETATM    5  C5  UNL     1     -32.393   7.925   2.819  1.00 20.00     0.175 A 
HETATM    6  C6  UNL     1     -33.085   5.601   2.628  1.00 20.00     0.134 A 
HETATM    7  C7  UNL     1     -34.319   4.720   4.687  1.00 20.00     0.163 A 
HETATM    8  C8  UNL     1     -34.218   6.772   5.975  1.00 20.00     0.047 A 
HETATM    9  C9  UNL     1     -34.722   5.318   6.014  1.00 20.00     0.088 A 
HETATM   10  O10 UNL     1     -31.816   8.947   2.305  1.00 20.00    -0.288 OA
HETATM   11  O11 UNL     1     -34.535   3.580   4.318  1.00 20.00    -0.292 OA
HETATM   12  F12 UNL     1     -33.156   4.457   1.938  1.00 20.00    -0.205 F 
ENDROOT
TORSDOF 0
ENDMDL
MODEL 2
REMARK VINA RESULT:      -5.5      1.891      2.657
REMARK  0 active torsions:
REMARK  status: ('A' for Active; 'I' for Inactive)
ROOT
HETATM    1  C1  UNL     1     -32.499   6.835   2.630  1.00 20.00     0.063 A 
HETATM    2  C2  UNL     1     -32.660   8.348   4.535  1.00 20.00     0.098 A 
HETATM    3  C3  UNL     1     -33.663   6.201   4.630  1.00 20.00     0.055 A 
HETATM    4  C4  UNL     1     -33.232   5.901   3.343  1.00 20.00    -0.037 A 
HETATM    5  C5  UNL     1     -32.213   8.065   3.232  1.00 20.00     0.175 A 
HETATM    6  C6  UNL     1     -33.397   7.406   5.253  1.00 20.00     0.134 A 
HETATM    7  C7  UNL     1     -34.400   5.056   5.141  1.00 20.00     0.163 A 
HETATM    8  C8  UNL     1     -33.646   4.536   2.896  1.00 20.00     0.047 A 
HETATM    9  C9  UNL     1     -34.428   3.969   4.094  1.00 20.00     0.088 A 
HETATM   10  O10 UNL     1     -31.538   8.943   2.590  1.00 20.00    -0.288 OA
HETATM   11  O11 UNL     1     -34.908   5.004   6.246  1.00 20.00    -0.292 OA
HETATM   12  F12 UNL     1     -33.823   7.668   6.493  1.00 20.00    -0.205 F 
ENDROOT
TORSDOF 0
ENDMDL
MODEL 3
REMARK VINA RESULT:      -5.3      1.970      4.471
REMARK  0 active torsions:
REMARK  status: ('A' for Active; 'I' for Inactive)
ROOT
HETATM    1  C1  UNL     1     -34.122   5.578   3.178  1.00 20.00     0.063 A 
HETATM    2  C2  UNL     1     -34.346   5.955   5.576  1.00 20.00     0.098 A 
HETATM    3  C3  UNL     1     -32.958   7.368   4.272  1.00 20.00     0.055 A 
HETATM    4  C4  UNL     1     -33.260   6.661   3.114  1.00 20.00    -0.037 A 
HETATM    5  C5  UNL     1     -34.666   5.225   4.418  1.00 20.00     0.175 A 
HETATM    6  C6  UNL     1     -33.479   7.045   5.511  1.00 20.00     0.134 A 
HETATM    7  C7  UNL     1     -32.043   8.443   3.922  1.00 20.00     0.163 A 
HETATM    8  C8  UNL     1     -32.573   7.206   1.905  1.00 20.00     0.047 A 
HETATM    9  C9  UNL     1     -31.757   8.396   2.440  1.00 20.00     0.088 A 
HETATM   10  O10 UNL     1     -35.464   4.227   4.499  1.00 20.00    -0.288 OA
HETATM   11  O11 UNL     1     -31.589   9.245   4.717  1.00 20.00    -0.292 OA
HETATM   12  F12 UNL     1     -33.171   7.745   6.609  1.00 20.00    -0.205 F 
ENDROOT
TORSDOF 0
ENDMDL
MODEL 4
REMARK VINA RESULT:      -5.2      1.402      3.792
REMARK  0 active torsions:
REMARK  status: ('A' for Active; 'I' for Inactive)
ROOT
HETATM    1  C1  UNL     1     -33.523   6.844   5.599  1.00 20.00     0.063 A 
HETATM    2  C2  UNL     1     -34.798   5.495   4.017  1.00 20.00     0.098 A 
HETATM    3  C3  UNL     1     -33.290   7.148   3.230  1.00 20.00     0.055 A 
HETATM    4  C4  UNL     1     -32.939   7.501   4.528  1.00 20.00    -0.037 A 
HETATM    5  C5  UNL     1     -34.457   5.836   5.338  1.00 20.00     0.175 A 
HETATM    6  C6  UNL     1     -34.209   6.157   2.940  1.00 20.00     0.134 A 
HETATM    7  C7  UNL     1     -32.535   7.986   2.311  1.00 20.00     0.163 A 
HETATM    8  C8  UNL     1     -31.926   8.598   4.577  1.00 20.00     0.047 A 
HETATM    9  C9  UNL     1     -31.654   8.926   3.098  1.00 20.00     0.088 A 
HETATM   10  O10 UNL     1     -35.010   5.216   6.314  1.00 20.00    -0.288 OA
HETATM   11  O11 UNL     1     -32.616   7.922   1.099  1.00 20.00    -0.292 OA
HETATM   12  F12 UNL     1     -34.527   5.837   1.680  1.00 20.00    -0.205 F 
ENDROOT
TORSDOF 0
ENDMDL
MODEL 5
REMARK VINA RESULT:      -5.0     12.001     12.779
REMARK  0 active torsions:
REMARK  status: ('A' for Active; 'I' for Inactive)
ROOT
HETATM    1  C1  UNL     1     -34.645  14.328  -4.377  1.00 20.00     0.063 A 
HETATM    2  C2  UNL     1     -37.010  14.264  -4.969  1.00 20.00     0.098 A 
HETATM    3  C3  UNL     1     -36.180  15.981  -3.558  1.00 20.00     0.055 A 
HETATM    4  C4  UNL     1     -34.891  15.465  -3.625  1.00 20.00    -0.037 A 
HETATM    5  C5  UNL     1     -35.713  13.727  -5.051  1.00 20.00     0.175 A 
HETATM    6  C6  UNL     1     -37.256  15.410  -4.213  1.00 20.00     0.134 A 
HETATM    7  C7  UNL     1     -36.153  17.164  -2.713  1.00 20.00     0.163 A 
HETATM    8  C8  UNL     1     -33.906  16.261  -2.832  1.00 20.00     0.047 A 
HETATM    9  C9  UNL     1     -34.745  17.396  -2.220  1.00 20.00     0.088 A 
HETATM   10  O10 UNL     1     -35.508  12.673  -5.752  1.00 20.00    -0.288 OA
HETATM   11  O11 UNL     1     -37.128  17.846  -2.455  1.00 20.00    -0.292 OA
HETATM   12  F12 UNL     1     -38.486  15.928  -4.132  1.00 20.00    -0.205 F 
ENDROOT
TORSDOF 0
ENDMDL
MODEL 6
REMARK VINA RESULT:      -4.9     11.835     12.291
REMARK  0 active torsions:
REMARK  status: ('A' for Active; 'I' for Inactive)
ROOT
HETATM    1  C1  UNL     1     -35.998  16.667  -3.091  1.00 20.00     0.063 A 
HETATM    2  C2  UNL     1     -33.696  15.874  -3.212  1.00 20.00     0.098 A 
HETATM    3  C3  UNL     1     -35.414  14.725  -4.375  1.00 20.00     0.055 A 
HETATM    4  C4  UNL     1     -36.374  15.620  -3.917  1.00 20.00    -0.037 A 
HETATM    5  C5  UNL     1     -34.651  16.791  -2.739  1.00 20.00     0.175 A 
HETATM    6  C6  UNL     1     -34.075  14.821  -4.045  1.00 20.00     0.134 A 
HETATM    7  C7  UNL     1     -36.075  13.739  -5.215  1.00 20.00     0.163 A 
HETATM    8  C8  UNL     1     -37.747  15.302  -4.415  1.00 20.00     0.047 A 
HETATM    9  C9  UNL     1     -37.552  14.045  -5.281  1.00 20.00     0.088 A 
HETATM   10  O10 UNL     1     -34.281  17.751  -1.975  1.00 20.00    -0.288 OA
HETATM   11  O11 UNL     1     -35.507  12.816  -5.769  1.00 20.00    -0.292 OA
HETATM   12  F12 UNL     1     -33.172  13.946  -4.500  1.00 20.00    -0.205 F 
ENDROOT
TORSDOF 0
ENDMDL
MODEL 7
REMARK VINA RESULT:      -4.9     12.558     12.892
REMARK  0 active torsions:
REMARK  status: ('A' for Active; 'I' for Inactive)
ROOT
HETATM    1  C1  UNL     1     -31.852  18.436  -0.151  1.00 20.00     0.063 A 
HETATM    2  C2  UNL     1     -32.547  19.026   2.110  1.00 20.00     0.098 A 
HETATM    3  C3  UNL     1     -34.130  18.186   0.558  1.00 20.00     0.055 A 
HETATM    4  C4  UNL     1     -33.159  18.070  -0.429  1.00 20.00    -0.037 A 
HETATM    5  C5  UNL     1     -31.548  18.917   1.127  1.00 20.00     0.175 A 
HETATM    6  C6  UNL     1     -33.862  18.657   1.830  1.00 20.00     0.134 A 
HETATM    7  C7  UNL     1     -35.398  17.737   0.003  1.00 20.00     0.163 A 
HETATM    8  C8  UNL     1     -33.699  17.536  -1.716  1.00 20.00     0.047 A 
HETATM    9  C9  UNL     1     -35.195  17.313  -1.432  1.00 20.00     0.088 A 
HETATM   10  O10 UNL     1     -30.346  19.261   1.405  1.00 20.00    -0.288 OA
HETATM   11  O11 UNL     1     -36.448  17.714   0.618  1.00 20.00    -0.292 OA
HETATM   12  F12 UNL     1     -34.817  18.757   2.761  1.00 20.00    -0.205 F 
ENDROOT
TORSDOF 0
ENDMDL
MODEL 8
REMARK VINA RESULT:      -4.8     11.909     13.349
REMARK  0 active torsions:
REMARK  status: ('A' for Active; 'I' for Inactive)
ROOT
HETATM    1  C1  UNL     1     -33.567  17.374  -5.129  1.00 20.00     0.063 A 
HETATM    2  C2  UNL     1     -33.929  15.844  -3.266  1.00 20.00     0.098 A 
HETATM    3  C3  UNL     1     -34.088  15.062  -5.499  1.00 20.00     0.055 A 
HETATM    4  C4  UNL     1     -33.799  16.325  -6.003  1.00 20.00    -0.037 A 
HETATM    5  C5  UNL     1     -33.634  17.129  -3.754  1.00 20.00     0.175 A 
HETATM    6  C6  UNL     1     -34.162  14.787  -4.146  1.00 20.00     0.134 A 
HETATM    7  C7  UNL     1     -34.283  14.159  -6.622  1.00 20.00     0.163 A 
HETATM    8  C8  UNL     1     -33.777  16.363  -7.496  1.00 20.00     0.047 A 
HETATM    9  C9  UNL     1     -34.102  14.918  -7.915  1.00 20.00     0.088 A 
HETATM   10  O10 UNL     1     -33.424  18.086  -2.928  1.00 20.00    -0.288 OA
HETATM   11  O11 UNL     1     -34.551  12.976  -6.515  1.00 20.00    -0.292 OA
HETATM   12  F12 UNL     1     -34.441  13.561  -3.690  1.00 20.00    -0.205 F 
ENDROOT
TORSDOF 0
ENDMDL
MODEL 9
REMARK VINA RESULT:      -4.8     12.443     12.798
REMARK  0 active torsions:
REMARK  status: ('A' for Active; 'I' for Inactive)
ROOT
HETATM    1  C1  UNL     1     -37.027  15.241  -4.075  1.00 20.00     0.063 A 
HETATM    2  C2  UNL     1     -36.413  13.871  -5.996  1.00 20.00     0.098 A 
HETATM    3  C3  UNL     1     -34.745  15.050  -4.791  1.00 20.00     0.055 A 
HETATM    4  C4  UNL     1     -35.691  15.571  -3.916  1.00 20.00    -0.037 A 
HETATM    5  C5  UNL     1     -37.386  14.387  -5.122  1.00 20.00     0.175 A 
HETATM    6  C6  UNL     1     -35.068  14.203  -5.835  1.00 20.00     0.134 A 
HETATM    7  C7  UNL     1     -33.437  15.551  -4.398  1.00 20.00     0.163 A 
HETATM    8  C8  UNL     1     -35.091  16.458  -2.874  1.00 20.00     0.047 A 
HETATM    9  C9  UNL     1     -33.585  16.449  -3.193  1.00 20.00     0.088 A 
HETATM   10  O10 UNL     1     -38.617  14.069  -5.288  1.00 20.00    -0.288 OA
HETATM   11  O11 UNL     1     -32.397  15.277  -4.967  1.00 20.00    -0.292 OA
HETATM   12  F12 UNL     1     -34.136  13.715  -6.661  1.00 20.00    -0.205 F 
ENDROOT
TORSDOF 0
ENDMDL
