MODEL 1
REMARK VINA RESULT:      -5.2      0.000      0.000
REMARK  2 active torsions:
REMARK  status: ('A' for Active; 'I' for Inactive)
REMARK    1  A    between atoms: C2_2  and  C3_3 
REMARK    2  A    between atoms: C3_3  and  C5_5 
ROOT
HETATM    1  C3  UNL     1     -33.140   6.369   2.951  1.00 20.00     0.159 C 
HETATM    2  O9  UNL     1     -32.511   5.338   2.706  1.00 20.00    -0.292 OA
ENDROOT
BRANCH   1   3
HETATM    3  C2  UNL     1     -32.539   7.706   2.632  1.00 20.00    -0.025 C 
HETATM    4  C1  UNL     1     -32.979   8.442   1.602  1.00 20.00     0.022 C 
HETATM    5  C7  UNL     1     -31.426   8.171   3.523  1.00 20.00     0.051 C 
ENDBRANCH   1   3
BRANCH   1   6
HETATM    6  C5  UNL     1     -34.513   6.294   3.570  1.00 20.00     0.064 A 
HETATM    7  C4  UNL     1     -34.782   5.201   4.544  1.00 20.00     0.018 A 
HETATM    8  C6  UNL     1     -34.689   6.627   5.011  1.00 20.00    -0.006 A 
HETATM    9  C8  UNL     1     -33.571   7.048   5.901  1.00 20.00     0.011 C 
ENDBRANCH   1   6
TORSDOF 2
ENDMDL
MODEL 2
REMARK VINA RESULT:      -5.1      1.524      2.169
REMARK  2 active torsions:
REMARK  status: ('A' for Active; 'I' for Inactive)
REMARK    1  A    between atoms: C2_2  and  C3_3 
REMARK    2  A    between atoms: C3_3  and  C5_5 
ROOT
HETATM    1  C3  UNL     1     -32.309   8.092   2.559  1.00 20.00     0.159 C 
HETATM    2  O9  UNL     1     -31.539   8.152   3.519  1.00 20.00    -0.292 OA
ENDROOT
BRANCH   1   3
HETATM    3  C2  UNL     1     -32.125   9.018   1.392  1.00 20.00    -0.025 C 
HETATM    4  C1  UNL     1     -31.317   8.702   0.371  1.00 20.00     0.022 C 
HETATM    5  C7  UNL     1     -32.889  10.307   1.433  1.00 20.00     0.051 C 
ENDBRANCH   1   3
BRANCH   1   6
HETATM    6  C5  UNL     1     -33.438   7.092   2.550  1.00 20.00     0.064 A 
HETATM    7  C4  UNL     1     -33.173   5.734   3.098  1.00 20.00     0.018 A 
HETATM    8  C6  UNL     1     -34.072   6.687   3.834  1.00 20.00    -0.006 A 
HETATM    9  C8  UNL     1     -33.660   7.226   5.162  1.00 20.00     0.011 C 
ENDBRANCH   1   6
TORSDOF 2
ENDMDL
MODEL 3
REMARK VINA RESULT:      -5.0      1.541      2.088
REMARK  2 active torsions:
REMARK  status: ('A' for Active; 'I' for Inactive)
REMARK    1  A    between atoms: C2_2  and  C3_3 
REMARK    2  A    between atoms: C3_3  and  C5_5 
ROOT
HETATM    1  C3  UNL     1     -33.480   7.212   4.032  1.00 20.00     0.159 C 
HETATM    2  O9  UNL     1     -33.672   7.561   5.198  1.00 20.00    -0.292 OA
ENDROOT
BRANCH   1   3
HETATM    3  C2  UNL     1     -32.412   7.881   3.216  1.00 20.00    -0.025 C 
HETATM    4  C1  UNL     1     -31.255   8.273   3.768  1.00 20.00     0.022 C 
HETATM    5  C7  UNL     1     -32.710   8.086   1.761  1.00 20.00     0.051 C 
ENDBRANCH   1   3
BRANCH   1   6
HETATM    6  C5  UNL     1     -34.312   6.115   3.418  1.00 20.00     0.064 A 
HETATM    7  C4  UNL     1     -33.694   4.769   3.269  1.00 20.00     0.018 A 
HETATM    8  C6  UNL     1     -34.792   4.992   4.271  1.00 20.00    -0.006 A 
HETATM    9  C8  UNL     1     -34.503   4.884   5.729  1.00 20.00     0.011 C 
ENDBRANCH   1   6
TORSDOF 2
ENDMDL
MODEL 4
REMARK VINA RESULT:      -5.0      0.829      1.747
REMARK  2 active torsions:
REMARK  status: ('A' for Active; 'I' for Inactive)
REMARK    1  A    between atoms: C2_2  and  C3_3 
REMARK    2  A    between atoms: C3_3  and  C5_5 
ROOT
HETATM    1  C3  UNL     1     -33.100   6.573   3.131  1.00 20.00     0.159 C 
HETATM    2  O9  UNL     1     -32.853   5.518   2.544  1.00 20.00    -0.292 OA
ENDROOT
BRANCH   1   3
HETATM    3  C2  UNL     1     -32.261   7.790   2.871  1.00 20.00    -0.025 C 
HETATM    4  C1  UNL     1     -31.394   8.249   3.784  1.00 20.00     0.022 C 
HETATM    5  C7  UNL     1     -32.445   8.459   1.542  1.00 20.00     0.051 C 
ENDBRANCH   1   3
BRANCH   1   6
HETATM    6  C5  UNL     1     -34.243   6.649   4.113  1.00 20.00     0.064 A 
HETATM    7  C4  UNL     1     -35.538   6.028   3.725  1.00 20.00     0.018 A 
HETATM    8  C6  UNL     1     -34.697   5.413   4.808  1.00 20.00    -0.006 A 
HETATM    9  C8  UNL     1     -34.075   4.075   4.599  1.00 20.00     0.011 C 
ENDBRANCH   1   6
TORSDOF 2
ENDMDL
MODEL 5
REMARK VINA RESULT:      -4.8      1.510      2.201
REMARK  2 active torsions:
REMARK  status: ('A' for Active; 'I' for Inactive)
REMARK    1  A    between atoms: C2_2  and  C3_3 
REMARK    2  A    between atoms: C3_3  and  C5_5 
ROOT
HETATM    1  C3  UNL     1     -34.761   5.882   3.436  1.00 20.00     0.159 C 
HETATM    2  O9  UNL     1     -35.650   6.440   2.791  1.00 20.00    -0.292 OA
ENDROOT
BRANCH   1   3
HETATM    3  C2  UNL     1     -33.376   5.778   2.868  1.00 20.00    -0.025 C 
HETATM    4  C1  UNL     1     -32.879   4.604   2.452  1.00 20.00     0.022 C 
HETATM    5  C7  UNL     1     -32.585   7.049   2.791  1.00 20.00     0.051 C 
ENDBRANCH   1   3
BRANCH   1   6
HETATM    6  C5  UNL     1     -35.057   5.302   4.796  1.00 20.00     0.064 A 
HETATM    7  C4  UNL     1     -33.927   4.719   5.568  1.00 20.00     0.018 A 
HETATM    8  C6  UNL     1     -34.568   6.001   6.017  1.00 20.00    -0.006 A 
HETATM    9  C8  UNL     1     -33.794   7.274   5.981  1.00 20.00     0.011 C 
ENDBRANCH   1   6
TORSDOF 2
ENDMDL
MODEL 6
REMARK VINA RESULT:      -4.7      1.773      4.059
REMARK  2 active torsions:
REMARK  status: ('A' for Active; 'I' for Inactive)
REMARK    1  A    between atoms: C2_2  and  C3_3 
REMARK    2  A    between atoms: C3_3  and  C5_5 
ROOT
HETATM    1  C3  UNL     1     -31.992   8.038   2.724  1.00 20.00     0.159 C 
HETATM    2  O9  UNL     1     -31.336   8.568   3.623  1.00 20.00    -0.292 OA
ENDROOT
BRANCH   1   3
HETATM    3  C2  UNL     1     -33.004   6.981   3.059  1.00 20.00    -0.025 C 
HETATM    4  C1  UNL     1     -32.970   5.774   2.478  1.00 20.00     0.022 C 
HETATM    5  C7  UNL     1     -34.047   7.348   4.072  1.00 20.00     0.051 C 
ENDBRANCH   1   3
BRANCH   1   6
HETATM    6  C5  UNL     1     -31.783   8.445   1.287  1.00 20.00     0.064 A 
HETATM    7  C4  UNL     1     -32.985   8.598   0.423  1.00 20.00     0.018 A 
HETATM    8  C6  UNL     1     -32.194   9.805   0.841  1.00 20.00    -0.006 A 
HETATM    9  C8  UNL     1     -32.806  10.819   1.747  1.00 20.00     0.011 C 
ENDBRANCH   1   6
TORSDOF 2
ENDMDL
MODEL 7
REMARK VINA RESULT:      -4.6      1.680      3.629
REMARK  2 active torsions:
REMARK  status: ('A' for Active; 'I' for Inactive)
REMARK    1  A    between atoms: C2_2  and  C3_3 
REMARK    2  A    between atoms: C3_3  and  C5_5 
ROOT
HETATM    1  C3  UNL     1     -34.876   6.304   3.911  1.00 20.00     0.159 C 
HETATM    2  O9  UNL     1     -36.035   6.023   3.599  1.00 20.00    -0.292 OA
ENDROOT
BRANCH   1   3
HETATM    3  C2  UNL     1     -34.403   6.080   5.317  1.00 20.00    -0.025 C 
HETATM    4  C1  UNL     1     -34.454   4.867   5.885  1.00 20.00     0.022 C 
HETATM    5  C7  UNL     1     -33.876   7.279   6.047  1.00 20.00     0.051 C 
ENDBRANCH   1   3
BRANCH   1   6
HETATM    6  C5  UNL     1     -33.929   6.874   2.885  1.00 20.00     0.064 A 
HETATM    7  C4  UNL     1     -32.487   6.970   3.242  1.00 20.00     0.018 A 
HETATM    8  C6  UNL     1     -32.948   5.977   2.212  1.00 20.00    -0.006 A 
HETATM    9  C8  UNL     1     -32.845   4.516   2.487  1.00 20.00     0.011 C 
ENDBRANCH   1   6
TORSDOF 2
ENDMDL
MODEL 8
REMARK VINA RESULT:      -4.6      1.661      3.870
REMARK  2 active torsions:
REMARK  status: ('A' for Active; 'I' for Inactive)
REMARK    1  A    between atoms: C2_2  and  C3_3 
REMARK    2  A    between atoms: C3_3  and  C5_5 
ROOT
HETATM    1  C3  UNL     1     -33.769   7.031   4.941  1.00 20.00     0.159 C 
HETATM    2  O9  UNL     1     -33.353   7.418   6.034  1.00 20.00    -0.292 OA
ENDROOT
BRANCH   1   3
HETATM    3  C2  UNL     1     -34.680   5.841   4.864  1.00 20.00    -0.025 C 
HETATM    4  C1  UNL     1     -34.552   4.808   5.710  1.00 20.00     0.022 C 
HETATM    5  C7  UNL     1     -35.733   5.870   3.797  1.00 20.00     0.051 C 
ENDBRANCH   1   3
BRANCH   1   6
HETATM    6  C5  UNL     1     -33.366   7.747   3.676  1.00 20.00     0.064 A 
HETATM    7  C4  UNL     1     -31.914   7.852   3.365  1.00 20.00     0.018 A 
HETATM    8  C6  UNL     1     -32.806   6.969   2.537  1.00 20.00    -0.006 A 
HETATM    9  C8  UNL     1     -32.621   5.491   2.562  1.00 20.00     0.011 C 
ENDBRANCH   1   6
TORSDOF 2
ENDMDL
MODEL 9
REMARK VINA RESULT:      -4.6      1.465      3.503
REMARK  2 active torsions:
REMARK  status: ('A' for Active; 'I' for Inactive)
REMARK    1  A    between atoms: C2_2  and  C3_3 
REMARK    2  A    between atoms: C3_3  and  C5_5 
ROOT
HETATM    1  C3  UNL     1     -34.315   5.888   3.401  1.00 20.00     0.159 C 
HETATM    2  O9  UNL     1     -35.397   6.309   2.988  1.00 20.00    -0.292 OA
ENDROOT
BRANCH   1   3
HETATM    3  C2  UNL     1     -34.280   4.820   4.454  1.00 20.00    -0.025 C 
HETATM    4  C1  UNL     1     -33.895   3.569   4.166  1.00 20.00     0.022 C 
HETATM    5  C7  UNL     1     -34.696   5.226   5.836  1.00 20.00     0.051 C 
ENDBRANCH   1   3
BRANCH   1   6
HETATM    6  C5  UNL     1     -33.024   6.442   2.853  1.00 20.00     0.064 A 
HETATM    7  C4  UNL     1     -33.024   7.840   2.343  1.00 20.00     0.018 A 
HETATM    8  C6  UNL     1     -32.295   7.496   3.612  1.00 20.00    -0.006 A 
HETATM    9  C8  UNL     1     -32.766   8.047   4.914  1.00 20.00     0.011 C 
ENDBRANCH   1   6
TORSDOF 2
ENDMDL
