MODEL 1
REMARK VINA RESULT:      -4.4      0.000      0.000
REMARK  3 active torsions:
REMARK  status: ('A' for Active; 'I' for Inactive)
REMARK    1  A    between atoms: C2_2  and  C9_9 
REMARK    2  A    between atoms: C6_6  and  C9_9 
REMARK    3  A    between atoms: C9_9  and  N10_10 
ROOT
HETATM    1  C9  UNL     1     -33.185   6.328   3.869  1.00 20.00     0.254 C 
ENDROOT
BRANCH   1   2
HETATM    2  C2  UNL     1     -33.954   6.319   5.178  1.00 20.00    -0.060 C 
HETATM    3  C1  UNL     1     -33.912   7.371   6.012  1.00 20.00     0.016 C 
HETATM    4  C7  UNL     1     -34.763   5.098   5.528  1.00 20.00     0.044 C 
ENDBRANCH   1   2
BRANCH   1   5
HETATM    5  C6  UNL     1     -32.966   7.736   3.348  1.00 20.00     0.049 C 
HETATM    6  C3  UNL     1     -33.222   7.896   1.865  1.00 20.00     0.035 C 
HETATM    7  C4  UNL     1     -32.478   9.180   1.562  1.00 20.00     0.168 C 
HETATM    8  O11 UNL     1     -31.361   9.235   2.462  1.00 20.00    -0.391 OA
HETATM    9  C5  UNL     1     -31.528   8.212   3.456  1.00 20.00     0.174 C 
ENDBRANCH   1   5
BRANCH   1  10
HETATM   10  N10 UNL     1     -33.836   5.518   2.835  1.00 20.00     0.088 N 
HETATM   11  C8  UNL     1     -32.985   4.406   2.447  1.00 20.00     0.307 C 
HETATM   12  H28 UNL     1     -34.018   6.107   2.027  1.00 20.00     0.316 HD
ENDBRANCH   1  10
TORSDOF 3
ENDMDL
MODEL 2
REMARK VINA RESULT:      -4.1     11.268     12.112
REMARK  3 active torsions:
REMARK  status: ('A' for Active; 'I' for Inactive)
REMARK    1  A    between atoms: C2_2  and  C9_9 
REMARK    2  A    between atoms: C6_6  and  C9_9 
REMARK    3  A    between atoms: C9_9  and  N10_10 
ROOT
HETATM    1  C9  UNL     1     -34.889  16.257  -3.756  1.00 20.00     0.254 C 
ENDROOT
BRANCH   1   2
HETATM    2  C2  UNL     1     -34.560  14.871  -4.282  1.00 20.00    -0.060 C 
HETATM    3  C1  UNL     1     -33.291  14.433  -4.331  1.00 20.00     0.016 C 
HETATM    4  C7  UNL     1     -35.690  13.995  -4.756  1.00 20.00     0.044 C 
ENDBRANCH   1   2
BRANCH   1   5
HETATM    5  C6  UNL     1     -33.728  16.865  -2.993  1.00 20.00     0.049 C 
HETATM    6  C3  UNL     1     -34.016  17.130  -1.531  1.00 20.00     0.035 C 
HETATM    7  C4  UNL     1     -32.940  18.137  -1.184  1.00 20.00     0.168 C 
HETATM    8  O11 UNL     1     -32.684  18.898  -2.373  1.00 20.00    -0.391 OA
HETATM    9  C5  UNL     1     -33.337  18.251  -3.477  1.00 20.00     0.174 C 
ENDBRANCH   1   5
BRANCH   1  10
HETATM   10  N10 UNL     1     -36.087  16.262  -2.912  1.00 20.00     0.088 N 
HETATM   11  C8  UNL     1     -37.094  17.156  -3.460  1.00 20.00     0.307 C 
HETATM   12  H28 UNL     1     -35.827  16.571  -1.980  1.00 20.00     0.316 HD
ENDBRANCH   1  10
TORSDOF 3
ENDMDL
MODEL 3
REMARK VINA RESULT:      -4.1     11.155     11.971
REMARK  3 active torsions:
REMARK  status: ('A' for Active; 'I' for Inactive)
REMARK    1  A    between atoms: C2_2  and  C9_9 
REMARK    2  A    between atoms: C6_6  and  C9_9 
REMARK    3  A    between atoms: C9_9  and  N10_10 
ROOT
HETATM    1  C9  UNL     1     -35.142  16.463  -2.771  1.00 20.00     0.254 C 
ENDROOT
BRANCH   1   2
HETATM    2  C2  UNL     1     -34.569  17.143  -1.540  1.00 20.00    -0.060 C 
HETATM    3  C1  UNL     1     -33.298  17.575  -1.519  1.00 20.00     0.016 C 
HETATM    4  C7  UNL     1     -35.456  17.316  -0.336  1.00 20.00     0.044 C 
ENDBRANCH   1   2
BRANCH   1   5
HETATM    5  C6  UNL     1     -34.071  15.763  -3.585  1.00 20.00     0.049 C 
HETATM    6  C3  UNL     1     -33.725  16.458  -4.884  1.00 20.00     0.035 C 
HETATM    7  C4  UNL     1     -33.059  15.343  -5.661  1.00 20.00     0.168 C 
HETATM    8  O11 UNL     1     -33.677  14.117  -5.241  1.00 20.00    -0.391 OA
HETATM    9  C5  UNL     1     -34.481  14.387  -4.082  1.00 20.00     0.174 C 
ENDBRANCH   1   5
BRANCH   1  10
HETATM   10  N10 UNL     1     -35.880  17.396  -3.628  1.00 20.00     0.088 N 
HETATM   11  C8  UNL     1     -37.271  16.992  -3.744  1.00 20.00     0.307 C 
HETATM   12  H28 UNL     1     -35.448  17.402  -4.549  1.00 20.00     0.316 HD
ENDBRANCH   1  10
TORSDOF 3
ENDMDL
MODEL 4
REMARK VINA RESULT:      -4.1     11.501     12.293
REMARK  3 active torsions:
REMARK  status: ('A' for Active; 'I' for Inactive)
REMARK    1  A    between atoms: C2_2  and  C9_9 
REMARK    2  A    between atoms: C6_6  and  C9_9 
REMARK    3  A    between atoms: C9_9  and  N10_10 
ROOT
HETATM    1  C9  UNL     1     -35.722  15.736  -4.080  1.00 20.00     0.254 C 
ENDROOT
BRANCH   1   2
HETATM    2  C2  UNL     1     -34.835  16.300  -2.984  1.00 20.00    -0.060 C 
HETATM    3  C1  UNL     1     -33.503  16.380  -3.145  1.00 20.00     0.016 C 
HETATM    4  C7  UNL     1     -35.479  16.763  -1.705  1.00 20.00     0.044 C 
ENDBRANCH   1   2
BRANCH   1   5
HETATM    5  C6  UNL     1     -35.031  14.634  -4.860  1.00 20.00     0.049 C 
HETATM    6  C3  UNL     1     -34.699  15.000  -6.291  1.00 20.00     0.035 C 
HETATM    7  C4  UNL     1     -34.505  13.636  -6.919  1.00 20.00     0.168 C 
HETATM    8  O11 UNL     1     -35.379  12.732  -6.227  1.00 20.00    -0.391 OA
HETATM    9  C5  UNL     1     -35.887  13.395  -5.059  1.00 20.00     0.174 C 
ENDBRANCH   1   5
BRANCH   1  10
HETATM   10  N10 UNL     1     -36.190  16.773  -5.005  1.00 20.00     0.088 N 
HETATM   11  C8  UNL     1     -37.621  16.981  -4.857  1.00 20.00     0.307 C 
HETATM   12  H28 UNL     1     -35.984  16.477  -5.956  1.00 20.00     0.316 HD
ENDBRANCH   1  10
TORSDOF 3
ENDMDL
MODEL 5
REMARK VINA RESULT:      -4.0      1.405      2.551
REMARK  3 active torsions:
REMARK  status: ('A' for Active; 'I' for Inactive)
REMARK    1  A    between atoms: C2_2  and  C9_9 
REMARK    2  A    between atoms: C6_6  and  C9_9 
REMARK    3  A    between atoms: C9_9  and  N10_10 
ROOT
HETATM    1  C9  UNL     1     -33.580   7.244   3.570  1.00 20.00     0.254 C 
ENDROOT
BRANCH   1   2
HETATM    2  C2  UNL     1     -33.948   5.771   3.557  1.00 20.00    -0.060 C 
HETATM    3  C1  UNL     1     -33.227   4.885   2.850  1.00 20.00     0.016 C 
HETATM    4  C7  UNL     1     -35.147   5.321   4.349  1.00 20.00     0.044 C 
ENDBRANCH   1   2
BRANCH   1   5
HETATM    5  C6  UNL     1     -32.910   7.675   2.279  1.00 20.00     0.049 C 
HETATM    6  C3  UNL     1     -31.462   8.085   2.438  1.00 20.00     0.035 C 
HETATM    7  C4  UNL     1     -31.232   8.894   1.180  1.00 20.00     0.168 C 
HETATM    8  O11 UNL     1     -32.484   9.514   0.850  1.00 20.00    -0.391 OA
HETATM    9  C5  UNL     1     -33.511   8.928   1.667  1.00 20.00     0.174 C 
ENDBRANCH   1   5
BRANCH   1  10
HETATM   10  N10 UNL     1     -32.724   7.592   4.708  1.00 20.00     0.088 N 
HETATM   11  C8  UNL     1     -33.476   7.534   5.950  1.00 20.00     0.307 C 
HETATM   12  H28 UNL     1     -32.366   8.534   4.569  1.00 20.00     0.316 HD
ENDBRANCH   1  10
TORSDOF 3
ENDMDL
MODEL 6
REMARK VINA RESULT:      -3.9     11.274     12.277
REMARK  3 active torsions:
REMARK  status: ('A' for Active; 'I' for Inactive)
REMARK    1  A    between atoms: C2_2  and  C9_9 
REMARK    2  A    between atoms: C6_6  and  C9_9 
REMARK    3  A    between atoms: C9_9  and  N10_10 
ROOT
HETATM    1  C9  UNL     1     -34.466  17.389  -2.899  1.00 20.00     0.254 C 
ENDROOT
BRANCH   1   2
HETATM    2  C2  UNL     1     -34.075  17.642  -1.453  1.00 20.00    -0.060 C 
HETATM    3  C1  UNL     1     -34.959  17.463  -0.458  1.00 20.00     0.016 C 
HETATM    4  C7  UNL     1     -32.674  18.107  -1.158  1.00 20.00     0.044 C 
ENDBRANCH   1   2
BRANCH   1   5
HETATM    5  C6  UNL     1     -34.926  15.961  -3.122  1.00 20.00     0.049 C 
HETATM    6  C3  UNL     1     -33.994  15.136  -3.983  1.00 20.00     0.035 C 
HETATM    7  C4  UNL     1     -34.902  14.008  -4.424  1.00 20.00     0.168 C 
HETATM    8  O11 UNL     1     -36.228  14.551  -4.509  1.00 20.00    -0.391 OA
HETATM    9  C5  UNL     1     -36.226  15.851  -3.899  1.00 20.00     0.174 C 
ENDBRANCH   1   5
BRANCH   1  10
HETATM   10  N10 UNL     1     -33.381  17.706  -3.832  1.00 20.00     0.088 N 
HETATM   11  C8  UNL     1     -33.764  18.803  -4.706  1.00 20.00     0.307 C 
HETATM   12  H28 UNL     1     -33.178  16.880  -4.389  1.00 20.00     0.316 HD
ENDBRANCH   1  10
TORSDOF 3
ENDMDL
MODEL 7
REMARK VINA RESULT:      -3.9     11.270     12.258
REMARK  3 active torsions:
REMARK  status: ('A' for Active; 'I' for Inactive)
REMARK    1  A    between atoms: C2_2  and  C9_9 
REMARK    2  A    between atoms: C6_6  and  C9_9 
REMARK    3  A    between atoms: C9_9  and  N10_10 
ROOT
HETATM    1  C9  UNL     1     -34.468  17.382  -2.942  1.00 20.00     0.254 C 
ENDROOT
BRANCH   1   2
HETATM    2  C2  UNL     1     -34.038  17.638  -1.508  1.00 20.00    -0.060 C 
HETATM    3  C1  UNL     1     -32.784  18.027  -1.222  1.00 20.00     0.016 C 
HETATM    4  C7  UNL     1     -35.046  17.441  -0.408  1.00 20.00     0.044 C 
ENDBRANCH   1   2
BRANCH   1   5
HETATM    5  C6  UNL     1     -34.935  15.954  -3.148  1.00 20.00     0.049 C 
HETATM    6  C3  UNL     1     -34.011  15.115  -4.004  1.00 20.00     0.035 C 
HETATM    7  C4  UNL     1     -34.926  13.987  -4.430  1.00 20.00     0.168 C 
HETATM    8  O11 UNL     1     -36.249  14.536  -4.516  1.00 20.00    -0.391 OA
HETATM    9  C5  UNL     1     -36.239  15.843  -3.920  1.00 20.00     0.174 C 
ENDBRANCH   1   5
BRANCH   1  10
HETATM   10  N10 UNL     1     -33.408  17.695  -3.905  1.00 20.00     0.088 N 
HETATM   11  C8  UNL     1     -33.812  18.791  -4.770  1.00 20.00     0.307 C 
HETATM   12  H28 UNL     1     -33.222  16.868  -4.465  1.00 20.00     0.316 HD
ENDBRANCH   1  10
TORSDOF 3
ENDMDL
MODEL 8
REMARK VINA RESULT:      -3.9     11.200     12.039
REMARK  3 active torsions:
REMARK  status: ('A' for Active; 'I' for Inactive)
REMARK    1  A    between atoms: C2_2  and  C9_9 
REMARK    2  A    between atoms: C6_6  and  C9_9 
REMARK    3  A    between atoms: C9_9  and  N10_10 
ROOT
HETATM    1  C9  UNL     1     -34.332  16.353  -3.806  1.00 20.00     0.254 C 
ENDROOT
BRANCH   1   2
HETATM    2  C2  UNL     1     -34.115  14.913  -4.238  1.00 20.00    -0.060 C 
HETATM    3  C1  UNL     1     -32.879  14.389  -4.295  1.00 20.00     0.016 C 
HETATM    4  C7  UNL     1     -35.315  14.084  -4.609  1.00 20.00     0.044 C 
ENDBRANCH   1   2
BRANCH   1   5
HETATM    5  C6  UNL     1     -34.238  16.516  -2.301  1.00 20.00     0.049 C 
HETATM    6  C3  UNL     1     -35.530  16.945  -1.640  1.00 20.00     0.035 C 
HETATM    7  C4  UNL     1     -35.033  17.487  -0.317  1.00 20.00     0.168 C 
HETATM    8  O11 UNL     1     -33.727  18.033  -0.556  1.00 20.00    -0.391 OA
HETATM    9  C5  UNL     1     -33.295  17.624  -1.864  1.00 20.00     0.174 C 
ENDBRANCH   1   5
BRANCH   1  10
HETATM   10  N10 UNL     1     -35.613  16.887  -4.278  1.00 20.00     0.088 N 
HETATM   11  C8  UNL     1     -35.410  17.771  -5.414  1.00 20.00     0.307 C 
HETATM   12  H28 UNL     1     -36.050  17.403  -3.518  1.00 20.00     0.316 HD
ENDBRANCH   1  10
TORSDOF 3
ENDMDL
MODEL 9
REMARK VINA RESULT:      -3.7     11.254     12.511
REMARK  3 active torsions:
REMARK  status: ('A' for Active; 'I' for Inactive)
REMARK    1  A    between atoms: C2_2  and  C9_9 
REMARK    2  A    between atoms: C6_6  and  C9_9 
REMARK    3  A    between atoms: C9_9  and  N10_10 
ROOT
HETATM    1  C9  UNL     1     -34.370  14.986  -5.621  1.00 20.00     0.254 C 
ENDROOT
BRANCH   1   2
HETATM    2  C2  UNL     1     -33.465  15.048  -4.404  1.00 20.00    -0.060 C 
HETATM    3  C1  UNL     1     -32.485  14.147  -4.225  1.00 20.00     0.016 C 
HETATM    4  C7  UNL     1     -33.693  16.139  -3.392  1.00 20.00     0.044 C 
ENDBRANCH   1   2
BRANCH   1   5
HETATM    5  C6  UNL     1     -35.829  15.182  -5.256  1.00 20.00     0.049 C 
HETATM    6  C3  UNL     1     -36.639  13.904  -5.225  1.00 20.00     0.035 C 
HETATM    7  C4  UNL     1     -38.053  14.433  -5.334  1.00 20.00     0.168 C 
HETATM    8  O11 UNL     1     -37.987  15.633  -6.120  1.00 20.00    -0.391 OA
HETATM    9  C5  UNL     1     -36.608  16.005  -6.269  1.00 20.00     0.174 C 
ENDBRANCH   1   5
BRANCH   1  10
HETATM   10  N10 UNL     1     -34.215  13.733  -6.367  1.00 20.00     0.088 N 
HETATM   11  C8  UNL     1     -34.021  14.002  -7.782  1.00 20.00     0.307 C 
HETATM   12  H28 UNL     1     -35.052  13.172  -6.237  1.00 20.00     0.316 HD
ENDBRANCH   1  10
TORSDOF 3
ENDMDL
