MODEL 1
REMARK VINA RESULT:      -5.7      0.000      0.000
REMARK  4 active torsions:
REMARK  status: ('A' for Active; 'I' for Inactive)
REMARK    1  A    between atoms: C2_2  and  C8_8 
REMARK    2  A    between atoms: C6_6  and  C9_9 
REMARK    3  A    between atoms: C8_8  and  C9_9 
REMARK    4  A    between atoms: C9_9  and  O11_11 
ROOT
HETATM    1  C9  UNL     1     -32.398   8.264   3.245  1.00 20.00     0.151 C 
ENDROOT
BRANCH   1   2
HETATM    2  C6  UNL     1     -32.946   6.952   3.774  1.00 20.00     0.150 C 
HETATM    3  C4  UNL     1     -33.656   7.088   5.111  1.00 20.00     0.036 C 
HETATM    4  C3  UNL     1     -34.601   5.913   5.068  1.00 20.00     0.029 C 
HETATM    5  C5  UNL     1     -35.019   5.900   3.613  1.00 20.00     0.168 C 
HETATM    6  O10 UNL     1     -33.917   6.424   2.856  1.00 20.00    -0.383 OA
ENDBRANCH   1   2
BRANCH   1   7
HETATM    7  C8  UNL     1     -32.122   8.173   1.738  1.00 20.00     0.067 C 
BRANCH   7   8
HETATM    8  C2  UNL     1     -32.603   9.380   0.962  1.00 20.00    -0.091 C 
HETATM    9  C1  UNL     1     -32.629  10.604   1.512  1.00 20.00     0.014 C 
HETATM   10  C7  UNL     1     -33.009   9.155  -0.467  1.00 20.00     0.042 C 
ENDBRANCH   7   8
ENDBRANCH   1   7
BRANCH   1  11
HETATM   11  O11 UNL     1     -31.185   8.530   3.947  1.00 20.00    -0.393 OA
HETATM   12  H27 UNL     1     -31.089   9.493   3.976  1.00 20.00     0.210 HD
ENDBRANCH   1  11
TORSDOF 4
ENDMDL
MODEL 2
REMARK VINA RESULT:      -5.3      1.329      4.470
REMARK  4 active torsions:
REMARK  status: ('A' for Active; 'I' for Inactive)
REMARK    1  A    between atoms: C2_2  and  C8_8 
REMARK    2  A    between atoms: C6_6  and  C9_9 
REMARK    3  A    between atoms: C8_8  and  C9_9 
REMARK    4  A    between atoms: C9_9  and  O11_11 
ROOT
HETATM    1  C9  UNL     1     -32.053   7.628   3.089  1.00 20.00     0.151 C 
ENDROOT
BRANCH   1   2
HETATM    2  C6  UNL     1     -31.823   8.534   1.895  1.00 20.00     0.150 C 
HETATM    3  C4  UNL     1     -32.742   8.236   0.723  1.00 20.00     0.036 C 
HETATM    4  C3  UNL     1     -32.780   9.572   0.024  1.00 20.00     0.029 C 
HETATM    5  C5  UNL     1     -32.788  10.535   1.193  1.00 20.00     0.168 C 
HETATM    6  O10 UNL     1     -32.074   9.900   2.264  1.00 20.00    -0.383 OA
ENDBRANCH   1   2
BRANCH   1   7
HETATM    7  C8  UNL     1     -33.548   7.336   3.275  1.00 20.00     0.067 C 
BRANCH   7   8
HETATM    8  C2  UNL     1     -33.864   5.864   3.420  1.00 20.00    -0.091 C 
HETATM    9  C1  UNL     1     -33.190   4.930   2.730  1.00 20.00     0.014 C 
HETATM   10  C7  UNL     1     -34.937   5.488   4.402  1.00 20.00     0.042 C 
ENDBRANCH   7   8
ENDBRANCH   1   7
BRANCH   1  11
HETATM   11  O11 UNL     1     -31.541   8.302   4.237  1.00 20.00    -0.393 OA
HETATM   12  H27 UNL     1     -31.638   7.690   4.982  1.00 20.00     0.210 HD
ENDBRANCH   1  11
TORSDOF 4
ENDMDL
MODEL 3
REMARK VINA RESULT:      -5.0      1.593      2.424
REMARK  4 active torsions:
REMARK  status: ('A' for Active; 'I' for Inactive)
REMARK    1  A    between atoms: C2_2  and  C8_8 
REMARK    2  A    between atoms: C6_6  and  C9_9 
REMARK    3  A    between atoms: C8_8  and  C9_9 
REMARK    4  A    between atoms: C9_9  and  O11_11 
ROOT
HETATM    1  C9  UNL     1     -32.972   6.003   2.861  1.00 20.00     0.151 C 
ENDROOT
BRANCH   1   2
HETATM    2  C6  UNL     1     -34.126   5.916   3.842  1.00 20.00     0.150 C 
HETATM    3  C4  UNL     1     -34.176   4.603   4.603  1.00 20.00     0.036 C 
HETATM    4  C3  UNL     1     -34.905   5.012   5.859  1.00 20.00     0.029 C 
HETATM    5  C5  UNL     1     -34.339   6.394   6.112  1.00 20.00     0.168 C 
HETATM    6  O10 UNL     1     -34.004   6.950   4.832  1.00 20.00    -0.383 OA
ENDBRANCH   1   2
BRANCH   1   7
HETATM    7  C8  UNL     1     -33.175   7.165   1.879  1.00 20.00     0.067 C 
BRANCH   7   8
HETATM    8  C2  UNL     1     -32.192   8.299   2.071  1.00 20.00    -0.091 C 
HETATM    9  C1  UNL     1     -31.417   8.379   3.164  1.00 20.00     0.014 C 
HETATM   10  C7  UNL     1     -32.089   9.309   0.964  1.00 20.00     0.042 C 
ENDBRANCH   7   8
ENDBRANCH   1   7
BRANCH   1  11
HETATM   11  O11 UNL     1     -32.925   4.767   2.152  1.00 20.00    -0.393 OA
HETATM   12  H27 UNL     1     -31.989   4.526   2.080  1.00 20.00     0.210 HD
ENDBRANCH   1  11
TORSDOF 4
ENDMDL
MODEL 4
REMARK VINA RESULT:      -4.9      1.538      4.661
REMARK  4 active torsions:
REMARK  status: ('A' for Active; 'I' for Inactive)
REMARK    1  A    between atoms: C2_2  and  C8_8 
REMARK    2  A    between atoms: C6_6  and  C9_9 
REMARK    3  A    between atoms: C8_8  and  C9_9 
REMARK    4  A    between atoms: C9_9  and  O11_11 
ROOT
HETATM    1  C9  UNL     1     -33.929   6.216   2.627  1.00 20.00     0.151 C 
ENDROOT
BRANCH   1   2
HETATM    2  C6  UNL     1     -33.308   7.598   2.701  1.00 20.00     0.150 C 
HETATM    3  C4  UNL     1     -31.901   7.600   3.276  1.00 20.00     0.036 C 
HETATM    4  C3  UNL     1     -31.325   8.848   2.655  1.00 20.00     0.029 C 
HETATM    5  C5  UNL     1     -31.932   8.816   1.268  1.00 20.00     0.168 C 
HETATM    6  O10 UNL     1     -33.202   8.157   1.381  1.00 20.00    -0.383 OA
ENDBRANCH   1   2
BRANCH   1   7
HETATM    7  C8  UNL     1     -35.050   6.064   3.665  1.00 20.00     0.067 C 
BRANCH   7   8
HETATM    8  C2  UNL     1     -34.548   5.726   5.051  1.00 20.00    -0.091 C 
HETATM    9  C1  UNL     1     -34.499   4.458   5.491  1.00 20.00     0.014 C 
HETATM   10  C7  UNL     1     -34.066   6.867   5.901  1.00 20.00     0.042 C 
ENDBRANCH   7   8
ENDBRANCH   1   7
BRANCH   1  11
HETATM   11  O11 UNL     1     -32.893   5.272   2.885  1.00 20.00    -0.393 OA
HETATM   12  H27 UNL     1     -32.819   4.720   2.092  1.00 20.00     0.210 HD
ENDBRANCH   1  11
TORSDOF 4
ENDMDL
MODEL 5
REMARK VINA RESULT:      -4.8      1.332      4.455
REMARK  4 active torsions:
REMARK  status: ('A' for Active; 'I' for Inactive)
REMARK    1  A    between atoms: C2_2  and  C8_8 
REMARK    2  A    between atoms: C6_6  and  C9_9 
REMARK    3  A    between atoms: C8_8  and  C9_9 
REMARK    4  A    between atoms: C9_9  and  O11_11 
ROOT
HETATM    1  C9  UNL     1     -32.358   7.532   3.348  1.00 20.00     0.151 C 
ENDROOT
BRANCH   1   2
HETATM    2  C6  UNL     1     -32.731   8.235   2.057  1.00 20.00     0.150 C 
HETATM    3  C4  UNL     1     -32.850   9.743   2.201  1.00 20.00     0.036 C 
HETATM    4  C3  UNL     1     -32.568  10.201   0.792  1.00 20.00     0.029 C 
HETATM    5  C5  UNL     1     -31.486   9.234   0.359  1.00 20.00     0.168 C 
HETATM    6  O10 UNL     1     -31.716   8.006   1.066  1.00 20.00    -0.383 OA
ENDBRANCH   1   2
BRANCH   1   7
HETATM    7  C8  UNL     1     -33.608   7.221   4.182  1.00 20.00     0.067 C 
BRANCH   7   8
HETATM    8  C2  UNL     1     -33.992   5.757   4.174  1.00 20.00    -0.091 C 
HETATM    9  C1  UNL     1     -34.754   5.226   5.142  1.00 20.00     0.014 C 
HETATM   10  C7  UNL     1     -33.517   4.933   3.011  1.00 20.00     0.042 C 
ENDBRANCH   7   8
ENDBRANCH   1   7
BRANCH   1  11
HETATM   11  O11 UNL     1     -31.494   8.406   4.072  1.00 20.00    -0.393 OA
HETATM   12  H27 UNL     1     -31.448   9.231   3.565  1.00 20.00     0.210 HD
ENDBRANCH   1  11
TORSDOF 4
ENDMDL
MODEL 6
REMARK VINA RESULT:      -4.7     10.007     11.139
REMARK  4 active torsions:
REMARK  status: ('A' for Active; 'I' for Inactive)
REMARK    1  A    between atoms: C2_2  and  C8_8 
REMARK    2  A    between atoms: C6_6  and  C9_9 
REMARK    3  A    between atoms: C8_8  and  C9_9 
REMARK    4  A    between atoms: C9_9  and  O11_11 
ROOT
HETATM    1  C9  UNL     1     -33.927  14.564  -4.239  1.00 20.00     0.151 C 
ENDROOT
BRANCH   1   2
HETATM    2  C6  UNL     1     -34.738  14.562  -5.520  1.00 20.00     0.150 C 
HETATM    3  C4  UNL     1     -33.940  14.983  -6.743  1.00 20.00     0.036 C 
HETATM    4  C3  UNL     1     -34.702  14.296  -7.848  1.00 20.00     0.029 C 
HETATM    5  C5  UNL     1     -35.081  12.982  -7.197  1.00 20.00     0.168 C 
HETATM    6  O10 UNL     1     -35.219  13.235  -5.791  1.00 20.00    -0.383 OA
ENDBRANCH   1   2
BRANCH   1   7
HETATM    7  C8  UNL     1     -33.435  15.979  -3.904  1.00 20.00     0.067 C 
BRANCH   7   8
HETATM    8  C2  UNL     1     -34.131  16.595  -2.711  1.00 20.00    -0.091 C 
HETATM    9  C1  UNL     1     -35.426  16.355  -2.452  1.00 20.00     0.014 C 
HETATM   10  C7  UNL     1     -33.299  17.455  -1.803  1.00 20.00     0.042 C 
ENDBRANCH   7   8
ENDBRANCH   1   7
BRANCH   1  11
HETATM   11  O11 UNL     1     -32.813  13.696  -4.441  1.00 20.00    -0.393 OA
HETATM   12  H27 UNL     1     -32.728  13.577  -5.399  1.00 20.00     0.210 HD
ENDBRANCH   1  11
TORSDOF 4
ENDMDL
MODEL 7
REMARK VINA RESULT:      -4.6     10.140     10.771
REMARK  4 active torsions:
REMARK  status: ('A' for Active; 'I' for Inactive)
REMARK    1  A    between atoms: C2_2  and  C8_8 
REMARK    2  A    between atoms: C6_6  and  C9_9 
REMARK    3  A    between atoms: C8_8  and  C9_9 
REMARK    4  A    between atoms: C9_9  and  O11_11 
ROOT
HETATM    1  C9  UNL     1     -33.424  15.293  -4.033  1.00 20.00     0.151 C 
ENDROOT
BRANCH   1   2
HETATM    2  C6  UNL     1     -34.464  14.240  -4.367  1.00 20.00     0.150 C 
HETATM    3  C4  UNL     1     -35.866  14.803  -4.523  1.00 20.00     0.036 C 
HETATM    4  C3  UNL     1     -36.498  13.782  -5.436  1.00 20.00     0.029 C 
HETATM    5  C5  UNL     1     -35.353  13.445  -6.369  1.00 20.00     0.168 C 
HETATM    6  O10 UNL     1     -34.140  13.616  -5.620  1.00 20.00    -0.383 OA
ENDBRANCH   1   2
BRANCH   1   7
HETATM    7  C8  UNL     1     -34.087  16.652  -3.770  1.00 20.00     0.067 C 
BRANCH   7   8
HETATM    8  C2  UNL     1     -34.118  17.037  -2.307  1.00 20.00    -0.091 C 
HETATM    9  C1  UNL     1     -35.182  16.769  -1.534  1.00 20.00     0.014 C 
HETATM   10  C7  UNL     1     -32.890  17.695  -1.747  1.00 20.00     0.042 C 
ENDBRANCH   7   8
ENDBRANCH   1   7
BRANCH   1  11
HETATM   11  O11 UNL     1     -32.543  15.388  -5.151  1.00 20.00    -0.393 OA
HETATM   12  H27 UNL     1     -32.994  15.936  -5.811  1.00 20.00     0.210 HD
ENDBRANCH   1  11
TORSDOF 4
ENDMDL
MODEL 8
REMARK VINA RESULT:      -4.2     10.094     11.416
REMARK  4 active torsions:
REMARK  status: ('A' for Active; 'I' for Inactive)
REMARK    1  A    between atoms: C2_2  and  C8_8 
REMARK    2  A    between atoms: C6_6  and  C9_9 
REMARK    3  A    between atoms: C8_8  and  C9_9 
REMARK    4  A    between atoms: C9_9  and  O11_11 
ROOT
HETATM    1  C9  UNL     1     -35.169  13.827  -5.361  1.00 20.00     0.151 C 
ENDROOT
BRANCH   1   2
HETATM    2  C6  UNL     1     -34.883  14.571  -4.071  1.00 20.00     0.150 C 
HETATM    3  C4  UNL     1     -33.543  15.286  -4.068  1.00 20.00     0.036 C 
HETATM    4  C3  UNL     1     -33.793  16.390  -3.071  1.00 20.00     0.029 C 
HETATM    5  C5  UNL     1     -35.226  16.770  -3.380  1.00 20.00     0.168 C 
HETATM    6  O10 UNL     1     -35.879  15.586  -3.862  1.00 20.00    -0.383 OA
ENDBRANCH   1   2
BRANCH   1   7
HETATM    7  C8  UNL     1     -35.943  14.714  -6.345  1.00 20.00     0.067 C 
BRANCH   7   8
HETATM    8  C2  UNL     1     -35.054  15.450  -7.324  1.00 20.00    -0.091 C 
HETATM    9  C1  UNL     1     -35.256  16.743  -7.620  1.00 20.00     0.014 C 
HETATM   10  C7  UNL     1     -33.909  14.681  -7.918  1.00 20.00     0.042 C 
ENDBRANCH   7   8
ENDBRANCH   1   7
BRANCH   1  11
HETATM   11  O11 UNL     1     -35.947  12.680  -5.024  1.00 20.00    -0.393 OA
HETATM   12  H27 UNL     1     -36.184  12.252  -5.860  1.00 20.00     0.210 HD
ENDBRANCH   1  11
TORSDOF 4
ENDMDL
MODEL 9
REMARK VINA RESULT:      -4.1     10.043     11.500
REMARK  4 active torsions:
REMARK  status: ('A' for Active; 'I' for Inactive)
REMARK    1  A    between atoms: C2_2  and  C8_8 
REMARK    2  A    between atoms: C6_6  and  C9_9 
REMARK    3  A    between atoms: C8_8  and  C9_9 
REMARK    4  A    between atoms: C9_9  and  O11_11 
ROOT
HETATM    1  C9  UNL     1     -36.269  13.887  -5.599  1.00 20.00     0.151 C 
ENDROOT
BRANCH   1   2
HETATM    2  C6  UNL     1     -35.065  14.775  -5.349  1.00 20.00     0.150 C 
HETATM    3  C4  UNL     1     -35.091  15.462  -3.994  1.00 20.00     0.036 C 
HETATM    4  C3  UNL     1     -33.621  15.693  -3.748  1.00 20.00     0.029 C 
HETATM    5  C5  UNL     1     -33.007  14.429  -4.314  1.00 20.00     0.168 C 
HETATM    6  O10 UNL     1     -33.864  13.987  -5.377  1.00 20.00    -0.383 OA
ENDBRANCH   1   2
BRANCH   1   7
HETATM    7  C8  UNL     1     -37.525  14.467  -4.934  1.00 20.00     0.067 C 
BRANCH   7   8
HETATM    8  C2  UNL     1     -38.459  15.156  -5.903  1.00 20.00    -0.091 C 
HETATM    9  C1  UNL     1     -38.028  15.615  -7.088  1.00 20.00     0.014 C 
HETATM   10  C7  UNL     1     -39.902  15.266  -5.500  1.00 20.00     0.042 C 
ENDBRANCH   7   8
ENDBRANCH   1   7
BRANCH   1  11
HETATM   11  O11 UNL     1     -35.972  12.606  -5.047  1.00 20.00    -0.393 OA
HETATM   12  H27 UNL     1     -35.642  12.762  -4.150  1.00 20.00     0.210 HD
ENDBRANCH   1  11
TORSDOF 4
ENDMDL
