MODEL 1
REMARK VINA RESULT:      -5.7      0.000      0.000
REMARK  5 active torsions:
REMARK  status: ('A' for Active; 'I' for Inactive)
REMARK    1  A    between atoms: C2_2  and  C6_6 
REMARK    2  A    between atoms: C6_6  and  C8_8 
REMARK    3  A    between atoms: C7_7  and  C8_8 
REMARK    4  A    between atoms: C7_7  and  C9_9 
REMARK    5  A    between atoms: C9_9  and  O10_10 
ROOT
HETATM    1  C4  UNL     1     -32.953   5.191   2.772  1.00 20.00     0.010 C 
HETATM    2  C8  UNL     1     -34.056   6.253   2.678  1.00 20.00    -0.012 C 
ENDROOT
BRANCH   2   3
HETATM    3  C6  UNL     1     -35.098   5.991   3.793  1.00 20.00     0.037 C 
BRANCH   3   4
HETATM    4  C2  UNL     1     -34.521   5.825   5.180  1.00 20.00    -0.093 C 
HETATM    5  C1  UNL     1     -34.491   4.628   5.788  1.00 20.00     0.014 C 
HETATM    6  C3  UNL     1     -33.947   7.048   5.835  1.00 20.00     0.042 C 
ENDBRANCH   3   4
ENDBRANCH   2   3
BRANCH   2   7
HETATM    7  C7  UNL     1     -33.482   7.687   2.771  1.00 20.00     0.035 C 
BRANCH   7   8
HETATM    8  C9  UNL     1     -31.996   7.807   2.407  1.00 20.00     0.114 C 
HETATM    9  C5  UNL     1     -31.791   8.779   1.251  1.00 20.00     0.039 C 
BRANCH   8  10
HETATM   10  O10 UNL     1     -31.273   8.281   3.539  1.00 20.00    -0.396 OA
HETATM   11  H28 UNL     1     -31.096   7.509   4.097  1.00 20.00     0.210 HD
ENDBRANCH   8  10
ENDBRANCH   7   8
ENDBRANCH   2   7
TORSDOF 5
ENDMDL
MODEL 2
REMARK VINA RESULT:      -5.7      1.745      4.860
REMARK  5 active torsions:
REMARK  status: ('A' for Active; 'I' for Inactive)
REMARK    1  A    between atoms: C2_2  and  C6_6 
REMARK    2  A    between atoms: C6_6  and  C8_8 
REMARK    3  A    between atoms: C7_7  and  C8_8 
REMARK    4  A    between atoms: C7_7  and  C9_9 
REMARK    5  A    between atoms: C9_9  and  O10_10 
ROOT
HETATM    1  C4  UNL     1     -31.370   8.278   3.846  1.00 20.00     0.010 C 
HETATM    2  C8  UNL     1     -32.515   7.997   2.864  1.00 20.00    -0.012 C 
ENDROOT
BRANCH   2   3
HETATM    3  C6  UNL     1     -32.023   8.295   1.427  1.00 20.00     0.037 C 
BRANCH   3   4
HETATM    4  C2  UNL     1     -32.628   9.522   0.784  1.00 20.00    -0.093 C 
HETATM    5  C1  UNL     1     -32.654  10.705   1.418  1.00 20.00     0.014 C 
HETATM    6  C3  UNL     1     -33.163   9.372  -0.611  1.00 20.00     0.042 C 
ENDBRANCH   3   4
ENDBRANCH   2   3
BRANCH   2   7
HETATM    7  C7  UNL     1     -33.036   6.547   2.991  1.00 20.00     0.035 C 
BRANCH   7   8
HETATM    8  C9  UNL     1     -34.250   6.380   3.916  1.00 20.00     0.114 C 
HETATM    9  C5  UNL     1     -34.491   4.912   4.244  1.00 20.00     0.039 C 
BRANCH   8  10
HETATM   10  O10 UNL     1     -34.016   7.090   5.128  1.00 20.00    -0.396 OA
HETATM   11  H28 UNL     1     -33.419   7.822   4.909  1.00 20.00     0.210 HD
ENDBRANCH   8  10
ENDBRANCH   7   8
ENDBRANCH   2   7
TORSDOF 5
ENDMDL
MODEL 3
REMARK VINA RESULT:      -5.7      1.729      4.774
REMARK  5 active torsions:
REMARK  status: ('A' for Active; 'I' for Inactive)
REMARK    1  A    between atoms: C2_2  and  C6_6 
REMARK    2  A    between atoms: C6_6  and  C8_8 
REMARK    3  A    between atoms: C7_7  and  C8_8 
REMARK    4  A    between atoms: C7_7  and  C9_9 
REMARK    5  A    between atoms: C9_9  and  O10_10 
ROOT
HETATM    1  C4  UNL     1     -31.372   8.271   3.804  1.00 20.00     0.010 C 
HETATM    2  C8  UNL     1     -32.506   7.998   2.808  1.00 20.00    -0.012 C 
ENDROOT
BRANCH   2   3
HETATM    3  C6  UNL     1     -31.992   8.283   1.376  1.00 20.00     0.037 C 
BRANCH   3   4
HETATM    4  C2  UNL     1     -32.626   9.472   0.692  1.00 20.00    -0.093 C 
HETATM    5  C1  UNL     1     -33.155   9.374  -0.537  1.00 20.00     0.014 C 
HETATM    6  C3  UNL     1     -32.676  10.759   1.463  1.00 20.00     0.042 C 
ENDBRANCH   3   4
ENDBRANCH   2   3
BRANCH   2   7
HETATM    7  C7  UNL     1     -33.046   6.554   2.935  1.00 20.00     0.035 C 
BRANCH   7   8
HETATM    8  C9  UNL     1     -34.263   6.402   3.858  1.00 20.00     0.114 C 
HETATM    9  C5  UNL     1     -34.502   4.940   4.214  1.00 20.00     0.039 C 
BRANCH   8  10
HETATM   10  O10 UNL     1     -34.035   7.137   5.057  1.00 20.00    -0.396 OA
HETATM   11  H28 UNL     1     -34.405   6.607   5.780  1.00 20.00     0.210 HD
ENDBRANCH   8  10
ENDBRANCH   7   8
ENDBRANCH   2   7
TORSDOF 5
ENDMDL
MODEL 4
REMARK VINA RESULT:      -5.6      1.134      1.637
REMARK  5 active torsions:
REMARK  status: ('A' for Active; 'I' for Inactive)
REMARK    1  A    between atoms: C2_2  and  C6_6 
REMARK    2  A    between atoms: C6_6  and  C8_8 
REMARK    3  A    between atoms: C7_7  and  C8_8 
REMARK    4  A    between atoms: C7_7  and  C9_9 
REMARK    5  A    between atoms: C9_9  and  O10_10 
ROOT
HETATM    1  C4  UNL     1     -32.865   5.216   2.828  1.00 20.00     0.010 C 
HETATM    2  C8  UNL     1     -33.558   6.567   2.615  1.00 20.00    -0.012 C 
ENDROOT
BRANCH   2   3
HETATM    3  C6  UNL     1     -34.665   6.734   3.685  1.00 20.00     0.037 C 
BRANCH   3   4
HETATM    4  C2  UNL     1     -34.247   6.391   5.097  1.00 20.00    -0.093 C 
HETATM    5  C1  UNL     1     -33.633   7.289   5.884  1.00 20.00     0.014 C 
HETATM    6  C3  UNL     1     -34.584   5.016   5.597  1.00 20.00     0.042 C 
ENDBRANCH   3   4
ENDBRANCH   2   3
BRANCH   2   7
HETATM    7  C7  UNL     1     -32.552   7.742   2.659  1.00 20.00     0.035 C 
BRANCH   7   8
HETATM    8  C9  UNL     1     -32.472   8.566   1.367  1.00 20.00     0.114 C 
HETATM    9  C5  UNL     1     -32.781  10.034   1.634  1.00 20.00     0.039 C 
BRANCH   8  10
HETATM   10  O10 UNL     1     -31.157   8.464   0.828  1.00 20.00    -0.396 OA
HETATM   11  H28 UNL     1     -30.569   8.933   1.439  1.00 20.00     0.210 HD
ENDBRANCH   8  10
ENDBRANCH   7   8
ENDBRANCH   2   7
TORSDOF 5
ENDMDL
MODEL 5
REMARK VINA RESULT:      -5.6      1.811      2.878
REMARK  5 active torsions:
REMARK  status: ('A' for Active; 'I' for Inactive)
REMARK    1  A    between atoms: C2_2  and  C6_6 
REMARK    2  A    between atoms: C6_6  and  C8_8 
REMARK    3  A    between atoms: C7_7  and  C8_8 
REMARK    4  A    between atoms: C7_7  and  C9_9 
REMARK    5  A    between atoms: C9_9  and  O10_10 
ROOT
HETATM    1  C4  UNL     1     -31.501   8.344   3.877  1.00 20.00     0.010 C 
HETATM    2  C8  UNL     1     -31.980   7.611   2.617  1.00 20.00    -0.012 C 
ENDROOT
BRANCH   2   3
HETATM    3  C6  UNL     1     -33.488   7.295   2.767  1.00 20.00     0.037 C 
BRANCH   3   4
HETATM    4  C2  UNL     1     -33.806   5.875   3.176  1.00 20.00    -0.093 C 
HETATM    5  C1  UNL     1     -33.083   4.837   2.727  1.00 20.00     0.014 C 
HETATM    6  C3  UNL     1     -34.941   5.677   4.138  1.00 20.00     0.042 C 
ENDBRANCH   3   4
ENDBRANCH   2   3
BRANCH   2   7
HETATM    7  C7  UNL     1     -31.702   8.432   1.335  1.00 20.00     0.035 C 
BRANCH   7   8
HETATM    8  C9  UNL     1     -32.869   9.313   0.872  1.00 20.00     0.114 C 
HETATM    9  C5  UNL     1     -32.674  10.758   1.312  1.00 20.00     0.039 C 
BRANCH   8  10
HETATM   10  O10 UNL     1     -32.951   9.273  -0.550  1.00 20.00    -0.396 OA
HETATM   11  H28 UNL     1     -32.600  10.117  -0.872  1.00 20.00     0.210 HD
ENDBRANCH   8  10
ENDBRANCH   7   8
ENDBRANCH   2   7
TORSDOF 5
ENDMDL
MODEL 6
REMARK VINA RESULT:      -5.5      1.296      4.115
REMARK  5 active torsions:
REMARK  status: ('A' for Active; 'I' for Inactive)
REMARK    1  A    between atoms: C2_2  and  C6_6 
REMARK    2  A    between atoms: C6_6  and  C8_8 
REMARK    3  A    between atoms: C7_7  and  C8_8 
REMARK    4  A    between atoms: C7_7  and  C9_9 
REMARK    5  A    between atoms: C9_9  and  O10_10 
ROOT
HETATM    1  C4  UNL     1     -32.963   4.792   2.519  1.00 20.00     0.010 C 
HETATM    2  C8  UNL     1     -33.315   6.165   3.105  1.00 20.00    -0.012 C 
ENDROOT
BRANCH   2   3
HETATM    3  C6  UNL     1     -33.225   7.226   1.981  1.00 20.00     0.037 C 
BRANCH   3   4
HETATM    4  C2  UNL     1     -32.224   8.333   2.224  1.00 20.00    -0.093 C 
HETATM    5  C1  UNL     1     -31.462   8.359   3.329  1.00 20.00     0.014 C 
HETATM    6  C3  UNL     1     -32.089   9.380   1.157  1.00 20.00     0.042 C 
ENDBRANCH   3   4
ENDBRANCH   2   3
BRANCH   2   7
HETATM    7  C7  UNL     1     -34.714   6.165   3.767  1.00 20.00     0.035 C 
BRANCH   7   8
HETATM    8  C9  UNL     1     -34.697   6.171   5.302  1.00 20.00     0.114 C 
HETATM    9  C5  UNL     1     -34.484   4.768   5.854  1.00 20.00     0.039 C 
BRANCH   8  10
HETATM   10  O10 UNL     1     -33.639   7.010   5.755  1.00 20.00    -0.396 OA
HETATM   11  H28 UNL     1     -34.053   7.809   6.115  1.00 20.00     0.210 HD
ENDBRANCH   8  10
ENDBRANCH   7   8
ENDBRANCH   2   7
TORSDOF 5
ENDMDL
MODEL 7
REMARK VINA RESULT:      -5.4      1.665      2.589
REMARK  5 active torsions:
REMARK  status: ('A' for Active; 'I' for Inactive)
REMARK    1  A    between atoms: C2_2  and  C6_6 
REMARK    2  A    between atoms: C6_6  and  C8_8 
REMARK    3  A    between atoms: C7_7  and  C8_8 
REMARK    4  A    between atoms: C7_7  and  C9_9 
REMARK    5  A    between atoms: C9_9  and  O10_10 
ROOT
HETATM    1  C4  UNL     1     -31.416   8.360   3.481  1.00 20.00     0.010 C 
HETATM    2  C8  UNL     1     -32.579   7.656   2.771  1.00 20.00    -0.012 C 
ENDROOT
BRANCH   2   3
HETATM    3  C6  UNL     1     -33.502   7.019   3.838  1.00 20.00     0.037 C 
BRANCH   3   4
HETATM    4  C2  UNL     1     -33.804   5.552   3.630  1.00 20.00    -0.093 C 
HETATM    5  C1  UNL     1     -33.206   4.844   2.659  1.00 20.00     0.014 C 
HETATM    6  C3  UNL     1     -34.770   4.911   4.583  1.00 20.00     0.042 C 
ENDBRANCH   3   4
ENDBRANCH   2   3
BRANCH   2   7
HETATM    7  C7  UNL     1     -33.362   8.624   1.854  1.00 20.00     0.035 C 
BRANCH   7   8
HETATM    8  C9  UNL     1     -32.490   9.456   0.904  1.00 20.00     0.114 C 
HETATM    9  C5  UNL     1     -32.958   9.312  -0.538  1.00 20.00     0.039 C 
BRANCH   8  10
HETATM   10  O10 UNL     1     -32.568  10.829   1.278  1.00 20.00    -0.396 OA
HETATM   11  H28 UNL     1     -33.497  11.089   1.184  1.00 20.00     0.210 HD
ENDBRANCH   8  10
ENDBRANCH   7   8
ENDBRANCH   2   7
TORSDOF 5
ENDMDL
MODEL 8
REMARK VINA RESULT:      -5.4      1.933      4.133
REMARK  5 active torsions:
REMARK  status: ('A' for Active; 'I' for Inactive)
REMARK    1  A    between atoms: C2_2  and  C6_6 
REMARK    2  A    between atoms: C6_6  and  C8_8 
REMARK    3  A    between atoms: C7_7  and  C8_8 
REMARK    4  A    between atoms: C7_7  and  C9_9 
REMARK    5  A    between atoms: C9_9  and  O10_10 
ROOT
HETATM    1  C4  UNL     1     -32.992   4.662   2.266  1.00 20.00     0.010 C 
HETATM    2  C8  UNL     1     -33.115   6.001   3.003  1.00 20.00    -0.012 C 
ENDROOT
BRANCH   2   3
HETATM    3  C6  UNL     1     -33.140   7.144   1.959  1.00 20.00     0.037 C 
BRANCH   3   4
HETATM    4  C2  UNL     1     -32.259   8.329   2.286  1.00 20.00    -0.093 C 
HETATM    5  C1  UNL     1     -31.479   8.342   3.379  1.00 20.00     0.014 C 
HETATM    6  C3  UNL     1     -32.263   9.474   1.315  1.00 20.00     0.042 C 
ENDBRANCH   3   4
ENDBRANCH   2   3
BRANCH   2   7
HETATM    7  C7  UNL     1     -34.366   6.043   3.912  1.00 20.00     0.035 C 
BRANCH   7   8
HETATM    8  C9  UNL     1     -34.076   5.882   5.411  1.00 20.00     0.114 C 
HETATM    9  C5  UNL     1     -33.937   7.237   6.091  1.00 20.00     0.039 C 
BRANCH   8  10
HETATM   10  O10 UNL     1     -35.147   5.168   6.021  1.00 20.00    -0.396 OA
HETATM   11  H28 UNL     1     -35.398   5.669   6.813  1.00 20.00     0.210 HD
ENDBRANCH   8  10
ENDBRANCH   7   8
ENDBRANCH   2   7
TORSDOF 5
ENDMDL
MODEL 9
REMARK VINA RESULT:      -5.0      1.749      4.580
REMARK  5 active torsions:
REMARK  status: ('A' for Active; 'I' for Inactive)
REMARK    1  A    between atoms: C2_2  and  C6_6 
REMARK    2  A    between atoms: C6_6  and  C8_8 
REMARK    3  A    between atoms: C7_7  and  C8_8 
REMARK    4  A    between atoms: C7_7  and  C9_9 
REMARK    5  A    between atoms: C9_9  and  O10_10 
ROOT
HETATM    1  C4  UNL     1     -33.262   7.598   5.114  1.00 20.00     0.010 C 
HETATM    2  C8  UNL     1     -33.451   7.688   3.594  1.00 20.00    -0.012 C 
ENDROOT
BRANCH   2   3
HETATM    3  C6  UNL     1     -32.088   8.023   2.941  1.00 20.00     0.037 C 
BRANCH   3   4
HETATM    4  C2  UNL     1     -32.166   8.904   1.714  1.00 20.00    -0.093 C 
HETATM    5  C1  UNL     1     -32.876  10.043   1.712  1.00 20.00     0.014 C 
HETATM    6  C3  UNL     1     -31.383   8.470   0.509  1.00 20.00     0.042 C 
ENDBRANCH   3   4
ENDBRANCH   2   3
BRANCH   2   7
HETATM    7  C7  UNL     1     -34.049   6.385   3.013  1.00 20.00     0.035 C 
BRANCH   7   8
HETATM    8  C9  UNL     1     -33.385   5.095   3.514  1.00 20.00     0.114 C 
HETATM    9  C5  UNL     1     -34.370   4.245   4.306  1.00 20.00     0.039 C 
BRANCH   8  10
HETATM   10  O10 UNL     1     -32.921   4.342   2.398  1.00 20.00    -0.396 OA
HETATM   11  H28 UNL     1     -33.682   4.221   1.810  1.00 20.00     0.210 HD
ENDBRANCH   8  10
ENDBRANCH   7   8
ENDBRANCH   2   7
TORSDOF 5
ENDMDL
