MODEL 1
REMARK VINA RESULT:      -5.4      0.000      0.000
REMARK  2 active torsions:
REMARK  status: ('A' for Active; 'I' for Inactive)
REMARK    1  A    between atoms: C9_9  and  C10_10 
REMARK    2  A    between atoms: C9_9  and  N12_12 
ROOT
HETATM    1  C1  UNL     1     -33.064   9.262  -0.053  1.00 20.00     0.065 C 
HETATM    2  C8  UNL     1     -32.678  10.857   1.792  1.00 20.00     0.027 C 
HETATM    3  C10 UNL     1     -32.794   9.385   1.394  1.00 20.00     0.114 C 
HETATM    4  N11 UNL     1     -33.276   9.164  -1.189  1.00 20.00    -0.197 NA
ENDROOT
BRANCH   3   5
HETATM    5  C9  UNL     1     -31.574   8.560   1.812  1.00 20.00     0.253 C 
BRANCH   5   6
HETATM    6  N12 UNL     1     -31.932   7.493   2.796  1.00 20.00    -0.069 N 
HETATM    7  C2  UNL     1     -32.129   7.993   4.216  1.00 20.00     0.239 C 
HETATM    8  C4  UNL     1     -33.548   7.566   4.586  1.00 20.00     0.012 C 
HETATM    9  C5  UNL     1     -33.757   6.298   3.756  1.00 20.00     0.012 C 
HETATM   10  C6  UNL     1     -33.716   7.363   6.084  1.00 20.00     0.012 C 
HETATM   11  C3  UNL     1     -33.165   6.700   2.413  1.00 20.00     0.239 C 
HETATM   12  C7  UNL     1     -35.211   5.867   3.640  1.00 20.00     0.012 C 
HETATM   13  H31 UNL     1     -31.144   6.829   2.820  1.00 20.00     0.280 HD
ENDBRANCH   5   6
ENDBRANCH   3   5
TORSDOF 2
ENDMDL
MODEL 2
REMARK VINA RESULT:      -4.7     10.107     10.950
REMARK  2 active torsions:
REMARK  status: ('A' for Active; 'I' for Inactive)
REMARK    1  A    between atoms: C9_9  and  C10_10 
REMARK    2  A    between atoms: C9_9  and  N12_12 
ROOT
HETATM    1  C1  UNL     1     -35.594  13.896  -5.720  1.00 20.00     0.065 C 
HETATM    2  C8  UNL     1     -33.916  15.111  -7.063  1.00 20.00     0.027 C 
HETATM    3  C10 UNL     1     -35.293  15.171  -6.401  1.00 20.00     0.114 C 
HETATM    4  N11 UNL     1     -35.831  12.894  -5.185  1.00 20.00    -0.197 NA
ENDROOT
BRANCH   3   5
HETATM    5  C9  UNL     1     -35.445  16.365  -5.455  1.00 20.00     0.253 C 
BRANCH   5   6
HETATM    6  N12 UNL     1     -34.923  16.063  -4.086  1.00 20.00    -0.069 N 
HETATM    7  C2  UNL     1     -33.640  16.795  -3.731  1.00 20.00     0.239 C 
HETATM    8  C4  UNL     1     -33.975  17.574  -2.462  1.00 20.00     0.012 C 
HETATM    9  C5  UNL     1     -35.048  16.711  -1.796  1.00 20.00     0.012 C 
HETATM   10  C6  UNL     1     -32.749  17.818  -1.596  1.00 20.00     0.012 C 
HETATM   11  C3  UNL     1     -35.923  16.329  -2.981  1.00 20.00     0.239 C 
HETATM   12  C7  UNL     1     -35.831  17.427  -0.707  1.00 20.00     0.012 C 
HETATM   13  H31 UNL     1     -34.708  15.056  -4.062  1.00 20.00     0.280 HD
ENDBRANCH   5   6
ENDBRANCH   3   5
TORSDOF 2
ENDMDL
MODEL 3
REMARK VINA RESULT:      -4.7      1.378      2.400
REMARK  2 active torsions:
REMARK  status: ('A' for Active; 'I' for Inactive)
REMARK    1  A    between atoms: C9_9  and  C10_10 
REMARK    2  A    between atoms: C9_9  and  N12_12 
ROOT
HETATM    1  C1  UNL     1     -32.455  10.399   1.339  1.00 20.00     0.065 C 
HETATM    2  C8  UNL     1     -33.015   8.813  -0.468  1.00 20.00     0.027 C 
HETATM    3  C10 UNL     1     -32.031   9.165   0.648  1.00 20.00     0.114 C 
HETATM    4  N11 UNL     1     -32.787  11.369   1.882  1.00 20.00    -0.197 NA
ENDROOT
BRANCH   3   5
HETATM    5  C9  UNL     1     -31.816   8.013   1.634  1.00 20.00     0.253 C 
BRANCH   5   6
HETATM    6  N12 UNL     1     -33.065   7.680   2.385  1.00 20.00    -0.069 N 
HETATM    7  C2  UNL     1     -33.414   6.201   2.393  1.00 20.00     0.239 C 
HETATM    8  C4  UNL     1     -33.488   5.826   3.871  1.00 20.00     0.012 C 
HETATM    9  C5  UNL     1     -33.923   7.132   4.540  1.00 20.00     0.012 C 
HETATM   10  C6  UNL     1     -34.426   4.657   4.122  1.00 20.00     0.012 C 
HETATM   11  C3  UNL     1     -33.056   8.156   3.823  1.00 20.00     0.239 C 
HETATM   12  C7  UNL     1     -33.715   7.154   6.047  1.00 20.00     0.012 C 
HETATM   13  H31 UNL     1     -33.840   8.167   1.912  1.00 20.00     0.280 HD
ENDBRANCH   5   6
ENDBRANCH   3   5
TORSDOF 2
ENDMDL
MODEL 4
REMARK VINA RESULT:      -4.6      9.896     10.585
REMARK  2 active torsions:
REMARK  status: ('A' for Active; 'I' for Inactive)
REMARK    1  A    between atoms: C9_9  and  C10_10 
REMARK    2  A    between atoms: C9_9  and  N12_12 
ROOT
HETATM    1  C1  UNL     1     -35.386  13.908  -5.137  1.00 20.00     0.065 C 
HETATM    2  C8  UNL     1     -33.755  15.448  -6.168  1.00 20.00     0.027 C 
HETATM    3  C10 UNL     1     -34.729  15.225  -5.011  1.00 20.00     0.114 C 
HETATM    4  N11 UNL     1     -35.903  12.874  -5.235  1.00 20.00    -0.197 NA
ENDROOT
BRANCH   3   5
HETATM    5  C9  UNL     1     -34.071  15.397  -3.640  1.00 20.00     0.253 C 
BRANCH   5   6
HETATM    6  N12 UNL     1     -34.404  16.718  -3.023  1.00 20.00    -0.069 N 
HETATM    7  C2  UNL     1     -35.588  16.683  -2.072  1.00 20.00     0.239 C 
HETATM    8  C4  UNL     1     -35.040  17.207  -0.747  1.00 20.00     0.012 C 
HETATM    9  C5  UNL     1     -33.921  18.156  -1.184  1.00 20.00     0.012 C 
HETATM   10  C6  UNL     1     -36.116  17.866   0.101  1.00 20.00     0.012 C 
HETATM   11  C3  UNL     1     -33.243  17.355  -2.286  1.00 20.00     0.239 C 
HETATM   12  C7  UNL     1     -32.958  18.532  -0.069  1.00 20.00     0.012 C 
HETATM   13  H31 UNL     1     -34.657  17.355  -3.792  1.00 20.00     0.280 HD
ENDBRANCH   5   6
ENDBRANCH   3   5
TORSDOF 2
ENDMDL
MODEL 5
REMARK VINA RESULT:      -4.4      9.450     10.734
REMARK  2 active torsions:
REMARK  status: ('A' for Active; 'I' for Inactive)
REMARK    1  A    between atoms: C9_9  and  C10_10 
REMARK    2  A    between atoms: C9_9  and  N12_12 
ROOT
HETATM    1  C1  UNL     1     -33.590  14.179  -4.245  1.00 20.00     0.065 C 
HETATM    2  C8  UNL     1     -35.901  13.789  -5.023  1.00 20.00     0.027 C 
HETATM    3  C10 UNL     1     -34.952  14.747  -4.302  1.00 20.00     0.114 C 
HETATM    4  N11 UNL     1     -32.520  13.733  -4.199  1.00 20.00    -0.197 NA
ENDROOT
BRANCH   3   5
HETATM    5  C9  UNL     1     -34.951  16.151  -4.912  1.00 20.00     0.253 C 
BRANCH   5   6
HETATM    6  N12 UNL     1     -35.012  17.216  -3.864  1.00 20.00    -0.069 N 
HETATM    7  C2  UNL     1     -35.803  16.829  -2.626  1.00 20.00     0.239 C 
HETATM    8  C4  UNL     1     -34.821  16.993  -1.469  1.00 20.00     0.012 C 
HETATM    9  C5  UNL     1     -33.888  18.103  -1.958  1.00 20.00     0.012 C 
HETATM   10  C6  UNL     1     -35.523  17.305  -0.157  1.00 20.00     0.012 C 
HETATM   11  C3  UNL     1     -33.651  17.698  -3.406  1.00 20.00     0.239 C 
HETATM   12  C7  UNL     1     -32.592  18.215  -1.171  1.00 20.00     0.012 C 
HETATM   13  H31 UNL     1     -35.492  18.025  -4.284  1.00 20.00     0.280 HD
ENDBRANCH   5   6
ENDBRANCH   3   5
TORSDOF 2
ENDMDL
MODEL 6
REMARK VINA RESULT:      -4.3      9.748     10.701
REMARK  2 active torsions:
REMARK  status: ('A' for Active; 'I' for Inactive)
REMARK    1  A    between atoms: C9_9  and  C10_10 
REMARK    2  A    between atoms: C9_9  and  N12_12 
ROOT
HETATM    1  C1  UNL     1     -36.929  14.931  -4.535  1.00 20.00     0.065 C 
HETATM    2  C8  UNL     1     -34.615  14.157  -4.160  1.00 20.00     0.027 C 
HETATM    3  C10 UNL     1     -35.503  15.280  -4.696  1.00 20.00     0.114 C 
HETATM    4  N11 UNL     1     -38.049  14.658  -4.410  1.00 20.00    -0.197 NA
ENDROOT
BRANCH   3   5
HETATM    5  C9  UNL     1     -35.182  16.640  -4.071  1.00 20.00     0.253 C 
BRANCH   5   6
HETATM    6  N12 UNL     1     -34.629  16.503  -2.688  1.00 20.00    -0.069 N 
HETATM    7  C2  UNL     1     -33.320  17.239  -2.462  1.00 20.00     0.239 C 
HETATM    8  C4  UNL     1     -33.601  18.184  -1.297  1.00 20.00     0.012 C 
HETATM    9  C5  UNL     1     -34.675  17.443  -0.499  1.00 20.00     0.012 C 
HETATM   10  C6  UNL     1     -32.346  18.504  -0.500  1.00 20.00     0.012 C 
HETATM   11  C3  UNL     1     -35.592  16.936  -1.602  1.00 20.00     0.239 C 
HETATM   12  C7  UNL     1     -35.411  18.315   0.508  1.00 20.00     0.012 C 
HETATM   13  H31 UNL     1     -34.438  15.502  -2.538  1.00 20.00     0.280 HD
ENDBRANCH   5   6
ENDBRANCH   3   5
TORSDOF 2
ENDMDL
MODEL 7
REMARK VINA RESULT:      -4.3      1.420      1.775
REMARK  2 active torsions:
REMARK  status: ('A' for Active; 'I' for Inactive)
REMARK    1  A    between atoms: C9_9  and  C10_10 
REMARK    2  A    between atoms: C9_9  and  N12_12 
ROOT
HETATM    1  C1  UNL     1     -32.433   9.976   1.426  1.00 20.00     0.065 C 
HETATM    2  C8  UNL     1     -30.966   8.498   0.101  1.00 20.00     0.027 C 
HETATM    3  C10 UNL     1     -31.802   8.643   1.372  1.00 20.00     0.114 C 
HETATM    4  N11 UNL     1     -32.929  11.024   1.470  1.00 20.00    -0.197 NA
ENDROOT
BRANCH   3   5
HETATM    5  C9  UNL     1     -32.835   7.524   1.533  1.00 20.00     0.253 C 
BRANCH   5   6
HETATM    6  N12 UNL     1     -32.660   6.783   2.820  1.00 20.00    -0.069 N 
HETATM    7  C2  UNL     1     -32.868   7.631   4.063  1.00 20.00     0.239 C 
HETATM    8  C4  UNL     1     -33.976   6.922   4.837  1.00 20.00     0.012 C 
HETATM    9  C5  UNL     1     -33.794   5.456   4.442  1.00 20.00     0.012 C 
HETATM   10  C6  UNL     1     -33.888   7.178   6.333  1.00 20.00     0.012 C 
HETATM   11  C3  UNL     1     -33.547   5.562   2.945  1.00 20.00     0.239 C 
HETATM   12  C7  UNL     1     -34.989   4.573   4.769  1.00 20.00     0.012 C 
HETATM   13  H31 UNL     1     -31.685   6.450   2.845  1.00 20.00     0.280 HD
ENDBRANCH   5   6
ENDBRANCH   3   5
TORSDOF 2
ENDMDL
MODEL 8
REMARK VINA RESULT:      -4.3     10.051     11.078
REMARK  2 active torsions:
REMARK  status: ('A' for Active; 'I' for Inactive)
REMARK    1  A    between atoms: C9_9  and  C10_10 
REMARK    2  A    between atoms: C9_9  and  N12_12 
ROOT
HETATM    1  C1  UNL     1     -34.914  17.384  -1.024  1.00 20.00     0.065 C 
HETATM    2  C8  UNL     1     -32.594  18.212  -1.184  1.00 20.00     0.027 C 
HETATM    3  C10 UNL     1     -33.623  17.218  -1.721  1.00 20.00     0.114 C 
HETATM    4  N11 UNL     1     -35.929  17.513  -0.477  1.00 20.00    -0.197 NA
ENDROOT
BRANCH   3   5
HETATM    5  C9  UNL     1     -33.789  17.299  -3.241  1.00 20.00     0.253 C 
BRANCH   5   6
HETATM    6  N12 UNL     1     -33.634  15.961  -3.892  1.00 20.00    -0.069 N 
HETATM    7  C2  UNL     1     -34.860  15.070  -3.787  1.00 20.00     0.239 C 
HETATM    8  C4  UNL     1     -35.225  14.739  -5.232  1.00 20.00     0.012 C 
HETATM    9  C5  UNL     1     -33.876  14.788  -5.952  1.00 20.00     0.012 C 
HETATM   10  C6  UNL     1     -35.945  13.405  -5.353  1.00 20.00     0.012 C 
HETATM   11  C3  UNL     1     -33.246  16.037  -5.354  1.00 20.00     0.239 C 
HETATM   12  C7  UNL     1     -33.985  14.866  -7.467  1.00 20.00     0.012 C 
HETATM   13  H31 UNL     1     -32.869  15.475  -3.403  1.00 20.00     0.280 HD
ENDBRANCH   5   6
ENDBRANCH   3   5
TORSDOF 2
ENDMDL
MODEL 9
REMARK VINA RESULT:      -4.3     10.063     11.343
REMARK  2 active torsions:
REMARK  status: ('A' for Active; 'I' for Inactive)
REMARK    1  A    between atoms: C9_9  and  C10_10 
REMARK    2  A    between atoms: C9_9  and  N12_12 
ROOT
HETATM    1  C1  UNL     1     -35.253  13.764  -5.741  1.00 20.00     0.065 C 
HETATM    2  C8  UNL     1     -34.113  14.584  -7.771  1.00 20.00     0.027 C 
HETATM    3  C10 UNL     1     -34.508  14.895  -6.327  1.00 20.00     0.114 C 
HETATM    4  N11 UNL     1     -35.840  12.876  -5.279  1.00 20.00    -0.197 NA
ENDROOT
BRANCH   3   5
HETATM    5  C9  UNL     1     -33.311  15.292  -5.458  1.00 20.00     0.253 C 
BRANCH   5   6
HETATM    6  N12 UNL     1     -33.595  16.510  -4.638  1.00 20.00    -0.069 N 
HETATM    7  C2  UNL     1     -34.856  17.254  -5.041  1.00 20.00     0.239 C 
HETATM    8  C4  UNL     1     -35.707  17.293  -3.774  1.00 20.00     0.012 C 
HETATM    9  C5  UNL     1     -34.664  17.284  -2.655  1.00 20.00     0.012 C 
HETATM   10  C6  UNL     1     -36.640  18.492  -3.744  1.00 20.00     0.012 C 
HETATM   11  C3  UNL     1     -33.679  16.237  -3.151  1.00 20.00     0.239 C 
HETATM   12  C7  UNL     1     -35.229  16.942  -1.285  1.00 20.00     0.012 C 
HETATM   13  H31 UNL     1     -32.807  17.159  -4.781  1.00 20.00     0.280 HD
ENDBRANCH   5   6
ENDBRANCH   3   5
TORSDOF 2
ENDMDL
