MODEL 1
REMARK VINA RESULT:      -5.2      0.000      0.000
REMARK  2 active torsions:
REMARK  status: ('A' for Active; 'I' for Inactive)
REMARK    1  A    between atoms: C1_1  and  C7_7 
REMARK    2  A    between atoms: C7_7  and  O11_11 
ROOT
HETATM    1  C3  UNL     1     -34.206   4.071   4.494  1.00 20.00     0.029 C 
HETATM    2  C4  UNL     1     -33.603   4.861   3.333  1.00 20.00     0.046 C 
HETATM    3  C5  UNL     1     -34.038   4.833   5.799  1.00 20.00     0.167 C 
HETATM    4  C6  UNL     1     -34.003   6.941   4.706  1.00 20.00     0.209 C 
HETATM    5  C7  UNL     1     -34.122   6.306   3.316  1.00 20.00     0.097 C 
HETATM    6  O10 UNL     1     -34.628   6.127   5.704  1.00 20.00    -0.388 OA
ENDROOT
BRANCH   5   7
HETATM    7  C1  UNL     1     -33.394   7.134   2.300  1.00 20.00     0.015 C 
HETATM    8  C2  UNL     1     -32.303   7.900   2.490  1.00 20.00    -0.088 C 
HETATM    9  C8  UNL     1     -31.689   8.674   1.357  1.00 20.00     0.042 C 
HETATM   10  C9  UNL     1     -31.612   8.055   3.815  1.00 20.00     0.042 C 
ENDBRANCH   5   7
BRANCH   5  11
HETATM   11  O11 UNL     1     -35.510   6.292   2.968  1.00 20.00    -0.384 OA
HETATM   12  H27 UNL     1     -35.988   6.006   3.762  1.00 20.00     0.211 HD
ENDBRANCH   5  11
TORSDOF 2
ENDMDL
MODEL 2
REMARK VINA RESULT:      -4.9      1.638      2.352
REMARK  2 active torsions:
REMARK  status: ('A' for Active; 'I' for Inactive)
REMARK    1  A    between atoms: C1_1  and  C7_7 
REMARK    2  A    between atoms: C7_7  and  O11_11 
ROOT
HETATM    1  C3  UNL     1     -34.139   6.046   5.372  1.00 20.00     0.029 C 
HETATM    2  C4  UNL     1     -34.112   7.394   4.653  1.00 20.00     0.046 C 
HETATM    3  C5  UNL     1     -34.547   4.940   4.411  1.00 20.00     0.167 C 
HETATM    4  C6  UNL     1     -33.708   6.106   2.520  1.00 20.00     0.209 C 
HETATM    5  C7  UNL     1     -33.286   7.317   3.360  1.00 20.00     0.097 C 
HETATM    6  O10 UNL     1     -33.667   4.901   3.291  1.00 20.00    -0.388 OA
ENDROOT
BRANCH   5   7
HETATM    7  C1  UNL     1     -33.412   8.578   2.558  1.00 20.00     0.015 C 
HETATM    8  C2  UNL     1     -32.581   9.031   1.600  1.00 20.00    -0.088 C 
HETATM    9  C8  UNL     1     -32.851  10.325   0.884  1.00 20.00     0.042 C 
HETATM   10  C9  UNL     1     -31.338   8.309   1.163  1.00 20.00     0.042 C 
ENDBRANCH   5   7
BRANCH   5  11
HETATM   11  O11 UNL     1     -31.909   7.142   3.704  1.00 20.00    -0.384 OA
HETATM   12  H27 UNL     1     -31.508   8.025   3.683  1.00 20.00     0.211 HD
ENDBRANCH   5  11
TORSDOF 2
ENDMDL
MODEL 3
REMARK VINA RESULT:      -4.9     11.555     12.534
REMARK  2 active torsions:
REMARK  status: ('A' for Active; 'I' for Inactive)
REMARK    1  A    between atoms: C1_1  and  C7_7 
REMARK    2  A    between atoms: C7_7  and  O11_11 
ROOT
HETATM    1  C3  UNL     1     -35.622  13.348  -5.921  1.00 20.00     0.029 C 
HETATM    2  C4  UNL     1     -35.280  14.021  -4.592  1.00 20.00     0.046 C 
HETATM    3  C5  UNL     1     -35.522  14.347  -7.063  1.00 20.00     0.167 C 
HETATM    4  C6  UNL     1     -33.914  15.673  -5.926  1.00 20.00     0.209 C 
HETATM    5  C7  UNL     1     -33.947  14.779  -4.681  1.00 20.00     0.097 C 
HETATM    6  O10 UNL     1     -34.222  14.928  -7.108  1.00 20.00    -0.388 OA
ENDROOT
BRANCH   5   7
HETATM    7  C1  UNL     1     -33.700  15.594  -3.446  1.00 20.00     0.015 C 
HETATM    8  C2  UNL     1     -34.589  16.336  -2.759  1.00 20.00    -0.088 C 
HETATM    9  C8  UNL     1     -34.178  17.099  -1.530  1.00 20.00     0.042 C 
HETATM   10  C9  UNL     1     -36.035  16.474  -3.140  1.00 20.00     0.042 C 
ENDBRANCH   5   7
BRANCH   5  11
HETATM   11  O11 UNL     1     -32.885  13.829  -4.808  1.00 20.00    -0.384 OA
HETATM   12  H27 UNL     1     -33.305  12.960  -4.900  1.00 20.00     0.211 HD
ENDBRANCH   5  11
TORSDOF 2
ENDMDL
MODEL 4
REMARK VINA RESULT:      -4.9     11.488     12.533
REMARK  2 active torsions:
REMARK  status: ('A' for Active; 'I' for Inactive)
REMARK    1  A    between atoms: C1_1  and  C7_7 
REMARK    2  A    between atoms: C7_7  and  O11_11 
ROOT
HETATM    1  C3  UNL     1     -36.252  14.428  -7.440  1.00 20.00     0.029 C 
HETATM    2  C4  UNL     1     -36.346  15.369  -6.240  1.00 20.00     0.046 C 
HETATM    3  C5  UNL     1     -35.198  13.359  -7.196  1.00 20.00     0.167 C 
HETATM    4  C6  UNL     1     -35.461  13.465  -4.839  1.00 20.00     0.209 C 
HETATM    5  C7  UNL     1     -36.505  14.583  -4.930  1.00 20.00     0.097 C 
HETATM    6  O10 UNL     1     -35.487  12.634  -6.004  1.00 20.00    -0.388 OA
ENDROOT
BRANCH   5   7
HETATM    7  C1  UNL     1     -36.408  15.487  -3.737  1.00 20.00     0.015 C 
HETATM    8  C2  UNL     1     -35.296  16.020  -3.196  1.00 20.00    -0.088 C 
HETATM    9  C8  UNL     1     -35.370  16.915  -1.991  1.00 20.00     0.042 C 
HETATM   10  C9  UNL     1     -33.911  15.780  -3.727  1.00 20.00     0.042 C 
ENDBRANCH   5   7
BRANCH   5  11
HETATM   11  O11 UNL     1     -37.796  13.966  -4.918  1.00 20.00    -0.384 OA
HETATM   12  H27 UNL     1     -38.420  14.630  -5.248  1.00 20.00     0.211 HD
ENDBRANCH   5  11
TORSDOF 2
ENDMDL
MODEL 5
REMARK VINA RESULT:      -4.6     11.475     12.656
REMARK  2 active torsions:
REMARK  status: ('A' for Active; 'I' for Inactive)
REMARK    1  A    between atoms: C1_1  and  C7_7 
REMARK    2  A    between atoms: C7_7  and  O11_11 
ROOT
HETATM    1  C3  UNL     1     -34.289  15.038  -7.038  1.00 20.00     0.029 C 
HETATM    2  C4  UNL     1     -33.627  15.950  -6.006  1.00 20.00     0.046 C 
HETATM    3  C5  UNL     1     -34.398  13.620  -6.500  1.00 20.00     0.167 C 
HETATM    4  C6  UNL     1     -34.462  14.349  -4.242  1.00 20.00     0.209 C 
HETATM    5  C7  UNL     1     -34.307  15.823  -4.635  1.00 20.00     0.097 C 
HETATM    6  O10 UNL     1     -35.119  13.604  -5.271  1.00 20.00    -0.388 OA
ENDROOT
BRANCH   5   7
HETATM    7  C1  UNL     1     -33.547  16.568  -3.579  1.00 20.00     0.015 C 
HETATM    8  C2  UNL     1     -33.984  16.949  -2.363  1.00 20.00    -0.088 C 
HETATM    9  C8  UNL     1     -33.090  17.696  -1.413  1.00 20.00     0.042 C 
HETATM   10  C9  UNL     1     -35.370  16.674  -1.849  1.00 20.00     0.042 C 
ENDBRANCH   5   7
BRANCH   5  11
HETATM   11  O11 UNL     1     -35.621  16.384  -4.719  1.00 20.00    -0.384 OA
HETATM   12  H27 UNL     1     -36.240  15.657  -4.552  1.00 20.00     0.211 HD
ENDBRANCH   5  11
TORSDOF 2
ENDMDL
MODEL 6
REMARK VINA RESULT:      -4.6     11.963     12.542
REMARK  2 active torsions:
REMARK  status: ('A' for Active; 'I' for Inactive)
REMARK    1  A    between atoms: C1_1  and  C7_7 
REMARK    2  A    between atoms: C7_7  and  O11_11 
ROOT
HETATM    1  C3  UNL     1     -33.234  15.125  -4.927  1.00 20.00     0.029 C 
HETATM    2  C4  UNL     1     -33.647  15.581  -3.528  1.00 20.00     0.046 C 
HETATM    3  C5  UNL     1     -34.366  14.356  -5.590  1.00 20.00     0.167 C 
HETATM    4  C6  UNL     1     -36.034  15.495  -4.342  1.00 20.00     0.209 C 
HETATM    5  C7  UNL     1     -34.999  16.308  -3.558  1.00 20.00     0.097 C 
HETATM    6  O10 UNL     1     -35.547  15.152  -5.643  1.00 20.00    -0.388 OA
ENDROOT
BRANCH   5   7
HETATM    7  C1  UNL     1     -35.497  16.590  -2.172  1.00 20.00     0.015 C 
HETATM    8  C2  UNL     1     -34.852  17.235  -1.180  1.00 20.00    -0.088 C 
HETATM    9  C8  UNL     1     -35.496  17.436   0.163  1.00 20.00     0.042 C 
HETATM   10  C9  UNL     1     -33.466  17.799  -1.313  1.00 20.00     0.042 C 
ENDBRANCH   5   7
BRANCH   5  11
HETATM   11  O11 UNL     1     -34.834  17.558  -4.235  1.00 20.00    -0.384 OA
HETATM   12  H27 UNL     1     -35.713  17.962  -4.282  1.00 20.00     0.211 HD
ENDBRANCH   5  11
TORSDOF 2
ENDMDL
MODEL 7
REMARK VINA RESULT:      -4.3     12.087     12.877
REMARK  2 active torsions:
REMARK  status: ('A' for Active; 'I' for Inactive)
REMARK    1  A    between atoms: C1_1  and  C7_7 
REMARK    2  A    between atoms: C7_7  and  O11_11 
ROOT
HETATM    1  C3  UNL     1     -34.751  14.596  -4.694  1.00 20.00     0.029 C 
HETATM    2  C4  UNL     1     -33.990  15.351  -3.605  1.00 20.00     0.046 C 
HETATM    3  C5  UNL     1     -36.099  15.251  -4.952  1.00 20.00     0.167 C 
HETATM    4  C6  UNL     1     -35.329  17.388  -4.260  1.00 20.00     0.209 C 
HETATM    5  C7  UNL     1     -33.936  16.856  -3.909  1.00 20.00     0.097 C 
HETATM    6  O10 UNL     1     -35.929  16.621  -5.308  1.00 20.00    -0.388 OA
ENDROOT
BRANCH   5   7
HETATM    7  C1  UNL     1     -33.358  17.623  -2.757  1.00 20.00     0.015 C 
HETATM    8  C2  UNL     1     -33.833  17.701  -1.499  1.00 20.00    -0.088 C 
HETATM    9  C8  UNL     1     -33.130  18.519  -0.452  1.00 20.00     0.042 C 
HETATM   10  C9  UNL     1     -35.076  17.000  -1.030  1.00 20.00     0.042 C 
ENDBRANCH   5   7
BRANCH   5  11
HETATM   11  O11 UNL     1     -33.097  17.066  -5.049  1.00 20.00    -0.384 OA
HETATM   12  H27 UNL     1     -32.275  16.581  -4.877  1.00 20.00     0.211 HD
ENDBRANCH   5  11
TORSDOF 2
ENDMDL
MODEL 8
REMARK VINA RESULT:      -4.3      2.180      4.577
REMARK  2 active torsions:
REMARK  status: ('A' for Active; 'I' for Inactive)
REMARK    1  A    between atoms: C1_1  and  C7_7 
REMARK    2  A    between atoms: C7_7  and  O11_11 
ROOT
HETATM    1  C3  UNL     1     -31.383   8.770   0.685  1.00 20.00     0.029 C 
HETATM    2  C4  UNL     1     -32.009   7.535   1.331  1.00 20.00     0.046 C 
HETATM    3  C5  UNL     1     -32.393   9.906   0.621  1.00 20.00     0.167 C 
HETATM    4  C6  UNL     1     -33.590   9.110   2.510  1.00 20.00     0.209 C 
HETATM    5  C7  UNL     1     -32.679   7.888   2.668  1.00 20.00     0.097 C 
HETATM    6  O10 UNL     1     -32.888  10.209   1.922  1.00 20.00    -0.388 OA
ENDROOT
BRANCH   5   7
HETATM    7  C1  UNL     1     -33.454   6.725   3.211  1.00 20.00     0.015 C 
HETATM    8  C2  UNL     1     -33.877   6.536   4.476  1.00 20.00    -0.088 C 
HETATM    9  C8  UNL     1     -34.650   5.305   4.862  1.00 20.00     0.042 C 
HETATM   10  C9  UNL     1     -33.625   7.506   5.595  1.00 20.00     0.042 C 
ENDBRANCH   5   7
BRANCH   5  11
HETATM   11  O11 UNL     1     -31.663   8.229   3.616  1.00 20.00    -0.384 OA
HETATM   12  H27 UNL     1     -31.976   7.914   4.477  1.00 20.00     0.211 HD
ENDBRANCH   5  11
TORSDOF 2
ENDMDL
MODEL 9
REMARK VINA RESULT:      -4.2     11.313     12.842
REMARK  2 active torsions:
REMARK  status: ('A' for Active; 'I' for Inactive)
REMARK    1  A    between atoms: C1_1  and  C7_7 
REMARK    2  A    between atoms: C7_7  and  O11_11 
ROOT
HETATM    1  C3  UNL     1     -33.344  15.461  -6.326  1.00 20.00     0.029 C 
HETATM    2  C4  UNL     1     -34.863  15.366  -6.472  1.00 20.00     0.046 C 
HETATM    3  C5  UNL     1     -32.937  15.255  -4.875  1.00 20.00     0.167 C 
HETATM    4  C6  UNL     1     -34.845  13.925  -4.399  1.00 20.00     0.209 C 
HETATM    5  C7  UNL     1     -35.404  14.087  -5.817  1.00 20.00     0.097 C 
HETATM    6  O10 UNL     1     -33.416  14.002  -4.393  1.00 20.00    -0.388 OA
ENDROOT
BRANCH   5   7
HETATM    7  C1  UNL     1     -36.904  14.081  -5.791  1.00 20.00     0.015 C 
HETATM    8  C2  UNL     1     -37.718  14.886  -5.082  1.00 20.00    -0.088 C 
HETATM    9  C8  UNL     1     -39.213  14.751  -5.169  1.00 20.00     0.042 C 
HETATM   10  C9  UNL     1     -37.229  15.965  -4.158  1.00 20.00     0.042 C 
ENDBRANCH   5   7
BRANCH   5  11
HETATM   11  O11 UNL     1     -34.968  12.959  -6.582  1.00 20.00    -0.384 OA
HETATM   12  H27 UNL     1     -34.819  13.281  -7.484  1.00 20.00     0.211 HD
ENDBRANCH   5  11
TORSDOF 2
ENDMDL
