MODEL 1
REMARK VINA RESULT:      -5.2      0.000      0.000
REMARK  3 active torsions:
REMARK  status: ('A' for Active; 'I' for Inactive)
REMARK    1  A    between atoms: C2_2  and  C7_7 
REMARK    2  A    between atoms: C5_5  and  C7_7 
REMARK    3  A    between atoms: C7_7  and  O8_8 
ROOT
HETATM    1  C7  UNL     1     -33.942   6.982   3.614  1.00 20.00     0.150 C 
ENDROOT
BRANCH   1   2
HETATM    2  C2  UNL     1     -34.057   6.546   5.057  1.00 20.00    -0.064 C 
HETATM    3  C1  UNL     1     -33.684   7.361   6.058  1.00 20.00     0.016 C 
HETATM    4  C6  UNL     1     -34.607   5.176   5.342  1.00 20.00     0.045 C 
ENDBRANCH   1   2
BRANCH   1   5
HETATM    5  C5  UNL     1     -32.494   7.095   3.147  1.00 20.00     0.019 A 
HETATM    6  C3  UNL     1     -32.131   8.023   2.020  1.00 20.00     0.008 A 
HETATM    7  C4  UNL     1     -31.704   8.344   3.424  1.00 20.00     0.008 A 
ENDBRANCH   1   5
BRANCH   1   8
HETATM    8  O8  UNL     1     -34.631   6.047   2.787  1.00 20.00    -0.391 OA
HETATM    9  H20 UNL     1     -35.135   6.567   2.144  1.00 20.00     0.210 HD
ENDBRANCH   1   8
TORSDOF 3
ENDMDL
MODEL 2
REMARK VINA RESULT:      -5.1      0.876      1.651
REMARK  3 active torsions:
REMARK  status: ('A' for Active; 'I' for Inactive)
REMARK    1  A    between atoms: C2_2  and  C7_7 
REMARK    2  A    between atoms: C5_5  and  C7_7 
REMARK    3  A    between atoms: C7_7  and  O8_8 
ROOT
HETATM    1  C7  UNL     1     -33.746   6.487   3.306  1.00 20.00     0.150 C 
ENDROOT
BRANCH   1   2
HETATM    2  C2  UNL     1     -34.165   6.095   4.705  1.00 20.00    -0.064 C 
HETATM    3  C1  UNL     1     -34.722   4.898   4.950  1.00 20.00     0.016 C 
HETATM    4  C6  UNL     1     -33.934   7.080   5.817  1.00 20.00     0.045 C 
ENDBRANCH   1   2
BRANCH   1   5
HETATM    5  C5  UNL     1     -33.043   7.840   3.260  1.00 20.00     0.019 A 
HETATM    6  C3  UNL     1     -31.567   7.918   2.985  1.00 20.00     0.008 A 
HETATM    7  C4  UNL     1     -32.549   8.393   1.951  1.00 20.00     0.008 A 
ENDBRANCH   1   5
BRANCH   1   8
HETATM    8  O8  UNL     1     -32.876   5.486   2.782  1.00 20.00    -0.391 OA
HETATM    9  H20 UNL     1     -33.330   4.638   2.896  1.00 20.00     0.210 HD
ENDBRANCH   1   8
TORSDOF 3
ENDMDL
MODEL 3
REMARK VINA RESULT:      -4.9      1.996      2.895
REMARK  3 active torsions:
REMARK  status: ('A' for Active; 'I' for Inactive)
REMARK    1  A    between atoms: C2_2  and  C7_7 
REMARK    2  A    between atoms: C5_5  and  C7_7 
REMARK    3  A    between atoms: C7_7  and  O8_8 
ROOT
HETATM    1  C7  UNL     1     -32.172   7.785   2.539  1.00 20.00     0.150 C 
ENDROOT
BRANCH   1   2
HETATM    2  C2  UNL     1     -33.109   6.839   3.253  1.00 20.00    -0.064 C 
HETATM    3  C1  UNL     1     -33.451   5.660   2.707  1.00 20.00     0.016 C 
HETATM    4  C6  UNL     1     -33.645   7.250   4.597  1.00 20.00     0.045 C 
ENDBRANCH   1   2
BRANCH   1   5
HETATM    5  C5  UNL     1     -32.904   8.753   1.615  1.00 20.00     0.019 A 
HETATM    6  C3  UNL     1     -32.376  10.145   1.403  1.00 20.00     0.008 A 
HETATM    7  C4  UNL     1     -32.303   9.137   0.291  1.00 20.00     0.008 A 
ENDBRANCH   1   5
BRANCH   1   8
HETATM    8  O8  UNL     1     -31.432   8.527   3.506  1.00 20.00    -0.391 OA
HETATM    9  H20 UNL     1     -30.501   8.474   3.242  1.00 20.00     0.210 HD
ENDBRANCH   1   8
TORSDOF 3
ENDMDL
MODEL 4
REMARK VINA RESULT:      -4.9      0.761      3.359
REMARK  3 active torsions:
REMARK  status: ('A' for Active; 'I' for Inactive)
REMARK    1  A    between atoms: C2_2  and  C7_7 
REMARK    2  A    between atoms: C5_5  and  C7_7 
REMARK    3  A    between atoms: C7_7  and  O8_8 
ROOT
HETATM    1  C7  UNL     1     -33.090   6.623   3.396  1.00 20.00     0.150 C 
ENDROOT
BRANCH   1   2
HETATM    2  C2  UNL     1     -32.329   7.827   2.892  1.00 20.00    -0.064 C 
HETATM    3  C1  UNL     1     -31.299   8.336   3.588  1.00 20.00     0.016 C 
HETATM    4  C6  UNL     1     -32.751   8.437   1.584  1.00 20.00     0.045 C 
ENDBRANCH   1   2
BRANCH   1   5
HETATM    5  C5  UNL     1     -34.131   6.984   4.451  1.00 20.00     0.019 A 
HETATM    6  C3  UNL     1     -34.559   5.966   5.472  1.00 20.00     0.008 A 
HETATM    7  C4  UNL     1     -33.726   7.145   5.891  1.00 20.00     0.008 A 
ENDBRANCH   1   5
BRANCH   1   8
HETATM    8  O8  UNL     1     -33.737   5.985   2.296  1.00 20.00    -0.391 OA
HETATM    9  H20 UNL     1     -33.058   5.464   1.842  1.00 20.00     0.210 HD
ENDBRANCH   1   8
TORSDOF 3
ENDMDL
MODEL 5
REMARK VINA RESULT:      -4.8      1.576      3.817
REMARK  3 active torsions:
REMARK  status: ('A' for Active; 'I' for Inactive)
REMARK    1  A    between atoms: C2_2  and  C7_7 
REMARK    2  A    between atoms: C5_5  and  C7_7 
REMARK    3  A    between atoms: C7_7  and  O8_8 
ROOT
HETATM    1  C7  UNL     1     -33.540   7.262   4.450  1.00 20.00     0.150 C 
ENDROOT
BRANCH   1   2
HETATM    2  C2  UNL     1     -32.579   7.647   3.348  1.00 20.00    -0.064 C 
HETATM    3  C1  UNL     1     -32.840   7.342   2.065  1.00 20.00     0.016 C 
HETATM    4  C6  UNL     1     -31.326   8.387   3.725  1.00 20.00     0.045 C 
ENDBRANCH   1   2
BRANCH   1   5
HETATM    5  C5  UNL     1     -33.905   5.782   4.422  1.00 20.00     0.019 A 
HETATM    6  C3  UNL     1     -34.656   5.164   5.569  1.00 20.00     0.008 A 
HETATM    7  C4  UNL     1     -35.337   5.358   4.244  1.00 20.00     0.008 A 
ENDBRANCH   1   5
BRANCH   1   8
HETATM    8  O8  UNL     1     -32.954   7.579   5.711  1.00 20.00    -0.391 OA
HETATM    9  H20 UNL     1     -33.670   7.911   6.272  1.00 20.00     0.210 HD
ENDBRANCH   1   8
TORSDOF 3
ENDMDL
MODEL 6
REMARK VINA RESULT:      -4.8      1.582      3.644
REMARK  3 active torsions:
REMARK  status: ('A' for Active; 'I' for Inactive)
REMARK    1  A    between atoms: C2_2  and  C7_7 
REMARK    2  A    between atoms: C5_5  and  C7_7 
REMARK    3  A    between atoms: C7_7  and  O8_8 
ROOT
HETATM    1  C7  UNL     1     -33.517   7.300   4.474  1.00 20.00     0.150 C 
ENDROOT
BRANCH   1   2
HETATM    2  C2  UNL     1     -32.504   7.708   3.429  1.00 20.00    -0.064 C 
HETATM    3  C1  UNL     1     -31.371   8.343   3.774  1.00 20.00     0.016 C 
HETATM    4  C6  UNL     1     -32.796   7.378   1.991  1.00 20.00     0.045 C 
ENDBRANCH   1   2
BRANCH   1   5
HETATM    5  C5  UNL     1     -33.910   5.829   4.370  1.00 20.00     0.019 A 
HETATM    6  C3  UNL     1     -34.659   5.164   5.491  1.00 20.00     0.008 A 
HETATM    7  C4  UNL     1     -35.351   5.441   4.186  1.00 20.00     0.008 A 
ENDBRANCH   1   5
BRANCH   1   8
HETATM    8  O8  UNL     1     -32.978   7.552   5.770  1.00 20.00    -0.391 OA
HETATM    9  H20 UNL     1     -32.223   6.954   5.876  1.00 20.00     0.210 HD
ENDBRANCH   1   8
TORSDOF 3
ENDMDL
MODEL 7
REMARK VINA RESULT:      -4.6      1.586      2.032
REMARK  3 active torsions:
REMARK  status: ('A' for Active; 'I' for Inactive)
REMARK    1  A    between atoms: C2_2  and  C7_7 
REMARK    2  A    between atoms: C5_5  and  C7_7 
REMARK    3  A    between atoms: C7_7  and  O8_8 
ROOT
HETATM    1  C7  UNL     1     -33.407   6.803   4.882  1.00 20.00     0.150 C 
ENDROOT
BRANCH   1   2
HETATM    2  C2  UNL     1     -34.537   5.818   4.690  1.00 20.00    -0.064 C 
HETATM    3  C1  UNL     1     -35.442   5.985   3.712  1.00 20.00     0.016 C 
HETATM    4  C6  UNL     1     -34.617   4.639   5.621  1.00 20.00     0.045 C 
ENDBRANCH   1   2
BRANCH   1   5
HETATM    5  C5  UNL     1     -33.160   7.663   3.647  1.00 20.00     0.019 A 
HETATM    6  C3  UNL     1     -31.802   8.262   3.400  1.00 20.00     0.008 A 
HETATM    7  C4  UNL     1     -32.301   7.147   2.525  1.00 20.00     0.008 A 
ENDBRANCH   1   5
BRANCH   1   8
HETATM    8  O8  UNL     1     -33.709   7.648   5.991  1.00 20.00    -0.391 OA
HETATM    9  H20 UNL     1     -34.360   7.175   6.529  1.00 20.00     0.210 HD
ENDBRANCH   1   8
TORSDOF 3
ENDMDL
MODEL 8
REMARK VINA RESULT:      -4.5      2.096      4.254
REMARK  3 active torsions:
REMARK  status: ('A' for Active; 'I' for Inactive)
REMARK    1  A    between atoms: C2_2  and  C7_7 
REMARK    2  A    between atoms: C5_5  and  C7_7 
REMARK    3  A    between atoms: C7_7  and  O8_8 
ROOT
HETATM    1  C7  UNL     1     -32.587   8.288   2.691  1.00 20.00     0.150 C 
ENDROOT
BRANCH   1   2
HETATM    2  C2  UNL     1     -32.236   9.087   1.456  1.00 20.00    -0.064 C 
HETATM    3  C1  UNL     1     -31.376   8.606   0.543  1.00 20.00     0.016 C 
HETATM    4  C6  UNL     1     -32.880  10.433   1.274  1.00 20.00     0.045 C 
ENDBRANCH   1   2
BRANCH   1   5
HETATM    5  C5  UNL     1     -33.314   6.988   2.364  1.00 20.00     0.019 A 
HETATM    6  C3  UNL     1     -32.890   5.699   3.013  1.00 20.00     0.008 A 
HETATM    7  C4  UNL     1     -34.198   6.335   3.390  1.00 20.00     0.008 A 
ENDBRANCH   1   5
BRANCH   1   8
HETATM    8  O8  UNL     1     -31.392   7.992   3.411  1.00 20.00    -0.391 OA
HETATM    9  H20 UNL     1     -31.666   7.723   4.301  1.00 20.00     0.210 HD
ENDBRANCH   1   8
TORSDOF 3
ENDMDL
MODEL 9
REMARK VINA RESULT:      -3.8     11.179     12.217
REMARK  3 active torsions:
REMARK  status: ('A' for Active; 'I' for Inactive)
REMARK    1  A    between atoms: C2_2  and  C7_7 
REMARK    2  A    between atoms: C5_5  and  C7_7 
REMARK    3  A    between atoms: C7_7  and  O8_8 
ROOT
HETATM    1  C7  UNL     1     -35.411  14.026  -5.356  1.00 20.00     0.150 C 
ENDROOT
BRANCH   1   2
HETATM    2  C2  UNL     1     -34.520  14.680  -4.325  1.00 20.00    -0.064 C 
HETATM    3  C1  UNL     1     -35.024  15.530  -3.415  1.00 20.00     0.016 C 
HETATM    4  C6  UNL     1     -33.053  14.348  -4.341  1.00 20.00     0.045 C 
ENDBRANCH   1   2
BRANCH   1   5
HETATM    5  C5  UNL     1     -34.705  13.811  -6.692  1.00 20.00     0.019 A 
HETATM    6  C3  UNL     1     -35.491  13.396  -7.905  1.00 20.00     0.008 A 
HETATM    7  C4  UNL     1     -34.913  14.781  -7.822  1.00 20.00     0.008 A 
ENDBRANCH   1   5
BRANCH   1   8
HETATM    8  O8  UNL     1     -35.861  12.769  -4.854  1.00 20.00    -0.391 OA
HETATM    9  H20 UNL     1     -36.600  12.496  -5.417  1.00 20.00     0.210 HD
ENDBRANCH   1   8
TORSDOF 3
ENDMDL
