MODEL 1
REMARK VINA RESULT:      -6.1      0.000      0.000
REMARK  3 active torsions:
REMARK  status: ('A' for Active; 'I' for Inactive)
REMARK    1  A    between atoms: C2_2  and  C10_10 
REMARK    2  A    between atoms: C5_5  and  C10_10 
REMARK    3  A    between atoms: C7_7  and  O11_11 
ROOT
HETATM    1  C3  UNL     1     -33.263   7.477   5.260  1.00 20.00     0.008 C 
HETATM    2  C4  UNL     1     -34.329   6.471   5.700  1.00 20.00     0.032 C 
HETATM    3  C5  UNL     1     -33.285   7.455   3.729  1.00 20.00    -0.004 C 
HETATM    4  C6  UNL     1     -33.640   5.996   3.422  1.00 20.00     0.015 C 
HETATM    5  C7  UNL     1     -34.747   5.714   4.439  1.00 20.00     0.122 C 
HETATM    6  C9  UNL     1     -34.089   5.767   1.984  1.00 20.00     0.013 C 
ENDROOT
BRANCH   3   7
HETATM    7  C10 UNL     1     -31.967   7.914   3.123  1.00 20.00     0.038 C 
BRANCH   7   8
HETATM    8  C2  UNL     1     -32.156   8.809   1.922  1.00 20.00    -0.093 C 
HETATM    9  C1  UNL     1     -32.991   9.859   1.956  1.00 20.00     0.014 C 
HETATM   10  C8  UNL     1     -31.398   8.451   0.677  1.00 20.00     0.042 C 
ENDBRANCH   7   8
ENDBRANCH   3   7
BRANCH   5  11
HETATM   11  O11 UNL     1     -34.865   4.329   4.714  1.00 20.00    -0.395 OA
HETATM   12  H29 UNL     1     -34.380   4.160   5.540  1.00 20.00     0.210 HD
ENDBRANCH   5  11
TORSDOF 3
ENDMDL
MODEL 2
REMARK VINA RESULT:      -6.1      1.094      2.255
REMARK  3 active torsions:
REMARK  status: ('A' for Active; 'I' for Inactive)
REMARK    1  A    between atoms: C2_2  and  C10_10 
REMARK    2  A    between atoms: C5_5  and  C10_10 
REMARK    3  A    between atoms: C7_7  and  O11_11 
ROOT
HETATM    1  C3  UNL     1     -33.697   5.040   2.851  1.00 20.00     0.008 C 
HETATM    2  C4  UNL     1     -34.077   4.110   4.004  1.00 20.00     0.032 C 
HETATM    3  C5  UNL     1     -33.282   6.361   3.507  1.00 20.00    -0.004 C 
HETATM    4  C6  UNL     1     -34.194   6.421   4.738  1.00 20.00     0.015 C 
HETATM    5  C7  UNL     1     -34.126   4.984   5.259  1.00 20.00     0.122 C 
HETATM    6  C9  UNL     1     -33.750   7.444   5.776  1.00 20.00     0.013 C 
ENDROOT
BRANCH   3   7
HETATM    7  C10 UNL     1     -33.430   7.548   2.567  1.00 20.00     0.038 C 
BRANCH   7   8
HETATM    8  C2  UNL     1     -32.138   8.305   2.376  1.00 20.00    -0.093 C 
HETATM    9  C1  UNL     1     -31.215   8.373   3.348  1.00 20.00     0.014 C 
HETATM   10  C8  UNL     1     -31.947   9.011   1.065  1.00 20.00     0.042 C 
ENDBRANCH   7   8
ENDBRANCH   3   7
BRANCH   5  11
HETATM   11  O11 UNL     1     -35.261   4.656   6.042  1.00 20.00    -0.395 OA
HETATM   12  H29 UNL     1     -35.974   4.419   5.425  1.00 20.00     0.210 HD
ENDBRANCH   5  11
TORSDOF 3
ENDMDL
MODEL 3
REMARK VINA RESULT:      -5.5      0.855      2.298
REMARK  3 active torsions:
REMARK  status: ('A' for Active; 'I' for Inactive)
REMARK    1  A    between atoms: C2_2  and  C10_10 
REMARK    2  A    between atoms: C5_5  and  C10_10 
REMARK    3  A    between atoms: C7_7  and  O11_11 
ROOT
HETATM    1  C3  UNL     1     -32.936   6.576   2.110  1.00 20.00     0.008 C 
HETATM    2  C4  UNL     1     -33.909   5.485   2.560  1.00 20.00     0.032 C 
HETATM    3  C5  UNL     1     -32.482   7.279   3.393  1.00 20.00    -0.004 C 
HETATM    4  C6  UNL     1     -33.730   7.190   4.280  1.00 20.00     0.015 C 
HETATM    5  C7  UNL     1     -34.193   5.751   4.039  1.00 20.00     0.122 C 
HETATM    6  C9  UNL     1     -33.456   7.482   5.750  1.00 20.00     0.013 C 
ENDROOT
BRANCH   3   7
HETATM    7  C10 UNL     1     -32.002   8.699   3.139  1.00 20.00     0.038 C 
BRANCH   7   8
HETATM    8  C2  UNL     1     -32.127   9.108   1.691  1.00 20.00    -0.093 C 
HETATM    9  C1  UNL     1     -31.310   8.610   0.750  1.00 20.00     0.014 C 
HETATM   10  C8  UNL     1     -33.181  10.123   1.356  1.00 20.00     0.042 C 
ENDBRANCH   7   8
ENDBRANCH   3   7
BRANCH   5  11
HETATM   11  O11 UNL     1     -35.574   5.593   4.311  1.00 20.00    -0.395 OA
HETATM   12  H29 UNL     1     -35.845   4.743   3.924  1.00 20.00     0.210 HD
ENDBRANCH   5  11
TORSDOF 3
ENDMDL
MODEL 4
REMARK VINA RESULT:      -5.0     10.649     11.507
REMARK  3 active torsions:
REMARK  status: ('A' for Active; 'I' for Inactive)
REMARK    1  A    between atoms: C2_2  and  C10_10 
REMARK    2  A    between atoms: C5_5  and  C10_10 
REMARK    3  A    between atoms: C7_7  and  O11_11 
ROOT
HETATM    1  C3  UNL     1     -36.579  15.878  -3.656  1.00 20.00     0.008 C 
HETATM    2  C4  UNL     1     -36.955  14.804  -4.679  1.00 20.00     0.032 C 
HETATM    3  C5  UNL     1     -35.048  15.933  -3.661  1.00 20.00    -0.004 C 
HETATM    4  C6  UNL     1     -34.664  14.477  -3.946  1.00 20.00     0.015 C 
HETATM    5  C7  UNL     1     -35.652  14.093  -5.049  1.00 20.00     0.122 C 
HETATM    6  C9  UNL     1     -33.211  14.301  -4.371  1.00 20.00     0.013 C 
ENDROOT
BRANCH   3   7
HETATM    7  C10 UNL     1     -34.482  16.481  -2.359  1.00 20.00     0.038 C 
BRANCH   7   8
HETATM    8  C2  UNL     1     -33.543  17.642  -2.575  1.00 20.00    -0.093 C 
HETATM    9  C1  UNL     1     -33.402  18.216  -3.780  1.00 20.00     0.014 C 
HETATM   10  C8  UNL     1     -32.745  18.105  -1.390  1.00 20.00     0.042 C 
ENDBRANCH   7   8
ENDBRANCH   3   7
BRANCH   5  11
HETATM   11  O11 UNL     1     -35.856  12.692  -5.107  1.00 20.00    -0.395 OA
HETATM   12  H29 UNL     1     -34.987  12.285  -5.266  1.00 20.00     0.210 HD
ENDBRANCH   5  11
TORSDOF 3
ENDMDL
MODEL 5
REMARK VINA RESULT:      -4.5     11.227     11.897
REMARK  3 active torsions:
REMARK  status: ('A' for Active; 'I' for Inactive)
REMARK    1  A    between atoms: C2_2  and  C10_10 
REMARK    2  A    between atoms: C5_5  and  C10_10 
REMARK    3  A    between atoms: C7_7  and  O11_11 
ROOT
HETATM    1  C3  UNL     1     -33.050  17.784  -1.802  1.00 20.00     0.008 C 
HETATM    2  C4  UNL     1     -34.052  16.891  -2.536  1.00 20.00     0.032 C 
HETATM    3  C5  UNL     1     -33.572  17.893  -0.366  1.00 20.00    -0.004 C 
HETATM    4  C6  UNL     1     -35.092  17.842  -0.560  1.00 20.00     0.015 C 
HETATM    5  C7  UNL     1     -35.246  16.726  -1.595  1.00 20.00     0.122 C 
HETATM    6  C9  UNL     1     -35.862  17.563   0.725  1.00 20.00     0.013 C 
ENDROOT
BRANCH   3   7
HETATM    7  C10 UNL     1     -33.078  19.149   0.337  1.00 20.00     0.038 C 
BRANCH   7   8
HETATM    8  C2  UNL     1     -32.250  18.844   1.562  1.00 20.00    -0.093 C 
HETATM    9  C1  UNL     1     -30.909  18.805   1.510  1.00 20.00     0.014 C 
HETATM   10  C8  UNL     1     -32.993  18.550   2.834  1.00 20.00     0.042 C 
ENDBRANCH   7   8
ENDBRANCH   3   7
BRANCH   5  11
HETATM   11  O11 UNL     1     -36.460  16.845  -2.317  1.00 20.00    -0.395 OA
HETATM   12  H29 UNL     1     -37.182  16.815  -1.666  1.00 20.00     0.210 HD
ENDBRANCH   5  11
TORSDOF 3
ENDMDL
MODEL 6
REMARK VINA RESULT:      -4.4     10.927     12.397
REMARK  3 active torsions:
REMARK  status: ('A' for Active; 'I' for Inactive)
REMARK    1  A    between atoms: C2_2  and  C10_10 
REMARK    2  A    between atoms: C5_5  and  C10_10 
REMARK    3  A    between atoms: C7_7  and  O11_11 
ROOT
HETATM    1  C3  UNL     1     -34.659  17.355  -4.998  1.00 20.00     0.008 C 
HETATM    2  C4  UNL     1     -34.008  17.023  -6.342  1.00 20.00     0.032 C 
HETATM    3  C5  UNL     1     -34.005  16.415  -3.981  1.00 20.00    -0.004 C 
HETATM    4  C6  UNL     1     -33.740  15.155  -4.814  1.00 20.00     0.015 C 
HETATM    5  C7  UNL     1     -33.201  15.743  -6.121  1.00 20.00     0.122 C 
HETATM    6  C9  UNL     1     -32.765  14.185  -4.159  1.00 20.00     0.013 C 
ENDROOT
BRANCH   3   7
HETATM    7  C10 UNL     1     -34.883  16.178  -2.761  1.00 20.00     0.038 C 
BRANCH   7   8
HETATM    8  C2  UNL     1     -34.502  17.049  -1.589  1.00 20.00    -0.093 C 
HETATM    9  C1  UNL     1     -35.363  17.296  -0.590  1.00 20.00     0.014 C 
HETATM   10  C8  UNL     1     -33.129  17.658  -1.608  1.00 20.00     0.042 C 
ENDBRANCH   7   8
ENDBRANCH   3   7
BRANCH   5  11
HETATM   11  O11 UNL     1     -33.382  14.853  -7.209  1.00 20.00    -0.395 OA
HETATM   12  H29 UNL     1     -34.300  14.535  -7.167  1.00 20.00     0.210 HD
ENDBRANCH   5  11
TORSDOF 3
ENDMDL
MODEL 7
REMARK VINA RESULT:      -4.4     10.987     11.842
REMARK  3 active torsions:
REMARK  status: ('A' for Active; 'I' for Inactive)
REMARK    1  A    between atoms: C2_2  and  C10_10 
REMARK    2  A    between atoms: C5_5  and  C10_10 
REMARK    3  A    between atoms: C7_7  and  O11_11 
ROOT
HETATM    1  C3  UNL     1     -34.643  14.197  -4.321  1.00 20.00     0.008 C 
HETATM    2  C4  UNL     1     -35.757  13.432  -5.038  1.00 20.00     0.032 C 
HETATM    3  C5  UNL     1     -35.310  15.450  -3.745  1.00 20.00    -0.004 C 
HETATM    4  C6  UNL     1     -36.389  15.763  -4.789  1.00 20.00     0.015 C 
HETATM    5  C7  UNL     1     -36.960  14.374  -5.085  1.00 20.00     0.122 C 
HETATM    6  C9  UNL     1     -37.447  16.742  -4.298  1.00 20.00     0.013 C 
ENDROOT
BRANCH   3   7
HETATM    7  C10 UNL     1     -34.320  16.582  -3.518  1.00 20.00     0.038 C 
BRANCH   7   8
HETATM    8  C2  UNL     1     -34.275  17.039  -2.080  1.00 20.00    -0.093 C 
HETATM    9  C1  UNL     1     -35.322  16.867  -1.257  1.00 20.00     0.014 C 
HETATM   10  C8  UNL     1     -33.023  17.727  -1.620  1.00 20.00     0.042 C 
ENDBRANCH   7   8
ENDBRANCH   3   7
BRANCH   5  11
HETATM   11  O11 UNL     1     -37.576  14.323  -6.361  1.00 20.00    -0.395 OA
HETATM   12  H29 UNL     1     -37.137  13.612  -6.860  1.00 20.00     0.210 HD
ENDBRANCH   5  11
TORSDOF 3
ENDMDL
MODEL 8
REMARK VINA RESULT:      -4.3      2.094      4.492
REMARK  3 active torsions:
REMARK  status: ('A' for Active; 'I' for Inactive)
REMARK    1  A    between atoms: C2_2  and  C10_10 
REMARK    2  A    between atoms: C5_5  and  C10_10 
REMARK    3  A    between atoms: C7_7  and  O11_11 
ROOT
HETATM    1  C3  UNL     1     -33.652   6.729   2.173  1.00 20.00     0.008 C 
HETATM    2  C4  UNL     1     -32.385   7.586   2.194  1.00 20.00     0.032 C 
HETATM    3  C5  UNL     1     -34.349   6.992   3.512  1.00 20.00    -0.004 C 
HETATM    4  C6  UNL     1     -33.167   7.218   4.463  1.00 20.00     0.015 C 
HETATM    5  C7  UNL     1     -32.247   8.108   3.625  1.00 20.00     0.122 C 
HETATM    6  C9  UNL     1     -33.564   7.862   5.786  1.00 20.00     0.013 C 
ENDROOT
BRANCH   3   7
HETATM    7  C10 UNL     1     -35.266   5.851   3.923  1.00 20.00     0.038 C 
BRANCH   7   8
HETATM    8  C2  UNL     1     -34.540   4.760   4.673  1.00 20.00    -0.093 C 
HETATM    9  C1  UNL     1     -34.549   4.707   6.014  1.00 20.00     0.014 C 
HETATM   10  C8  UNL     1     -33.779   3.758   3.855  1.00 20.00     0.042 C 
ENDBRANCH   7   8
ENDBRANCH   3   7
BRANCH   5  11
HETATM   11  O11 UNL     1     -30.899   8.018   4.053  1.00 20.00    -0.395 OA
HETATM   12  H29 UNL     1     -30.911   7.970   5.024  1.00 20.00     0.210 HD
ENDBRANCH   5  11
TORSDOF 3
ENDMDL
MODEL 9
REMARK VINA RESULT:      -3.9     11.134     12.066
REMARK  3 active torsions:
REMARK  status: ('A' for Active; 'I' for Inactive)
REMARK    1  A    between atoms: C2_2  and  C10_10 
REMARK    2  A    between atoms: C5_5  and  C10_10 
REMARK    3  A    between atoms: C7_7  and  O11_11 
ROOT
HETATM    1  C3  UNL     1     -36.566  14.523  -4.773  1.00 20.00     0.008 C 
HETATM    2  C4  UNL     1     -36.228  13.944  -6.149  1.00 20.00     0.032 C 
HETATM    3  C5  UNL     1     -35.387  15.429  -4.407  1.00 20.00    -0.004 C 
HETATM    4  C6  UNL     1     -34.199  14.709  -5.056  1.00 20.00     0.015 C 
HETATM    5  C7  UNL     1     -34.770  14.315  -6.421  1.00 20.00     0.122 C 
HETATM    6  C9  UNL     1     -32.949  15.572  -5.168  1.00 20.00     0.013 C 
ENDROOT
BRANCH   3   7
HETATM    7  C10 UNL     1     -35.249  15.624  -2.905  1.00 20.00     0.038 C 
BRANCH   7   8
HETATM    8  C2  UNL     1     -35.210  17.080  -2.506  1.00 20.00    -0.093 C 
HETATM    9  C1  UNL     1     -35.296  18.059  -3.420  1.00 20.00     0.014 C 
HETATM   10  C8  UNL     1     -35.036  17.384  -1.046  1.00 20.00     0.042 C 
ENDBRANCH   7   8
ENDBRANCH   3   7
BRANCH   5  11
HETATM   11  O11 UNL     1     -34.078  13.211  -6.979  1.00 20.00    -0.395 OA
HETATM   12  H29 UNL     1     -33.628  13.532  -7.779  1.00 20.00     0.210 HD
ENDBRANCH   5  11
TORSDOF 3
ENDMDL
