MODEL 1
REMARK VINA RESULT:      -4.2      0.000      0.000
REMARK  2 active torsions:
REMARK  status: ('A' for Active; 'I' for Inactive)
REMARK    1  A    between atoms: C2_2  and  C7_7 
REMARK    2  A    between atoms: C7_7  and  O11_11 
ROOT
HETATM    1  C3  UNL     1     -36.043  16.071  -3.147  1.00 20.00     0.073 C 
HETATM    2  C4  UNL     1     -33.643  15.433  -3.534  1.00 20.00     0.073 C 
HETATM    3  C5  UNL     1     -36.409  15.292  -4.415  1.00 20.00     0.275 C 
HETATM    4  C6  UNL     1     -34.093  14.677  -4.788  1.00 20.00     0.275 C 
HETATM    5  C7  UNL     1     -34.601  16.577  -3.193  1.00 20.00     0.083 C 
HETATM    6  C9  UNL     1     -35.864  13.416  -5.825  1.00 20.00     0.309 C 
HETATM    7  N10 UNL     1     -35.470  14.184  -4.644  1.00 20.00     0.084 N 
ENDROOT
BRANCH   5   8
HETATM    8  C2  UNL     1     -34.217  17.196  -1.881  1.00 20.00    -0.059 C 
HETATM    9  C1  UNL     1     -33.012  17.752  -1.684  1.00 20.00     0.017 C 
HETATM   10  C8  UNL     1     -35.258  17.158  -0.801  1.00 20.00     0.046 C 
ENDBRANCH   5   8
BRANCH   5  11
HETATM   11  O11 UNL     1     -34.505  17.610  -4.165  1.00 20.00    -0.385 OA
HETATM   12  H28 UNL     1     -34.047  18.346  -3.733  1.00 20.00     0.211 HD
ENDBRANCH   5  11
TORSDOF 2
ENDMDL
MODEL 2
REMARK VINA RESULT:      -4.1     10.762     11.270
REMARK  2 active torsions:
REMARK  status: ('A' for Active; 'I' for Inactive)
REMARK    1  A    between atoms: C2_2  and  C7_7 
REMARK    2  A    between atoms: C7_7  and  O11_11 
ROOT
HETATM    1  C3  UNL     1     -32.897   6.520   2.002  1.00 20.00     0.073 C 
HETATM    2  C4  UNL     1     -33.682   8.219   3.680  1.00 20.00     0.073 C 
HETATM    3  C5  UNL     1     -33.208   5.426   3.029  1.00 20.00     0.275 C 
HETATM    4  C6  UNL     1     -33.964   7.065   4.648  1.00 20.00     0.275 C 
HETATM    5  C7  UNL     1     -32.584   7.855   2.678  1.00 20.00     0.083 C 
HETATM    6  C9  UNL     1     -34.625   4.759   4.859  1.00 20.00     0.309 C 
HETATM    7  N10 UNL     1     -34.302   5.834   3.921  1.00 20.00     0.084 N 
ENDROOT
BRANCH   5   8
HETATM    8  C2  UNL     1     -32.440   8.944   1.654  1.00 20.00    -0.059 C 
HETATM    9  C1  UNL     1     -33.208  10.043   1.676  1.00 20.00     0.017 C 
HETATM   10  C8  UNL     1     -31.389   8.731   0.605  1.00 20.00     0.046 C 
ENDBRANCH   5   8
BRANCH   5  11
HETATM   11  O11 UNL     1     -31.326   7.756   3.333  1.00 20.00    -0.385 OA
HETATM   12  H28 UNL     1     -31.513   7.774   4.283  1.00 20.00     0.211 HD
ENDBRANCH   5  11
TORSDOF 2
ENDMDL
MODEL 3
REMARK VINA RESULT:      -4.0      1.596      1.884
REMARK  2 active torsions:
REMARK  status: ('A' for Active; 'I' for Inactive)
REMARK    1  A    between atoms: C2_2  and  C7_7 
REMARK    2  A    between atoms: C7_7  and  O11_11 
ROOT
HETATM    1  C3  UNL     1     -34.681  14.708  -3.819  1.00 20.00     0.073 C 
HETATM    2  C4  UNL     1     -35.193  16.976  -4.773  1.00 20.00     0.073 C 
HETATM    3  C5  UNL     1     -35.235  14.089  -5.107  1.00 20.00     0.275 C 
HETATM    4  C6  UNL     1     -35.729  16.278  -6.027  1.00 20.00     0.275 C 
HETATM    5  C7  UNL     1     -35.301  16.077  -3.540  1.00 20.00     0.083 C 
HETATM    6  C9  UNL     1     -35.532  14.367  -7.481  1.00 20.00     0.309 C 
HETATM    7  N10 UNL     1     -35.050  14.994  -6.250  1.00 20.00     0.084 N 
ENDROOT
BRANCH   5   8
HETATM    8  C2  UNL     1     -34.631  16.731  -2.366  1.00 20.00    -0.059 C 
HETATM    9  C1  UNL     1     -33.339  17.090  -2.397  1.00 20.00     0.017 C 
HETATM   10  C8  UNL     1     -35.488  16.958  -1.157  1.00 20.00     0.046 C 
ENDBRANCH   5   8
BRANCH   5  11
HETATM   11  O11 UNL     1     -36.663  15.900  -3.172  1.00 20.00    -0.385 OA
HETATM   12  H28 UNL     1     -36.797  14.946  -3.080  1.00 20.00     0.211 HD
ENDBRANCH   5  11
TORSDOF 2
ENDMDL
MODEL 4
REMARK VINA RESULT:      -4.0      2.147      4.435
REMARK  2 active torsions:
REMARK  status: ('A' for Active; 'I' for Inactive)
REMARK    1  A    between atoms: C2_2  and  C7_7 
REMARK    2  A    between atoms: C7_7  and  O11_11 
ROOT
HETATM    1  C3  UNL     1     -34.470  15.197  -3.787  1.00 20.00     0.073 C 
HETATM    2  C4  UNL     1     -34.158  16.476  -5.927  1.00 20.00     0.073 C 
HETATM    3  C5  UNL     1     -33.819  16.368  -3.043  1.00 20.00     0.275 C 
HETATM    4  C6  UNL     1     -33.517  17.601  -5.108  1.00 20.00     0.275 C 
HETATM    5  C7  UNL     1     -33.998  15.119  -5.239  1.00 20.00     0.083 C 
HETATM    6  C9  UNL     1     -33.479  18.752  -2.993  1.00 20.00     0.309 C 
HETATM    7  N10 UNL     1     -34.058  17.638  -3.743  1.00 20.00     0.084 N 
ENDROOT
BRANCH   5   8
HETATM    8  C2  UNL     1     -34.766  14.069  -5.988  1.00 20.00    -0.059 C 
HETATM    9  C1  UNL     1     -34.426  13.692  -7.230  1.00 20.00     0.017 C 
HETATM   10  C8  UNL     1     -35.934  13.464  -5.268  1.00 20.00     0.046 C 
ENDBRANCH   5   8
BRANCH   5  11
HETATM   11  O11 UNL     1     -32.637  14.708  -5.259  1.00 20.00    -0.385 OA
HETATM   12  H28 UNL     1     -32.630  13.813  -5.627  1.00 20.00     0.211 HD
ENDBRANCH   5  11
TORSDOF 2
ENDMDL
MODEL 5
REMARK VINA RESULT:      -4.0      2.073      4.579
REMARK  2 active torsions:
REMARK  status: ('A' for Active; 'I' for Inactive)
REMARK    1  A    between atoms: C2_2  and  C7_7 
REMARK    2  A    between atoms: C7_7  and  O11_11 
ROOT
HETATM    1  C3  UNL     1     -36.410  15.148  -5.411  1.00 20.00     0.073 C 
HETATM    2  C4  UNL     1     -33.983  14.900  -4.809  1.00 20.00     0.073 C 
HETATM    3  C5  UNL     1     -36.662  15.677  -3.995  1.00 20.00     0.275 C 
HETATM    4  C6  UNL     1     -34.321  15.437  -3.414  1.00 20.00     0.275 C 
HETATM    5  C7  UNL     1     -35.192  14.225  -5.459  1.00 20.00     0.083 C 
HETATM    6  C9  UNL     1     -35.744  16.899  -2.134  1.00 20.00     0.309 C 
HETATM    7  N10 UNL     1     -35.470  16.351  -3.462  1.00 20.00     0.084 N 
ENDROOT
BRANCH   5   8
HETATM    8  C2  UNL     1     -34.871  13.849  -6.877  1.00 20.00    -0.059 C 
HETATM    9  C1  UNL     1     -35.366  12.739  -7.446  1.00 20.00     0.017 C 
HETATM   10  C8  UNL     1     -33.963  14.784  -7.620  1.00 20.00     0.046 C 
ENDBRANCH   5   8
BRANCH   5  11
HETATM   11  O11 UNL     1     -35.505  13.012  -4.786  1.00 20.00    -0.385 OA
HETATM   12  H28 UNL     1     -34.867  12.932  -4.063  1.00 20.00     0.211 HD
ENDBRANCH   5  11
TORSDOF 2
ENDMDL
MODEL 6
REMARK VINA RESULT:      -3.8     11.931     12.463
REMARK  2 active torsions:
REMARK  status: ('A' for Active; 'I' for Inactive)
REMARK    1  A    between atoms: C2_2  and  C7_7 
REMARK    2  A    between atoms: C7_7  and  O11_11 
ROOT
HETATM    1  C3  UNL     1     -33.239   5.576   2.754  1.00 20.00     0.073 C 
HETATM    2  C4  UNL     1     -33.668   7.190   4.632  1.00 20.00     0.073 C 
HETATM    3  C5  UNL     1     -32.945   6.775   1.848  1.00 20.00     0.275 C 
HETATM    4  C6  UNL     1     -33.360   8.333   3.659  1.00 20.00     0.275 C 
HETATM    5  C7  UNL     1     -34.183   5.951   3.897  1.00 20.00     0.083 C 
HETATM    6  C9  UNL     1     -32.083   9.022   1.736  1.00 20.00     0.309 C 
HETATM    7  N10 UNL     1     -32.411   7.905   2.622  1.00 20.00     0.084 N 
ENDROOT
BRANCH   5   8
HETATM    8  C2  UNL     1     -34.329   4.807   4.858  1.00 20.00    -0.059 C 
HETATM    9  C1  UNL     1     -34.751   4.989   6.119  1.00 20.00     0.017 C 
HETATM   10  C8  UNL     1     -33.975   3.449   4.329  1.00 20.00     0.046 C 
ENDBRANCH   5   8
BRANCH   5  11
HETATM   11  O11 UNL     1     -35.479   6.191   3.365  1.00 20.00    -0.385 OA
HETATM   12  H28 UNL     1     -35.931   5.335   3.356  1.00 20.00     0.211 HD
ENDBRANCH   5  11
TORSDOF 2
ENDMDL
MODEL 7
REMARK VINA RESULT:      -3.8     11.008     11.514
REMARK  2 active torsions:
REMARK  status: ('A' for Active; 'I' for Inactive)
REMARK    1  A    between atoms: C2_2  and  C7_7 
REMARK    2  A    between atoms: C7_7  and  O11_11 
ROOT
HETATM    1  C3  UNL     1     -32.260   7.742   3.925  1.00 20.00     0.073 C 
HETATM    2  C4  UNL     1     -34.237   7.214   2.466  1.00 20.00     0.073 C 
HETATM    3  C5  UNL     1     -31.561   8.324   2.692  1.00 20.00     0.275 C 
HETATM    4  C6  UNL     1     -33.468   7.813   1.284  1.00 20.00     0.275 C 
HETATM    5  C7  UNL     1     -33.288   6.678   3.540  1.00 20.00     0.083 C 
HETATM    6  C9  UNL     1     -31.854   9.461   0.588  1.00 20.00     0.309 C 
HETATM    7  N10 UNL     1     -32.538   8.859   1.732  1.00 20.00     0.084 N 
ENDROOT
BRANCH   5   8
HETATM    8  C2  UNL     1     -34.069   6.239   4.744  1.00 20.00    -0.059 C 
HETATM    9  C1  UNL     1     -34.852   5.150   4.723  1.00 20.00     0.017 C 
HETATM   10  C8  UNL     1     -33.924   7.088   5.972  1.00 20.00     0.046 C 
ENDBRANCH   5   8
BRANCH   5  11
HETATM   11  O11 UNL     1     -32.603   5.525   3.067  1.00 20.00    -0.385 OA
HETATM   12  H28 UNL     1     -33.285   4.870   2.862  1.00 20.00     0.211 HD
ENDBRANCH   5  11
TORSDOF 2
ENDMDL
MODEL 8
REMARK VINA RESULT:      -3.7      1.552      4.207
REMARK  2 active torsions:
REMARK  status: ('A' for Active; 'I' for Inactive)
REMARK    1  A    between atoms: C2_2  and  C7_7 
REMARK    2  A    between atoms: C7_7  and  O11_11 
ROOT
HETATM    1  C3  UNL     1     -33.675  15.606  -3.820  1.00 20.00     0.073 C 
HETATM    2  C4  UNL     1     -36.186  15.714  -3.795  1.00 20.00     0.073 C 
HETATM    3  C5  UNL     1     -33.661  16.677  -2.724  1.00 20.00     0.275 C 
HETATM    4  C6  UNL     1     -36.084  16.781  -2.700  1.00 20.00     0.275 C 
HETATM    5  C7  UNL     1     -34.937  15.695  -4.679  1.00 20.00     0.083 C 
HETATM    6  C9  UNL     1     -34.817  17.587  -0.817  1.00 20.00     0.309 C 
HETATM    7  N10 UNL     1     -34.871  16.597  -1.892  1.00 20.00     0.084 N 
ENDROOT
BRANCH   5   8
HETATM    8  C2  UNL     1     -35.004  14.543  -5.639  1.00 20.00    -0.059 C 
HETATM    9  C1  UNL     1     -34.237  14.491  -6.739  1.00 20.00     0.017 C 
HETATM   10  C8  UNL     1     -35.978  13.454  -5.299  1.00 20.00     0.046 C 
ENDBRANCH   5   8
BRANCH   5  11
HETATM   11  O11 UNL     1     -34.872  16.872  -5.473  1.00 20.00    -0.385 OA
HETATM   12  H28 UNL     1     -35.567  17.460  -5.143  1.00 20.00     0.211 HD
ENDBRANCH   5  11
TORSDOF 2
ENDMDL
MODEL 9
REMARK VINA RESULT:      -3.7      2.241      3.369
REMARK  2 active torsions:
REMARK  status: ('A' for Active; 'I' for Inactive)
REMARK    1  A    between atoms: C2_2  and  C7_7 
REMARK    2  A    between atoms: C7_7  and  O11_11 
ROOT
HETATM    1  C3  UNL     1     -35.394  15.196  -6.124  1.00 20.00     0.073 C 
HETATM    2  C4  UNL     1     -36.454  15.435  -3.858  1.00 20.00     0.073 C 
HETATM    3  C5  UNL     1     -36.798  15.039  -6.716  1.00 20.00     0.275 C 
HETATM    4  C6  UNL     1     -37.821  15.269  -4.530  1.00 20.00     0.275 C 
HETATM    5  C7  UNL     1     -35.346  14.751  -4.662  1.00 20.00     0.083 C 
HETATM    6  C9  UNL     1     -39.120  15.649  -6.522  1.00 20.00     0.309 C 
HETATM    7  N10 UNL     1     -37.795  15.762  -5.913  1.00 20.00     0.084 N 
ENDROOT
BRANCH   5   8
HETATM    8  C2  UNL     1     -34.007  15.062  -4.059  1.00 20.00    -0.059 C 
HETATM    9  C1  UNL     1     -32.910  14.352  -4.362  1.00 20.00     0.017 C 
HETATM   10  C8  UNL     1     -33.965  16.213  -3.097  1.00 20.00     0.046 C 
ENDBRANCH   5   8
BRANCH   5  11
HETATM   11  O11 UNL     1     -35.490  13.338  -4.604  1.00 20.00    -0.385 OA
HETATM   12  H28 UNL     1     -35.005  12.985  -5.364  1.00 20.00     0.211 HD
ENDBRANCH   5  11
TORSDOF 2
ENDMDL
