MODEL 1
REMARK VINA RESULT:      -5.0      0.000      0.000
REMARK  2 active torsions:
REMARK  status: ('A' for Active; 'I' for Inactive)
REMARK    1  A    between atoms: C7_7  and  C8_8 
REMARK    2  A    between atoms: C7_7  and  N9_9 
ROOT
HETATM    1  C1  UNL     1     -33.209   6.462   2.572  1.00 20.00     0.277 C 
HETATM    2  C2  UNL     1     -32.551   8.094   4.114  1.00 20.00     0.277 C 
HETATM    3  C3  UNL     1     -33.935   6.147   3.890  1.00 20.00     0.015 C 
HETATM    4  C4  UNL     1     -33.768   7.420   4.737  1.00 20.00     0.015 C 
HETATM    5  C5  UNL     1     -35.399   5.781   3.685  1.00 20.00     0.012 C 
HETATM    6  C6  UNL     1     -33.594   7.143   6.222  1.00 20.00     0.012 C 
HETATM    7  N9  UNL     1     -32.803   7.867   2.690  1.00 20.00     0.090 N 
ENDROOT
BRANCH   7   8
HETATM    8  C7  UNL     1     -31.653   8.190   1.859  1.00 20.00     0.287 C 
BRANCH   8   9
HETATM    9  C8  UNL     1     -32.010   9.099   0.694  1.00 20.00     0.144 C 
HETATM   10 CL10 UNL     1     -32.749  10.616   1.261  1.00 20.00    -0.129 Cl
ENDBRANCH   8   9
ENDBRANCH   7   8
TORSDOF 2
ENDMDL
MODEL 2
REMARK VINA RESULT:      -4.8      0.997      2.067
REMARK  2 active torsions:
REMARK  status: ('A' for Active; 'I' for Inactive)
REMARK    1  A    between atoms: C7_7  and  C8_8 
REMARK    2  A    between atoms: C7_7  and  N9_9 
ROOT
HETATM    1  C1  UNL     1     -33.450   7.921   3.679  1.00 20.00     0.277 C 
HETATM    2  C2  UNL     1     -33.118   5.797   2.757  1.00 20.00     0.277 C 
HETATM    3  C3  UNL     1     -34.119   6.914   4.629  1.00 20.00     0.015 C 
HETATM    4  C4  UNL     1     -33.570   5.546   4.191  1.00 20.00     0.015 C 
HETATM    5  C5  UNL     1     -33.832   7.206   6.096  1.00 20.00     0.012 C 
HETATM    6  C6  UNL     1     -34.586   4.421   4.302  1.00 20.00     0.012 C 
HETATM    7  N9  UNL     1     -32.511   7.123   2.883  1.00 20.00     0.090 N 
ENDROOT
BRANCH   7   8
HETATM    8  C7  UNL     1     -32.217   7.728   1.593  1.00 20.00     0.287 C 
BRANCH   8   9
HETATM    9  C8  UNL     1     -32.402   9.237   1.598  1.00 20.00     0.144 C 
HETATM   10 CL10 UNL     1     -32.996   9.822   0.025  1.00 20.00    -0.129 Cl
ENDBRANCH   8   9
ENDBRANCH   7   8
TORSDOF 2
ENDMDL
MODEL 3
REMARK VINA RESULT:      -3.8     10.743     11.451
REMARK  2 active torsions:
REMARK  status: ('A' for Active; 'I' for Inactive)
REMARK    1  A    between atoms: C7_7  and  C8_8 
REMARK    2  A    between atoms: C7_7  and  N9_9 
ROOT
HETATM    1  C1  UNL     1     -33.183  18.207  -2.991  1.00 20.00     0.277 C 
HETATM    2  C2  UNL     1     -34.902  16.681  -2.560  1.00 20.00     0.277 C 
HETATM    3  C3  UNL     1     -33.574  18.382  -1.514  1.00 20.00     0.015 C 
HETATM    4  C4  UNL     1     -34.421  17.140  -1.189  1.00 20.00     0.015 C 
HETATM    5  C5  UNL     1     -32.365  18.510  -0.595  1.00 20.00     0.012 C 
HETATM    6  C6  UNL     1     -35.562  17.420  -0.225  1.00 20.00     0.012 C 
HETATM    7  N9  UNL     1     -33.696  16.885  -3.364  1.00 20.00     0.090 N 
ENDROOT
BRANCH   7   8
HETATM    8  C7  UNL     1     -33.948  16.764  -4.792  1.00 20.00     0.287 C 
BRANCH   8   9
HETATM    9  C8  UNL     1     -33.107  15.678  -5.444  1.00 20.00     0.144 C 
HETATM   10 CL10 UNL     1     -32.826  14.319  -4.328  1.00 20.00    -0.129 Cl
ENDBRANCH   8   9
ENDBRANCH   7   8
TORSDOF 2
ENDMDL
MODEL 4
REMARK VINA RESULT:      -3.7     10.813     11.385
REMARK  2 active torsions:
REMARK  status: ('A' for Active; 'I' for Inactive)
REMARK    1  A    between atoms: C7_7  and  C8_8 
REMARK    2  A    between atoms: C7_7  and  N9_9 
ROOT
HETATM    1  C1  UNL     1     -35.196  16.460  -2.425  1.00 20.00     0.277 C 
HETATM    2  C2  UNL     1     -33.399  17.806  -3.082  1.00 20.00     0.277 C 
HETATM    3  C3  UNL     1     -34.611  17.077  -1.144  1.00 20.00     0.015 C 
HETATM    4  C4  UNL     1     -33.699  18.210  -1.643  1.00 20.00     0.015 C 
HETATM    5  C5  UNL     1     -35.684  17.582  -0.188  1.00 20.00     0.012 C 
HETATM    6  C6  UNL     1     -32.442  18.391  -0.807  1.00 20.00     0.012 C 
HETATM    7  N9  UNL     1     -34.709  17.314  -3.513  1.00 20.00     0.090 N 
ENDROOT
BRANCH   7   8
HETATM    8  C7  UNL     1     -34.653  16.618  -4.789  1.00 20.00     0.287 C 
BRANCH   8   9
HETATM    9  C8  UNL     1     -33.265  16.081  -5.101  1.00 20.00     0.144 C 
HETATM   10 CL10 UNL     1     -33.034  14.451  -4.423  1.00 20.00    -0.129 Cl
ENDBRANCH   8   9
ENDBRANCH   7   8
TORSDOF 2
ENDMDL
MODEL 5
REMARK VINA RESULT:      -3.6     10.995     11.937
REMARK  2 active torsions:
REMARK  status: ('A' for Active; 'I' for Inactive)
REMARK    1  A    between atoms: C7_7  and  C8_8 
REMARK    2  A    between atoms: C7_7  and  N9_9 
ROOT
HETATM    1  C1  UNL     1     -33.227  15.834  -5.787  1.00 20.00     0.277 C 
HETATM    2  C2  UNL     1     -35.178  15.659  -4.508  1.00 20.00     0.277 C 
HETATM    3  C3  UNL     1     -33.997  14.611  -6.314  1.00 20.00     0.015 C 
HETATM    4  C4  UNL     1     -35.405  14.753  -5.712  1.00 20.00     0.015 C 
HETATM    5  C5  UNL     1     -34.025  14.542  -7.835  1.00 20.00     0.012 C 
HETATM    6  C6  UNL     1     -36.042  13.423  -5.339  1.00 20.00     0.012 C 
HETATM    7  N9  UNL     1     -34.226  16.625  -5.060  1.00 20.00     0.090 N 
ENDROOT
BRANCH   7   8
HETATM    8  C7  UNL     1     -33.633  17.472  -4.037  1.00 20.00     0.287 C 
BRANCH   8   9
HETATM    9  C8  UNL     1     -33.658  16.830  -2.659  1.00 20.00     0.144 C 
HETATM   10 CL10 UNL     1     -32.814  17.840  -1.459  1.00 20.00    -0.129 Cl
ENDBRANCH   8   9
ENDBRANCH   7   8
TORSDOF 2
ENDMDL
MODEL 6
REMARK VINA RESULT:      -3.6     10.810     11.789
REMARK  2 active torsions:
REMARK  status: ('A' for Active; 'I' for Inactive)
REMARK    1  A    between atoms: C7_7  and  C8_8 
REMARK    2  A    between atoms: C7_7  and  N9_9 
ROOT
HETATM    1  C1  UNL     1     -35.305  15.687  -4.395  1.00 20.00     0.277 C 
HETATM    2  C2  UNL     1     -33.334  15.941  -5.629  1.00 20.00     0.277 C 
HETATM    3  C3  UNL     1     -35.434  14.781  -5.630  1.00 20.00     0.015 C 
HETATM    4  C4  UNL     1     -34.007  14.698  -6.198  1.00 20.00     0.015 C 
HETATM    5  C5  UNL     1     -36.001  13.407  -5.297  1.00 20.00     0.012 C 
HETATM    6  C6  UNL     1     -33.961  14.644  -7.717  1.00 20.00     0.012 C 
HETATM    7  N9  UNL     1     -33.868  15.949  -4.266  1.00 20.00     0.090 N 
ENDROOT
BRANCH   7   8
HETATM    8  C7  UNL     1     -33.585  17.191  -3.562  1.00 20.00     0.287 C 
BRANCH   8   9
HETATM    9  C8  UNL     1     -33.736  17.055  -2.055  1.00 20.00     0.144 C 
HETATM   10 CL10 UNL     1     -32.570  18.088  -1.192  1.00 20.00    -0.129 Cl
ENDBRANCH   8   9
ENDBRANCH   7   8
TORSDOF 2
ENDMDL
MODEL 7
REMARK VINA RESULT:      -3.5     10.900     12.016
REMARK  2 active torsions:
REMARK  status: ('A' for Active; 'I' for Inactive)
REMARK    1  A    between atoms: C7_7  and  C8_8 
REMARK    2  A    between atoms: C7_7  and  N9_9 
ROOT
HETATM    1  C1  UNL     1     -33.589  17.763  -4.813  1.00 20.00     0.277 C 
HETATM    2  C2  UNL     1     -34.084  15.788  -3.664  1.00 20.00     0.277 C 
HETATM    3  C3  UNL     1     -34.048  18.172  -3.404  1.00 20.00     0.015 C 
HETATM    4  C4  UNL     1     -34.006  16.868  -2.591  1.00 20.00     0.015 C 
HETATM    5  C5  UNL     1     -33.176  19.261  -2.791  1.00 20.00     0.012 C 
HETATM    6  C6  UNL     1     -35.118  16.758  -1.561  1.00 20.00     0.012 C 
HETATM    7  N9  UNL     1     -33.209  16.352  -4.693  1.00 20.00     0.090 N 
ENDROOT
BRANCH   7   8
HETATM    8  C7  UNL     1     -33.301  15.638  -5.957  1.00 20.00     0.287 C 
BRANCH   8   9
HETATM    9  C8  UNL     1     -34.597  14.855  -6.094  1.00 20.00     0.144 C 
HETATM   10 CL10 UNL     1     -34.411  13.487  -7.218  1.00 20.00    -0.129 Cl
ENDBRANCH   8   9
ENDBRANCH   7   8
TORSDOF 2
ENDMDL
MODEL 8
REMARK VINA RESULT:      -3.5     10.532     11.190
REMARK  2 active torsions:
REMARK  status: ('A' for Active; 'I' for Inactive)
REMARK    1  A    between atoms: C7_7  and  C8_8 
REMARK    2  A    between atoms: C7_7  and  N9_9 
ROOT
HETATM    1  C1  UNL     1     -36.342  16.101  -3.618  1.00 20.00     0.277 C 
HETATM    2  C2  UNL     1     -34.113  16.408  -2.981  1.00 20.00     0.277 C 
HETATM    3  C3  UNL     1     -35.483  15.289  -4.601  1.00 20.00     0.015 C 
HETATM    4  C4  UNL     1     -34.097  15.222  -3.938  1.00 20.00     0.015 C 
HETATM    5  C5  UNL     1     -36.054  13.905  -4.882  1.00 20.00     0.012 C 
HETATM    6  C6  UNL     1     -32.946  15.278  -4.930  1.00 20.00     0.012 C 
HETATM    7  N9  UNL     1     -35.477  16.326  -2.456  1.00 20.00     0.090 N 
ENDROOT
BRANCH   7   8
HETATM    8  C7  UNL     1     -35.855  17.508  -1.696  1.00 20.00     0.287 C 
BRANCH   8   9
HETATM    9  C8  UNL     1     -35.506  17.391  -0.221  1.00 20.00     0.144 C 
HETATM   10 CL10 UNL     1     -33.953  18.184   0.141  1.00 20.00    -0.129 Cl
ENDBRANCH   8   9
ENDBRANCH   7   8
TORSDOF 2
ENDMDL
MODEL 9
REMARK VINA RESULT:      -3.5     10.462     11.248
REMARK  2 active torsions:
REMARK  status: ('A' for Active; 'I' for Inactive)
REMARK    1  A    between atoms: C7_7  and  C8_8 
REMARK    2  A    between atoms: C7_7  and  N9_9 
ROOT
HETATM    1  C1  UNL     1     -34.657  14.209  -4.373  1.00 20.00     0.277 C 
HETATM    2  C2  UNL     1     -36.386  15.745  -4.023  1.00 20.00     0.277 C 
HETATM    3  C3  UNL     1     -35.872  13.699  -5.166  1.00 20.00     0.015 C 
HETATM    4  C4  UNL     1     -36.836  14.897  -5.206  1.00 20.00     0.015 C 
HETATM    5  C5  UNL     1     -35.504  13.210  -6.560  1.00 20.00     0.012 C 
HETATM    6  C6  UNL     1     -38.301  14.499  -5.125  1.00 20.00     0.012 C 
HETATM    7  N9  UNL     1     -34.931  15.630  -4.133  1.00 20.00     0.090 N 
ENDROOT
BRANCH   7   8
HETATM    8  C7  UNL     1     -34.239  16.143  -2.960  1.00 20.00     0.287 C 
BRANCH   8   9
HETATM    9  C8  UNL     1     -34.924  17.363  -2.365  1.00 20.00     0.144 C 
HETATM   10 CL10 UNL     1     -35.378  17.085  -0.665  1.00 20.00    -0.129 Cl
ENDBRANCH   8   9
ENDBRANCH   7   8
TORSDOF 2
ENDMDL
