MODEL 1
REMARK VINA RESULT:      -5.5      0.000      0.000
REMARK  2 active torsions:
REMARK  status: ('A' for Active; 'I' for Inactive)
REMARK    1  A    between atoms: C2_2  and  C9_9 
REMARK    2  A    between atoms: C6_6  and  C9_9 
ROOT
HETATM    1  C3  UNL     1     -32.619   5.654   2.876  1.00 20.00     0.006 C 
HETATM    2  C4  UNL     1     -33.864   4.821   3.148  1.00 20.00     0.016 C 
HETATM    3  C5  UNL     1     -34.391   7.180   3.515  1.00 20.00     0.020 C 
HETATM    4  C6  UNL     1     -33.194   7.032   2.562  1.00 20.00    -0.010 C 
HETATM    5  C7  UNL     1     -34.770   5.759   3.936  1.00 20.00     0.058 C 
HETATM    6 BR10 UNL     1     -34.455   5.524   5.854  1.00 20.00    -0.091 Br
ENDROOT
BRANCH   4   7
HETATM    7  C9  UNL     1     -32.174   8.149   2.704  1.00 20.00     0.037 C 
BRANCH   7   8
HETATM    8  C2  UNL     1     -32.060   8.999   1.461  1.00 20.00    -0.093 C 
HETATM    9  C1  UNL     1     -31.293   8.627   0.424  1.00 20.00     0.014 C 
HETATM   10  C8  UNL     1     -32.816  10.297   1.448  1.00 20.00     0.042 C 
ENDBRANCH   7   8
ENDBRANCH   4   7
TORSDOF 2
ENDMDL
MODEL 2
REMARK VINA RESULT:      -4.8      2.642      4.681
REMARK  2 active torsions:
REMARK  status: ('A' for Active; 'I' for Inactive)
REMARK    1  A    between atoms: C2_2  and  C9_9 
REMARK    2  A    between atoms: C6_6  and  C9_9 
ROOT
HETATM    1  C3  UNL     1     -31.937   7.296   2.461  1.00 20.00     0.006 C 
HETATM    2  C4  UNL     1     -31.361   8.621   1.981  1.00 20.00     0.016 C 
HETATM    3  C5  UNL     1     -33.727   8.930   2.513  1.00 20.00     0.020 C 
HETATM    4  C6  UNL     1     -33.150   7.730   3.279  1.00 20.00    -0.010 C 
HETATM    5  C7  UNL     1     -32.589   9.454   1.635  1.00 20.00     0.058 C 
HETATM    6 BR10 UNL     1     -33.038   9.212  -0.255  1.00 20.00    -0.091 Br
ENDROOT
BRANCH   4   7
HETATM    7  C9  UNL     1     -34.158   6.612   3.487  1.00 20.00     0.037 C 
BRANCH   7   8
HETATM    8  C2  UNL     1     -34.255   6.171   4.928  1.00 20.00    -0.093 C 
HETATM    9  C1  UNL     1     -34.688   4.944   5.260  1.00 20.00     0.014 C 
HETATM   10  C8  UNL     1     -33.878   7.177   5.978  1.00 20.00     0.042 C 
ENDBRANCH   7   8
ENDBRANCH   4   7
TORSDOF 2
ENDMDL
MODEL 3
REMARK VINA RESULT:      -4.5     10.457     11.284
REMARK  2 active torsions:
REMARK  status: ('A' for Active; 'I' for Inactive)
REMARK    1  A    between atoms: C2_2  and  C9_9 
REMARK    2  A    between atoms: C6_6  and  C9_9 
ROOT
HETATM    1  C3  UNL     1     -36.097  15.885  -4.455  1.00 20.00     0.006 C 
HETATM    2  C4  UNL     1     -36.754  14.592  -4.919  1.00 20.00     0.016 C 
HETATM    3  C5  UNL     1     -34.489  14.099  -4.144  1.00 20.00     0.020 C 
HETATM    4  C6  UNL     1     -35.013  15.392  -3.502  1.00 20.00    -0.010 C 
HETATM    5  C7  UNL     1     -35.587  13.630  -5.101  1.00 20.00     0.058 C 
HETATM    6 BR10 UNL     1     -34.945  13.714  -6.948  1.00 20.00    -0.091 Br
ENDROOT
BRANCH   4   7
HETATM    7  C9  UNL     1     -33.924  16.423  -3.255  1.00 20.00     0.037 C 
BRANCH   7   8
HETATM    8  C2  UNL     1     -34.048  17.095  -1.908  1.00 20.00    -0.093 C 
HETATM    9  C1  UNL     1     -35.158  16.973  -1.163  1.00 20.00     0.014 C 
HETATM   10  C8  UNL     1     -32.889  17.935  -1.453  1.00 20.00     0.042 C 
ENDBRANCH   7   8
ENDBRANCH   4   7
TORSDOF 2
ENDMDL
MODEL 4
REMARK VINA RESULT:      -4.4      2.521      4.589
REMARK  2 active torsions:
REMARK  status: ('A' for Active; 'I' for Inactive)
REMARK    1  A    between atoms: C2_2  and  C9_9 
REMARK    2  A    between atoms: C6_6  and  C9_9 
ROOT
HETATM    1  C3  UNL     1     -33.226   6.987   2.400  1.00 20.00     0.006 C 
HETATM    2  C4  UNL     1     -32.167   7.528   1.449  1.00 20.00     0.016 C 
HETATM    3  C5  UNL     1     -31.934   8.640   3.614  1.00 20.00     0.020 C 
HETATM    4  C6  UNL     1     -32.631   7.281   3.774  1.00 20.00    -0.010 C 
HETATM    5  C7  UNL     1     -31.700   8.818   2.113  1.00 20.00     0.058 C 
HETATM    6 BR10 UNL     1     -32.759  10.323   1.445  1.00 20.00    -0.091 Br
ENDROOT
BRANCH   4   7
HETATM    7  C9  UNL     1     -33.666   7.265   4.886  1.00 20.00     0.037 C 
BRANCH   7   8
HETATM    8  C2  UNL     1     -34.517   6.018   4.877  1.00 20.00    -0.093 C 
HETATM    9  C1  UNL     1     -34.364   5.057   5.802  1.00 20.00     0.014 C 
HETATM   10  C8  UNL     1     -35.520   5.882   3.767  1.00 20.00     0.042 C 
ENDBRANCH   7   8
ENDBRANCH   4   7
TORSDOF 2
ENDMDL
MODEL 5
REMARK VINA RESULT:      -4.3     11.001     11.489
REMARK  2 active torsions:
REMARK  status: ('A' for Active; 'I' for Inactive)
REMARK    1  A    between atoms: C2_2  and  C9_9 
REMARK    2  A    between atoms: C6_6  and  C9_9 
ROOT
HETATM    1  C3  UNL     1     -35.470  15.519  -3.942  1.00 20.00     0.006 C 
HETATM    2  C4  UNL     1     -35.294  14.165  -4.617  1.00 20.00     0.016 C 
HETATM    3  C5  UNL     1     -33.124  15.285  -4.508  1.00 20.00     0.020 C 
HETATM    4  C6  UNL     1     -34.068  15.823  -3.421  1.00 20.00    -0.010 C 
HETATM    5  C7  UNL     1     -33.941  14.270  -5.309  1.00 20.00     0.058 C 
HETATM    6 BR10 UNL     1     -34.188  14.910  -7.143  1.00 20.00    -0.091 Br
ENDROOT
BRANCH   4   7
HETATM    7  C9  UNL     1     -33.853  17.296  -3.117  1.00 20.00     0.037 C 
BRANCH   7   8
HETATM    8  C2  UNL     1     -33.733  17.576  -1.637  1.00 20.00    -0.093 C 
HETATM    9  C1  UNL     1     -32.608  18.083  -1.108  1.00 20.00     0.014 C 
HETATM   10  C8  UNL     1     -34.915  17.231  -0.777  1.00 20.00     0.042 C 
ENDBRANCH   7   8
ENDBRANCH   4   7
TORSDOF 2
ENDMDL
MODEL 6
REMARK VINA RESULT:      -4.3      1.013      1.523
REMARK  2 active torsions:
REMARK  status: ('A' for Active; 'I' for Inactive)
REMARK    1  A    between atoms: C2_2  and  C9_9 
REMARK    2  A    between atoms: C6_6  and  C9_9 
ROOT
HETATM    1  C3  UNL     1     -33.234   4.811   3.360  1.00 20.00     0.006 C 
HETATM    2  C4  UNL     1     -34.437   4.616   4.272  1.00 20.00     0.016 C 
HETATM    3  C5  UNL     1     -34.481   6.889   3.375  1.00 20.00     0.020 C 
HETATM    4  C6  UNL     1     -33.675   5.958   2.456  1.00 20.00    -0.010 C 
HETATM    5  C7  UNL     1     -34.909   6.034   4.568  1.00 20.00     0.058 C 
HETATM    6 BR10 UNL     1     -34.049   6.687   6.201  1.00 20.00    -0.091 Br
ENDROOT
BRANCH   4   7
HETATM    7  C9  UNL     1     -32.513   6.654   1.768  1.00 20.00     0.037 C 
BRANCH   7   8
HETATM    8  C2  UNL     1     -32.204   8.007   2.364  1.00 20.00    -0.093 C 
HETATM    9  C1  UNL     1     -31.639   8.126   3.576  1.00 20.00     0.014 C 
HETATM   10  C8  UNL     1     -32.589   9.214   1.558  1.00 20.00     0.042 C 
ENDBRANCH   7   8
ENDBRANCH   4   7
TORSDOF 2
ENDMDL
MODEL 7
REMARK VINA RESULT:      -4.1     10.694     11.414
REMARK  2 active torsions:
REMARK  status: ('A' for Active; 'I' for Inactive)
REMARK    1  A    between atoms: C2_2  and  C9_9 
REMARK    2  A    between atoms: C6_6  and  C9_9 
ROOT
HETATM    1  C3  UNL     1     -33.225  17.979  -1.935  1.00 20.00     0.006 C 
HETATM    2  C4  UNL     1     -33.574  18.153  -0.463  1.00 20.00     0.016 C 
HETATM    3  C5  UNL     1     -35.249  16.713  -1.510  1.00 20.00     0.020 C 
HETATM    4  C6  UNL     1     -33.930  16.675  -2.298  1.00 20.00    -0.010 C 
HETATM    5  C7  UNL     1     -35.030  17.714  -0.374  1.00 20.00     0.058 C 
HETATM    6 BR10 UNL     1     -36.203  19.263  -0.613  1.00 20.00    -0.091 Br
ENDROOT
BRANCH   4   7
HETATM    7  C9  UNL     1     -34.131  16.505  -3.795  1.00 20.00     0.037 C 
BRANCH   7   8
HETATM    8  C2  UNL     1     -34.075  15.060  -4.232  1.00 20.00    -0.093 C 
HETATM    9  C1  UNL     1     -32.906  14.418  -4.383  1.00 20.00     0.014 C 
HETATM   10  C8  UNL     1     -35.383  14.383  -4.524  1.00 20.00     0.042 C 
ENDBRANCH   7   8
ENDBRANCH   4   7
TORSDOF 2
ENDMDL
MODEL 8
REMARK VINA RESULT:      -3.9     11.379     11.935
REMARK  2 active torsions:
REMARK  status: ('A' for Active; 'I' for Inactive)
REMARK    1  A    between atoms: C2_2  and  C9_9 
REMARK    2  A    between atoms: C6_6  and  C9_9 
ROOT
HETATM    1  C3  UNL     1     -35.436  17.460  -1.138  1.00 20.00     0.006 C 
HETATM    2  C4  UNL     1     -35.158  16.476  -2.266  1.00 20.00     0.016 C 
HETATM    3  C5  UNL     1     -33.090  17.657  -1.715  1.00 20.00     0.020 C 
HETATM    4  C6  UNL     1     -34.056  17.667  -0.520  1.00 20.00    -0.010 C 
HETATM    5  C7  UNL     1     -33.832  16.948  -2.849  1.00 20.00     0.058 C 
HETATM    6 BR10 UNL     1     -34.166  18.202  -4.316  1.00 20.00    -0.091 Br
ENDROOT
BRANCH   4   7
HETATM    7  C9  UNL     1     -33.963  18.933   0.315  1.00 20.00     0.037 C 
BRANCH   7   8
HETATM    8  C2  UNL     1     -33.202  18.729   1.604  1.00 20.00    -0.093 C 
HETATM    9  C1  UNL     1     -31.866  18.856   1.657  1.00 20.00     0.014 C 
HETATM   10  C8  UNL     1     -34.000  18.346   2.816  1.00 20.00     0.042 C 
ENDBRANCH   7   8
ENDBRANCH   4   7
TORSDOF 2
ENDMDL
MODEL 9
REMARK VINA RESULT:      -3.8      1.177      1.738
REMARK  2 active torsions:
REMARK  status: ('A' for Active; 'I' for Inactive)
REMARK    1  A    between atoms: C2_2  and  C9_9 
REMARK    2  A    between atoms: C6_6  and  C9_9 
ROOT
HETATM    1  C3  UNL     1     -33.695   8.080   4.159  1.00 20.00     0.006 C 
HETATM    2  C4  UNL     1     -33.423   7.073   5.269  1.00 20.00     0.016 C 
HETATM    3  C5  UNL     1     -32.943   6.027   3.112  1.00 20.00     0.020 C 
HETATM    4  C6  UNL     1     -32.840   7.556   3.009  1.00 20.00    -0.010 C 
HETATM    5  C7  UNL     1     -33.382   5.732   4.547  1.00 20.00     0.058 C 
HETATM    6 BR10 UNL     1     -35.166   4.927   4.550  1.00 20.00    -0.091 Br
ENDROOT
BRANCH   4   7
HETATM    7  C9  UNL     1     -33.270   8.096   1.655  1.00 20.00     0.037 C 
BRANCH   7   8
HETATM    8  C2  UNL     1     -32.310   9.122   1.102  1.00 20.00    -0.093 C 
HETATM    9  C1  UNL     1     -31.135   8.764   0.559  1.00 20.00     0.014 C 
HETATM   10  C8  UNL     1     -32.710  10.565   1.216  1.00 20.00     0.042 C 
ENDBRANCH   7   8
ENDBRANCH   4   7
TORSDOF 2
ENDMDL
