MODEL 1
REMARK VINA RESULT:      -5.0      0.000      0.000
REMARK  2 active torsions:
REMARK  status: ('A' for Active; 'I' for Inactive)
REMARK    1  A    between atoms: C3_3  and  C7_7 
REMARK    2  A    between atoms: C3_3  and  O8_8 
ROOT
HETATM    1  C1  UNL     1     -31.664   8.032   3.717  1.00 20.00     0.045 A 
HETATM    2  C2  UNL     1     -32.542   8.492   2.583  1.00 20.00     0.019 A 
HETATM    3  C3  UNL     1     -32.865   7.212   3.316  1.00 20.00     0.065 A 
HETATM    4  C4  UNL     1     -32.024   8.480   1.185  1.00 20.00     0.013 C 
ENDROOT
BRANCH   3   5
HETATM    5  C7  UNL     1     -34.054   7.149   4.215  1.00 20.00     0.012 C 
HETATM    6  C5  UNL     1     -34.867   5.859   3.996  1.00 20.00     0.012 C 
HETATM    7  C6  UNL     1     -33.656   7.252   5.698  1.00 20.00     0.012 C 
ENDBRANCH   3   5
BRANCH   3   8
HETATM    8  O8  UNL     1     -32.582   5.975   2.642  1.00 20.00    -0.389 OA
HETATM    9  H22 UNL     1     -31.987   6.200   1.914  1.00 20.00     0.210 HD
ENDBRANCH   3   8
TORSDOF 2
ENDMDL
MODEL 2
REMARK VINA RESULT:      -4.5      1.437      3.690
REMARK  2 active torsions:
REMARK  status: ('A' for Active; 'I' for Inactive)
REMARK    1  A    between atoms: C3_3  and  C7_7 
REMARK    2  A    between atoms: C3_3  and  O8_8 
ROOT
HETATM    1  C1  UNL     1     -32.647   6.439   2.732  1.00 20.00     0.045 A 
HETATM    2  C2  UNL     1     -33.608   7.349   3.453  1.00 20.00     0.019 A 
HETATM    3  C3  UNL     1     -32.404   7.928   2.751  1.00 20.00     0.065 A 
HETATM    4  C4  UNL     1     -33.700   7.310   4.941  1.00 20.00     0.013 C 
ENDROOT
BRANCH   3   5
HETATM    5  C7  UNL     1     -32.582   8.724   1.502  1.00 20.00     0.012 C 
HETATM    6  C5  UNL     1     -32.766  10.224   1.802  1.00 20.00     0.012 C 
HETATM    7  C6  UNL     1     -31.400   8.542   0.533  1.00 20.00     0.012 C 
ENDBRANCH   3   5
BRANCH   3   8
HETATM    8  O8  UNL     1     -31.311   8.375   3.571  1.00 20.00    -0.389 OA
HETATM    9  H22 UNL     1     -30.814   7.579   3.804  1.00 20.00     0.210 HD
ENDBRANCH   3   8
TORSDOF 2
ENDMDL
MODEL 3
REMARK VINA RESULT:      -4.3      1.507      2.185
REMARK  2 active torsions:
REMARK  status: ('A' for Active; 'I' for Inactive)
REMARK    1  A    between atoms: C3_3  and  C7_7 
REMARK    2  A    between atoms: C3_3  and  O8_8 
ROOT
HETATM    1  C1  UNL     1     -32.909   5.496   2.743  1.00 20.00     0.045 A 
HETATM    2  C2  UNL     1     -32.653   6.955   3.020  1.00 20.00     0.019 A 
HETATM    3  C3  UNL     1     -33.799   6.247   3.701  1.00 20.00     0.065 A 
HETATM    4  C4  UNL     1     -32.885   7.969   1.952  1.00 20.00     0.013 C 
ENDROOT
BRANCH   3   5
HETATM    5  C7  UNL     1     -33.732   5.955   5.162  1.00 20.00     0.012 C 
HETATM    6  C5  UNL     1     -33.951   7.223   6.009  1.00 20.00     0.012 C 
HETATM    7  C6  UNL     1     -34.755   4.884   5.580  1.00 20.00     0.012 C 
ENDBRANCH   3   5
BRANCH   3   8
HETATM    8  O8  UNL     1     -35.127   6.534   3.229  1.00 20.00    -0.389 OA
HETATM    9  H22 UNL     1     -35.087   6.456   2.266  1.00 20.00     0.210 HD
ENDBRANCH   3   8
TORSDOF 2
ENDMDL
MODEL 4
REMARK VINA RESULT:      -4.2      1.141      3.398
REMARK  2 active torsions:
REMARK  status: ('A' for Active; 'I' for Inactive)
REMARK    1  A    between atoms: C3_3  and  C7_7 
REMARK    2  A    between atoms: C3_3  and  O8_8 
ROOT
HETATM    1  C1  UNL     1     -35.256   6.021   3.436  1.00 20.00     0.045 A 
HETATM    2  C2  UNL     1     -34.540   5.347   4.578  1.00 20.00     0.019 A 
HETATM    3  C3  UNL     1     -33.782   6.264   3.649  1.00 20.00     0.065 A 
HETATM    4  C4  UNL     1     -34.331   3.871   4.561  1.00 20.00     0.013 C 
ENDROOT
BRANCH   3   5
HETATM    5  C7  UNL     1     -33.311   7.593   4.135  1.00 20.00     0.012 C 
HETATM    6  C5  UNL     1     -33.249   7.650   5.673  1.00 20.00     0.012 C 
HETATM    7  C6  UNL     1     -31.931   7.957   3.558  1.00 20.00     0.012 C 
ENDBRANCH   3   5
BRANCH   3   8
HETATM    8  O8  UNL     1     -32.902   5.652   2.690  1.00 20.00    -0.389 OA
HETATM    9  H22 UNL     1     -32.210   5.219   3.207  1.00 20.00     0.210 HD
ENDBRANCH   3   8
TORSDOF 2
ENDMDL
MODEL 5
REMARK VINA RESULT:      -4.2      1.034      3.568
REMARK  2 active torsions:
REMARK  status: ('A' for Active; 'I' for Inactive)
REMARK    1  A    between atoms: C3_3  and  C7_7 
REMARK    2  A    between atoms: C3_3  and  O8_8 
ROOT
HETATM    1  C1  UNL     1     -35.186   6.141   3.331  1.00 20.00     0.045 A 
HETATM    2  C2  UNL     1     -34.490   6.062   4.666  1.00 20.00     0.019 A 
HETATM    3  C3  UNL     1     -33.694   6.345   3.415  1.00 20.00     0.065 A 
HETATM    4  C4  UNL     1     -34.386   4.756   5.378  1.00 20.00     0.013 C 
ENDROOT
BRANCH   3   5
HETATM    5  C7  UNL     1     -33.117   7.702   3.191  1.00 20.00     0.012 C 
HETATM    6  C5  UNL     1     -31.915   7.972   4.116  1.00 20.00     0.012 C 
HETATM    7  C6  UNL     1     -32.685   7.906   1.728  1.00 20.00     0.012 C 
ENDBRANCH   3   5
BRANCH   3   8
HETATM    8  O8  UNL     1     -32.885   5.278   2.890  1.00 20.00    -0.389 OA
HETATM    9  H22 UNL     1     -31.974   5.500   3.122  1.00 20.00     0.210 HD
ENDBRANCH   3   8
TORSDOF 2
ENDMDL
MODEL 6
REMARK VINA RESULT:      -4.1      1.685      2.299
REMARK  2 active torsions:
REMARK  status: ('A' for Active; 'I' for Inactive)
REMARK    1  A    between atoms: C3_3  and  C7_7 
REMARK    2  A    between atoms: C3_3  and  O8_8 
ROOT
HETATM    1  C1  UNL     1     -33.867   8.108   3.380  1.00 20.00     0.045 A 
HETATM    2  C2  UNL     1     -32.548   7.388   3.267  1.00 20.00     0.019 A 
HETATM    3  C3  UNL     1     -33.495   7.056   4.395  1.00 20.00     0.065 A 
HETATM    4  C4  UNL     1     -31.273   8.122   3.509  1.00 20.00     0.013 C 
ENDROOT
BRANCH   3   5
HETATM    5  C7  UNL     1     -34.212   5.748   4.405  1.00 20.00     0.012 C 
HETATM    6  C5  UNL     1     -34.468   5.247   5.838  1.00 20.00     0.012 C 
HETATM    7  C6  UNL     1     -35.550   5.823   3.648  1.00 20.00     0.012 C 
ENDBRANCH   3   5
BRANCH   3   8
HETATM    8  O8  UNL     1     -33.158   7.541   5.705  1.00 20.00    -0.389 OA
HETATM    9  H22 UNL     1     -33.168   8.506   5.640  1.00 20.00     0.210 HD
ENDBRANCH   3   8
TORSDOF 2
ENDMDL
MODEL 7
REMARK VINA RESULT:      -4.0      1.731      3.627
REMARK  2 active torsions:
REMARK  status: ('A' for Active; 'I' for Inactive)
REMARK    1  A    between atoms: C3_3  and  C7_7 
REMARK    2  A    between atoms: C3_3  and  O8_8 
ROOT
HETATM    1  C1  UNL     1     -34.012   7.273   5.338  1.00 20.00     0.045 A 
HETATM    2  C2  UNL     1     -33.822   5.792   5.540  1.00 20.00     0.019 A 
HETATM    3  C3  UNL     1     -34.027   6.345   4.150  1.00 20.00     0.065 A 
HETATM    4  C4  UNL     1     -34.876   4.990   6.224  1.00 20.00     0.013 C 
ENDROOT
BRANCH   3   5
HETATM    5  C7  UNL     1     -32.894   6.361   3.180  1.00 20.00     0.012 C 
HETATM    6  C5  UNL     1     -32.980   5.194   2.180  1.00 20.00     0.012 C 
HETATM    7  C6  UNL     1     -32.823   7.689   2.405  1.00 20.00     0.012 C 
ENDBRANCH   3   5
BRANCH   3   8
HETATM    8  O8  UNL     1     -35.310   6.133   3.537  1.00 20.00    -0.389 OA
HETATM    9  H22 UNL     1     -35.722   5.411   4.030  1.00 20.00     0.210 HD
ENDBRANCH   3   8
TORSDOF 2
ENDMDL
MODEL 8
REMARK VINA RESULT:      -4.0      2.057      2.833
REMARK  2 active torsions:
REMARK  status: ('A' for Active; 'I' for Inactive)
REMARK    1  A    between atoms: C3_3  and  C7_7 
REMARK    2  A    between atoms: C3_3  and  O8_8 
ROOT
HETATM    1  C1  UNL     1     -32.372  10.447   1.408  1.00 20.00     0.045 A 
HETATM    2  C2  UNL     1     -33.311   9.558   0.634  1.00 20.00     0.019 A 
HETATM    3  C3  UNL     1     -32.223   8.948   1.484  1.00 20.00     0.065 A 
HETATM    4  C4  UNL     1     -33.250   9.524  -0.855  1.00 20.00     0.013 C 
ENDROOT
BRANCH   3   5
HETATM    5  C7  UNL     1     -32.576   8.229   2.742  1.00 20.00     0.012 C 
HETATM    6  C5  UNL     1     -32.961   6.762   2.475  1.00 20.00     0.012 C 
HETATM    7  C6  UNL     1     -31.428   8.273   3.768  1.00 20.00     0.012 C 
ENDBRANCH   3   5
BRANCH   3   8
HETATM    8  O8  UNL     1     -31.083   8.396   0.803  1.00 20.00    -0.389 OA
HETATM    9  H22 UNL     1     -31.440   7.883   0.066  1.00 20.00     0.210 HD
ENDBRANCH   3   8
TORSDOF 2
ENDMDL
MODEL 9
REMARK VINA RESULT:      -3.9      2.096      2.601
REMARK  2 active torsions:
REMARK  status: ('A' for Active; 'I' for Inactive)
REMARK    1  A    between atoms: C3_3  and  C7_7 
REMARK    2  A    between atoms: C3_3  and  O8_8 
ROOT
HETATM    1  C1  UNL     1     -34.670   6.219   2.599  1.00 20.00     0.045 A 
HETATM    2  C2  UNL     1     -33.848   5.064   3.111  1.00 20.00     0.019 A 
HETATM    3  C3  UNL     1     -33.772   6.407   3.796  1.00 20.00     0.065 A 
HETATM    4  C4  UNL     1     -32.714   4.537   2.300  1.00 20.00     0.013 C 
ENDROOT
BRANCH   3   5
HETATM    5  C7  UNL     1     -34.370   6.587   5.151  1.00 20.00     0.012 C 
HETATM    6  C5  UNL     1     -34.580   5.239   5.867  1.00 20.00     0.012 C 
HETATM    7  C6  UNL     1     -33.509   7.503   6.039  1.00 20.00     0.012 C 
ENDBRANCH   3   5
BRANCH   3   8
HETATM    8  O8  UNL     1     -32.591   7.196   3.575  1.00 20.00    -0.389 OA
HETATM    9  H22 UNL     1     -32.224   6.893   2.734  1.00 20.00     0.210 HD
ENDBRANCH   3   8
TORSDOF 2
ENDMDL
