MODEL 1
REMARK VINA RESULT:      -5.0      0.000      0.000
REMARK  3 active torsions:
REMARK  status: ('A' for Active; 'I' for Inactive)
REMARK    1  A    between atoms: C1_1  and  C7_7 
REMARK    2  A    between atoms: C1_1  and  C12_12 
REMARK    3  A    between atoms: C8_8  and  C13_13 
ROOT
HETATM    1  C2  UNL     1     -35.719  15.246  -3.733  1.00 20.00     0.001 C 
HETATM    2  C3  UNL     1     -34.952  16.296  -2.935  1.00 20.00     0.012 C 
HETATM    3  C4  UNL     1     -33.736  17.080  -5.110  1.00 20.00     0.012 C 
HETATM    4  C5  UNL     1     -34.817  14.133  -4.262  1.00 20.00     0.005 C 
HETATM    5  C6  UNL     1     -33.009  15.735  -5.168  1.00 20.00     0.006 C 
HETATM    6  C7  UNL     1     -34.372  17.441  -3.766  1.00 20.00     0.055 C 
HETATM    7  C8  UNL     1     -33.891  14.503  -5.429  1.00 20.00    -0.011 C 
ENDROOT
BRANCH   6   8
HETATM    8  C1  UNL     1     -33.369  18.168  -2.916  1.00 20.00     0.130 C 
HETATM    9  O14 UNL     1     -32.740  19.128  -3.359  1.00 20.00    -0.298 OA
BRANCH   8  10
HETATM   10  C12 UNL     1     -33.190  17.648  -1.501  1.00 20.00     0.074 C 
HETATM   11  C9  UNL     1     -32.215  18.483  -0.690  1.00 20.00     0.013 C 
ENDBRANCH   8  10
ENDBRANCH   6   8
BRANCH   7  12
HETATM   12  C13 UNL     1     -34.666  14.597  -6.749  1.00 20.00    -0.019 C 
HETATM   13  C10 UNL     1     -33.702  14.766  -7.917  1.00 20.00     0.010 C 
HETATM   14  C11 UNL     1     -35.539  13.362  -6.939  1.00 20.00     0.010 C 
ENDBRANCH   7  12
TORSDOF 3
ENDMDL
MODEL 2
REMARK VINA RESULT:      -4.6      1.848      2.570
REMARK  3 active torsions:
REMARK  status: ('A' for Active; 'I' for Inactive)
REMARK    1  A    between atoms: C1_1  and  C7_7 
REMARK    2  A    between atoms: C1_1  and  C12_12 
REMARK    3  A    between atoms: C8_8  and  C13_13 
ROOT
HETATM    1  C2  UNL     1     -33.178  15.191  -4.580  1.00 20.00     0.001 C 
HETATM    2  C3  UNL     1     -33.667  16.022  -3.398  1.00 20.00     0.012 C 
HETATM    3  C4  UNL     1     -36.138  15.725  -4.191  1.00 20.00     0.012 C 
HETATM    4  C5  UNL     1     -33.389  15.891  -5.921  1.00 20.00     0.005 C 
HETATM    5  C6  UNL     1     -35.826  16.576  -5.424  1.00 20.00     0.006 C 
HETATM    6  C7  UNL     1     -35.139  15.828  -3.036  1.00 20.00     0.055 C 
HETATM    7  C8  UNL     1     -34.834  15.968  -6.430  1.00 20.00    -0.011 C 
ENDROOT
BRANCH   6   8
HETATM    8  C1  UNL     1     -35.544  16.949  -2.123  1.00 20.00     0.130 C 
HETATM    9  O14 UNL     1     -36.639  17.498  -2.239  1.00 20.00    -0.298 OA
BRANCH   8  10
HETATM   10  C12 UNL     1     -34.531  17.349  -1.066  1.00 20.00     0.074 C 
HETATM   11  C9  UNL     1     -35.175  17.672   0.271  1.00 20.00     0.013 C 
ENDBRANCH   8  10
ENDBRANCH   6   8
BRANCH   7  12
HETATM   12  C13 UNL     1     -35.304  14.618  -6.983  1.00 20.00    -0.019 C 
HETATM   13  C10 UNL     1     -36.639  14.776  -7.702  1.00 20.00     0.010 C 
HETATM   14  C11 UNL     1     -34.250  14.033  -7.917  1.00 20.00     0.010 C 
ENDBRANCH   7  12
TORSDOF 3
ENDMDL
MODEL 3
REMARK VINA RESULT:      -4.5      2.476      5.542
REMARK  3 active torsions:
REMARK  status: ('A' for Active; 'I' for Inactive)
REMARK    1  A    between atoms: C1_1  and  C7_7 
REMARK    2  A    between atoms: C1_1  and  C12_12 
REMARK    3  A    between atoms: C8_8  and  C13_13 
ROOT
HETATM    1  C2  UNL     1     -34.615  17.567  -5.709  1.00 20.00     0.001 C 
HETATM    2  C3  UNL     1     -35.367  16.347  -6.233  1.00 20.00     0.012 C 
HETATM    3  C4  UNL     1     -36.190  15.798  -3.816  1.00 20.00     0.012 C 
HETATM    4  C5  UNL     1     -33.430  17.192  -4.821  1.00 20.00     0.005 C 
HETATM    5  C6  UNL     1     -34.749  15.476  -3.417  1.00 20.00     0.006 C 
HETATM    6  C7  UNL     1     -36.478  15.831  -5.319  1.00 20.00     0.055 C 
HETATM    7  C8  UNL     1     -33.768  16.661  -3.422  1.00 20.00    -0.011 C 
ENDROOT
BRANCH   6   8
HETATM    8  C1  UNL     1     -36.861  14.456  -5.786  1.00 20.00     0.130 C 
HETATM    9  O14 UNL     1     -37.564  13.724  -5.091  1.00 20.00    -0.298 OA
BRANCH   8  10
HETATM   10  C12 UNL     1     -36.335  14.042  -7.148  1.00 20.00     0.074 C 
HETATM   11  C9  UNL     1     -35.272  12.961  -7.061  1.00 20.00     0.013 C 
ENDBRANCH   8  10
ENDBRANCH   6   8
BRANCH   7  12
HETATM   12  C13 UNL     1     -34.200  17.793  -2.484  1.00 20.00    -0.019 C 
HETATM   13  C10 UNL     1     -34.324  17.278  -1.054  1.00 20.00     0.010 C 
HETATM   14  C11 UNL     1     -33.212  18.951  -2.560  1.00 20.00     0.010 C 
ENDBRANCH   7  12
TORSDOF 3
ENDMDL
MODEL 4
REMARK VINA RESULT:      -4.4      2.046      5.541
REMARK  3 active torsions:
REMARK  status: ('A' for Active; 'I' for Inactive)
REMARK    1  A    between atoms: C1_1  and  C7_7 
REMARK    2  A    between atoms: C1_1  and  C12_12 
REMARK    3  A    between atoms: C8_8  and  C13_13 
ROOT
HETATM    1  C2  UNL     1     -33.226  19.031  -3.010  1.00 20.00     0.001 C 
HETATM    2  C3  UNL     1     -33.510  18.182  -4.245  1.00 20.00     0.012 C 
HETATM    3  C4  UNL     1     -35.656  17.219  -3.109  1.00 20.00     0.012 C 
HETATM    4  C5  UNL     1     -32.846  18.192  -1.792  1.00 20.00     0.005 C 
HETATM    5  C6  UNL     1     -34.771  16.500  -2.088  1.00 20.00     0.006 C 
HETATM    6  C7  UNL     1     -34.954  17.701  -4.381  1.00 20.00     0.055 C 
HETATM    7  C8  UNL     1     -33.982  17.403  -1.126  1.00 20.00    -0.011 C 
ENDROOT
BRANCH   6   8
HETATM    8  C1  UNL     1     -34.984  16.611  -5.413  1.00 20.00     0.130 C 
HETATM    9  O14 UNL     1     -36.026  16.323  -6.002  1.00 20.00    -0.298 OA
BRANCH   8  10
HETATM   10  C12 UNL     1     -33.668  15.903  -5.677  1.00 20.00     0.074 C 
HETATM   11  C9  UNL     1     -33.582  14.551  -4.993  1.00 20.00     0.013 C 
ENDBRANCH   8  10
ENDBRANCH   6   8
BRANCH   7  12
HETATM   12  C13 UNL     1     -34.887  18.321  -0.296  1.00 20.00    -0.019 C 
HETATM   13  C10 UNL     1     -35.827  17.492   0.573  1.00 20.00     0.010 C 
HETATM   14  C11 UNL     1     -34.047  19.263   0.558  1.00 20.00     0.010 C 
ENDBRANCH   7  12
TORSDOF 3
ENDMDL
MODEL 5
REMARK VINA RESULT:      -4.4      1.917      2.872
REMARK  3 active torsions:
REMARK  status: ('A' for Active; 'I' for Inactive)
REMARK    1  A    between atoms: C1_1  and  C7_7 
REMARK    2  A    between atoms: C1_1  and  C12_12 
REMARK    3  A    between atoms: C8_8  and  C13_13 
ROOT
HETATM    1  C2  UNL     1     -33.773  15.412  -3.803  1.00 20.00     0.001 C 
HETATM    2  C3  UNL     1     -33.467  16.596  -2.890  1.00 20.00     0.012 C 
HETATM    3  C4  UNL     1     -35.986  16.743  -2.212  1.00 20.00     0.012 C 
HETATM    4  C5  UNL     1     -34.622  15.804  -5.011  1.00 20.00     0.005 C 
HETATM    5  C6  UNL     1     -36.327  17.172  -3.640  1.00 20.00     0.006 C 
HETATM    6  C7  UNL     1     -34.514  16.866  -1.809  1.00 20.00     0.055 C 
HETATM    7  C8  UNL     1     -36.099  16.115  -4.734  1.00 20.00    -0.011 C 
ENDROOT
BRANCH   6   8
HETATM    8  C1  UNL     1     -34.260  18.236  -1.250  1.00 20.00     0.130 C 
HETATM    9  O14 UNL     1     -35.164  18.884  -0.723  1.00 20.00    -0.298 OA
BRANCH   8  10
HETATM   10  C12 UNL     1     -32.840  18.757  -1.375  1.00 20.00     0.074 C 
HETATM   11  C9  UNL     1     -32.054  18.629  -0.083  1.00 20.00     0.013 C 
ENDBRANCH   8  10
ENDBRANCH   6   8
BRANCH   7  12
HETATM   12  C13 UNL     1     -36.905  14.833  -4.497  1.00 20.00    -0.019 C 
HETATM   13  C10 UNL     1     -38.399  15.123  -4.587  1.00 20.00     0.010 C 
HETATM   14  C11 UNL     1     -36.499  13.759  -5.500  1.00 20.00     0.010 C 
ENDBRANCH   7  12
TORSDOF 3
ENDMDL
MODEL 6
REMARK VINA RESULT:      -4.3      1.630      2.402
REMARK  3 active torsions:
REMARK  status: ('A' for Active; 'I' for Inactive)
REMARK    1  A    between atoms: C1_1  and  C7_7 
REMARK    2  A    between atoms: C1_1  and  C12_12 
REMARK    3  A    between atoms: C8_8  and  C13_13 
ROOT
HETATM    1  C2  UNL     1     -33.590  14.508  -5.098  1.00 20.00     0.001 C 
HETATM    2  C3  UNL     1     -33.412  15.429  -3.895  1.00 20.00     0.012 C 
HETATM    3  C4  UNL     1     -35.943  16.069  -3.992  1.00 20.00     0.012 C 
HETATM    4  C5  UNL     1     -33.891  15.272  -6.386  1.00 20.00     0.005 C 
HETATM    5  C6  UNL     1     -35.694  16.781  -5.323  1.00 20.00     0.006 C 
HETATM    6  C7  UNL     1     -34.700  15.773  -3.148  1.00 20.00     0.055 C 
HETATM    7  C8  UNL     1     -35.295  15.881  -6.505  1.00 20.00    -0.011 C 
ENDROOT
BRANCH   6   8
HETATM    8  C1  UNL     1     -34.417  16.941  -2.248  1.00 20.00     0.130 C 
HETATM    9  O14 UNL     1     -33.497  17.721  -2.491  1.00 20.00    -0.298 OA
BRANCH   8  10
HETATM   10  C12 UNL     1     -35.326  17.090  -1.041  1.00 20.00     0.074 C 
HETATM   11  C9  UNL     1     -34.688  17.897   0.076  1.00 20.00     0.013 C 
ENDBRANCH   8  10
ENDBRANCH   6   8
BRANCH   7  12
HETATM   12  C13 UNL     1     -36.345  14.808  -6.814  1.00 20.00    -0.019 C 
HETATM   13  C10 UNL     1     -37.664  15.459  -7.215  1.00 20.00     0.010 C 
HETATM   14  C11 UNL     1     -35.844  13.877  -7.912  1.00 20.00     0.010 C 
ENDBRANCH   7  12
TORSDOF 3
ENDMDL
MODEL 7
REMARK VINA RESULT:      -4.2      2.445      5.405
REMARK  3 active torsions:
REMARK  status: ('A' for Active; 'I' for Inactive)
REMARK    1  A    between atoms: C1_1  and  C7_7 
REMARK    2  A    between atoms: C1_1  and  C12_12 
REMARK    3  A    between atoms: C8_8  and  C13_13 
ROOT
HETATM    1  C2  UNL     1     -33.522  17.126  -4.771  1.00 20.00     0.001 C 
HETATM    2  C3  UNL     1     -34.591  16.779  -5.804  1.00 20.00     0.012 C 
HETATM    3  C4  UNL     1     -36.464  17.467  -4.118  1.00 20.00     0.012 C 
HETATM    4  C5  UNL     1     -33.529  16.176  -3.575  1.00 20.00     0.005 C 
HETATM    5  C6  UNL     1     -36.085  16.275  -3.237  1.00 20.00     0.006 C 
HETATM    6  C7  UNL     1     -35.956  17.422  -5.561  1.00 20.00     0.055 C 
HETATM    7  C8  UNL     1     -34.692  16.333  -2.587  1.00 20.00    -0.011 C 
ENDROOT
BRANCH   6   8
HETATM    8  C1  UNL     1     -36.962  16.715  -6.423  1.00 20.00     0.130 C 
HETATM    9  O14 UNL     1     -38.039  17.238  -6.701  1.00 20.00    -0.298 OA
BRANCH   8  10
HETATM   10  C12 UNL     1     -36.564  15.337  -6.921  1.00 20.00     0.074 C 
HETATM   11  C9  UNL     1     -37.144  14.218  -6.074  1.00 20.00     0.013 C 
ENDBRANCH   8  10
ENDBRANCH   6   8
BRANCH   7  12
HETATM   12  C13 UNL     1     -34.506  17.566  -1.694  1.00 20.00    -0.019 C 
HETATM   13  C10 UNL     1     -35.325  17.424  -0.417  1.00 20.00     0.010 C 
HETATM   14  C11 UNL     1     -33.029  17.768  -1.373  1.00 20.00     0.010 C 
ENDBRANCH   7  12
TORSDOF 3
ENDMDL
MODEL 8
REMARK VINA RESULT:      -4.2     10.604     12.246
REMARK  3 active torsions:
REMARK  status: ('A' for Active; 'I' for Inactive)
REMARK    1  A    between atoms: C1_1  and  C7_7 
REMARK    2  A    between atoms: C1_1  and  C12_12 
REMARK    3  A    between atoms: C8_8  and  C13_13 
ROOT
HETATM    1  C2  UNL     1     -32.900   5.493   2.480  1.00 20.00     0.001 C 
HETATM    2  C3  UNL     1     -32.557   6.736   1.665  1.00 20.00     0.012 C 
HETATM    3  C4  UNL     1     -32.638   8.196   3.831  1.00 20.00     0.012 C 
HETATM    4  C5  UNL     1     -34.321   5.528   3.039  1.00 20.00     0.005 C 
HETATM    5  C6  UNL     1     -34.145   7.946   3.921  1.00 20.00     0.006 C 
HETATM    6  C7  UNL     1     -31.991   7.903   2.474  1.00 20.00     0.055 C 
HETATM    7  C8  UNL     1     -34.572   6.496   4.203  1.00 20.00    -0.011 C 
ENDROOT
BRANCH   6   8
HETATM    8  C1  UNL     1     -32.050   9.134   1.616  1.00 20.00     0.130 C 
HETATM    9  O14 UNL     1     -32.142  10.253   2.117  1.00 20.00    -0.298 OA
BRANCH   8  10
HETATM   10  C12 UNL     1     -31.986   8.907   0.117  1.00 20.00     0.074 C 
HETATM   11  C9  UNL     1     -33.193   9.469  -0.612  1.00 20.00     0.013 C 
ENDBRANCH   8  10
ENDBRANCH   6   8
BRANCH   7  12
HETATM   12  C13 UNL     1     -33.996   5.952   5.516  1.00 20.00    -0.019 C 
HETATM   13  C10 UNL     1     -34.099   7.004   6.615  1.00 20.00     0.010 C 
HETATM   14  C11 UNL     1     -34.716   4.671   5.920  1.00 20.00     0.010 C 
ENDBRANCH   7  12
TORSDOF 3
ENDMDL
MODEL 9
REMARK VINA RESULT:      -4.1      2.420      5.329
REMARK  3 active torsions:
REMARK  status: ('A' for Active; 'I' for Inactive)
REMARK    1  A    between atoms: C1_1  and  C7_7 
REMARK    2  A    between atoms: C1_1  and  C12_12 
REMARK    3  A    between atoms: C8_8  and  C13_13 
ROOT
HETATM    1  C2  UNL     1     -33.648  17.000  -2.693  1.00 20.00     0.001 C 
HETATM    2  C3  UNL     1     -33.371  15.877  -3.687  1.00 20.00     0.012 C 
HETATM    3  C4  UNL     1     -35.574  16.450  -4.970  1.00 20.00     0.012 C 
HETATM    4  C5  UNL     1     -34.862  16.718  -1.809  1.00 20.00     0.005 C 
HETATM    5  C6  UNL     1     -36.381  15.980  -3.759  1.00 20.00     0.006 C 
HETATM    6  C7  UNL     1     -34.113  15.995  -5.019  1.00 20.00     0.055 C 
HETATM    7  C8  UNL     1     -36.236  16.826  -2.483  1.00 20.00    -0.011 C 
ENDROOT
BRANCH   6   8
HETATM    8  C1  UNL     1     -34.024  14.670  -5.719  1.00 20.00     0.130 C 
HETATM    9  O14 UNL     1     -33.855  13.628  -5.086  1.00 20.00    -0.298 OA
BRANCH   8  10
HETATM   10  C12 UNL     1     -34.156  14.702  -7.231  1.00 20.00     0.074 C 
HETATM   11  C9  UNL     1     -35.177  13.706  -7.751  1.00 20.00     0.013 C 
ENDBRANCH   8  10
ENDBRANCH   6   8
BRANCH   7  12
HETATM   12  C13 UNL     1     -36.643  18.289  -2.692  1.00 20.00    -0.019 C 
HETATM   13  C10 UNL     1     -38.114  18.380  -3.079  1.00 20.00     0.010 C 
HETATM   14  C11 UNL     1     -36.360  19.103  -1.434  1.00 20.00     0.010 C 
ENDBRANCH   7  12
TORSDOF 3
ENDMDL
