MODEL 1
REMARK VINA RESULT:      -5.5      0.000      0.000
REMARK  4 active torsions:
REMARK  status: ('A' for Active; 'I' for Inactive)
REMARK    1  A    between atoms: C6_6  and  C7_7 
REMARK    2  A    between atoms: C6_6  and  C9_9 
REMARK    3  A    between atoms: C8_8  and  C10_10 
REMARK    4  A    between atoms: C9_9  and  C10_10 
ROOT
HETATM    1  C5  UNL     1     -31.193   8.468   3.605  1.00 20.00     0.011 C 
HETATM    2  C9  UNL     1     -32.195   7.539   2.901  1.00 20.00     0.001 C 
ENDROOT
BRANCH   2   3
HETATM    3  C6  UNL     1     -33.145   8.330   1.968  1.00 20.00     0.009 C 
BRANCH   3   4
HETATM    4  C7  UNL     1     -32.465   9.333   1.010  1.00 20.00    -0.022 C 
HETATM    5  C1  UNL     1     -32.684  10.786   1.432  1.00 20.00     0.009 C 
HETATM    6  C2  UNL     1     -32.997   9.126  -0.412  1.00 20.00     0.009 C 
ENDBRANCH   3   4
ENDBRANCH   2   3
BRANCH   2   7
HETATM    7  C10 UNL     1     -32.959   6.652   3.932  1.00 20.00     0.089 C 
HETATM    8 CL11 UNL     1     -33.844   7.697   5.107  1.00 20.00    -0.124 Cl
BRANCH   7   9
HETATM    9  C8  UNL     1     -33.927   5.596   3.328  1.00 20.00    -0.004 C 
HETATM   10  C3  UNL     1     -34.718   4.846   4.407  1.00 20.00     0.011 C 
HETATM   11  C4  UNL     1     -33.180   4.560   2.473  1.00 20.00     0.011 C 
ENDBRANCH   7   9
ENDBRANCH   2   7
TORSDOF 4
ENDMDL
MODEL 2
REMARK VINA RESULT:      -5.4      1.635      2.520
REMARK  4 active torsions:
REMARK  status: ('A' for Active; 'I' for Inactive)
REMARK    1  A    between atoms: C6_6  and  C7_7 
REMARK    2  A    between atoms: C6_6  and  C9_9 
REMARK    3  A    between atoms: C8_8  and  C10_10 
REMARK    4  A    between atoms: C9_9  and  C10_10 
ROOT
HETATM    1  C5  UNL     1     -32.754   5.459   2.531  1.00 20.00     0.011 C 
HETATM    2  C9  UNL     1     -33.477   6.813   2.612  1.00 20.00     0.001 C 
ENDROOT
BRANCH   2   3
HETATM    3  C6  UNL     1     -32.481   7.995   2.524  1.00 20.00     0.009 C 
BRANCH   3   4
HETATM    4  C7  UNL     1     -32.479   8.777   1.192  1.00 20.00    -0.022 C 
HETATM    5  C1  UNL     1     -31.141   8.679   0.458  1.00 20.00     0.009 C 
HETATM    6  C2  UNL     1     -32.812  10.248   1.459  1.00 20.00     0.009 C 
ENDBRANCH   3   4
ENDBRANCH   2   3
BRANCH   2   7
HETATM    7  C10 UNL     1     -34.395   6.886   3.871  1.00 20.00     0.089 C 
HETATM    8 CL11 UNL     1     -35.941   6.010   3.556  1.00 20.00    -0.124 Cl
BRANCH   7   9
HETATM    9  C8  UNL     1     -33.762   6.382   5.199  1.00 20.00    -0.004 C 
HETATM   10  C3  UNL     1     -34.569   5.244   5.835  1.00 20.00     0.011 C 
HETATM   11  C4  UNL     1     -33.630   7.513   6.232  1.00 20.00     0.011 C 
ENDBRANCH   7   9
ENDBRANCH   2   7
TORSDOF 4
ENDMDL
MODEL 3
REMARK VINA RESULT:      -5.3      1.574      4.801
REMARK  4 active torsions:
REMARK  status: ('A' for Active; 'I' for Inactive)
REMARK    1  A    between atoms: C6_6  and  C7_7 
REMARK    2  A    between atoms: C6_6  and  C9_9 
REMARK    3  A    between atoms: C8_8  and  C10_10 
REMARK    4  A    between atoms: C9_9  and  C10_10 
ROOT
HETATM    1  C5  UNL     1     -34.549   6.417   1.846  1.00 20.00     0.011 C 
HETATM    2  C9  UNL     1     -33.172   6.624   2.495  1.00 20.00     0.001 C 
ENDROOT
BRANCH   2   3
HETATM    3  C6  UNL     1     -33.088   5.940   3.882  1.00 20.00     0.009 C 
BRANCH   3   4
HETATM    4  C7  UNL     1     -34.239   6.260   4.862  1.00 20.00    -0.022 C 
HETATM    5  C1  UNL     1     -33.827   7.263   5.940  1.00 20.00     0.009 C 
HETATM    6  C2  UNL     1     -34.725   4.966   5.522  1.00 20.00     0.009 C 
ENDBRANCH   3   4
ENDBRANCH   2   3
BRANCH   2   7
HETATM    7  C10 UNL     1     -32.795   8.137   2.543  1.00 20.00     0.089 C 
HETATM    8 CL11 UNL     1     -31.303   8.369   3.530  1.00 20.00    -0.124 Cl
BRANCH   7   9
HETATM    9  C8  UNL     1     -32.632   8.836   1.163  1.00 20.00    -0.004 C 
HETATM   10  C3  UNL     1     -31.236   8.625   0.565  1.00 20.00     0.011 C 
HETATM   11  C4  UNL     1     -32.891  10.348   1.256  1.00 20.00     0.011 C 
ENDBRANCH   7   9
ENDBRANCH   2   7
TORSDOF 4
ENDMDL
MODEL 4
REMARK VINA RESULT:      -5.2      1.551      2.151
REMARK  4 active torsions:
REMARK  status: ('A' for Active; 'I' for Inactive)
REMARK    1  A    between atoms: C6_6  and  C7_7 
REMARK    2  A    between atoms: C6_6  and  C9_9 
REMARK    3  A    between atoms: C8_8  and  C10_10 
REMARK    4  A    between atoms: C9_9  and  C10_10 
ROOT
HETATM    1  C5  UNL     1     -31.432   8.597   4.030  1.00 20.00     0.011 C 
HETATM    2  C9  UNL     1     -31.970   7.680   2.919  1.00 20.00     0.001 C 
ENDROOT
BRANCH   2   3
HETATM    3  C6  UNL     1     -31.826   8.335   1.524  1.00 20.00     0.009 C 
BRANCH   3   4
HETATM    4  C7  UNL     1     -32.933   9.339   1.133  1.00 20.00    -0.022 C 
HETATM    5  C1  UNL     1     -33.252   9.306  -0.362  1.00 20.00     0.009 C 
HETATM    6  C2  UNL     1     -32.509  10.754   1.538  1.00 20.00     0.009 C 
ENDBRANCH   3   4
ENDBRANCH   2   3
BRANCH   2   7
HETATM    7  C10 UNL     1     -33.428   7.221   3.227  1.00 20.00     0.089 C 
HETATM    8 CL11 UNL     1     -34.062   6.229   1.859  1.00 20.00    -0.124 Cl
BRANCH   7   9
HETATM    9  C8  UNL     1     -33.630   6.463   4.569  1.00 20.00    -0.004 C 
HETATM   10  C3  UNL     1     -34.815   5.491   4.518  1.00 20.00     0.011 C 
HETATM   11  C4  UNL     1     -33.853   7.431   5.742  1.00 20.00     0.011 C 
ENDBRANCH   7   9
ENDBRANCH   2   7
TORSDOF 4
ENDMDL
MODEL 5
REMARK VINA RESULT:      -5.0      1.151      1.967
REMARK  4 active torsions:
REMARK  status: ('A' for Active; 'I' for Inactive)
REMARK    1  A    between atoms: C6_6  and  C7_7 
REMARK    2  A    between atoms: C6_6  and  C9_9 
REMARK    3  A    between atoms: C8_8  and  C10_10 
REMARK    4  A    between atoms: C9_9  and  C10_10 
ROOT
HETATM    1  C5  UNL     1     -33.820   6.168   1.820  1.00 20.00     0.011 C 
HETATM    2  C9  UNL     1     -33.593   7.178   2.955  1.00 20.00     0.001 C 
ENDROOT
BRANCH   2   3
HETATM    3  C6  UNL     1     -32.422   8.140   2.636  1.00 20.00     0.009 C 
BRANCH   3   4
HETATM    4  C7  UNL     1     -32.479   8.835   1.257  1.00 20.00    -0.022 C 
HETATM    5  C1  UNL     1     -31.181   8.670   0.465  1.00 20.00     0.009 C 
HETATM    6  C2  UNL     1     -32.780  10.325   1.446  1.00 20.00     0.009 C 
ENDBRANCH   3   4
ENDBRANCH   2   3
BRANCH   2   7
HETATM    7  C10 UNL     1     -33.426   6.454   4.327  1.00 20.00     0.089 C 
HETATM    8 CL11 UNL     1     -33.284   7.671   5.651  1.00 20.00    -0.124 Cl
BRANCH   7   9
HETATM    9  C8  UNL     1     -34.525   5.412   4.679  1.00 20.00    -0.004 C 
HETATM   10  C3  UNL     1     -34.869   5.411   6.174  1.00 20.00     0.011 C 
HETATM   11  C4  UNL     1     -34.109   3.987   4.281  1.00 20.00     0.011 C 
ENDBRANCH   7   9
ENDBRANCH   2   7
TORSDOF 4
ENDMDL
MODEL 6
REMARK VINA RESULT:      -4.6      1.388      4.640
REMARK  4 active torsions:
REMARK  status: ('A' for Active; 'I' for Inactive)
REMARK    1  A    between atoms: C6_6  and  C7_7 
REMARK    2  A    between atoms: C6_6  and  C9_9 
REMARK    3  A    between atoms: C8_8  and  C10_10 
REMARK    4  A    between atoms: C9_9  and  C10_10 
ROOT
HETATM    1  C5  UNL     1     -32.966   4.854   2.406  1.00 20.00     0.011 C 
HETATM    2  C9  UNL     1     -33.338   6.151   3.142  1.00 20.00     0.001 C 
ENDROOT
BRANCH   2   3
HETATM    3  C6  UNL     1     -34.739   6.052   3.794  1.00 20.00     0.009 C 
BRANCH   3   4
HETATM    4  C7  UNL     1     -34.767   6.082   5.338  1.00 20.00    -0.022 C 
HETATM    5  C1  UNL     1     -33.794   7.109   5.921  1.00 20.00     0.009 C 
HETATM    6  C2  UNL     1     -34.434   4.691   5.885  1.00 20.00     0.009 C 
ENDBRANCH   3   4
ENDBRANCH   2   3
BRANCH   2   7
HETATM    7  C10 UNL     1     -33.191   7.390   2.207  1.00 20.00     0.089 C 
HETATM    8 CL11 UNL     1     -34.306   8.703   2.745  1.00 20.00    -0.124 Cl
BRANCH   7   9
HETATM    9  C8  UNL     1     -31.749   7.950   2.049  1.00 20.00    -0.004 C 
HETATM   10  C3  UNL     1     -31.201   8.527   3.360  1.00 20.00     0.011 C 
HETATM   11  C4  UNL     1     -31.677   9.047   0.975  1.00 20.00     0.011 C 
ENDBRANCH   7   9
ENDBRANCH   2   7
TORSDOF 4
ENDMDL
MODEL 7
REMARK VINA RESULT:      -4.6      1.448      4.601
REMARK  4 active torsions:
REMARK  status: ('A' for Active; 'I' for Inactive)
REMARK    1  A    between atoms: C6_6  and  C7_7 
REMARK    2  A    between atoms: C6_6  and  C9_9 
REMARK    3  A    between atoms: C8_8  and  C10_10 
REMARK    4  A    between atoms: C9_9  and  C10_10 
ROOT
HETATM    1  C5  UNL     1     -33.330   7.475   5.233  1.00 20.00     0.011 C 
HETATM    2  C9  UNL     1     -33.671   7.797   3.769  1.00 20.00     0.001 C 
ENDROOT
BRANCH   2   3
HETATM    3  C6  UNL     1     -34.015   6.515   2.971  1.00 20.00     0.009 C 
BRANCH   3   4
HETATM    4  C7  UNL     1     -33.410   5.201   3.514  1.00 20.00    -0.022 C 
HETATM    5  C1  UNL     1     -32.845   4.315   2.403  1.00 20.00     0.009 C 
HETATM    6  C2  UNL     1     -34.477   4.428   4.295  1.00 20.00     0.009 C 
ENDBRANCH   3   4
ENDBRANCH   2   3
BRANCH   2   7
HETATM    7  C10 UNL     1     -32.543   8.642   3.102  1.00 20.00     0.089 C 
HETATM    8 CL11 UNL     1     -30.931   7.922   3.477  1.00 20.00    -0.124 Cl
BRANCH   7   9
HETATM    9  C8  UNL     1     -32.681   8.862   1.568  1.00 20.00    -0.004 C 
HETATM   10  C3  UNL     1     -31.410   8.468   0.806  1.00 20.00     0.011 C 
HETATM   11  C4  UNL     1     -33.010  10.324   1.230  1.00 20.00     0.011 C 
ENDBRANCH   7   9
ENDBRANCH   2   7
TORSDOF 4
ENDMDL
MODEL 8
REMARK VINA RESULT:      -4.5      1.626      4.595
REMARK  4 active torsions:
REMARK  status: ('A' for Active; 'I' for Inactive)
REMARK    1  A    between atoms: C6_6  and  C7_7 
REMARK    2  A    between atoms: C6_6  and  C9_9 
REMARK    3  A    between atoms: C8_8  and  C10_10 
REMARK    4  A    between atoms: C9_9  and  C10_10 
ROOT
HETATM    1  C5  UNL     1     -31.119   8.380   3.594  1.00 20.00     0.011 C 
HETATM    2  C9  UNL     1     -32.487   8.012   2.997  1.00 20.00     0.001 C 
ENDROOT
BRANCH   2   3
HETATM    3  C6  UNL     1     -33.012   6.671   3.565  1.00 20.00     0.009 C 
BRANCH   3   4
HETATM    4  C7  UNL     1     -34.192   6.775   4.557  1.00 20.00    -0.022 C 
HETATM    5  C1  UNL     1     -33.757   7.282   5.932  1.00 20.00     0.009 C 
HETATM    6  C2  UNL     1     -34.863   5.406   4.702  1.00 20.00     0.009 C 
ENDBRANCH   3   4
ENDBRANCH   2   3
BRANCH   2   7
HETATM    7  C10 UNL     1     -32.444   8.036   1.438  1.00 20.00     0.089 C 
HETATM    8 CL11 UNL     1     -33.842   7.111   0.771  1.00 20.00    -0.124 Cl
BRANCH   7   9
HETATM    9  C8  UNL     1     -32.382   9.446   0.786  1.00 20.00    -0.004 C 
HETATM   10  C3  UNL     1     -33.035  10.523   1.660  1.00 20.00     0.011 C 
HETATM   11  C4  UNL     1     -33.063   9.467  -0.592  1.00 20.00     0.011 C 
ENDBRANCH   7   9
ENDBRANCH   2   7
TORSDOF 4
ENDMDL
MODEL 9
REMARK VINA RESULT:      -4.4      2.054      4.987
REMARK  4 active torsions:
REMARK  status: ('A' for Active; 'I' for Inactive)
REMARK    1  A    between atoms: C6_6  and  C7_7 
REMARK    2  A    between atoms: C6_6  and  C9_9 
REMARK    3  A    between atoms: C8_8  and  C10_10 
REMARK    4  A    between atoms: C9_9  and  C10_10 
ROOT
HETATM    1  C5  UNL     1     -32.951   6.288   1.670  1.00 20.00     0.011 C 
HETATM    2  C9  UNL     1     -32.448   7.378   2.629  1.00 20.00     0.001 C 
ENDROOT
BRANCH   2   3
HETATM    3  C6  UNL     1     -33.503   7.714   3.711  1.00 20.00     0.009 C 
BRANCH   3   4
HETATM    4  C7  UNL     1     -33.779   6.604   4.750  1.00 20.00    -0.022 C 
HETATM    5  C1  UNL     1     -35.032   5.793   4.420  1.00 20.00     0.009 C 
HETATM    6  C2  UNL     1     -33.922   7.228   6.142  1.00 20.00     0.009 C 
ENDBRANCH   3   4
ENDBRANCH   2   3
BRANCH   2   7
HETATM    7  C10 UNL     1     -31.961   8.636   1.846  1.00 20.00     0.089 C 
HETATM    8 CL11 UNL     1     -30.872   8.137   0.497  1.00 20.00    -0.124 Cl
BRANCH   7   9
HETATM    9  C8  UNL     1     -33.081   9.570   1.305  1.00 20.00    -0.004 C 
HETATM   10  C3  UNL     1     -33.192   9.522  -0.224  1.00 20.00     0.011 C 
HETATM   11  C4  UNL     1     -32.857  11.031   1.726  1.00 20.00     0.011 C 
ENDBRANCH   7   9
ENDBRANCH   2   7
TORSDOF 4
ENDMDL
