MODEL 1
REMARK VINA RESULT:      -5.9      0.000      0.000
REMARK  4 active torsions:
REMARK  status: ('A' for Active; 'I' for Inactive)
REMARK    1  A    between atoms: C3_3  and  C5_5 
REMARK    2  A    between atoms: C3_3  and  O8_8 
REMARK    3  A    between atoms: C5_5  and  C6_6 
REMARK    4  A    between atoms: C6_6  and  C7_7 
ROOT
HETATM    1  C1  UNL     1     -31.462   8.231   3.501  1.00 20.00     0.045 A 
HETATM    2  C2  UNL     1     -32.267   8.694   2.314  1.00 20.00     0.019 A 
HETATM    3  C3  UNL     1     -32.692   7.465   3.083  1.00 20.00     0.062 A 
HETATM    4  C4  UNL     1     -31.698   8.597   0.940  1.00 20.00     0.013 C 
ENDROOT
BRANCH   3   5
HETATM    5  C5  UNL     1     -33.916   7.506   3.934  1.00 20.00     0.047 C 
BRANCH   5   6
HETATM    6  C6  UNL     1     -33.819   6.548   5.123  1.00 20.00     0.120 C 
BRANCH   6   7
HETATM    7  C7  UNL     1     -34.697   5.328   4.946  1.00 20.00     0.388 C 
HETATM    8  F9  UNL     1     -35.758   5.597   4.156  1.00 20.00    -0.171 F 
HETATM    9  F10 UNL     1     -34.011   4.305   4.392  1.00 20.00    -0.171 F 
HETATM   10  F11 UNL     1     -35.169   4.907   6.139  1.00 20.00    -0.171 F 
ENDBRANCH   6   7
ENDBRANCH   5   6
ENDBRANCH   3   5
BRANCH   3  11
HETATM   11  O8  UNL     1     -32.455   6.188   2.468  1.00 20.00    -0.389 OA
HETATM   12  H22 UNL     1     -33.157   6.075   1.814  1.00 20.00     0.210 HD
ENDBRANCH   3  11
TORSDOF 4
ENDMDL
MODEL 2
REMARK VINA RESULT:      -5.8      3.202      4.740
REMARK  4 active torsions:
REMARK  status: ('A' for Active; 'I' for Inactive)
REMARK    1  A    between atoms: C3_3  and  C5_5 
REMARK    2  A    between atoms: C3_3  and  O8_8 
REMARK    3  A    between atoms: C5_5  and  C6_6 
REMARK    4  A    between atoms: C6_6  and  C7_7 
ROOT
HETATM    1  C1  UNL     1     -35.207   6.161   3.372  1.00 20.00     0.045 A 
HETATM    2  C2  UNL     1     -34.528   5.794   4.667  1.00 20.00     0.019 A 
HETATM    3  C3  UNL     1     -33.717   6.340   3.516  1.00 20.00     0.062 A 
HETATM    4  C4  UNL     1     -34.431   4.366   5.081  1.00 20.00     0.013 C 
ENDROOT
BRANCH   3   5
HETATM    5  C5  UNL     1     -33.138   7.713   3.598  1.00 20.00     0.047 C 
BRANCH   5   6
HETATM    6  C6  UNL     1     -31.849   7.840   2.785  1.00 20.00     0.120 C 
BRANCH   6   7
HETATM    7  C7  UNL     1     -32.032   8.707   1.558  1.00 20.00     0.388 C 
HETATM    8  F9  UNL     1     -32.079  10.016   1.884  1.00 20.00    -0.171 F 
HETATM    9  F10 UNL     1     -31.024   8.531   0.677  1.00 20.00    -0.171 F 
HETATM   10  F11 UNL     1     -33.186   8.399   0.928  1.00 20.00    -0.171 F 
ENDBRANCH   6   7
ENDBRANCH   5   6
ENDBRANCH   3   5
BRANCH   3  11
HETATM   11  O8  UNL     1     -32.900   5.410   2.784  1.00 20.00    -0.389 OA
HETATM   12  H22 UNL     1     -33.389   4.577   2.781  1.00 20.00     0.210 HD
ENDBRANCH   3  11
TORSDOF 4
ENDMDL
MODEL 3
REMARK VINA RESULT:      -5.8      3.201      4.794
REMARK  4 active torsions:
REMARK  status: ('A' for Active; 'I' for Inactive)
REMARK    1  A    between atoms: C3_3  and  C5_5 
REMARK    2  A    between atoms: C3_3  and  O8_8 
REMARK    3  A    between atoms: C5_5  and  C6_6 
REMARK    4  A    between atoms: C6_6  and  C7_7 
ROOT
HETATM    1  C1  UNL     1     -35.216   6.160   3.378  1.00 20.00     0.045 A 
HETATM    2  C2  UNL     1     -34.536   5.786   4.670  1.00 20.00     0.019 A 
HETATM    3  C3  UNL     1     -33.725   6.332   3.519  1.00 20.00     0.062 A 
HETATM    4  C4  UNL     1     -34.445   4.357   5.080  1.00 20.00     0.013 C 
ENDROOT
BRANCH   3   5
HETATM    5  C5  UNL     1     -33.140   7.701   3.603  1.00 20.00     0.047 C 
BRANCH   5   6
HETATM    6  C6  UNL     1     -31.858   7.828   2.778  1.00 20.00     0.120 C 
BRANCH   6   7
HETATM    7  C7  UNL     1     -32.048   8.707   1.561  1.00 20.00     0.388 C 
HETATM    8  F9  UNL     1     -33.203   8.420   0.924  1.00 20.00    -0.171 F 
HETATM    9  F10 UNL     1     -32.067  10.014   1.897  1.00 20.00    -0.171 F 
HETATM   10  F11 UNL     1     -31.039   8.524   0.682  1.00 20.00    -0.171 F 
ENDBRANCH   6   7
ENDBRANCH   5   6
ENDBRANCH   3   5
BRANCH   3  11
HETATM   11  O8  UNL     1     -32.915   5.400   2.782  1.00 20.00    -0.389 OA
HETATM   12  H22 UNL     1     -32.190   5.157   3.372  1.00 20.00     0.210 HD
ENDBRANCH   3  11
TORSDOF 4
ENDMDL
MODEL 4
REMARK VINA RESULT:      -5.6      3.795      5.198
REMARK  4 active torsions:
REMARK  status: ('A' for Active; 'I' for Inactive)
REMARK    1  A    between atoms: C3_3  and  C5_5 
REMARK    2  A    between atoms: C3_3  and  O8_8 
REMARK    3  A    between atoms: C5_5  and  C6_6 
REMARK    4  A    between atoms: C6_6  and  C7_7 
ROOT
HETATM    1  C1  UNL     1     -33.086   5.881   3.351  1.00 20.00     0.045 A 
HETATM    2  C2  UNL     1     -33.959   6.896   4.044  1.00 20.00     0.019 A 
HETATM    3  C3  UNL     1     -32.832   7.353   3.148  1.00 20.00     0.062 A 
HETATM    4  C4  UNL     1     -33.892   7.054   5.524  1.00 20.00     0.013 C 
ENDROOT
BRANCH   3   5
HETATM    5  C5  UNL     1     -33.137   7.983   1.831  1.00 20.00     0.047 C 
BRANCH   5   6
HETATM    6  C6  UNL     1     -32.093   9.032   1.443  1.00 20.00     0.120 C 
BRANCH   6   7
HETATM    7  C7  UNL     1     -32.713  10.223   0.745  1.00 20.00     0.388 C 
HETATM    8  F9  UNL     1     -31.829  11.237   0.626  1.00 20.00    -0.171 F 
HETATM    9  F10 UNL     1     -33.147   9.898  -0.491  1.00 20.00    -0.171 F 
HETATM   10  F11 UNL     1     -33.773  10.684   1.444  1.00 20.00    -0.171 F 
ENDBRANCH   6   7
ENDBRANCH   5   6
ENDBRANCH   3   5
BRANCH   3  11
HETATM   11  O8  UNL     1     -31.655   7.879   3.783  1.00 20.00    -0.389 OA
HETATM   12  H22 UNL     1     -30.975   7.906   3.098  1.00 20.00     0.210 HD
ENDBRANCH   3  11
TORSDOF 4
ENDMDL
MODEL 5
REMARK VINA RESULT:      -5.2      1.046      1.700
REMARK  4 active torsions:
REMARK  status: ('A' for Active; 'I' for Inactive)
REMARK    1  A    between atoms: C3_3  and  C5_5 
REMARK    2  A    between atoms: C3_3  and  O8_8 
REMARK    3  A    between atoms: C5_5  and  C6_6 
REMARK    4  A    between atoms: C6_6  and  C7_7 
ROOT
HETATM    1  C1  UNL     1     -33.280   9.018   2.261  1.00 20.00     0.045 A 
HETATM    2  C2  UNL     1     -32.447   8.310   1.224  1.00 20.00     0.019 A 
HETATM    3  C3  UNL     1     -32.403   7.859   2.665  1.00 20.00     0.062 A 
HETATM    4  C4  UNL     1     -31.293   9.008   0.590  1.00 20.00     0.013 C 
ENDROOT
BRANCH   3   5
HETATM    5  C5  UNL     1     -33.023   6.561   3.058  1.00 20.00     0.047 C 
BRANCH   5   6
HETATM    6  C6  UNL     1     -33.795   6.670   4.374  1.00 20.00     0.120 C 
BRANCH   6   7
HETATM    7  C7  UNL     1     -34.748   5.512   4.574  1.00 20.00     0.388 C 
HETATM    8  F9  UNL     1     -34.224   4.359   4.108  1.00 20.00    -0.171 F 
HETATM    9  F10 UNL     1     -35.046   5.340   5.879  1.00 20.00    -0.171 F 
HETATM   10  F11 UNL     1     -35.906   5.732   3.914  1.00 20.00    -0.171 F 
ENDBRANCH   6   7
ENDBRANCH   5   6
ENDBRANCH   3   5
BRANCH   3  11
HETATM   11  O8  UNL     1     -31.232   8.197   3.427  1.00 20.00    -0.389 OA
HETATM   12  H22 UNL     1     -31.038   9.120   3.219  1.00 20.00     0.210 HD
ENDBRANCH   3  11
TORSDOF 4
ENDMDL
MODEL 6
REMARK VINA RESULT:      -5.1      1.894      2.602
REMARK  4 active torsions:
REMARK  status: ('A' for Active; 'I' for Inactive)
REMARK    1  A    between atoms: C3_3  and  C5_5 
REMARK    2  A    between atoms: C3_3  and  O8_8 
REMARK    3  A    between atoms: C5_5  and  C6_6 
REMARK    4  A    between atoms: C6_6  and  C7_7 
ROOT
HETATM    1  C1  UNL     1     -32.433  10.498   1.399  1.00 20.00     0.045 A 
HETATM    2  C2  UNL     1     -33.332   9.559   0.637  1.00 20.00     0.019 A 
HETATM    3  C3  UNL     1     -32.274   9.007   1.562  1.00 20.00     0.062 A 
HETATM    4  C4  UNL     1     -33.210   9.444  -0.844  1.00 20.00     0.013 C 
ENDROOT
BRANCH   3   5
HETATM    5  C5  UNL     1     -32.673   8.354   2.843  1.00 20.00     0.047 C 
BRANCH   5   6
HETATM    6  C6  UNL     1     -32.460   6.840   2.804  1.00 20.00     0.120 C 
BRANCH   6   7
HETATM    7  C7  UNL     1     -33.755   6.077   2.972  1.00 20.00     0.388 C 
HETATM    8  F9  UNL     1     -34.539   6.641   3.915  1.00 20.00    -0.171 F 
HETATM    9  F10 UNL     1     -34.454   6.035   1.818  1.00 20.00    -0.171 F 
HETATM   10  F11 UNL     1     -33.510   4.804   3.350  1.00 20.00    -0.171 F 
ENDBRANCH   6   7
ENDBRANCH   5   6
ENDBRANCH   3   5
BRANCH   3  11
HETATM   11  O8  UNL     1     -31.103   8.432   0.958  1.00 20.00    -0.389 OA
HETATM   12  H22 UNL     1     -30.426   9.120   0.987  1.00 20.00     0.210 HD
ENDBRANCH   3  11
TORSDOF 4
ENDMDL
MODEL 7
REMARK VINA RESULT:      -4.8      2.677      4.389
REMARK  4 active torsions:
REMARK  status: ('A' for Active; 'I' for Inactive)
REMARK    1  A    between atoms: C3_3  and  C5_5 
REMARK    2  A    between atoms: C3_3  and  O8_8 
REMARK    3  A    between atoms: C5_5  and  C6_6 
REMARK    4  A    between atoms: C6_6  and  C7_7 
ROOT
HETATM    1  C1  UNL     1     -34.789   5.159   5.942  1.00 20.00     0.045 A 
HETATM    2  C2  UNL     1     -33.756   4.674   4.958  1.00 20.00     0.019 A 
HETATM    3  C3  UNL     1     -34.468   5.985   4.722  1.00 20.00     0.062 A 
HETATM    4  C4  UNL     1     -34.031   3.475   4.116  1.00 20.00     0.013 C 
ENDROOT
BRANCH   3   5
HETATM    5  C5  UNL     1     -33.727   7.271   4.870  1.00 20.00     0.047 C 
BRANCH   5   6
HETATM    6  C6  UNL     1     -33.599   8.014   3.539  1.00 20.00     0.120 C 
BRANCH   6   7
HETATM    7  C7  UNL     1     -32.310   7.682   2.821  1.00 20.00     0.388 C 
HETATM    8  F9  UNL     1     -31.234   8.038   3.553  1.00 20.00    -0.171 F 
HETATM    9  F10 UNL     1     -32.220   6.360   2.559  1.00 20.00    -0.171 F 
HETATM   10  F11 UNL     1     -32.240   8.338   1.643  1.00 20.00    -0.171 F 
ENDBRANCH   6   7
ENDBRANCH   5   6
ENDBRANCH   3   5
BRANCH   3  11
HETATM   11  O8  UNL     1     -35.479   6.013   3.700  1.00 20.00    -0.389 OA
HETATM   12  H22 UNL     1     -35.143   6.601   3.012  1.00 20.00     0.210 HD
ENDBRANCH   3  11
TORSDOF 4
ENDMDL
MODEL 8
REMARK VINA RESULT:      -4.4     11.411     12.521
REMARK  4 active torsions:
REMARK  status: ('A' for Active; 'I' for Inactive)
REMARK    1  A    between atoms: C3_3  and  C5_5 
REMARK    2  A    between atoms: C3_3  and  O8_8 
REMARK    3  A    between atoms: C5_5  and  C6_6 
REMARK    4  A    between atoms: C6_6  and  C7_7 
ROOT
HETATM    1  C1  UNL     1     -36.327  13.896  -7.148  1.00 20.00     0.045 A 
HETATM    2  C2  UNL     1     -36.784  14.794  -6.027  1.00 20.00     0.019 A 
HETATM    3  C3  UNL     1     -35.634  13.840  -5.810  1.00 20.00     0.062 A 
HETATM    4  C4  UNL     1     -38.112  14.573  -5.387  1.00 20.00     0.013 C 
ENDROOT
BRANCH   3   5
HETATM    5  C5  UNL     1     -34.245  14.367  -5.671  1.00 20.00     0.047 C 
BRANCH   5   6
HETATM    6  C6  UNL     1     -33.823  14.488  -4.206  1.00 20.00     0.120 C 
BRANCH   6   7
HETATM    7  C7  UNL     1     -34.237  15.810  -3.599  1.00 20.00     0.388 C 
HETATM    8  F9  UNL     1     -33.325  16.248  -2.705  1.00 20.00    -0.171 F 
HETATM    9  F10 UNL     1     -34.384  16.761  -4.547  1.00 20.00    -0.171 F 
HETATM   10  F11 UNL     1     -35.418  15.688  -2.955  1.00 20.00    -0.171 F 
ENDBRANCH   6   7
ENDBRANCH   5   6
ENDBRANCH   3   5
BRANCH   3  11
HETATM   11  O8  UNL     1     -35.889  12.666  -5.021  1.00 20.00    -0.389 OA
HETATM   12  H22 UNL     1     -36.732  12.826  -4.576  1.00 20.00     0.210 HD
ENDBRANCH   3  11
TORSDOF 4
ENDMDL
MODEL 9
REMARK VINA RESULT:      -4.3     11.521     12.259
REMARK  4 active torsions:
REMARK  status: ('A' for Active; 'I' for Inactive)
REMARK    1  A    between atoms: C3_3  and  C5_5 
REMARK    2  A    between atoms: C3_3  and  O8_8 
REMARK    3  A    between atoms: C5_5  and  C6_6 
REMARK    4  A    between atoms: C6_6  and  C7_7 
ROOT
HETATM    1  C1  UNL     1     -33.389  15.728  -6.045  1.00 20.00     0.045 A 
HETATM    2  C2  UNL     1     -34.519  14.752  -6.248  1.00 20.00     0.019 A 
HETATM    3  C3  UNL     1     -33.789  14.799  -4.927  1.00 20.00     0.062 A 
HETATM    4  C4  UNL     1     -34.357  13.607  -7.188  1.00 20.00     0.013 C 
ENDROOT
BRANCH   3   5
HETATM    5  C5  UNL     1     -34.472  15.342  -3.717  1.00 20.00     0.047 C 
BRANCH   5   6
HETATM    6  C6  UNL     1     -33.610  16.376  -2.990  1.00 20.00     0.120 C 
BRANCH   6   7
HETATM    7  C7  UNL     1     -34.384  17.109  -1.916  1.00 20.00     0.388 C 
HETATM    8  F9  UNL     1     -34.895  18.268  -2.384  1.00 20.00    -0.171 F 
HETATM    9  F10 UNL     1     -35.405  16.360  -1.447  1.00 20.00    -0.171 F 
HETATM   10  F11 UNL     1     -33.581  17.407  -0.872  1.00 20.00    -0.171 F 
ENDBRANCH   6   7
ENDBRANCH   5   6
ENDBRANCH   3   5
BRANCH   3  11
HETATM   11  O8  UNL     1     -32.870  13.730  -4.642  1.00 20.00    -0.389 OA
HETATM   12  H22 UNL     1     -31.987  14.096  -4.785  1.00 20.00     0.210 HD
ENDBRANCH   3  11
TORSDOF 4
ENDMDL
