MODEL 1
REMARK VINA RESULT:      -5.3      0.000      0.000
REMARK  3 active torsions:
REMARK  status: ('A' for Active; 'I' for Inactive)
REMARK    1  A    between atoms: C3_3  and  C9_9 
REMARK    2  A    between atoms: C3_3  and  O10_10 
REMARK    3  A    between atoms: C8_8  and  C9_9 
ROOT
HETATM    1  C1  UNL     1     -34.390   4.954   5.354  1.00 20.00     0.046 A 
HETATM    2  C2  UNL     1     -34.530   6.440   5.564  1.00 20.00     0.019 A 
HETATM    3  C3  UNL     1     -34.726   5.847   4.186  1.00 20.00     0.068 A 
HETATM    4  C4  UNL     1     -33.339   7.264   5.916  1.00 20.00     0.013 C 
ENDROOT
BRANCH   3   5
HETATM    5  C9  UNL     1     -33.704   6.048   3.050  1.00 20.00    -0.017 C 
HETATM    6  C6  UNL     1     -32.881   4.758   2.901  1.00 20.00     0.018 C 
HETATM    7  C7  UNL     1     -34.472   6.312   1.745  1.00 20.00     0.018 C 
BRANCH   5   8
HETATM    8  C8  UNL     1     -32.799   7.251   3.421  1.00 20.00     0.007 C 
HETATM    9  C5  UNL     1     -32.266   8.066   2.250  1.00 20.00     0.006 C 
ENDBRANCH   5   8
ENDBRANCH   3   5
BRANCH   3  10
HETATM   10  O10 UNL     1     -36.089   5.791   3.726  1.00 20.00    -0.389 OA
HETATM   11  H28 UNL     1     -36.413   4.915   3.973  1.00 20.00     0.210 HD
ENDBRANCH   3  10
TORSDOF 3
ENDMDL
MODEL 2
REMARK VINA RESULT:      -4.7     11.693     12.859
REMARK  3 active torsions:
REMARK  status: ('A' for Active; 'I' for Inactive)
REMARK    1  A    between atoms: C3_3  and  C9_9 
REMARK    2  A    between atoms: C3_3  and  O10_10 
REMARK    3  A    between atoms: C8_8  and  C9_9 
ROOT
HETATM    1  C1  UNL     1     -36.342  14.312  -6.892  1.00 20.00     0.046 A 
HETATM    2  C2  UNL     1     -35.090  13.522  -7.174  1.00 20.00     0.019 A 
HETATM    3  C3  UNL     1     -35.440  13.907  -5.752  1.00 20.00     0.068 A 
HETATM    4  C4  UNL     1     -33.958  14.147  -7.914  1.00 20.00     0.013 C 
ENDROOT
BRANCH   3   5
HETATM    5  C9  UNL     1     -34.655  14.980  -4.973  1.00 20.00    -0.017 C 
HETATM    6  C6  UNL     1     -33.309  14.380  -4.538  1.00 20.00     0.018 C 
HETATM    7  C7  UNL     1     -34.398  16.172  -5.910  1.00 20.00     0.018 C 
BRANCH   5   8
HETATM    8  C8  UNL     1     -35.503  15.404  -3.746  1.00 20.00     0.007 C 
HETATM    9  C5  UNL     1     -34.781  16.246  -2.701  1.00 20.00     0.006 C 
ENDBRANCH   5   8
ENDBRANCH   3   5
BRANCH   3  10
HETATM   10  O10 UNL     1     -35.922  12.835  -4.922  1.00 20.00    -0.389 OA
HETATM   11  H28 UNL     1     -36.883  12.927  -4.906  1.00 20.00     0.210 HD
ENDBRANCH   3  10
TORSDOF 3
ENDMDL
MODEL 3
REMARK VINA RESULT:      -4.7     11.716     13.036
REMARK  3 active torsions:
REMARK  status: ('A' for Active; 'I' for Inactive)
REMARK    1  A    between atoms: C3_3  and  C9_9 
REMARK    2  A    between atoms: C3_3  and  O10_10 
REMARK    3  A    between atoms: C8_8  and  C9_9 
ROOT
HETATM    1  C1  UNL     1     -36.427  14.057  -6.930  1.00 20.00     0.046 A 
HETATM    2  C2  UNL     1     -35.116  13.356  -7.177  1.00 20.00     0.019 A 
HETATM    3  C3  UNL     1     -35.515  13.747  -5.770  1.00 20.00     0.068 A 
HETATM    4  C4  UNL     1     -34.023  14.046  -7.918  1.00 20.00     0.013 C 
ENDROOT
BRANCH   3   5
HETATM    5  C9  UNL     1     -34.822  14.894  -5.008  1.00 20.00    -0.017 C 
HETATM    6  C6  UNL     1     -35.676  15.250  -3.780  1.00 20.00     0.018 C 
HETATM    7  C7  UNL     1     -33.442  14.404  -4.540  1.00 20.00     0.018 C 
BRANCH   5   8
HETATM    8  C8  UNL     1     -34.691  16.104  -5.969  1.00 20.00     0.007 C 
HETATM    9  C5  UNL     1     -33.677  17.166  -5.563  1.00 20.00     0.006 C 
ENDBRANCH   5   8
ENDBRANCH   3   5
BRANCH   3  10
HETATM   10  O10 UNL     1     -35.927  12.662  -4.920  1.00 20.00    -0.389 OA
HETATM   11  H28 UNL     1     -35.994  13.035  -4.031  1.00 20.00     0.210 HD
ENDBRANCH   3  10
TORSDOF 3
ENDMDL
MODEL 4
REMARK VINA RESULT:      -4.6     11.644     12.717
REMARK  3 active torsions:
REMARK  status: ('A' for Active; 'I' for Inactive)
REMARK    1  A    between atoms: C3_3  and  C9_9 
REMARK    2  A    between atoms: C3_3  and  O10_10 
REMARK    3  A    between atoms: C8_8  and  C9_9 
ROOT
HETATM    1  C1  UNL     1     -36.038  13.699  -5.174  1.00 20.00     0.046 A 
HETATM    2  C2  UNL     1     -35.992  14.760  -6.242  1.00 20.00     0.019 A 
HETATM    3  C3  UNL     1     -34.707  14.230  -5.644  1.00 20.00     0.068 A 
HETATM    4  C4  UNL     1     -36.498  16.134  -5.960  1.00 20.00     0.013 C 
ENDROOT
BRANCH   3   5
HETATM    5  C9  UNL     1     -33.834  15.072  -4.693  1.00 20.00    -0.017 C 
HETATM    6  C6  UNL     1     -32.638  14.217  -4.243  1.00 20.00     0.018 C 
HETATM    7  C7  UNL     1     -33.318  16.299  -5.463  1.00 20.00     0.018 C 
BRANCH   5   8
HETATM    8  C8  UNL     1     -34.707  15.496  -3.483  1.00 20.00     0.007 C 
HETATM    9  C5  UNL     1     -34.120  16.583  -2.591  1.00 20.00     0.006 C 
ENDBRANCH   5   8
ENDBRANCH   3   5
BRANCH   3  10
HETATM   10  O10 UNL     1     -33.946  13.352  -6.493  1.00 20.00    -0.389 OA
HETATM   11  H28 UNL     1     -33.018  13.558  -6.319  1.00 20.00     0.210 HD
ENDBRANCH   3  10
TORSDOF 3
ENDMDL
MODEL 5
REMARK VINA RESULT:      -4.6     11.429     12.901
REMARK  3 active torsions:
REMARK  status: ('A' for Active; 'I' for Inactive)
REMARK    1  A    between atoms: C3_3  and  C9_9 
REMARK    2  A    between atoms: C3_3  and  O10_10 
REMARK    3  A    between atoms: C8_8  and  C9_9 
ROOT
HETATM    1  C1  UNL     1     -34.127  14.264  -4.208  1.00 20.00     0.046 A 
HETATM    2  C2  UNL     1     -35.438  14.985  -4.027  1.00 20.00     0.019 A 
HETATM    3  C3  UNL     1     -35.275  13.975  -5.143  1.00 20.00     0.068 A 
HETATM    4  C4  UNL     1     -35.531  16.450  -4.284  1.00 20.00     0.013 C 
ENDROOT
BRANCH   3   5
HETATM    5  C9  UNL     1     -35.186  14.393  -6.624  1.00 20.00    -0.017 C 
HETATM    6  C6  UNL     1     -35.110  13.122  -7.485  1.00 20.00     0.018 C 
HETATM    7  C7  UNL     1     -36.459  15.176  -6.987  1.00 20.00     0.018 C 
BRANCH   5   8
HETATM    8  C8  UNL     1     -33.919  15.269  -6.804  1.00 20.00     0.007 C 
HETATM    9  C5  UNL     1     -34.065  16.461  -7.741  1.00 20.00     0.006 C 
ENDBRANCH   5   8
ENDBRANCH   3   5
BRANCH   3  10
HETATM   10  O10 UNL     1     -35.947  12.719  -4.942  1.00 20.00    -0.389 OA
HETATM   11  H28 UNL     1     -35.942  12.278  -5.802  1.00 20.00     0.210 HD
ENDBRANCH   3  10
TORSDOF 3
ENDMDL
MODEL 6
REMARK VINA RESULT:      -4.6     11.922     12.745
REMARK  3 active torsions:
REMARK  status: ('A' for Active; 'I' for Inactive)
REMARK    1  A    between atoms: C3_3  and  C9_9 
REMARK    2  A    between atoms: C3_3  and  O10_10 
REMARK    3  A    between atoms: C8_8  and  C9_9 
ROOT
HETATM    1  C1  UNL     1     -33.243  16.117  -4.844  1.00 20.00     0.046 A 
HETATM    2  C2  UNL     1     -34.028  15.572  -3.680  1.00 20.00     0.019 A 
HETATM    3  C3  UNL     1     -33.846  14.737  -4.929  1.00 20.00     0.068 A 
HETATM    4  C4  UNL     1     -35.339  16.177  -3.308  1.00 20.00     0.013 C 
ENDROOT
BRANCH   3   5
HETATM    5  C9  UNL     1     -35.002  14.461  -5.910  1.00 20.00    -0.017 C 
HETATM    6  C6  UNL     1     -35.534  15.807  -6.429  1.00 20.00     0.018 C 
HETATM    7  C7  UNL     1     -34.453  13.645  -7.092  1.00 20.00     0.018 C 
BRANCH   5   8
HETATM    8  C8  UNL     1     -36.104  13.677  -5.152  1.00 20.00     0.007 C 
HETATM    9  C5  UNL     1     -37.531  14.168  -5.363  1.00 20.00     0.006 C 
ENDBRANCH   5   8
ENDBRANCH   3   5
BRANCH   3  10
HETATM   10  O10 UNL     1     -32.922  13.640  -4.810  1.00 20.00    -0.389 OA
HETATM   11  H28 UNL     1     -33.463  12.860  -4.628  1.00 20.00     0.210 HD
ENDBRANCH   3  10
TORSDOF 3
ENDMDL
MODEL 7
REMARK VINA RESULT:      -4.5     11.756     12.982
REMARK  3 active torsions:
REMARK  status: ('A' for Active; 'I' for Inactive)
REMARK    1  A    between atoms: C3_3  and  C9_9 
REMARK    2  A    between atoms: C3_3  and  O10_10 
REMARK    3  A    between atoms: C8_8  and  C9_9 
ROOT
HETATM    1  C1  UNL     1     -36.257  13.968  -7.212  1.00 20.00     0.046 A 
HETATM    2  C2  UNL     1     -34.788  13.681  -7.040  1.00 20.00     0.019 A 
HETATM    3  C3  UNL     1     -35.671  13.869  -5.826  1.00 20.00     0.068 A 
HETATM    4  C4  UNL     1     -33.772  14.691  -7.452  1.00 20.00     0.013 C 
ENDROOT
BRANCH   3   5
HETATM    5  C9  UNL     1     -35.588  15.123  -4.934  1.00 20.00    -0.017 C 
HETATM    6  C6  UNL     1     -35.420  16.355  -5.837  1.00 20.00     0.018 C 
HETATM    7  C7  UNL     1     -36.902  15.248  -4.145  1.00 20.00     0.018 C 
BRANCH   5   8
HETATM    8  C8  UNL     1     -34.376  14.958  -3.980  1.00 20.00     0.007 C 
HETATM    9  C5  UNL     1     -33.697  16.250  -3.542  1.00 20.00     0.006 C 
ENDBRANCH   5   8
ENDBRANCH   3   5
BRANCH   3  10
HETATM   10  O10 UNL     1     -35.984  12.668  -5.097  1.00 20.00    -0.389 OA
HETATM   11  H28 UNL     1     -35.712  12.836  -4.186  1.00 20.00     0.210 HD
ENDBRANCH   3  10
TORSDOF 3
ENDMDL
MODEL 8
REMARK VINA RESULT:      -4.5     11.203     12.729
REMARK  3 active torsions:
REMARK  status: ('A' for Active; 'I' for Inactive)
REMARK    1  A    between atoms: C3_3  and  C9_9 
REMARK    2  A    between atoms: C3_3  and  O10_10 
REMARK    3  A    between atoms: C8_8  and  C9_9 
ROOT
HETATM    1  C1  UNL     1     -37.555  14.538  -4.789  1.00 20.00     0.046 A 
HETATM    2  C2  UNL     1     -37.196  14.460  -6.251  1.00 20.00     0.019 A 
HETATM    3  C3  UNL     1     -36.182  14.067  -5.199  1.00 20.00     0.068 A 
HETATM    4  C4  UNL     1     -37.065  15.705  -7.060  1.00 20.00     0.013 C 
ENDROOT
BRANCH   3   5
HETATM    5  C9  UNL     1     -34.945  14.931  -4.884  1.00 20.00    -0.017 C 
HETATM    6  C6  UNL     1     -33.995  14.116  -3.992  1.00 20.00     0.018 C 
HETATM    7  C7  UNL     1     -34.236  15.266  -6.207  1.00 20.00     0.018 C 
BRANCH   5   8
HETATM    8  C8  UNL     1     -35.425  16.218  -4.164  1.00 20.00     0.007 C 
HETATM    9  C5  UNL     1     -35.036  16.340  -2.696  1.00 20.00     0.006 C 
ENDBRANCH   5   8
ENDBRANCH   3   5
BRANCH   3  10
HETATM   10  O10 UNL     1     -35.940  12.654  -5.072  1.00 20.00    -0.389 OA
HETATM   11  H28 UNL     1     -36.472  12.233  -5.759  1.00 20.00     0.210 HD
ENDBRANCH   3  10
TORSDOF 3
ENDMDL
MODEL 9
REMARK VINA RESULT:      -4.4     11.893     12.907
REMARK  3 active torsions:
REMARK  status: ('A' for Active; 'I' for Inactive)
REMARK    1  A    between atoms: C3_3  and  C9_9 
REMARK    2  A    between atoms: C3_3  and  O10_10 
REMARK    3  A    between atoms: C8_8  and  C9_9 
ROOT
HETATM    1  C1  UNL     1     -37.059  14.858  -4.662  1.00 20.00     0.046 A 
HETATM    2  C2  UNL     1     -37.400  14.353  -6.039  1.00 20.00     0.019 A 
HETATM    3  C3  UNL     1     -36.063  14.013  -5.416  1.00 20.00     0.068 A 
HETATM    4  C4  UNL     1     -37.531  15.305  -7.179  1.00 20.00     0.013 C 
ENDROOT
BRANCH   3   5
HETATM    5  C9  UNL     1     -34.743  14.635  -5.911  1.00 20.00    -0.017 C 
HETATM    6  C6  UNL     1     -34.344  13.949  -7.228  1.00 20.00     0.018 C 
HETATM    7  C7  UNL     1     -34.977  16.132  -6.171  1.00 20.00     0.018 C 
BRANCH   5   8
HETATM    8  C8  UNL     1     -33.666  14.418  -4.817  1.00 20.00     0.007 C 
HETATM    9  C5  UNL     1     -33.502  15.553  -3.814  1.00 20.00     0.006 C 
ENDBRANCH   5   8
ENDBRANCH   3   5
BRANCH   3  10
HETATM   10  O10 UNL     1     -35.921  12.655  -4.961  1.00 20.00    -0.389 OA
HETATM   11  H28 UNL     1     -36.669  12.497  -4.370  1.00 20.00     0.210 HD
ENDBRANCH   3  10
TORSDOF 3
ENDMDL
