MODEL 1
REMARK VINA RESULT:      -4.8      0.000      0.000
REMARK  2 active torsions:
REMARK  status: ('A' for Active; 'I' for Inactive)
REMARK    1  A    between atoms: C4_4  and  C7_7 
REMARK    2  A    between atoms: C6_6  and  C7_7 
ROOT
HETATM    1  C1  UNL     1     -32.686   7.274   1.736  1.00 20.00     0.034 C 
HETATM    2  C2  UNL     1     -32.563   8.782   1.665  1.00 20.00     0.168 C 
HETATM    3  C3  UNL     1     -31.619   8.065   3.672  1.00 20.00     0.173 C 
HETATM    4  C4  UNL     1     -32.601   6.994   3.223  1.00 20.00     0.026 C 
HETATM    5  O8  UNL     1     -31.813   9.198   2.814  1.00 20.00    -0.391 OA
ENDROOT
BRANCH   4   6
HETATM    6  C7  UNL     1     -33.957   7.145   3.911  1.00 20.00     0.063 C 
HETATM    7 BR9  UNL     1     -33.642   7.318   5.841  1.00 20.00    -0.091 Br
BRANCH   6   8
HETATM    8  C6  UNL     1     -34.871   5.947   3.638  1.00 20.00     0.012 C 
HETATM    9  C5  UNL     1     -34.515   4.710   4.455  1.00 20.00     0.006 C 
ENDBRANCH   6   8
ENDBRANCH   4   6
TORSDOF 2
ENDMDL
MODEL 2
REMARK VINA RESULT:      -4.6      2.126      3.741
REMARK  2 active torsions:
REMARK  status: ('A' for Active; 'I' for Inactive)
REMARK    1  A    between atoms: C4_4  and  C7_7 
REMARK    2  A    between atoms: C6_6  and  C7_7 
ROOT
HETATM    1  C1  UNL     1     -33.372   4.799   2.763  1.00 20.00     0.034 C 
HETATM    2  C2  UNL     1     -33.902   4.021   3.950  1.00 20.00     0.168 C 
HETATM    3  C3  UNL     1     -35.062   6.038   3.820  1.00 20.00     0.173 C 
HETATM    4  C4  UNL     1     -33.735   6.230   3.103  1.00 20.00     0.026 C 
HETATM    5  O8  UNL     1     -34.998   4.771   4.489  1.00 20.00    -0.391 OA
ENDROOT
BRANCH   4   6
HETATM    6  C7  UNL     1     -32.693   6.885   4.008  1.00 20.00     0.063 C 
HETATM    7 BR9  UNL     1     -33.608   7.526   5.622  1.00 20.00    -0.091 Br
BRANCH   6   8
HETATM    8  C6  UNL     1     -31.987   8.051   3.311  1.00 20.00     0.012 C 
HETATM    9  C5  UNL     1     -32.526   8.344   1.916  1.00 20.00     0.006 C 
ENDBRANCH   6   8
ENDBRANCH   4   6
TORSDOF 2
ENDMDL
MODEL 3
REMARK VINA RESULT:      -4.3      2.507      3.532
REMARK  2 active torsions:
REMARK  status: ('A' for Active; 'I' for Inactive)
REMARK    1  A    between atoms: C4_4  and  C7_7 
REMARK    2  A    between atoms: C6_6  and  C7_7 
ROOT
HETATM    1  C1  UNL     1     -35.213   6.020   4.101  1.00 20.00     0.034 C 
HETATM    2  C2  UNL     1     -34.795   5.126   5.250  1.00 20.00     0.168 C 
HETATM    3  C3  UNL     1     -33.840   7.227   5.574  1.00 20.00     0.173 C 
HETATM    4  C4  UNL     1     -34.136   7.086   4.089  1.00 20.00     0.026 C 
HETATM    5  O8  UNL     1     -34.052   5.939   6.168  1.00 20.00    -0.391 OA
ENDROOT
BRANCH   4   6
HETATM    6  C7  UNL     1     -32.902   6.643   3.306  1.00 20.00     0.063 C 
HETATM    7 BR9  UNL     1     -32.034   8.247   2.581  1.00 20.00    -0.091 Br
BRANCH   6   8
HETATM    8  C6  UNL     1     -33.264   5.686   2.166  1.00 20.00     0.012 C 
HETATM    9  C5  UNL     1     -32.752   4.266   2.376  1.00 20.00     0.006 C 
ENDBRANCH   6   8
ENDBRANCH   4   6
TORSDOF 2
ENDMDL
MODEL 4
REMARK VINA RESULT:      -4.1      2.091      3.794
REMARK  2 active torsions:
REMARK  status: ('A' for Active; 'I' for Inactive)
REMARK    1  A    between atoms: C4_4  and  C7_7 
REMARK    2  A    between atoms: C6_6  and  C7_7 
ROOT
HETATM    1  C1  UNL     1     -35.044   5.917   3.753  1.00 20.00     0.034 C 
HETATM    2  C2  UNL     1     -34.583   4.849   4.723  1.00 20.00     0.168 C 
HETATM    3  C3  UNL     1     -34.054   6.932   5.623  1.00 20.00     0.173 C 
HETATM    4  C4  UNL     1     -34.179   7.106   4.117  1.00 20.00     0.026 C 
HETATM    5  O8  UNL     1     -34.087   5.523   5.887  1.00 20.00    -0.391 OA
ENDROOT
BRANCH   4   6
HETATM    6  C7  UNL     1     -32.817   7.056   3.427  1.00 20.00     0.063 C 
HETATM    7 BR9  UNL     1     -31.675   8.434   4.235  1.00 20.00    -0.091 Br
BRANCH   6   8
HETATM    8  C6  UNL     1     -32.934   7.294   1.919  1.00 20.00     0.012 C 
HETATM    9  C5  UNL     1     -32.329   8.617   1.463  1.00 20.00     0.006 C 
ENDBRANCH   6   8
ENDBRANCH   4   6
TORSDOF 2
ENDMDL
MODEL 5
REMARK VINA RESULT:      -3.6     11.219     11.928
REMARK  2 active torsions:
REMARK  status: ('A' for Active; 'I' for Inactive)
REMARK    1  A    between atoms: C4_4  and  C7_7 
REMARK    2  A    between atoms: C6_6  and  C7_7 
ROOT
HETATM    1  C1  UNL     1     -34.391  14.291  -4.106  1.00 20.00     0.034 C 
HETATM    2  C2  UNL     1     -35.073  14.457  -5.448  1.00 20.00     0.168 C 
HETATM    3  C3  UNL     1     -33.076  15.659  -5.487  1.00 20.00     0.173 C 
HETATM    4  C4  UNL     1     -33.484  15.501  -4.031  1.00 20.00     0.026 C 
HETATM    5  O8  UNL     1     -34.181  15.208  -6.283  1.00 20.00    -0.391 OA
ENDROOT
BRANCH   4   6
HETATM    6  C7  UNL     1     -34.219  16.736  -3.512  1.00 20.00     0.063 C 
HETATM    7 BR9  UNL     1     -33.559  18.297  -4.503  1.00 20.00    -0.091 Br
BRANCH   6   8
HETATM    8  C6  UNL     1     -34.000  16.941  -2.010  1.00 20.00     0.012 C 
HETATM    9  C5  UNL     1     -35.294  16.969  -1.205  1.00 20.00     0.006 C 
ENDBRANCH   6   8
ENDBRANCH   4   6
TORSDOF 2
ENDMDL
MODEL 6
REMARK VINA RESULT:      -3.6     10.849     11.590
REMARK  2 active torsions:
REMARK  status: ('A' for Active; 'I' for Inactive)
REMARK    1  A    between atoms: C4_4  and  C7_7 
REMARK    2  A    between atoms: C6_6  and  C7_7 
ROOT
HETATM    1  C1  UNL     1     -33.326  16.099  -4.756  1.00 20.00     0.034 C 
HETATM    2  C2  UNL     1     -33.013  14.637  -4.510  1.00 20.00     0.168 C 
HETATM    3  C3  UNL     1     -35.206  15.040  -3.833  1.00 20.00     0.173 C 
HETATM    4  C4  UNL     1     -34.469  16.370  -3.799  1.00 20.00     0.026 C 
HETATM    5  O8  UNL     1     -34.222  14.020  -4.050  1.00 20.00    -0.391 OA
ENDROOT
BRANCH   4   6
HETATM    6  C7  UNL     1     -33.971  16.704  -2.394  1.00 20.00     0.063 C 
HETATM    7 BR9  UNL     1     -35.537  17.028  -1.256  1.00 20.00    -0.091 Br
BRANCH   6   8
HETATM    8  C6  UNL     1     -33.060  17.936  -2.391  1.00 20.00     0.012 C 
HETATM    9  C5  UNL     1     -32.531  18.298  -1.008  1.00 20.00     0.006 C 
ENDBRANCH   6   8
ENDBRANCH   4   6
TORSDOF 2
ENDMDL
MODEL 7
REMARK VINA RESULT:      -3.5     11.235     12.417
REMARK  2 active torsions:
REMARK  status: ('A' for Active; 'I' for Inactive)
REMARK    1  A    between atoms: C4_4  and  C7_7 
REMARK    2  A    between atoms: C6_6  and  C7_7 
ROOT
HETATM    1  C1  UNL     1     -35.229  14.715  -7.119  1.00 20.00     0.034 C 
HETATM    2  C2  UNL     1     -34.766  13.276  -7.214  1.00 20.00     0.168 C 
HETATM    3  C3  UNL     1     -35.992  13.522  -5.248  1.00 20.00     0.173 C 
HETATM    4  C4  UNL     1     -35.474  14.898  -5.635  1.00 20.00     0.026 C 
HETATM    5  O8  UNL     1     -35.347  12.573  -6.108  1.00 20.00    -0.391 OA
ENDROOT
BRANCH   4   6
HETATM    6  C7  UNL     1     -34.193  15.252  -4.882  1.00 20.00     0.063 C 
HETATM    7 BR9  UNL     1     -34.698  16.002  -3.140  1.00 20.00    -0.091 Br
BRANCH   6   8
HETATM    8  C6  UNL     1     -33.339  16.261  -5.656  1.00 20.00     0.012 C 
HETATM    9  C5  UNL     1     -33.736  17.712  -5.408  1.00 20.00     0.006 C 
ENDBRANCH   6   8
ENDBRANCH   4   6
TORSDOF 2
ENDMDL
MODEL 8
REMARK VINA RESULT:      -3.5      1.394      1.809
REMARK  2 active torsions:
REMARK  status: ('A' for Active; 'I' for Inactive)
REMARK    1  A    between atoms: C4_4  and  C7_7 
REMARK    2  A    between atoms: C6_6  and  C7_7 
ROOT
HETATM    1  C1  UNL     1     -31.668   8.383   0.976  1.00 20.00     0.034 C 
HETATM    2  C2  UNL     1     -32.654   9.349   0.354  1.00 20.00     0.168 C 
HETATM    3  C3  UNL     1     -32.257  10.022   2.549  1.00 20.00     0.173 C 
HETATM    4  C4  UNL     1     -31.926   8.541   2.461  1.00 20.00     0.026 C 
HETATM    5  O8  UNL     1     -32.895  10.384   1.317  1.00 20.00    -0.391 OA
ENDROOT
BRANCH   4   6
HETATM    6  C7  UNL     1     -33.089   7.672   2.935  1.00 20.00     0.063 C 
HETATM    7 BR9  UNL     1     -33.129   7.727   4.897  1.00 20.00    -0.091 Br
BRANCH   6   8
HETATM    8  C6  UNL     1     -32.950   6.223   2.457  1.00 20.00     0.012 C 
HETATM    9  C5  UNL     1     -33.887   5.255   3.169  1.00 20.00     0.006 C 
ENDBRANCH   6   8
ENDBRANCH   4   6
TORSDOF 2
ENDMDL
MODEL 9
REMARK VINA RESULT:      -3.4      1.797      2.308
REMARK  2 active torsions:
REMARK  status: ('A' for Active; 'I' for Inactive)
REMARK    1  A    between atoms: C4_4  and  C7_7 
REMARK    2  A    between atoms: C6_6  and  C7_7 
ROOT
HETATM    1  C1  UNL     1     -32.714   8.094   4.549  1.00 20.00     0.034 C 
HETATM    2  C2  UNL     1     -31.420   8.110   3.763  1.00 20.00     0.168 C 
HETATM    3  C3  UNL     1     -33.171   7.704   2.281  1.00 20.00     0.173 C 
HETATM    4  C4  UNL     1     -33.641   7.285   3.665  1.00 20.00     0.026 C 
HETATM    5  O8  UNL     1     -31.767   7.975   2.378  1.00 20.00    -0.391 OA
ENDROOT
BRANCH   4   6
HETATM    6  C7  UNL     1     -33.478   5.782   3.887  1.00 20.00     0.063 C 
HETATM    7 BR9  UNL     1     -33.113   4.947   2.149  1.00 20.00    -0.091 Br
BRANCH   6   8
HETATM    8  C6  UNL     1     -34.730   5.160   4.512  1.00 20.00     0.012 C 
HETATM    9  C5  UNL     1     -34.677   5.083   6.033  1.00 20.00     0.006 C 
ENDBRANCH   6   8
ENDBRANCH   4   6
TORSDOF 2
ENDMDL
