MODEL 1
REMARK VINA RESULT:      -5.5      0.000      0.000
REMARK  4 active torsions:
REMARK  status: ('A' for Active; 'I' for Inactive)
REMARK    1  A    between atoms: C2_2  and  C7_7 
REMARK    2  A    between atoms: C3_3  and  C8_8 
REMARK    3  A    between atoms: C3_3  and  O10_10 
REMARK    4  A    between atoms: C8_8  and  C9_9 
ROOT
HETATM    1  C1  UNL     1     -32.244   6.704   2.586  1.00 20.00     0.045 A 
HETATM    2  C2  UNL     1     -32.849   8.046   2.264  1.00 20.00     0.022 A 
HETATM    3  C3  UNL     1     -32.581   7.662   3.700  1.00 20.00     0.062 A 
ENDROOT
BRANCH   3   4
HETATM    4  C8  UNL     1     -33.745   7.361   4.634  1.00 20.00     0.042 C 
BRANCH   4   5
HETATM    5  C9  UNL     1     -34.274   5.921   4.511  1.00 20.00    -0.020 C 
HETATM    6  C5  UNL     1     -34.535   5.277   5.873  1.00 20.00     0.009 C 
HETATM    7  C6  UNL     1     -35.559   5.910   3.679  1.00 20.00     0.009 C 
ENDBRANCH   4   5
ENDBRANCH   3   4
BRANCH   3   8
HETATM    8  O10 UNL     1     -31.461   8.284   4.352  1.00 20.00    -0.389 OA
HETATM    9  H28 UNL     1     -30.751   8.300   3.698  1.00 20.00     0.210 HD
ENDBRANCH   3   8
BRANCH   2  10
HETATM   10  C7  UNL     1     -32.036   9.085   1.571  1.00 20.00     0.003 C 
HETATM   11  C4  UNL     1     -32.855  10.261   1.107  1.00 20.00     0.005 C 
ENDBRANCH   2  10
TORSDOF 4
ENDMDL
MODEL 2
REMARK VINA RESULT:      -5.2      1.380      1.686
REMARK  4 active torsions:
REMARK  status: ('A' for Active; 'I' for Inactive)
REMARK    1  A    between atoms: C2_2  and  C7_7 
REMARK    2  A    between atoms: C3_3  and  C8_8 
REMARK    3  A    between atoms: C3_3  and  O10_10 
REMARK    4  A    between atoms: C8_8  and  C9_9 
ROOT
HETATM    1  C1  UNL     1     -31.571   8.195   3.345  1.00 20.00     0.045 A 
HETATM    2  C2  UNL     1     -32.048   8.188   1.915  1.00 20.00     0.022 A 
HETATM    3  C3  UNL     1     -32.947   7.673   3.015  1.00 20.00     0.062 A 
ENDROOT
BRANCH   3   4
HETATM    4  C8  UNL     1     -33.238   6.183   3.121  1.00 20.00     0.042 C 
BRANCH   4   5
HETATM    5  C9  UNL     1     -34.319   5.840   4.162  1.00 20.00    -0.020 C 
HETATM    6  C5  UNL     1     -34.447   4.335   4.395  1.00 20.00     0.009 C 
HETATM    7  C6  UNL     1     -34.008   6.545   5.485  1.00 20.00     0.009 C 
ENDBRANCH   4   5
ENDBRANCH   3   4
BRANCH   3   8
HETATM    8  O10 UNL     1     -34.046   8.508   3.415  1.00 20.00    -0.389 OA
HETATM    9  H28 UNL     1     -33.725   9.028   4.162  1.00 20.00     0.210 HD
ENDBRANCH   3   8
BRANCH   2  10
HETATM   10  C7  UNL     1     -32.332   9.474   1.216  1.00 20.00     0.003 C 
HETATM   11  C4  UNL     1     -32.874   9.279  -0.176  1.00 20.00     0.005 C 
ENDBRANCH   2  10
TORSDOF 4
ENDMDL
MODEL 3
REMARK VINA RESULT:      -5.0      1.250      4.634
REMARK  4 active torsions:
REMARK  status: ('A' for Active; 'I' for Inactive)
REMARK    1  A    between atoms: C2_2  and  C7_7 
REMARK    2  A    between atoms: C3_3  and  C8_8 
REMARK    3  A    between atoms: C3_3  and  O10_10 
REMARK    4  A    between atoms: C8_8  and  C9_9 
ROOT
HETATM    1  C1  UNL     1     -33.215   7.409   4.380  1.00 20.00     0.045 A 
HETATM    2  C2  UNL     1     -34.437   6.687   3.873  1.00 20.00     0.022 A 
HETATM    3  C3  UNL     1     -33.282   6.967   2.940  1.00 20.00     0.062 A 
ENDROOT
BRANCH   3   4
HETATM    4  C8  UNL     1     -33.433   8.003   1.835  1.00 20.00     0.042 C 
BRANCH   4   5
HETATM    5  C9  UNL     1     -32.264   9.001   1.763  1.00 20.00    -0.020 C 
HETATM    6  C5  UNL     1     -31.223   8.605   0.716  1.00 20.00     0.009 C 
HETATM    7  C6  UNL     1     -32.796  10.404   1.460  1.00 20.00     0.009 C 
ENDBRANCH   4   5
ENDBRANCH   3   4
BRANCH   3   8
HETATM    8  O10 UNL     1     -32.437   5.860   2.585  1.00 20.00    -0.389 OA
HETATM    9  H28 UNL     1     -33.016   5.207   2.172  1.00 20.00     0.210 HD
ENDBRANCH   3   8
BRANCH   2  10
HETATM   10  C7  UNL     1     -34.738   5.306   4.346  1.00 20.00     0.003 C 
HETATM   11  C4  UNL     1     -34.578   5.146   5.835  1.00 20.00     0.005 C 
ENDBRANCH   2  10
TORSDOF 4
ENDMDL
MODEL 4
REMARK VINA RESULT:      -4.9      1.144      4.458
REMARK  4 active torsions:
REMARK  status: ('A' for Active; 'I' for Inactive)
REMARK    1  A    between atoms: C2_2  and  C7_7 
REMARK    2  A    between atoms: C3_3  and  C8_8 
REMARK    3  A    between atoms: C3_3  and  O10_10 
REMARK    4  A    between atoms: C8_8  and  C9_9 
ROOT
HETATM    1  C1  UNL     1     -34.111   7.657   3.096  1.00 20.00     0.045 A 
HETATM    2  C2  UNL     1     -33.393   6.397   2.685  1.00 20.00     0.022 A 
HETATM    3  C3  UNL     1     -32.610   7.662   2.948  1.00 20.00     0.062 A 
ENDROOT
BRANCH   3   4
HETATM    4  C8  UNL     1     -31.965   8.410   1.789  1.00 20.00     0.042 C 
BRANCH   4   5
HETATM    5  C9  UNL     1     -32.891   9.453   1.139  1.00 20.00    -0.020 C 
HETATM    6  C5  UNL     1     -32.469  10.887   1.459  1.00 20.00     0.009 C 
HETATM    7  C6  UNL     1     -32.919   9.249  -0.379  1.00 20.00     0.009 C 
ENDBRANCH   4   5
ENDBRANCH   3   4
BRANCH   3   8
HETATM    8  O10 UNL     1     -31.860   7.733   4.172  1.00 20.00    -0.389 OA
HETATM    9  H28 UNL     1     -31.307   8.521   4.096  1.00 20.00     0.210 HD
ENDBRANCH   3   8
BRANCH   2  10
HETATM   10  C7  UNL     1     -33.330   5.236   3.617  1.00 20.00     0.003 C 
HETATM   11  C4  UNL     1     -34.611   5.025   4.381  1.00 20.00     0.005 C 
ENDBRANCH   2  10
TORSDOF 4
ENDMDL
MODEL 5
REMARK VINA RESULT:      -4.2     10.893     11.667
REMARK  4 active torsions:
REMARK  status: ('A' for Active; 'I' for Inactive)
REMARK    1  A    between atoms: C2_2  and  C7_7 
REMARK    2  A    between atoms: C3_3  and  C8_8 
REMARK    3  A    between atoms: C3_3  and  O10_10 
REMARK    4  A    between atoms: C8_8  and  C9_9 
ROOT
HETATM    1  C1  UNL     1     -36.412  13.592  -5.237  1.00 20.00     0.045 A 
HETATM    2  C2  UNL     1     -35.462  14.414  -6.070  1.00 20.00     0.022 A 
HETATM    3  C3  UNL     1     -35.302  14.362  -4.569  1.00 20.00     0.062 A 
ENDROOT
BRANCH   3   4
HETATM    4  C8  UNL     1     -35.629  15.589  -3.729  1.00 20.00     0.042 C 
BRANCH   4   5
HETATM    5  C9  UNL     1     -34.411  16.171  -2.990  1.00 20.00    -0.020 C 
HETATM    6  C5  UNL     1     -33.602  17.129  -3.864  1.00 20.00     0.009 C 
HETATM    7  C6  UNL     1     -34.869  16.891  -1.719  1.00 20.00     0.009 C 
ENDBRANCH   4   5
ENDBRANCH   3   4
BRANCH   3   8
HETATM    8  O10 UNL     1     -34.220  13.575  -4.046  1.00 20.00    -0.389 OA
HETATM    9  H28 UNL     1     -34.265  13.669  -3.086  1.00 20.00     0.210 HD
ENDBRANCH   3   8
BRANCH   2  10
HETATM   10  C7  UNL     1     -34.492  13.740  -6.979  1.00 20.00     0.003 C 
HETATM   11  C4  UNL     1     -33.801  14.697  -7.916  1.00 20.00     0.005 C 
ENDBRANCH   2  10
TORSDOF 4
ENDMDL
MODEL 6
REMARK VINA RESULT:      -4.1     10.706     11.682
REMARK  4 active torsions:
REMARK  status: ('A' for Active; 'I' for Inactive)
REMARK    1  A    between atoms: C2_2  and  C7_7 
REMARK    2  A    between atoms: C3_3  and  C8_8 
REMARK    3  A    between atoms: C3_3  and  O10_10 
REMARK    4  A    between atoms: C8_8  and  C9_9 
ROOT
HETATM    1  C1  UNL     1     -34.471  14.198  -4.324  1.00 20.00     0.045 A 
HETATM    2  C2  UNL     1     -34.725  14.869  -5.649  1.00 20.00     0.022 A 
HETATM    3  C3  UNL     1     -33.669  15.412  -4.716  1.00 20.00     0.062 A 
ENDROOT
BRANCH   3   4
HETATM    4  C8  UNL     1     -33.898  16.736  -3.999  1.00 20.00     0.042 C 
BRANCH   4   5
HETATM    5  C9  UNL     1     -33.923  16.609  -2.466  1.00 20.00    -0.020 C 
HETATM    6  C5  UNL     1     -33.042  17.653  -1.780  1.00 20.00     0.009 C 
HETATM    7  C6  UNL     1     -35.362  16.732  -1.958  1.00 20.00     0.009 C 
ENDBRANCH   4   5
ENDBRANCH   3   4
BRANCH   3   8
HETATM    8  O10 UNL     1     -32.295  15.171  -5.061  1.00 20.00    -0.389 OA
HETATM    9  H28 UNL     1     -31.776  15.468  -4.302  1.00 20.00     0.210 HD
ENDBRANCH   3   8
BRANCH   2  10
HETATM   10  C7  UNL     1     -34.361  14.178  -6.918  1.00 20.00     0.003 C 
HETATM   11  C4  UNL     1     -35.244  12.995  -7.218  1.00 20.00     0.005 C 
ENDBRANCH   2  10
TORSDOF 4
ENDMDL
MODEL 7
REMARK VINA RESULT:      -4.1      1.232      4.487
REMARK  4 active torsions:
REMARK  status: ('A' for Active; 'I' for Inactive)
REMARK    1  A    between atoms: C2_2  and  C7_7 
REMARK    2  A    between atoms: C3_3  and  C8_8 
REMARK    3  A    between atoms: C3_3  and  O10_10 
REMARK    4  A    between atoms: C8_8  and  C9_9 
ROOT
HETATM    1  C1  UNL     1     -35.170   6.099   3.453  1.00 20.00     0.045 A 
HETATM    2  C2  UNL     1     -34.118   5.033   3.623  1.00 20.00     0.022 A 
HETATM    3  C3  UNL     1     -33.714   6.485   3.522  1.00 20.00     0.062 A 
ENDROOT
BRANCH   3   4
HETATM    4  C8  UNL     1     -33.003   6.990   2.274  1.00 20.00     0.042 C 
BRANCH   4   5
HETATM    5  C9  UNL     1     -32.485   8.433   2.403  1.00 20.00    -0.020 C 
HETATM    6  C5  UNL     1     -31.159   8.511   3.160  1.00 20.00     0.009 C 
HETATM    7  C6  UNL     1     -32.324   9.054   1.013  1.00 20.00     0.009 C 
ENDBRANCH   4   5
ENDBRANCH   3   4
BRANCH   3   8
HETATM    8  O10 UNL     1     -33.296   7.140   4.731  1.00 20.00    -0.389 OA
HETATM    9  H28 UNL     1     -32.535   7.682   4.488  1.00 20.00     0.210 HD
ENDBRANCH   3   8
BRANCH   2  10
HETATM   10  C7  UNL     1     -34.015   4.284   4.907  1.00 20.00     0.003 C 
HETATM   11  C4  UNL     1     -34.817   4.908   6.019  1.00 20.00     0.005 C 
ENDBRANCH   2  10
TORSDOF 4
ENDMDL
MODEL 8
REMARK VINA RESULT:      -4.1      1.583      2.062
REMARK  4 active torsions:
REMARK  status: ('A' for Active; 'I' for Inactive)
REMARK    1  A    between atoms: C2_2  and  C7_7 
REMARK    2  A    between atoms: C3_3  and  C8_8 
REMARK    3  A    between atoms: C3_3  and  O10_10 
REMARK    4  A    between atoms: C8_8  and  C9_9 
ROOT
HETATM    1  C1  UNL     1     -34.059   6.892   1.504  1.00 20.00     0.045 A 
HETATM    2  C2  UNL     1     -33.204   7.686   2.457  1.00 20.00     0.022 A 
HETATM    3  C3  UNL     1     -33.614   6.275   2.806  1.00 20.00     0.062 A 
ENDROOT
BRANCH   3   4
HETATM    4  C8  UNL     1     -34.629   6.033   3.916  1.00 20.00     0.042 C 
BRANCH   4   5
HETATM    5  C9  UNL     1     -33.994   5.915   5.313  1.00 20.00    -0.020 C 
HETATM    6  C5  UNL     1     -33.904   7.263   6.028  1.00 20.00     0.009 C 
HETATM    7  C6  UNL     1     -34.797   4.929   6.167  1.00 20.00     0.009 C 
ENDBRANCH   4   5
ENDBRANCH   3   4
BRANCH   3   8
HETATM    8  O10 UNL     1     -32.612   5.251   2.705  1.00 20.00    -0.389 OA
HETATM    9  H28 UNL     1     -33.082   4.412   2.789  1.00 20.00     0.210 HD
ENDBRANCH   3   8
BRANCH   2  10
HETATM   10  C7  UNL     1     -31.797   8.020   2.097  1.00 20.00     0.003 C 
HETATM   11  C4  UNL     1     -31.693   8.875   0.861  1.00 20.00     0.005 C 
ENDBRANCH   2  10
TORSDOF 4
ENDMDL
MODEL 9
REMARK VINA RESULT:      -4.0     11.089     11.877
REMARK  4 active torsions:
REMARK  status: ('A' for Active; 'I' for Inactive)
REMARK    1  A    between atoms: C2_2  and  C7_7 
REMARK    2  A    between atoms: C3_3  and  C8_8 
REMARK    3  A    between atoms: C3_3  and  O10_10 
REMARK    4  A    between atoms: C8_8  and  C9_9 
ROOT
HETATM    1  C1  UNL     1     -34.751  13.570  -6.987  1.00 20.00     0.045 A 
HETATM    2  C2  UNL     1     -34.573  14.606  -5.907  1.00 20.00     0.022 A 
HETATM    3  C3  UNL     1     -35.807  13.735  -5.924  1.00 20.00     0.062 A 
ENDROOT
BRANCH   3   4
HETATM    4  C8  UNL     1     -37.157  14.339  -6.283  1.00 20.00     0.042 C 
BRANCH   4   5
HETATM    5  C9  UNL     1     -38.047  14.625  -5.060  1.00 20.00    -0.020 C 
HETATM    6  C5  UNL     1     -37.470  15.719  -4.162  1.00 20.00     0.009 C 
HETATM    7  C6  UNL     1     -39.452  15.023  -5.522  1.00 20.00     0.009 C 
ENDBRANCH   4   5
ENDBRANCH   3   4
BRANCH   3   8
HETATM    8  O10 UNL     1     -35.885  12.681  -4.950  1.00 20.00    -0.389 OA
HETATM    9  H28 UNL     1     -36.673  12.866  -4.424  1.00 20.00     0.210 HD
ENDBRANCH   3   8
BRANCH   2  10
HETATM   10  C7  UNL     1     -33.512  14.432  -4.874  1.00 20.00     0.003 C 
HETATM   11  C4  UNL     1     -33.506  15.535  -3.847  1.00 20.00     0.005 C 
ENDBRANCH   2  10
TORSDOF 4
ENDMDL
