MODEL 1
REMARK VINA RESULT:      -5.8      0.000      0.000
REMARK  2 active torsions:
REMARK  status: ('A' for Active; 'I' for Inactive)
REMARK    1  A    between atoms: C6_6  and  C9_9 
REMARK    2  A    between atoms: C8_8  and  C9_9 
ROOT
HETATM    1  C1  UNL     1     -34.054   7.160   5.832  1.00 20.00     0.027 C 
HETATM    2  C2  UNL     1     -32.939   7.348   4.805  1.00 20.00     0.008 C 
HETATM    3  C3  UNL     1     -34.032   6.103   2.825  1.00 20.00     0.032 C 
HETATM    4  C4  UNL     1     -34.509   5.716   6.023  1.00 20.00     0.167 C 
HETATM    5  C5  UNL     1     -35.090   5.464   3.714  1.00 20.00     0.168 C 
HETATM    6  C6  UNL     1     -33.463   7.427   3.359  1.00 20.00     0.006 C 
HETATM    7  O10 UNL     1     -34.465   4.903   4.859  1.00 20.00    -0.391 OA
ENDROOT
BRANCH   6   8
HETATM    8  C9  UNL     1     -32.346   7.912   2.430  1.00 20.00     0.086 C 
HETATM    9 CL11 UNL     1     -30.931   8.280   3.446  1.00 20.00    -0.125 Cl
BRANCH   8  10
HETATM   10  C8  UNL     1     -32.809   9.123   1.630  1.00 20.00     0.016 C 
HETATM   11  C7  UNL     1     -32.010   9.311   0.348  1.00 20.00     0.006 C 
ENDBRANCH   8  10
ENDBRANCH   6   8
TORSDOF 2
ENDMDL
MODEL 2
REMARK VINA RESULT:      -4.6      0.978      1.930
REMARK  2 active torsions:
REMARK  status: ('A' for Active; 'I' for Inactive)
REMARK    1  A    between atoms: C6_6  and  C9_9 
REMARK    2  A    between atoms: C8_8  and  C9_9 
ROOT
HETATM    1  C1  UNL     1     -33.665   4.657   3.423  1.00 20.00     0.027 C 
HETATM    2  C2  UNL     1     -33.345   5.939   2.658  1.00 20.00     0.008 C 
HETATM    3  C3  UNL     1     -33.259   7.566   4.661  1.00 20.00     0.032 C 
HETATM    4  C4  UNL     1     -34.870   4.753   4.354  1.00 20.00     0.167 C 
HETATM    5  C5  UNL     1     -33.921   6.563   5.598  1.00 20.00     0.168 C 
HETATM    6  C6  UNL     1     -32.505   6.934   3.480  1.00 20.00     0.006 C 
HETATM    7  O10 UNL     1     -35.070   6.018   4.966  1.00 20.00    -0.391 OA
ENDROOT
BRANCH   6   8
HETATM    8  C9  UNL     1     -31.974   8.043   2.566  1.00 20.00     0.086 C 
HETATM    9 CL11 UNL     1     -31.407   9.368   3.611  1.00 20.00    -0.125 Cl
BRANCH   8  10
HETATM   10  C8  UNL     1     -33.059   8.499   1.599  1.00 20.00     0.016 C 
HETATM   11  C7  UNL     1     -32.709   9.812   0.913  1.00 20.00     0.006 C 
ENDBRANCH   8  10
ENDBRANCH   6   8
TORSDOF 2
ENDMDL
MODEL 3
REMARK VINA RESULT:      -4.4     11.024     11.659
REMARK  2 active torsions:
REMARK  status: ('A' for Active; 'I' for Inactive)
REMARK    1  A    between atoms: C6_6  and  C9_9 
REMARK    2  A    between atoms: C8_8  and  C9_9 
ROOT
HETATM    1  C1  UNL     1     -36.438  15.112  -4.821  1.00 20.00     0.027 C 
HETATM    2  C2  UNL     1     -36.136  15.835  -3.510  1.00 20.00     0.008 C 
HETATM    3  C3  UNL     1     -33.563  15.619  -3.540  1.00 20.00     0.032 C 
HETATM    4  C4  UNL     1     -35.810  13.727  -4.945  1.00 20.00     0.167 C 
HETATM    5  C5  UNL     1     -33.590  14.570  -4.644  1.00 20.00     0.168 C 
HETATM    6  C6  UNL     1     -34.778  16.561  -3.525  1.00 20.00     0.006 C 
HETATM    7  O10 UNL     1     -34.546  13.571  -4.318  1.00 20.00    -0.391 OA
ENDROOT
BRANCH   6   8
HETATM    8  C9  UNL     1     -34.678  17.498  -2.316  1.00 20.00     0.086 C 
HETATM    9 CL11 UNL     1     -32.955  17.627  -1.885  1.00 20.00    -0.125 Cl
BRANCH   8  10
HETATM   10  C8  UNL     1     -35.520  16.968  -1.163  1.00 20.00     0.016 C 
HETATM   11  C7  UNL     1     -35.236  17.695   0.144  1.00 20.00     0.006 C 
ENDBRANCH   8  10
ENDBRANCH   6   8
TORSDOF 2
ENDMDL
MODEL 4
REMARK VINA RESULT:      -4.3     11.157     11.709
REMARK  2 active torsions:
REMARK  status: ('A' for Active; 'I' for Inactive)
REMARK    1  A    between atoms: C6_6  and  C9_9 
REMARK    2  A    between atoms: C8_8  and  C9_9 
ROOT
HETATM    1  C1  UNL     1     -36.705  15.363  -4.744  1.00 20.00     0.027 C 
HETATM    2  C2  UNL     1     -36.053  15.643  -3.392  1.00 20.00     0.008 C 
HETATM    3  C3  UNL     1     -33.628  14.998  -3.998  1.00 20.00     0.032 C 
HETATM    4  C4  UNL     1     -36.426  13.974  -5.312  1.00 20.00     0.167 C 
HETATM    5  C5  UNL     1     -34.055  14.305  -5.285  1.00 20.00     0.168 C 
HETATM    6  C6  UNL     1     -34.587  16.098  -3.516  1.00 20.00     0.006 C 
HETATM    7  O10 UNL     1     -35.146  13.438  -5.011  1.00 20.00    -0.391 OA
ENDROOT
BRANCH   6   8
HETATM    8  C9  UNL     1     -34.099  16.644  -2.170  1.00 20.00     0.086 C 
HETATM    9 CL11 UNL     1     -35.538  16.956  -1.169  1.00 20.00    -0.125 Cl
BRANCH   8  10
HETATM   10  C8  UNL     1     -33.262  17.899  -2.379  1.00 20.00     0.016 C 
HETATM   11  C7  UNL     1     -32.546  18.336  -1.109  1.00 20.00     0.006 C 
ENDBRANCH   8  10
ENDBRANCH   6   8
TORSDOF 2
ENDMDL
MODEL 5
REMARK VINA RESULT:      -4.2     11.215     11.899
REMARK  2 active torsions:
REMARK  status: ('A' for Active; 'I' for Inactive)
REMARK    1  A    between atoms: C6_6  and  C9_9 
REMARK    2  A    between atoms: C8_8  and  C9_9 
ROOT
HETATM    1  C1  UNL     1     -33.692  14.634  -4.271  1.00 20.00     0.027 C 
HETATM    2  C2  UNL     1     -33.700  15.999  -3.585  1.00 20.00     0.008 C 
HETATM    3  C3  UNL     1     -36.256  16.334  -3.433  1.00 20.00     0.032 C 
HETATM    4  C4  UNL     1     -34.529  14.555  -5.544  1.00 20.00     0.167 C 
HETATM    5  C5  UNL     1     -36.537  15.202  -4.413  1.00 20.00     0.168 C 
HETATM    6  C6  UNL     1     -34.925  16.206  -2.675  1.00 20.00     0.006 C 
HETATM    7  O10 UNL     1     -35.704  15.352  -5.554  1.00 20.00    -0.391 OA
ENDROOT
BRANCH   6   8
HETATM    8  C9  UNL     1     -34.717  17.447  -1.801  1.00 20.00     0.086 C 
HETATM    9 CL11 UNL     1     -32.962  17.674  -1.610  1.00 20.00    -0.125 Cl
BRANCH   8  10
HETATM   10  C8  UNL     1     -35.422  17.277  -0.462  1.00 20.00     0.016 C 
HETATM   11  C7  UNL     1     -34.781  18.108   0.641  1.00 20.00     0.006 C 
ENDBRANCH   8  10
ENDBRANCH   6   8
TORSDOF 2
ENDMDL
MODEL 6
REMARK VINA RESULT:      -4.2      2.433      4.530
REMARK  2 active torsions:
REMARK  status: ('A' for Active; 'I' for Inactive)
REMARK    1  A    between atoms: C6_6  and  C9_9 
REMARK    2  A    between atoms: C8_8  and  C9_9 
ROOT
HETATM    1  C1  UNL     1     -32.749   8.268   1.984  1.00 20.00     0.027 C 
HETATM    2  C2  UNL     1     -33.310   6.964   2.548  1.00 20.00     0.008 C 
HETATM    3  C3  UNL     1     -33.060   7.498   5.062  1.00 20.00     0.032 C 
HETATM    4  C4  UNL     1     -31.378   8.661   2.528  1.00 20.00     0.167 C 
HETATM    5  C5  UNL     1     -32.147   8.688   4.794  1.00 20.00     0.168 C 
HETATM    6  C6  UNL     1     -34.012   7.152   3.905  1.00 20.00     0.006 C 
HETATM    7  O10 UNL     1     -31.131   8.302   3.879  1.00 20.00    -0.391 OA
ENDROOT
BRANCH   6   8
HETATM    8  C9  UNL     1     -34.801   5.886   4.259  1.00 20.00     0.086 C 
HETATM    9 CL11 UNL     1     -34.705   5.677   6.025  1.00 20.00    -0.125 Cl
BRANCH   8  10
HETATM   10  C8  UNL     1     -34.242   4.686   3.508  1.00 20.00     0.016 C 
HETATM   11  C7  UNL     1     -33.816   3.563   4.444  1.00 20.00     0.006 C 
ENDBRANCH   8  10
ENDBRANCH   6   8
TORSDOF 2
ENDMDL
MODEL 7
REMARK VINA RESULT:      -4.1     11.060     11.809
REMARK  2 active torsions:
REMARK  status: ('A' for Active; 'I' for Inactive)
REMARK    1  A    between atoms: C6_6  and  C9_9 
REMARK    2  A    between atoms: C8_8  and  C9_9 
ROOT
HETATM    1  C1  UNL     1     -33.133  19.069  -0.595  1.00 20.00     0.027 C 
HETATM    2  C2  UNL     1     -32.907  17.845  -1.479  1.00 20.00     0.008 C 
HETATM    3  C3  UNL     1     -35.301  16.879  -1.412  1.00 20.00     0.032 C 
HETATM    4  C4  UNL     1     -33.776  18.771   0.756  1.00 20.00     0.167 C 
HETATM    5  C5  UNL     1     -35.706  17.769  -0.244  1.00 20.00     0.168 C 
HETATM    6  C6  UNL     1     -34.161  17.441  -2.277  1.00 20.00     0.006 C 
HETATM    7  O10 UNL     1     -34.709  17.701   0.766  1.00 20.00    -0.391 OA
ENDROOT
BRANCH   6   8
HETATM    8  C9  UNL     1     -33.784  16.414  -3.350  1.00 20.00     0.086 C 
HETATM    9 CL11 UNL     1     -33.391  17.315  -4.834  1.00 20.00    -0.125 Cl
BRANCH   8  10
HETATM   10  C8  UNL     1     -34.925  15.427  -3.563  1.00 20.00     0.016 C 
HETATM   11  C7  UNL     1     -34.457  14.132  -4.212  1.00 20.00     0.006 C 
ENDBRANCH   8  10
ENDBRANCH   6   8
TORSDOF 2
ENDMDL
MODEL 8
REMARK VINA RESULT:      -4.1     11.303     11.965
REMARK  2 active torsions:
REMARK  status: ('A' for Active; 'I' for Inactive)
REMARK    1  A    between atoms: C6_6  and  C9_9 
REMARK    2  A    between atoms: C8_8  and  C9_9 
ROOT
HETATM    1  C1  UNL     1     -37.825  16.272  -4.607  1.00 20.00     0.027 C 
HETATM    2  C2  UNL     1     -36.506  16.181  -3.842  1.00 20.00     0.008 C 
HETATM    3  C3  UNL     1     -35.371  14.344  -5.258  1.00 20.00     0.032 C 
HETATM    4  C4  UNL     1     -38.541  14.939  -4.806  1.00 20.00     0.167 C 
HETATM    5  C5  UNL     1     -36.676  13.967  -5.949  1.00 20.00     0.168 C 
HETATM    6  C6  UNL     1     -35.318  15.790  -4.741  1.00 20.00     0.006 C 
HETATM    7  O10 UNL     1     -37.695  13.810  -4.972  1.00 20.00    -0.391 OA
ENDROOT
BRANCH   6   8
HETATM    8  C9  UNL     1     -34.003  16.011  -3.985  1.00 20.00     0.086 C 
HETATM    9 CL11 UNL     1     -33.035  14.527  -4.160  1.00 20.00    -0.125 Cl
BRANCH   8  10
HETATM   10  C8  UNL     1     -34.280  16.347  -2.526  1.00 20.00     0.016 C 
HETATM   11  C7  UNL     1     -33.354  17.432  -1.995  1.00 20.00     0.006 C 
ENDBRANCH   8  10
ENDBRANCH   6   8
TORSDOF 2
ENDMDL
MODEL 9
REMARK VINA RESULT:      -4.1     11.295     11.922
REMARK  2 active torsions:
REMARK  status: ('A' for Active; 'I' for Inactive)
REMARK    1  A    between atoms: C6_6  and  C9_9 
REMARK    2  A    between atoms: C8_8  and  C9_9 
ROOT
HETATM    1  C1  UNL     1     -35.430  17.410   0.049  1.00 20.00     0.027 C 
HETATM    2  C2  UNL     1     -35.703  17.197  -1.439  1.00 20.00     0.008 C 
HETATM    3  C3  UNL     1     -33.316  17.623  -2.328  1.00 20.00     0.032 C 
HETATM    4  C4  UNL     1     -34.734  18.725   0.389  1.00 20.00     0.167 C 
HETATM    5  C5  UNL     1     -32.856  18.236  -1.012  1.00 20.00     0.168 C 
HETATM    6  C6  UNL     1     -34.486  16.635  -2.197  1.00 20.00     0.006 C 
HETATM    7  O10 UNL     1     -33.810  19.196  -0.581  1.00 20.00    -0.391 OA
ENDROOT
BRANCH   6   8
HETATM    8  C9  UNL     1     -34.915  16.169  -3.592  1.00 20.00     0.086 C 
HETATM    9 CL11 UNL     1     -36.688  16.310  -3.677  1.00 20.00    -0.125 Cl
BRANCH   8  10
HETATM   10  C8  UNL     1     -34.441  14.744  -3.845  1.00 20.00     0.016 C 
HETATM   11  C7  UNL     1     -33.067  14.697  -4.498  1.00 20.00     0.006 C 
ENDBRANCH   8  10
ENDBRANCH   6   8
TORSDOF 2
ENDMDL
