MODEL 1
REMARK VINA RESULT:      -4.7      0.000      0.000
REMARK  3 active torsions:
REMARK  status: ('A' for Active; 'I' for Inactive)
REMARK    1  A    between atoms: C2_2  and  C6_6 
REMARK    2  A    between atoms: C3_3  and  C7_7 
REMARK    3  A    between atoms: C3_3  and  O8_8 
ROOT
HETATM    1  C1  UNL     1     -34.402   6.235   2.371  1.00 20.00     0.045 A 
HETATM    2  C2  UNL     1     -32.953   6.327   2.770  1.00 20.00     0.022 A 
HETATM    3  C3  UNL     1     -33.941   5.605   3.661  1.00 20.00     0.062 A 
ENDROOT
BRANCH   3   4
HETATM    4  C7  UNL     1     -34.394   6.166   4.968  1.00 20.00     0.034 C 
HETATM    5  C5  UNL     1     -34.646   5.103   6.007  1.00 20.00     0.008 C 
ENDBRANCH   3   4
BRANCH   3   6
HETATM    6  O8  UNL     1     -33.843   4.169   3.658  1.00 20.00    -0.389 OA
HETATM    7  H22 UNL     1     -34.435   3.868   2.957  1.00 20.00     0.210 HD
ENDBRANCH   3   6
BRANCH   2   8
HETATM    8  C6  UNL     1     -32.357   7.641   3.141  1.00 20.00     0.003 C 
HETATM    9  C4  UNL     1     -31.910   8.444   1.946  1.00 20.00     0.005 C 
ENDBRANCH   2   8
TORSDOF 3
ENDMDL
MODEL 2
REMARK VINA RESULT:      -4.6      1.130      1.457
REMARK  3 active torsions:
REMARK  status: ('A' for Active; 'I' for Inactive)
REMARK    1  A    between atoms: C2_2  and  C6_6 
REMARK    2  A    between atoms: C3_3  and  C7_7 
REMARK    3  A    between atoms: C3_3  and  O8_8 
ROOT
HETATM    1  C1  UNL     1     -35.131   6.368   3.537  1.00 20.00     0.045 A 
HETATM    2  C2  UNL     1     -33.902   5.608   3.112  1.00 20.00     0.022 A 
HETATM    3  C3  UNL     1     -34.512   5.362   4.474  1.00 20.00     0.062 A 
ENDROOT
BRANCH   3   4
HETATM    4  C7  UNL     1     -33.859   5.822   5.735  1.00 20.00     0.034 C 
HETATM    5  C5  UNL     1     -33.971   7.310   5.946  1.00 20.00     0.008 C 
ENDBRANCH   3   4
BRANCH   3   6
HETATM    6  O8  UNL     1     -35.223   4.119   4.619  1.00 20.00    -0.389 OA
HETATM    7  H22 UNL     1     -35.788   4.048   3.839  1.00 20.00     0.210 HD
ENDBRANCH   3   6
BRANCH   2   8
HETATM    8  C6  UNL     1     -32.604   6.317   2.935  1.00 20.00     0.003 C 
HETATM    9  C4  UNL     1     -32.766   7.728   2.428  1.00 20.00     0.005 C 
ENDBRANCH   2   8
TORSDOF 3
ENDMDL
MODEL 3
REMARK VINA RESULT:      -4.6      1.518      1.885
REMARK  3 active torsions:
REMARK  status: ('A' for Active; 'I' for Inactive)
REMARK    1  A    between atoms: C2_2  and  C6_6 
REMARK    2  A    between atoms: C3_3  and  C7_7 
REMARK    3  A    between atoms: C3_3  and  O8_8 
ROOT
HETATM    1  C1  UNL     1     -33.886   6.911   5.090  1.00 20.00     0.045 A 
HETATM    2  C2  UNL     1     -33.639   7.512   3.732  1.00 20.00     0.022 A 
HETATM    3  C3  UNL     1     -34.332   6.173   3.853  1.00 20.00     0.062 A 
ENDROOT
BRANCH   3   4
HETATM    4  C7  UNL     1     -33.668   4.893   3.469  1.00 20.00     0.034 C 
HETATM    5  C5  UNL     1     -34.011   3.753   4.394  1.00 20.00     0.008 C 
ENDBRANCH   3   4
BRANCH   3   6
HETATM    6  O8  UNL     1     -35.748   6.183   3.593  1.00 20.00    -0.389 OA
HETATM    7  H22 UNL     1     -35.965   5.291   3.294  1.00 20.00     0.210 HD
ENDBRANCH   3   6
BRANCH   2   8
HETATM    8  C6  UNL     1     -32.249   7.646   3.211  1.00 20.00     0.003 C 
HETATM    9  C4  UNL     1     -32.170   8.456   1.941  1.00 20.00     0.005 C 
ENDBRANCH   2   8
TORSDOF 3
ENDMDL
MODEL 4
REMARK VINA RESULT:      -4.5      1.866      2.744
REMARK  3 active torsions:
REMARK  status: ('A' for Active; 'I' for Inactive)
REMARK    1  A    between atoms: C2_2  and  C6_6 
REMARK    2  A    between atoms: C3_3  and  C7_7 
REMARK    3  A    between atoms: C3_3  and  O8_8 
ROOT
HETATM    1  C1  UNL     1     -31.526   8.073   3.514  1.00 20.00     0.045 A 
HETATM    2  C2  UNL     1     -32.582   8.659   2.615  1.00 20.00     0.022 A 
HETATM    3  C3  UNL     1     -32.845   7.362   3.348  1.00 20.00     0.062 A 
ENDROOT
BRANCH   3   4
HETATM    4  C7  UNL     1     -32.899   6.046   2.645  1.00 20.00     0.034 C 
HETATM    5  C5  UNL     1     -33.833   5.066   3.307  1.00 20.00     0.008 C 
ENDBRANCH   3   4
BRANCH   3   6
HETATM    6  O8  UNL     1     -33.751   7.453   4.462  1.00 20.00    -0.389 OA
HETATM    7  H22 UNL     1     -33.248   7.159   5.232  1.00 20.00     0.210 HD
ENDBRANCH   3   6
BRANCH   2   8
HETATM    8  C6  UNL     1     -32.369   8.714   1.141  1.00 20.00     0.003 C 
HETATM    9  C4  UNL     1     -32.611  10.084   0.560  1.00 20.00     0.005 C 
ENDBRANCH   2   8
TORSDOF 3
ENDMDL
MODEL 5
REMARK VINA RESULT:      -4.4      2.410      4.551
REMARK  3 active torsions:
REMARK  status: ('A' for Active; 'I' for Inactive)
REMARK    1  A    between atoms: C2_2  and  C6_6 
REMARK    2  A    between atoms: C3_3  and  C7_7 
REMARK    3  A    between atoms: C3_3  and  O8_8 
ROOT
HETATM    1  C1  UNL     1     -31.423   8.396   3.335  1.00 20.00     0.045 A 
HETATM    2  C2  UNL     1     -32.415   7.388   2.817  1.00 20.00     0.022 A 
HETATM    3  C3  UNL     1     -32.002   8.559   1.953  1.00 20.00     0.062 A 
ENDROOT
BRANCH   3   4
HETATM    4  C7  UNL     1     -32.923   9.697   1.659  1.00 20.00     0.034 C 
HETATM    5  C5  UNL     1     -32.987  10.035   0.192  1.00 20.00     0.008 C 
ENDBRANCH   3   4
BRANCH   3   6
HETATM    6  O8  UNL     1     -31.119   8.242   0.861  1.00 20.00    -0.389 OA
HETATM    7  H22 UNL     1     -30.247   8.556   1.131  1.00 20.00     0.210 HD
ENDBRANCH   3   6
BRANCH   2   8
HETATM    8  C6  UNL     1     -33.770   7.285   3.427  1.00 20.00     0.003 C 
HETATM    9  C4  UNL     1     -33.733   7.137   4.927  1.00 20.00     0.005 C 
ENDBRANCH   2   8
TORSDOF 3
ENDMDL
MODEL 6
REMARK VINA RESULT:      -4.4      1.679      3.611
REMARK  3 active torsions:
REMARK  status: ('A' for Active; 'I' for Inactive)
REMARK    1  A    between atoms: C2_2  and  C6_6 
REMARK    2  A    between atoms: C3_3  and  C7_7 
REMARK    3  A    between atoms: C3_3  and  O8_8 
ROOT
HETATM    1  C1  UNL     1     -33.083   5.339   2.764  1.00 20.00     0.045 A 
HETATM    2  C2  UNL     1     -34.390   5.972   3.162  1.00 20.00     0.022 A 
HETATM    3  C3  UNL     1     -33.184   6.840   2.876  1.00 20.00     0.062 A 
ENDROOT
BRANCH   3   4
HETATM    4  C7  UNL     1     -32.445   7.558   3.956  1.00 20.00     0.034 C 
HETATM    5  C5  UNL     1     -31.371   8.472   3.424  1.00 20.00     0.008 C 
ENDBRANCH   3   4
BRANCH   3   6
HETATM    6  O8  UNL     1     -33.220   7.561   1.632  1.00 20.00    -0.389 OA
HETATM    7  H22 UNL     1     -32.893   8.447   1.833  1.00 20.00     0.210 HD
ENDBRANCH   3   6
BRANCH   2   8
HETATM    8  C6  UNL     1     -34.929   5.783   4.538  1.00 20.00     0.003 C 
HETATM    9  C4  UNL     1     -34.543   4.458   5.146  1.00 20.00     0.005 C 
ENDBRANCH   2   8
TORSDOF 3
ENDMDL
MODEL 7
REMARK VINA RESULT:      -4.0      1.347      3.228
REMARK  3 active torsions:
REMARK  status: ('A' for Active; 'I' for Inactive)
REMARK    1  A    between atoms: C2_2  and  C6_6 
REMARK    2  A    between atoms: C3_3  and  C7_7 
REMARK    3  A    between atoms: C3_3  and  O8_8 
ROOT
HETATM    1  C1  UNL     1     -34.381   4.400   4.021  1.00 20.00     0.045 A 
HETATM    2  C2  UNL     1     -34.746   5.681   4.723  1.00 20.00     0.022 A 
HETATM    3  C3  UNL     1     -34.111   5.723   3.351  1.00 20.00     0.062 A 
ENDROOT
BRANCH   3   4
HETATM    4  C7  UNL     1     -32.705   6.177   3.136  1.00 20.00     0.034 C 
HETATM    5  C5  UNL     1     -32.619   7.555   2.530  1.00 20.00     0.008 C 
ENDBRANCH   3   4
BRANCH   3   6
HETATM    6  O8  UNL     1     -34.994   6.071   2.269  1.00 20.00    -0.389 OA
HETATM    7  H22 UNL     1     -35.756   6.499   2.681  1.00 20.00     0.210 HD
ENDBRANCH   3   6
BRANCH   2   8
HETATM    8  C6  UNL     1     -34.016   6.098   5.953  1.00 20.00     0.003 C 
HETATM    9  C4  UNL     1     -33.844   7.593   6.058  1.00 20.00     0.005 C 
ENDBRANCH   2   8
TORSDOF 3
ENDMDL
MODEL 8
REMARK VINA RESULT:      -4.0      2.032      4.025
REMARK  3 active torsions:
REMARK  status: ('A' for Active; 'I' for Inactive)
REMARK    1  A    between atoms: C2_2  and  C6_6 
REMARK    2  A    between atoms: C3_3  and  C7_7 
REMARK    3  A    between atoms: C3_3  and  O8_8 
ROOT
HETATM    1  C1  UNL     1     -34.009   7.807   4.194  1.00 20.00     0.045 A 
HETATM    2  C2  UNL     1     -33.332   6.463   4.231  1.00 20.00     0.022 A 
HETATM    3  C3  UNL     1     -32.657   7.633   3.550  1.00 20.00     0.062 A 
ENDROOT
BRANCH   3   4
HETATM    4  C7  UNL     1     -32.520   7.723   2.066  1.00 20.00     0.034 C 
HETATM    5  C5  UNL     1     -32.246   9.125   1.586  1.00 20.00     0.008 C 
ENDBRANCH   3   4
BRANCH   3   6
HETATM    6  O8  UNL     1     -31.545   8.207   4.262  1.00 20.00    -0.389 OA
HETATM    7  H22 UNL     1     -31.064   8.736   3.613  1.00 20.00     0.210 HD
ENDBRANCH   3   6
BRANCH   2   8
HETATM    8  C6  UNL     1     -33.897   5.315   3.468  1.00 20.00     0.003 C 
HETATM    9  C4  UNL     1     -34.358   4.186   4.355  1.00 20.00     0.005 C 
ENDBRANCH   2   8
TORSDOF 3
ENDMDL
MODEL 9
REMARK VINA RESULT:      -3.9     11.434     12.053
REMARK  3 active torsions:
REMARK  status: ('A' for Active; 'I' for Inactive)
REMARK    1  A    between atoms: C2_2  and  C6_6 
REMARK    2  A    between atoms: C3_3  and  C7_7 
REMARK    3  A    between atoms: C3_3  and  O8_8 
ROOT
HETATM    1  C1  UNL     1     -33.552  15.972  -5.010  1.00 20.00     0.045 A 
HETATM    2  C2  UNL     1     -33.569  15.828  -3.511  1.00 20.00     0.022 A 
HETATM    3  C3  UNL     1     -33.760  14.613  -4.391  1.00 20.00     0.062 A 
ENDROOT
BRANCH   3   4
HETATM    4  C7  UNL     1     -35.078  13.926  -4.527  1.00 20.00     0.034 C 
HETATM    5  C5  UNL     1     -35.477  13.700  -5.963  1.00 20.00     0.008 C 
ENDBRANCH   3   4
BRANCH   3   6
HETATM    6  O8  UNL     1     -32.638  13.714  -4.458  1.00 20.00    -0.389 OA
HETATM    7  H22 UNL     1     -32.921  12.909  -4.006  1.00 20.00     0.210 HD
ENDBRANCH   3   6
BRANCH   2   8
HETATM    8  C6  UNL     1     -34.680  16.417  -2.712  1.00 20.00     0.003 C 
HETATM    9  C4  UNL     1     -34.202  17.127  -1.470  1.00 20.00     0.005 C 
ENDBRANCH   2   8
TORSDOF 3
ENDMDL
