MODEL 1
REMARK VINA RESULT:      -4.9      0.000      0.000
REMARK  4 active torsions:
REMARK  status: ('A' for Active; 'I' for Inactive)
REMARK    1  A    between atoms: C5_5  and  C8_8 
REMARK    2  A    between atoms: C6_6  and  C8_8 
REMARK    3  A    between atoms: C7_7  and  N9_9 
REMARK    4  A    between atoms: C8_8  and  N9_9 
ROOT
HETATM    1  C8  UNL     1     -33.541   6.578   3.622  1.00 20.00     0.237 C 
ENDROOT
BRANCH   1   2
HETATM    2  C5  UNL     1     -34.034   5.454   2.704  1.00 20.00     0.150 C 
HETATM    3 CL10 UNL     1     -32.738   4.273   2.370  1.00 20.00    -0.128 Cl
ENDBRANCH   1   2
BRANCH   1   4
HETATM    4  C6  UNL     1     -34.319   6.615   4.963  1.00 20.00     0.011 C 
HETATM    5  C1  UNL     1     -33.617   7.423   6.059  1.00 20.00     0.012 C 
HETATM    6  C2  UNL     1     -34.619   5.201   5.473  1.00 20.00     0.012 C 
ENDBRANCH   1   4
BRANCH   1   7
HETATM    7  N9  UNL     1     -33.591   7.854   2.942  1.00 20.00     0.093 N 
HETATM    8  H28 UNL     1     -34.330   7.839   2.235  1.00 20.00     0.316 HD
BRANCH   7   9
HETATM    9  C7  UNL     1     -32.321   8.156   2.287  1.00 20.00     0.213 C 
HETATM   10  C3  UNL     1     -31.243   8.331   3.348  1.00 20.00     0.042 C 
HETATM   11  C4  UNL     1     -32.488   9.408   1.441  1.00 20.00     0.042 C 
ENDBRANCH   7   9
ENDBRANCH   1   7
TORSDOF 4
ENDMDL
MODEL 2
REMARK VINA RESULT:      -4.2      2.095      2.925
REMARK  4 active torsions:
REMARK  status: ('A' for Active; 'I' for Inactive)
REMARK    1  A    between atoms: C5_5  and  C8_8 
REMARK    2  A    between atoms: C6_6  and  C8_8 
REMARK    3  A    between atoms: C7_7  and  N9_9 
REMARK    4  A    between atoms: C8_8  and  N9_9 
ROOT
HETATM    1  C8  UNL     1     -33.204   7.698   2.921  1.00 20.00     0.237 C 
ENDROOT
BRANCH   1   2
HETATM    2  C5  UNL     1     -32.342   7.664   4.189  1.00 20.00     0.150 C 
HETATM    3 CL10 UNL     1     -33.352   7.576   5.658  1.00 20.00    -0.128 Cl
ENDBRANCH   1   2
BRANCH   1   4
HETATM    4  C6  UNL     1     -33.871   6.328   2.637  1.00 20.00     0.011 C 
HETATM    5  C1  UNL     1     -35.078   6.034   3.533  1.00 20.00     0.012 C 
HETATM    6  C2  UNL     1     -32.858   5.183   2.741  1.00 20.00     0.012 C 
ENDBRANCH   1   4
BRANCH   1   7
HETATM    7  N9  UNL     1     -32.432   8.161   1.789  1.00 20.00     0.093 N 
HETATM    8  H28 UNL     1     -31.520   8.496   2.108  1.00 20.00     0.316 HD
BRANCH   7   9
HETATM    9  C7  UNL     1     -33.113   9.246   1.090  1.00 20.00     0.213 C 
HETATM   10  C3  UNL     1     -32.959   9.045  -0.412  1.00 20.00     0.042 C 
HETATM   11  C4  UNL     1     -32.524  10.572   1.543  1.00 20.00     0.042 C 
ENDBRANCH   7   9
ENDBRANCH   1   7
TORSDOF 4
ENDMDL
MODEL 3
REMARK VINA RESULT:      -4.1      0.839      3.683
REMARK  4 active torsions:
REMARK  status: ('A' for Active; 'I' for Inactive)
REMARK    1  A    between atoms: C5_5  and  C8_8 
REMARK    2  A    between atoms: C6_6  and  C8_8 
REMARK    3  A    between atoms: C7_7  and  N9_9 
REMARK    4  A    between atoms: C8_8  and  N9_9 
ROOT
HETATM    1  C8  UNL     1     -33.429   6.947   2.712  1.00 20.00     0.237 C 
ENDROOT
BRANCH   1   2
HETATM    2  C5  UNL     1     -32.434   5.793   2.879  1.00 20.00     0.150 C 
HETATM    3 CL10 UNL     1     -33.086   4.271   2.211  1.00 20.00    -0.128 Cl
ENDBRANCH   1   2
BRANCH   1   4
HETATM    4  C6  UNL     1     -32.715   8.320   2.622  1.00 20.00     0.011 C 
HETATM    5  C1  UNL     1     -32.495   8.805   1.186  1.00 20.00     0.012 C 
HETATM    6  C2  UNL     1     -31.379   8.304   3.373  1.00 20.00     0.012 C 
ENDBRANCH   1   4
BRANCH   1   7
HETATM    7  N9  UNL     1     -34.417   6.928   3.769  1.00 20.00     0.093 N 
HETATM    8  H28 UNL     1     -34.705   7.884   3.988  1.00 20.00     0.316 HD
BRANCH   7   9
HETATM    9  C7  UNL     1     -33.886   6.309   4.980  1.00 20.00     0.213 C 
HETATM   10  C3  UNL     1     -34.801   5.165   5.396  1.00 20.00     0.042 C 
HETATM   11  C4  UNL     1     -33.777   7.366   6.067  1.00 20.00     0.042 C 
ENDBRANCH   7   9
ENDBRANCH   1   7
TORSDOF 4
ENDMDL
MODEL 4
REMARK VINA RESULT:      -4.0      2.070      2.774
REMARK  4 active torsions:
REMARK  status: ('A' for Active; 'I' for Inactive)
REMARK    1  A    between atoms: C5_5  and  C8_8 
REMARK    2  A    between atoms: C6_6  and  C8_8 
REMARK    3  A    between atoms: C7_7  and  N9_9 
REMARK    4  A    between atoms: C8_8  and  N9_9 
ROOT
HETATM    1  C8  UNL     1     -33.396   7.371   3.341  1.00 20.00     0.237 C 
ENDROOT
BRANCH   1   2
HETATM    2  C5  UNL     1     -32.569   7.973   4.483  1.00 20.00     0.150 C 
HETATM    3 CL10 UNL     1     -33.291   7.601   6.073  1.00 20.00    -0.128 Cl
ENDBRANCH   1   2
BRANCH   1   4
HETATM    4  C6  UNL     1     -33.841   5.918   3.652  1.00 20.00     0.011 C 
HETATM    5  C1  UNL     1     -33.308   4.886   2.653  1.00 20.00     0.012 C 
HETATM    6  C2  UNL     1     -35.367   5.811   3.742  1.00 20.00     0.012 C 
ENDBRANCH   1   4
BRANCH   1   7
HETATM    7  N9  UNL     1     -32.675   7.451   2.090  1.00 20.00     0.093 N 
HETATM    8  H28 UNL     1     -31.877   6.811   2.110  1.00 20.00     0.316 HD
BRANCH   7   9
HETATM    9  C7  UNL     1     -32.185   8.804   1.846  1.00 20.00     0.213 C 
HETATM   10  C3  UNL     1     -33.357   9.696   1.459  1.00 20.00     0.042 C 
HETATM   11  C4  UNL     1     -31.129   8.757   0.752  1.00 20.00     0.042 C 
ENDBRANCH   7   9
ENDBRANCH   1   7
TORSDOF 4
ENDMDL
MODEL 5
REMARK VINA RESULT:      -4.0      1.987      4.381
REMARK  4 active torsions:
REMARK  status: ('A' for Active; 'I' for Inactive)
REMARK    1  A    between atoms: C5_5  and  C8_8 
REMARK    2  A    between atoms: C6_6  and  C8_8 
REMARK    3  A    between atoms: C7_7  and  N9_9 
REMARK    4  A    between atoms: C8_8  and  N9_9 
ROOT
HETATM    1  C8  UNL     1     -32.508   7.696   2.547  1.00 20.00     0.237 C 
ENDROOT
BRANCH   1   2
HETATM    2  C5  UNL     1     -31.569   8.234   3.632  1.00 20.00     0.150 C 
HETATM    3 CL10 UNL     1     -32.371   8.269   5.226  1.00 20.00    -0.128 Cl
ENDBRANCH   1   2
BRANCH   1   4
HETATM    4  C6  UNL     1     -32.544   8.619   1.301  1.00 20.00     0.011 C 
HETATM    5  C1  UNL     1     -31.261   8.570   0.464  1.00 20.00     0.012 C 
HETATM    6  C2  UNL     1     -32.853  10.069   1.690  1.00 20.00     0.012 C 
ENDBRANCH   1   4
BRANCH   1   7
HETATM    7  N9  UNL     1     -33.833   7.472   3.082  1.00 20.00     0.093 N 
HETATM    8  H28 UNL     1     -33.852   7.726   4.072  1.00 20.00     0.316 HD
BRANCH   7   9
HETATM    9  C7  UNL     1     -34.230   6.073   2.948  1.00 20.00     0.213 C 
HETATM   10  C3  UNL     1     -34.955   5.638   4.214  1.00 20.00     0.042 C 
HETATM   11  C4  UNL     1     -32.989   5.231   2.691  1.00 20.00     0.042 C 
ENDBRANCH   7   9
ENDBRANCH   1   7
TORSDOF 4
ENDMDL
MODEL 6
REMARK VINA RESULT:      -3.6     11.611     12.185
REMARK  4 active torsions:
REMARK  status: ('A' for Active; 'I' for Inactive)
REMARK    1  A    between atoms: C5_5  and  C8_8 
REMARK    2  A    between atoms: C6_6  and  C8_8 
REMARK    3  A    between atoms: C7_7  and  N9_9 
REMARK    4  A    between atoms: C8_8  and  N9_9 
ROOT
HETATM    1  C8  UNL     1     -34.670  15.260  -4.452  1.00 20.00     0.237 C 
ENDROOT
BRANCH   1   2
HETATM    2  C5  UNL     1     -33.370  15.661  -5.160  1.00 20.00     0.150 C 
HETATM    3 CL10 UNL     1     -33.702  16.572  -6.658  1.00 20.00    -0.128 Cl
ENDBRANCH   1   2
BRANCH   1   4
HETATM    4  C6  UNL     1     -34.779  15.890  -3.040  1.00 20.00     0.011 C 
HETATM    5  C1  UNL     1     -36.054  16.715  -2.832  1.00 20.00     0.012 C 
HETATM    6  C2  UNL     1     -33.551  16.746  -2.715  1.00 20.00     0.012 C 
ENDBRANCH   1   4
BRANCH   1   7
HETATM    7  N9  UNL     1     -34.805  13.821  -4.405  1.00 20.00     0.093 N 
HETATM    8  H28 UNL     1     -33.921  13.383  -4.677  1.00 20.00     0.316 HD
BRANCH   7   9
HETATM    9  C7  UNL     1     -35.855  13.356  -5.307  1.00 20.00     0.213 C 
HETATM   10  C3  UNL     1     -35.297  13.273  -6.721  1.00 20.00     0.042 C 
HETATM   11  C4  UNL     1     -37.036  14.312  -5.222  1.00 20.00     0.042 C 
ENDBRANCH   7   9
ENDBRANCH   1   7
TORSDOF 4
ENDMDL
MODEL 7
REMARK VINA RESULT:      -3.6     11.386     12.111
REMARK  4 active torsions:
REMARK  status: ('A' for Active; 'I' for Inactive)
REMARK    1  A    between atoms: C5_5  and  C8_8 
REMARK    2  A    between atoms: C6_6  and  C8_8 
REMARK    3  A    between atoms: C7_7  and  N9_9 
REMARK    4  A    between atoms: C8_8  and  N9_9 
ROOT
HETATM    1  C8  UNL     1     -34.534  16.198  -3.338  1.00 20.00     0.237 C 
ENDROOT
BRANCH   1   2
HETATM    2  C5  UNL     1     -36.036  16.350  -3.604  1.00 20.00     0.150 C 
HETATM    3 CL10 UNL     1     -36.699  14.912  -4.427  1.00 20.00    -0.128 Cl
ENDBRANCH   1   2
BRANCH   1   4
HETATM    4  C6  UNL     1     -34.131  16.758  -1.950  1.00 20.00     0.011 C 
HETATM    5  C1  UNL     1     -35.327  17.108  -1.058  1.00 20.00     0.012 C 
HETATM    6  C2  UNL     1     -33.213  17.978  -2.086  1.00 20.00     0.012 C 
ENDBRANCH   1   4
BRANCH   1   7
HETATM    7  N9  UNL     1     -33.762  16.802  -4.402  1.00 20.00     0.093 N 
HETATM    8  H28 UNL     1     -34.384  17.319  -5.028  1.00 20.00     0.316 HD
BRANCH   7   9
HETATM    9  C7  UNL     1     -33.047  15.793  -5.177  1.00 20.00     0.213 C 
HETATM   10  C3  UNL     1     -33.695  15.668  -6.550  1.00 20.00     0.042 C 
HETATM   11  C4  UNL     1     -33.077  14.475  -4.419  1.00 20.00     0.042 C 
ENDBRANCH   7   9
ENDBRANCH   1   7
TORSDOF 4
ENDMDL
MODEL 8
REMARK VINA RESULT:      -3.5     11.264     11.894
REMARK  4 active torsions:
REMARK  status: ('A' for Active; 'I' for Inactive)
REMARK    1  A    between atoms: C5_5  and  C8_8 
REMARK    2  A    between atoms: C6_6  and  C8_8 
REMARK    3  A    between atoms: C7_7  and  N9_9 
REMARK    4  A    between atoms: C8_8  and  N9_9 
ROOT
HETATM    1  C8  UNL     1     -34.551  16.170  -3.695  1.00 20.00     0.237 C 
ENDROOT
BRANCH   1   2
HETATM    2  C5  UNL     1     -33.325  15.956  -4.590  1.00 20.00     0.150 C 
HETATM    3 CL10 UNL     1     -32.636  14.325  -4.368  1.00 20.00    -0.128 Cl
ENDBRANCH   1   2
BRANCH   1   4
HETATM    4  C6  UNL     1     -34.156  16.658  -2.278  1.00 20.00     0.011 C 
HETATM    5  C1  UNL     1     -35.357  16.950  -1.372  1.00 20.00     0.012 C 
HETATM    6  C2  UNL     1     -33.248  17.891  -2.346  1.00 20.00     0.012 C 
ENDBRANCH   1   4
BRANCH   1   7
HETATM    7  N9  UNL     1     -35.360  14.972  -3.639  1.00 20.00     0.093 N 
HETATM    8  H28 UNL     1     -34.754  14.150  -3.576  1.00 20.00     0.316 HD
BRANCH   7   9
HETATM    9  C7  UNL     1     -36.202  14.844  -4.825  1.00 20.00     0.213 C 
HETATM   10  C3  UNL     1     -37.643  15.159  -4.449  1.00 20.00     0.042 C 
HETATM   11  C4  UNL     1     -36.060  13.436  -5.382  1.00 20.00     0.042 C 
ENDBRANCH   7   9
ENDBRANCH   1   7
TORSDOF 4
ENDMDL
MODEL 9
REMARK VINA RESULT:      -3.5     11.604     12.357
REMARK  4 active torsions:
REMARK  status: ('A' for Active; 'I' for Inactive)
REMARK    1  A    between atoms: C5_5  and  C8_8 
REMARK    2  A    between atoms: C6_6  and  C8_8 
REMARK    3  A    between atoms: C7_7  and  N9_9 
REMARK    4  A    between atoms: C8_8  and  N9_9 
ROOT
HETATM    1  C8  UNL     1     -34.079  16.605  -4.356  1.00 20.00     0.237 C 
ENDROOT
BRANCH   1   2
HETATM    2  C5  UNL     1     -34.832  16.857  -5.668  1.00 20.00     0.150 C 
HETATM    3 CL10 UNL     1     -33.745  16.718  -7.076  1.00 20.00    -0.128 Cl
ENDBRANCH   1   2
BRANCH   1   4
HETATM    4  C6  UNL     1     -34.097  15.107  -3.956  1.00 20.00     0.011 C 
HETATM    5  C1  UNL     1     -32.831  14.347  -4.365  1.00 20.00     0.012 C 
HETATM    6  C2  UNL     1     -35.332  14.395  -4.517  1.00 20.00     0.012 C 
ENDBRANCH   1   4
BRANCH   1   7
HETATM    7  N9  UNL     1     -34.598  17.445  -3.299  1.00 20.00     0.093 N 
HETATM    8  H28 UNL     1     -34.261  18.403  -3.423  1.00 20.00     0.316 HD
BRANCH   7   9
HETATM    9  C7  UNL     1     -34.175  16.967  -1.986  1.00 20.00     0.213 C 
HETATM   10  C3  UNL     1     -35.350  17.054  -1.022  1.00 20.00     0.042 C 
HETATM   11  C4  UNL     1     -32.995  17.802  -1.512  1.00 20.00     0.042 C 
ENDBRANCH   7   9
ENDBRANCH   1   7
TORSDOF 4
ENDMDL
