MODEL 1
REMARK VINA RESULT:      -4.6      0.000      0.000
REMARK  2 active torsions:
REMARK  status: ('A' for Active; 'I' for Inactive)
REMARK    1  A    between atoms: C5_5  and  C7_7 
REMARK    2  A    between atoms: C7_7  and  O9_9 
ROOT
HETATM    1  C2  UNL     1     -31.573   7.913   3.479  1.00 20.00     0.045 A 
HETATM    2  C6  UNL     1     -32.113   8.077   2.081  1.00 20.00     0.019 A 
HETATM    3  C7  UNL     1     -32.724   7.069   3.019  1.00 20.00     0.066 A 
HETATM    4  C8  UNL     1     -32.804   9.335   1.685  1.00 20.00     0.013 C 
ENDROOT
BRANCH   3   5
HETATM    5  C5  UNL     1     -34.088   7.276   3.629  1.00 20.00     0.030 C 
HETATM    6  C1  UNL     1     -34.024   7.575   5.127  1.00 20.00     0.018 C 
HETATM    7  C3  UNL     1     -33.761   6.266   5.856  1.00 20.00     0.074 C 
HETATM    8  S10 UNL     1     -34.692   5.014   4.935  1.00 20.00    -0.169 SA
HETATM    9  C4  UNL     1     -34.992   6.055   3.475  1.00 20.00     0.081 C 
ENDBRANCH   3   5
BRANCH   3  10
HETATM   10  O9  UNL     1     -32.441   5.691   2.742  1.00 20.00    -0.389 OA
HETATM   11  H24 UNL     1     -33.195   5.189   3.084  1.00 20.00     0.210 HD
ENDBRANCH   3  10
TORSDOF 2
ENDMDL
MODEL 2
REMARK VINA RESULT:      -3.9     11.067     12.546
REMARK  2 active torsions:
REMARK  status: ('A' for Active; 'I' for Inactive)
REMARK    1  A    between atoms: C5_5  and  C7_7 
REMARK    2  A    between atoms: C7_7  and  O9_9 
ROOT
HETATM    1  C2  UNL     1     -35.072  15.060  -4.188  1.00 20.00     0.045 A 
HETATM    2  C6  UNL     1     -33.998  14.016  -4.017  1.00 20.00     0.019 A 
HETATM    3  C7  UNL     1     -34.994  13.905  -5.141  1.00 20.00     0.066 A 
HETATM    4  C8  UNL     1     -32.568  14.367  -4.235  1.00 20.00     0.013 C 
ENDROOT
BRANCH   3   5
HETATM    5  C5  UNL     1     -34.602  14.151  -6.577  1.00 20.00     0.030 C 
HETATM    6  C1  UNL     1     -34.614  15.636  -6.945  1.00 20.00     0.018 C 
HETATM    7  C3  UNL     1     -36.062  16.059  -7.139  1.00 20.00     0.074 C 
HETATM    8  S10 UNL     1     -36.872  14.637  -7.917  1.00 20.00    -0.169 SA
HETATM    9  C4  UNL     1     -35.533  13.458  -7.569  1.00 20.00     0.081 C 
ENDBRANCH   3   5
BRANCH   3  10
HETATM   10  O9  UNL     1     -35.996  12.889  -5.005  1.00 20.00    -0.389 OA
HETATM   11  H24 UNL     1     -36.678  13.096  -5.659  1.00 20.00     0.210 HD
ENDBRANCH   3  10
TORSDOF 2
ENDMDL
MODEL 3
REMARK VINA RESULT:      -3.8     11.082     12.470
REMARK  2 active torsions:
REMARK  status: ('A' for Active; 'I' for Inactive)
REMARK    1  A    between atoms: C5_5  and  C7_7 
REMARK    2  A    between atoms: C7_7  and  O9_9 
ROOT
HETATM    1  C2  UNL     1     -37.074  14.502  -6.451  1.00 20.00     0.045 A 
HETATM    2  C6  UNL     1     -37.971  14.195  -5.279  1.00 20.00     0.019 A 
HETATM    3  C7  UNL     1     -36.474  14.140  -5.125  1.00 20.00     0.066 A 
HETATM    4  C8  UNL     1     -38.808  15.267  -4.673  1.00 20.00     0.013 C 
ENDROOT
BRANCH   3   5
HETATM    5  C5  UNL     1     -35.718  15.184  -4.341  1.00 20.00     0.030 C 
HETATM    6  C1  UNL     1     -35.451  16.452  -5.154  1.00 20.00     0.018 C 
HETATM    7  C3  UNL     1     -34.305  16.163  -6.111  1.00 20.00     0.074 C 
HETATM    8  S10 UNL     1     -33.177  15.084  -5.190  1.00 20.00    -0.169 SA
HETATM    9  C4  UNL     1     -34.355  14.688  -3.864  1.00 20.00     0.081 C 
ENDBRANCH   3   5
BRANCH   3  10
HETATM   10  O9  UNL     1     -35.894  12.833  -5.015  1.00 20.00    -0.389 OA
HETATM   11  H24 UNL     1     -36.441  12.350  -4.380  1.00 20.00     0.210 HD
ENDBRANCH   3  10
TORSDOF 2
ENDMDL
MODEL 4
REMARK VINA RESULT:      -3.8     11.130     12.154
REMARK  2 active torsions:
REMARK  status: ('A' for Active; 'I' for Inactive)
REMARK    1  A    between atoms: C5_5  and  C7_7 
REMARK    2  A    between atoms: C7_7  and  O9_9 
ROOT
HETATM    1  C2  UNL     1     -34.583  14.897  -3.683  1.00 20.00     0.045 A 
HETATM    2  C6  UNL     1     -33.656  14.513  -4.808  1.00 20.00     0.019 A 
HETATM    3  C7  UNL     1     -35.141  14.307  -4.944  1.00 20.00     0.066 A 
HETATM    4  C8  UNL     1     -32.912  15.561  -5.560  1.00 20.00     0.013 C 
ENDROOT
BRANCH   3   5
HETATM    5  C5  UNL     1     -35.982  15.164  -5.857  1.00 20.00     0.030 C 
HETATM    6  C1  UNL     1     -36.495  16.431  -5.169  1.00 20.00     0.018 C 
HETATM    7  C3  UNL     1     -37.655  16.037  -4.268  1.00 20.00     0.074 C 
HETATM    8  S10 UNL     1     -38.537  14.736  -5.169  1.00 20.00    -0.169 SA
HETATM    9  C4  UNL     1     -37.216  14.433  -6.380  1.00 20.00     0.081 C 
ENDBRANCH   3   5
BRANCH   3  10
HETATM   10  O9  UNL     1     -35.604  12.952  -4.871  1.00 20.00    -0.389 OA
HETATM   11  H24 UNL     1     -36.030  12.861  -4.006  1.00 20.00     0.210 HD
ENDBRANCH   3  10
TORSDOF 2
ENDMDL
MODEL 5
REMARK VINA RESULT:      -3.8     11.257     12.201
REMARK  2 active torsions:
REMARK  status: ('A' for Active; 'I' for Inactive)
REMARK    1  A    between atoms: C5_5  and  C7_7 
REMARK    2  A    between atoms: C7_7  and  O9_9 
ROOT
HETATM    1  C2  UNL     1     -35.618  17.700  -3.402  1.00 20.00     0.045 A 
HETATM    2  C6  UNL     1     -35.718  17.093  -2.026  1.00 20.00     0.019 A 
HETATM    3  C7  UNL     1     -35.666  16.209  -3.243  1.00 20.00     0.066 A 
HETATM    4  C8  UNL     1     -34.586  17.216  -1.066  1.00 20.00     0.013 C 
ENDROOT
BRANCH   3   5
HETATM    5  C5  UNL     1     -34.446  15.387  -3.576  1.00 20.00     0.030 C 
HETATM    6  C1  UNL     1     -33.450  16.140  -4.459  1.00 20.00     0.018 C 
HETATM    7  C3  UNL     1     -33.990  16.140  -5.881  1.00 20.00     0.074 C 
HETATM    8  S10 UNL     1     -34.773  14.519  -6.092  1.00 20.00    -0.169 SA
HETATM    9  C4  UNL     1     -34.790  14.100  -4.323  1.00 20.00     0.081 C 
ENDBRANCH   3   5
BRANCH   3  10
HETATM   10  O9  UNL     1     -36.891  15.561  -3.611  1.00 20.00    -0.389 OA
HETATM   11  H24 UNL     1     -36.862  15.459  -4.573  1.00 20.00     0.210 HD
ENDBRANCH   3  10
TORSDOF 2
ENDMDL
MODEL 6
REMARK VINA RESULT:      -3.7     11.310     12.541
REMARK  2 active torsions:
REMARK  status: ('A' for Active; 'I' for Inactive)
REMARK    1  A    between atoms: C5_5  and  C7_7 
REMARK    2  A    between atoms: C7_7  and  O9_9 
ROOT
HETATM    1  C2  UNL     1     -36.022  15.443  -4.073  1.00 20.00     0.045 A 
HETATM    2  C6  UNL     1     -34.665  15.199  -3.464  1.00 20.00     0.019 A 
HETATM    3  C7  UNL     1     -35.073  14.480  -4.722  1.00 20.00     0.066 A 
HETATM    4  C8  UNL     1     -33.643  16.282  -3.447  1.00 20.00     0.013 C 
ENDROOT
BRANCH   3   5
HETATM    5  C5  UNL     1     -34.470  14.820  -6.063  1.00 20.00     0.030 C 
HETATM    6  C1  UNL     1     -35.228  15.935  -6.784  1.00 20.00     0.018 C 
HETATM    7  C3  UNL     1     -36.498  15.336  -7.370  1.00 20.00     0.074 C 
HETATM    8  S10 UNL     1     -36.031  13.673  -7.916  1.00 20.00    -0.169 SA
HETATM    9  C4  UNL     1     -34.451  13.629  -7.018  1.00 20.00     0.081 C 
ENDBRANCH   3   5
BRANCH   3  10
HETATM   10  O9  UNL     1     -35.378  13.086  -4.588  1.00 20.00    -0.389 OA
HETATM   11  H24 UNL     1     -34.859  12.631  -5.266  1.00 20.00     0.210 HD
ENDBRANCH   3  10
TORSDOF 2
ENDMDL
MODEL 7
REMARK VINA RESULT:      -3.7     11.466     12.737
REMARK  2 active torsions:
REMARK  status: ('A' for Active; 'I' for Inactive)
REMARK    1  A    between atoms: C5_5  and  C7_7 
REMARK    2  A    between atoms: C7_7  and  O9_9 
ROOT
HETATM    1  C2  UNL     1     -33.740  14.844  -7.486  1.00 20.00     0.045 A 
HETATM    2  C6  UNL     1     -34.690  13.681  -7.353  1.00 20.00     0.019 A 
HETATM    3  C7  UNL     1     -34.257  14.451  -6.135  1.00 20.00     0.066 A 
HETATM    4  C8  UNL     1     -36.065  13.765  -7.918  1.00 20.00     0.013 C 
ENDROOT
BRANCH   3   5
HETATM    5  C5  UNL     1     -35.199  15.374  -5.402  1.00 20.00     0.030 C 
HETATM    6  C1  UNL     1     -34.943  16.849  -5.717  1.00 20.00     0.018 C 
HETATM    7  C3  UNL     1     -33.712  17.287  -4.938  1.00 20.00     0.074 C 
HETATM    8  S10 UNL     1     -33.815  16.412  -3.354  1.00 20.00    -0.169 SA
HETATM    9  C4  UNL     1     -35.097  15.237  -3.885  1.00 20.00     0.081 C 
ENDBRANCH   3   5
BRANCH   3  10
HETATM   10  O9  UNL     1     -33.334  13.790  -5.259  1.00 20.00    -0.389 OA
HETATM   11  H24 UNL     1     -33.601  12.860  -5.241  1.00 20.00     0.210 HD
ENDBRANCH   3  10
TORSDOF 2
ENDMDL
MODEL 8
REMARK VINA RESULT:      -3.6     11.631     12.557
REMARK  2 active torsions:
REMARK  status: ('A' for Active; 'I' for Inactive)
REMARK    1  A    between atoms: C5_5  and  C7_7 
REMARK    2  A    between atoms: C7_7  and  O9_9 
ROOT
HETATM    1  C2  UNL     1     -33.455  14.595  -4.155  1.00 20.00     0.045 A 
HETATM    2  C6  UNL     1     -33.671  15.994  -3.639  1.00 20.00     0.019 A 
HETATM    3  C7  UNL     1     -33.988  15.656  -5.071  1.00 20.00     0.066 A 
HETATM    4  C8  UNL     1     -34.723  16.266  -2.620  1.00 20.00     0.013 C 
ENDROOT
BRANCH   3   5
HETATM    5  C5  UNL     1     -35.408  15.562  -5.570  1.00 20.00     0.030 C 
HETATM    6  C1  UNL     1     -36.016  14.174  -5.361  1.00 20.00     0.018 C 
HETATM    7  C3  UNL     1     -35.450  13.249  -6.429  1.00 20.00     0.074 C 
HETATM    8  S10 UNL     1     -35.311  14.272  -7.918  1.00 20.00    -0.169 SA
HETATM    9  C4  UNL     1     -35.529  15.861  -7.062  1.00 20.00     0.081 C 
ENDBRANCH   3   5
BRANCH   3  10
HETATM   10  O9  UNL     1     -33.084  16.166  -6.060  1.00 20.00    -0.389 OA
HETATM   11  H24 UNL     1     -32.786  17.027  -5.732  1.00 20.00     0.210 HD
ENDBRANCH   3  10
TORSDOF 2
ENDMDL
MODEL 9
REMARK VINA RESULT:      -3.5     11.766     12.495
REMARK  2 active torsions:
REMARK  status: ('A' for Active; 'I' for Inactive)
REMARK    1  A    between atoms: C5_5  and  C7_7 
REMARK    2  A    between atoms: C7_7  and  O9_9 
ROOT
HETATM    1  C2  UNL     1     -34.767  16.600  -4.646  1.00 20.00     0.045 A 
HETATM    2  C6  UNL     1     -33.368  16.061  -4.794  1.00 20.00     0.019 A 
HETATM    3  C7  UNL     1     -33.660  17.152  -3.800  1.00 20.00     0.066 A 
HETATM    4  C8  UNL     1     -33.054  14.662  -4.392  1.00 20.00     0.013 C 
ENDROOT
BRANCH   3   5
HETATM    5  C5  UNL     1     -33.660  16.894  -2.313  1.00 20.00     0.030 C 
HETATM    6  C1  UNL     1     -35.070  16.748  -1.740  1.00 20.00     0.018 C 
HETATM    7  C3  UNL     1     -35.674  18.139  -1.622  1.00 20.00     0.074 C 
HETATM    8  S10 UNL     1     -34.300  19.214  -1.133  1.00 20.00    -0.169 SA
HETATM    9  C4  UNL     1     -32.991  18.014  -1.521  1.00 20.00     0.081 C 
ENDBRANCH   3   5
BRANCH   3  10
HETATM   10  O9  UNL     1     -33.184  18.463  -4.135  1.00 20.00    -0.389 OA
HETATM   11  H24 UNL     1     -32.221  18.430  -4.045  1.00 20.00     0.210 HD
ENDBRANCH   3  10
TORSDOF 2
ENDMDL
