MODEL 1
REMARK VINA RESULT:      -4.8      0.000      0.000
REMARK  5 active torsions:
REMARK  status: ('A' for Active; 'I' for Inactive)
REMARK    1  A    between atoms: C4_4  and  C7_7 
REMARK    2  A    between atoms: C5_5  and  C8_8 
REMARK    3  A    between atoms: C6_6  and  C7_7 
REMARK    4  A    between atoms: C6_6  and  O9_9 
REMARK    5  A    between atoms: C7_7  and  C8_8 
ROOT
HETATM    1  C7  UNL     1     -32.825   7.072   3.608  1.00 20.00     0.027 C 
ENDROOT
BRANCH   1   2
HETATM    2  C4  UNL     1     -33.563   7.984   4.615  1.00 20.00     0.004 C 
HETATM    3  C1  UNL     1     -33.422   7.529   6.062  1.00 20.00     0.005 C 
ENDBRANCH   1   2
BRANCH   1   4
HETATM    4  C6  UNL     1     -32.033   7.912   2.586  1.00 20.00     0.173 C 
BRANCH   4   5
HETATM    5  O9  UNL     1     -32.893   8.772   1.848  1.00 20.00    -0.396 OA
HETATM    6  C3  UNL     1     -32.183   9.478   0.840  1.00 20.00     0.201 C 
ENDBRANCH   4   5
ENDBRANCH   1   4
BRANCH   1   7
HETATM    7  C8  UNL     1     -33.771   6.054   2.904  1.00 20.00     0.088 C 
HETATM    8 CL10 UNL     1     -32.841   4.585   2.429  1.00 20.00    -0.125 Cl
BRANCH   7   9
HETATM    9  C5  UNL     1     -35.000   5.652   3.735  1.00 20.00     0.016 C 
HETATM   10  C2  UNL     1     -34.730   4.497   4.694  1.00 20.00     0.006 C 
ENDBRANCH   7   9
ENDBRANCH   1   7
TORSDOF 5
ENDMDL
MODEL 2
REMARK VINA RESULT:      -4.5      1.852      2.506
REMARK  5 active torsions:
REMARK  status: ('A' for Active; 'I' for Inactive)
REMARK    1  A    between atoms: C4_4  and  C7_7 
REMARK    2  A    between atoms: C5_5  and  C8_8 
REMARK    3  A    between atoms: C6_6  and  C7_7 
REMARK    4  A    between atoms: C6_6  and  O9_9 
REMARK    5  A    between atoms: C7_7  and  C8_8 
ROOT
HETATM    1  C7  UNL     1     -33.453   7.181   3.375  1.00 20.00     0.027 C 
ENDROOT
BRANCH   1   2
HETATM    2  C4  UNL     1     -33.710   6.140   2.261  1.00 20.00     0.004 C 
HETATM    3  C1  UNL     1     -32.930   4.844   2.449  1.00 20.00     0.005 C 
ENDBRANCH   1   2
BRANCH   1   4
HETATM    4  C6  UNL     1     -32.090   7.872   3.174  1.00 20.00     0.173 C 
BRANCH   4   5
HETATM    5  O9  UNL     1     -31.865   8.181   1.803  1.00 20.00    -0.396 OA
HETATM    6  C3  UNL     1     -32.318   9.490   1.483  1.00 20.00     0.201 C 
ENDBRANCH   4   5
ENDBRANCH   1   4
BRANCH   1   7
HETATM    7  C8  UNL     1     -33.589   6.583   4.807  1.00 20.00     0.088 C 
HETATM    8 CL10 UNL     1     -33.420   7.894   6.032  1.00 20.00    -0.125 Cl
BRANCH   7   9
HETATM    9  C5  UNL     1     -34.891   5.802   5.048  1.00 20.00     0.016 C 
HETATM   10  C2  UNL     1     -34.659   4.374   5.528  1.00 20.00     0.006 C 
ENDBRANCH   7   9
ENDBRANCH   1   7
TORSDOF 5
ENDMDL
MODEL 3
REMARK VINA RESULT:      -4.3      2.325      4.524
REMARK  5 active torsions:
REMARK  status: ('A' for Active; 'I' for Inactive)
REMARK    1  A    between atoms: C4_4  and  C7_7 
REMARK    2  A    between atoms: C5_5  and  C8_8 
REMARK    3  A    between atoms: C6_6  and  C7_7 
REMARK    4  A    between atoms: C6_6  and  O9_9 
REMARK    5  A    between atoms: C7_7  and  C8_8 
ROOT
HETATM    1  C7  UNL     1     -33.210   6.861   3.557  1.00 20.00     0.027 C 
ENDROOT
BRANCH   1   2
HETATM    2  C4  UNL     1     -33.654   5.926   2.409  1.00 20.00     0.004 C 
HETATM    3  C1  UNL     1     -33.029   4.538   2.480  1.00 20.00     0.005 C 
ENDBRANCH   1   2
BRANCH   1   4
HETATM    4  C6  UNL     1     -34.361   7.084   4.558  1.00 20.00     0.173 C 
BRANCH   4   5
HETATM    5  O9  UNL     1     -34.102   6.432   5.796  1.00 20.00    -0.396 OA
HETATM    6  C3  UNL     1     -34.601   5.101   5.797  1.00 20.00     0.201 C 
ENDBRANCH   4   5
ENDBRANCH   1   4
BRANCH   1   7
HETATM    7  C8  UNL     1     -32.621   8.211   3.048  1.00 20.00     0.088 C 
HETATM    8 CL10 UNL     1     -31.029   8.516   3.833  1.00 20.00    -0.125 Cl
BRANCH   7   9
HETATM    9  C5  UNL     1     -32.481   8.304   1.520  1.00 20.00     0.016 C 
HETATM   10  C2  UNL     1     -32.441   9.739   1.004  1.00 20.00     0.006 C 
ENDBRANCH   7   9
ENDBRANCH   1   7
TORSDOF 5
ENDMDL
MODEL 4
REMARK VINA RESULT:      -4.1      1.600      2.422
REMARK  5 active torsions:
REMARK  status: ('A' for Active; 'I' for Inactive)
REMARK    1  A    between atoms: C4_4  and  C7_7 
REMARK    2  A    between atoms: C5_5  and  C8_8 
REMARK    3  A    between atoms: C6_6  and  C7_7 
REMARK    4  A    between atoms: C6_6  and  O9_9 
REMARK    5  A    between atoms: C7_7  and  C8_8 
ROOT
HETATM    1  C7  UNL     1     -33.219   6.938   2.954  1.00 20.00     0.027 C 
ENDROOT
BRANCH   1   2
HETATM    2  C4  UNL     1     -32.477   5.584   3.019  1.00 20.00     0.004 C 
HETATM    3  C1  UNL     1     -33.196   4.461   2.281  1.00 20.00     0.005 C 
ENDBRANCH   1   2
BRANCH   1   4
HETATM    4  C6  UNL     1     -32.221   8.112   3.001  1.00 20.00     0.173 C 
BRANCH   4   5
HETATM    5  O9  UNL     1     -31.630   8.339   1.727  1.00 20.00    -0.396 OA
HETATM    6  C3  UNL     1     -32.378   9.277   0.966  1.00 20.00     0.201 C 
ENDBRANCH   4   5
ENDBRANCH   1   4
BRANCH   1   7
HETATM    7  C8  UNL     1     -34.324   7.079   4.043  1.00 20.00     0.088 C 
HETATM    8 CL10 UNL     1     -35.770   6.112   3.572  1.00 20.00    -0.125 Cl
BRANCH   7   9
HETATM    9  C5  UNL     1     -33.870   6.690   5.459  1.00 20.00     0.016 C 
HETATM   10  C2  UNL     1     -34.508   5.401   5.966  1.00 20.00     0.006 C 
ENDBRANCH   7   9
ENDBRANCH   1   7
TORSDOF 5
ENDMDL
MODEL 5
REMARK VINA RESULT:      -4.1      2.109      4.050
REMARK  5 active torsions:
REMARK  status: ('A' for Active; 'I' for Inactive)
REMARK    1  A    between atoms: C4_4  and  C7_7 
REMARK    2  A    between atoms: C5_5  and  C8_8 
REMARK    3  A    between atoms: C6_6  and  C7_7 
REMARK    4  A    between atoms: C6_6  and  O9_9 
REMARK    5  A    between atoms: C7_7  and  C8_8 
ROOT
HETATM    1  C7  UNL     1     -33.580   7.124   3.095  1.00 20.00     0.027 C 
ENDROOT
BRANCH   1   2
HETATM    2  C4  UNL     1     -34.422   7.308   4.379  1.00 20.00     0.004 C 
HETATM    3  C1  UNL     1     -33.590   7.314   5.655  1.00 20.00     0.005 C 
ENDBRANCH   1   2
BRANCH   1   4
HETATM    4  C6  UNL     1     -32.771   5.813   3.154  1.00 20.00     0.173 C 
BRANCH   4   5
HETATM    5  O9  UNL     1     -33.596   4.684   2.889  1.00 20.00    -0.396 OA
HETATM    6  C3  UNL     1     -34.007   4.046   4.090  1.00 20.00     0.201 C 
ENDBRANCH   4   5
ENDBRANCH   1   4
BRANCH   1   7
HETATM    7  C8  UNL     1     -32.669   8.348   2.786  1.00 20.00     0.088 C 
HETATM    8 CL10 UNL     1     -31.050   8.110   3.543  1.00 20.00    -0.125 Cl
BRANCH   7   9
HETATM    9  C5  UNL     1     -32.509   8.658   1.289  1.00 20.00     0.016 C 
HETATM   10  C2  UNL     1     -32.640  10.142   0.962  1.00 20.00     0.006 C 
ENDBRANCH   7   9
ENDBRANCH   1   7
TORSDOF 5
ENDMDL
MODEL 6
REMARK VINA RESULT:      -4.0      1.272      2.907
REMARK  5 active torsions:
REMARK  status: ('A' for Active; 'I' for Inactive)
REMARK    1  A    between atoms: C4_4  and  C7_7 
REMARK    2  A    between atoms: C5_5  and  C8_8 
REMARK    3  A    between atoms: C6_6  and  C7_7 
REMARK    4  A    between atoms: C6_6  and  O9_9 
REMARK    5  A    between atoms: C7_7  and  C8_8 
ROOT
HETATM    1  C7  UNL     1     -33.246   7.479   2.912  1.00 20.00     0.027 C 
ENDROOT
BRANCH   1   2
HETATM    2  C4  UNL     1     -32.480   7.961   1.658  1.00 20.00     0.004 C 
HETATM    3  C1  UNL     1     -32.449   9.477   1.511  1.00 20.00     0.005 C 
ENDBRANCH   1   2
BRANCH   1   4
HETATM    4  C6  UNL     1     -32.308   7.413   4.134  1.00 20.00     0.173 C 
BRANCH   4   5
HETATM    5  O9  UNL     1     -32.793   8.218   5.202  1.00 20.00    -0.396 OA
HETATM    6  C3  UNL     1     -33.572   7.457   6.115  1.00 20.00     0.201 C 
ENDBRANCH   4   5
ENDBRANCH   1   4
BRANCH   1   7
HETATM    7  C8  UNL     1     -33.992   6.130   2.687  1.00 20.00     0.088 C 
HETATM    8 CL10 UNL     1     -32.796   4.794   2.511  1.00 20.00    -0.125 Cl
BRANCH   7   9
HETATM    9  C5  UNL     1     -35.013   5.781   3.782  1.00 20.00     0.016 C 
HETATM   10  C2  UNL     1     -34.666   4.509   4.548  1.00 20.00     0.006 C 
ENDBRANCH   7   9
ENDBRANCH   1   7
TORSDOF 5
ENDMDL
MODEL 7
REMARK VINA RESULT:      -4.0     11.208     11.891
REMARK  5 active torsions:
REMARK  status: ('A' for Active; 'I' for Inactive)
REMARK    1  A    between atoms: C4_4  and  C7_7 
REMARK    2  A    between atoms: C5_5  and  C8_8 
REMARK    3  A    between atoms: C6_6  and  C7_7 
REMARK    4  A    between atoms: C6_6  and  O9_9 
REMARK    5  A    between atoms: C7_7  and  C8_8 
ROOT
HETATM    1  C7  UNL     1     -34.928  14.546  -4.016  1.00 20.00     0.027 C 
ENDROOT
BRANCH   1   2
HETATM    2  C4  UNL     1     -33.480  14.416  -4.542  1.00 20.00     0.004 C 
HETATM    3  C1  UNL     1     -33.002  15.640  -5.313  1.00 20.00     0.005 C 
ENDBRANCH   1   2
BRANCH   1   4
HETATM    4  C6  UNL     1     -35.922  13.857  -4.973  1.00 20.00     0.173 C 
BRANCH   4   5
HETATM    5  O9  UNL     1     -35.284  12.839  -5.735  1.00 20.00    -0.396 OA
HETATM    6  C3  UNL     1     -35.388  13.090  -7.130  1.00 20.00     0.201 C 
ENDBRANCH   4   5
ENDBRANCH   1   4
BRANCH   1   7
HETATM    7  C8  UNL     1     -35.338  16.020  -3.725  1.00 20.00     0.088 C 
HETATM    8 CL10 UNL     1     -37.041  16.294  -4.248  1.00 20.00    -0.125 Cl
BRANCH   7   9
HETATM    9  C5  UNL     1     -35.164  16.448  -2.258  1.00 20.00     0.016 C 
HETATM   10  C2  UNL     1     -33.801  17.067  -1.968  1.00 20.00     0.006 C 
ENDBRANCH   7   9
ENDBRANCH   1   7
TORSDOF 5
ENDMDL
MODEL 8
REMARK VINA RESULT:      -3.9      2.224      4.275
REMARK  5 active torsions:
REMARK  status: ('A' for Active; 'I' for Inactive)
REMARK    1  A    between atoms: C4_4  and  C7_7 
REMARK    2  A    between atoms: C5_5  and  C8_8 
REMARK    3  A    between atoms: C6_6  and  C7_7 
REMARK    4  A    between atoms: C6_6  and  O9_9 
REMARK    5  A    between atoms: C7_7  and  C8_8 
ROOT
HETATM    1  C7  UNL     1     -32.224   7.505   2.858  1.00 20.00     0.027 C 
ENDROOT
BRANCH   1   2
HETATM    2  C4  UNL     1     -33.334   6.576   2.315  1.00 20.00     0.004 C 
HETATM    3  C1  UNL     1     -33.087   5.101   2.604  1.00 20.00     0.005 C 
ENDBRANCH   1   2
BRANCH   1   4
HETATM    4  C6  UNL     1     -32.517   7.915   4.315  1.00 20.00     0.173 C 
BRANCH   4   5
HETATM    5  O9  UNL     1     -33.856   7.602   4.679  1.00 20.00    -0.396 OA
HETATM    6  C3  UNL     1     -33.914   6.956   5.943  1.00 20.00     0.201 C 
ENDBRANCH   4   5
ENDBRANCH   1   4
BRANCH   1   7
HETATM    7  C8  UNL     1     -31.975   8.747   1.951  1.00 20.00     0.088 C 
HETATM    8 CL10 UNL     1     -30.874   8.301   0.596  1.00 20.00    -0.125 Cl
BRANCH   7   9
HETATM    9  C5  UNL     1     -33.254   9.395   1.397  1.00 20.00     0.016 C 
HETATM   10  C2  UNL     1     -33.178   9.704  -0.094  1.00 20.00     0.006 C 
ENDBRANCH   7   9
ENDBRANCH   1   7
TORSDOF 5
ENDMDL
MODEL 9
REMARK VINA RESULT:      -3.9     10.858     12.101
REMARK  5 active torsions:
REMARK  status: ('A' for Active; 'I' for Inactive)
REMARK    1  A    between atoms: C4_4  and  C7_7 
REMARK    2  A    between atoms: C5_5  and  C8_8 
REMARK    3  A    between atoms: C6_6  and  C7_7 
REMARK    4  A    between atoms: C6_6  and  O9_9 
REMARK    5  A    between atoms: C7_7  and  C8_8 
ROOT
HETATM    1  C7  UNL     1     -33.526  15.474  -4.118  1.00 20.00     0.027 C 
ENDROOT
BRANCH   1   2
HETATM    2  C4  UNL     1     -33.171  15.782  -5.591  1.00 20.00     0.004 C 
HETATM    3  C1  UNL     1     -33.863  17.027  -6.134  1.00 20.00     0.005 C 
ENDBRANCH   1   2
BRANCH   1   4
HETATM    4  C6  UNL     1     -34.345  14.171  -4.014  1.00 20.00     0.173 C 
BRANCH   4   5
HETATM    5  O9  UNL     1     -34.668  13.660  -5.302  1.00 20.00    -0.396 OA
HETATM    6  C3  UNL     1     -36.061  13.411  -5.429  1.00 20.00     0.201 C 
ENDBRANCH   4   5
ENDBRANCH   1   4
BRANCH   1   7
HETATM    7  C8  UNL     1     -34.240  16.660  -3.404  1.00 20.00     0.088 C 
HETATM    8 CL10 UNL     1     -35.953  16.220  -3.058  1.00 20.00    -0.125 Cl
BRANCH   7   9
HETATM    9  C5  UNL     1     -33.548  17.134  -2.116  1.00 20.00     0.016 C 
HETATM   10  C2  UNL     1     -34.515  17.360  -0.959  1.00 20.00     0.006 C 
ENDBRANCH   7   9
ENDBRANCH   1   7
TORSDOF 5
ENDMDL
