MODEL 1
REMARK VINA RESULT:      -4.7      0.000      0.000
REMARK  2 active torsions:
REMARK  status: ('A' for Active; 'I' for Inactive)
REMARK    1  A    between atoms: C3_3  and  C6_6 
REMARK    2  A    between atoms: C6_6  and  O9_9 
ROOT
HETATM    1  C2  UNL     1     -31.539   8.207   3.388  1.00 20.00     0.045 A 
HETATM    2  C5  UNL     1     -31.956   8.248   1.940  1.00 20.00     0.019 A 
HETATM    3  C6  UNL     1     -32.596   7.255   2.887  1.00 20.00     0.066 A 
HETATM    4  C8  UNL     1     -32.702   9.422   1.409  1.00 20.00     0.013 C 
ENDROOT
BRANCH   3   5
HETATM    5  C3  UNL     1     -34.046   7.332   3.355  1.00 20.00     0.024 A 
HETATM    6  C1  UNL     1     -34.808   6.126   3.841  1.00 20.00     0.012 A 
HETATM    7  C4  UNL     1     -34.485   7.242   4.798  1.00 20.00    -0.011 A 
HETATM    8  C7  UNL     1     -33.511   7.022   5.904  1.00 20.00     0.010 C 
ENDBRANCH   3   5
BRANCH   3   9
HETATM    9  O9  UNL     1     -32.135   5.895   2.712  1.00 20.00    -0.389 OA
HETATM   10  H23 UNL     1     -32.935   5.358   2.674  1.00 20.00     0.210 HD
ENDBRANCH   3   9
TORSDOF 2
ENDMDL
MODEL 2
REMARK VINA RESULT:      -4.7      1.324      1.811
REMARK  2 active torsions:
REMARK  status: ('A' for Active; 'I' for Inactive)
REMARK    1  A    between atoms: C3_3  and  C6_6 
REMARK    2  A    between atoms: C6_6  and  O9_9 
ROOT
HETATM    1  C2  UNL     1     -32.664   9.960   2.015  1.00 20.00     0.045 A 
HETATM    2  C5  UNL     1     -32.061   9.240   0.836  1.00 20.00     0.019 A 
HETATM    3  C6  UNL     1     -32.296   8.502   2.137  1.00 20.00     0.066 A 
HETATM    4  C8  UNL     1     -32.882   8.975  -0.378  1.00 20.00     0.013 C 
ENDROOT
BRANCH   3   5
HETATM    5  C3  UNL     1     -33.345   7.411   2.324  1.00 20.00     0.024 A 
HETATM    6  C1  UNL     1     -33.006   6.037   2.843  1.00 20.00     0.012 A 
HETATM    7  C4  UNL     1     -33.874   6.954   3.664  1.00 20.00    -0.011 A 
HETATM    8  C7  UNL     1     -33.363   7.519   4.945  1.00 20.00     0.010 C 
ENDBRANCH   3   5
BRANCH   3   9
HETATM    9  O9  UNL     1     -31.091   8.256   2.898  1.00 20.00    -0.389 OA
HETATM   10  H23 UNL     1     -30.593   9.081   2.861  1.00 20.00     0.210 HD
ENDBRANCH   3   9
TORSDOF 2
ENDMDL
MODEL 3
REMARK VINA RESULT:      -4.6      1.061      3.720
REMARK  2 active torsions:
REMARK  status: ('A' for Active; 'I' for Inactive)
REMARK    1  A    between atoms: C3_3  and  C6_6 
REMARK    2  A    between atoms: C6_6  and  O9_9 
ROOT
HETATM    1  C2  UNL     1     -34.989   6.141   3.297  1.00 20.00     0.045 A 
HETATM    2  C5  UNL     1     -34.298   5.495   4.471  1.00 20.00     0.019 A 
HETATM    3  C6  UNL     1     -33.495   6.277   3.453  1.00 20.00     0.066 A 
HETATM    4  C8  UNL     1     -34.531   6.008   5.850  1.00 20.00     0.013 C 
ENDROOT
BRANCH   3   5
HETATM    5  C3  UNL     1     -32.827   7.619   3.738  1.00 20.00     0.024 A 
HETATM    6  C1  UNL     1     -31.385   7.897   3.400  1.00 20.00     0.012 A 
HETATM    7  C4  UNL     1     -32.479   8.642   2.682  1.00 20.00    -0.011 A 
HETATM    8  C7  UNL     1     -32.728   8.395   1.234  1.00 20.00     0.010 C 
ENDBRANCH   3   5
BRANCH   3   9
HETATM    9  O9  UNL     1     -32.725   5.449   2.551  1.00 20.00    -0.389 OA
HETATM   10  H23 UNL     1     -33.027   5.687   1.667  1.00 20.00     0.210 HD
ENDBRANCH   3   9
TORSDOF 2
ENDMDL
MODEL 4
REMARK VINA RESULT:      -4.1     10.385     12.060
REMARK  2 active torsions:
REMARK  status: ('A' for Active; 'I' for Inactive)
REMARK    1  A    between atoms: C3_3  and  C6_6 
REMARK    2  A    between atoms: C6_6  and  O9_9 
ROOT
HETATM    1  C2  UNL     1     -35.551  15.006  -4.233  1.00 20.00     0.045 A 
HETATM    2  C5  UNL     1     -34.268  14.220  -4.130  1.00 20.00     0.019 A 
HETATM    3  C6  UNL     1     -35.252  13.926  -5.242  1.00 20.00     0.066 A 
HETATM    4  C8  UNL     1     -32.961  14.884  -4.391  1.00 20.00     0.013 C 
ENDROOT
BRANCH   3   5
HETATM    5  C3  UNL     1     -34.997  14.236  -6.714  1.00 20.00     0.024 A 
HETATM    6  C1  UNL     1     -35.578  13.409  -7.832  1.00 20.00     0.012 A 
HETATM    7  C4  UNL     1     -36.019  14.838  -7.651  1.00 20.00    -0.011 A 
HETATM    8  C7  UNL     1     -37.408  15.142  -7.208  1.00 20.00     0.010 C 
ENDBRANCH   3   5
BRANCH   3   9
HETATM    9  O9  UNL     1     -36.008  12.708  -5.050  1.00 20.00    -0.389 OA
HETATM   10  H23 UNL     1     -36.900  12.995  -4.823  1.00 20.00     0.210 HD
ENDBRANCH   3   9
TORSDOF 2
ENDMDL
MODEL 5
REMARK VINA RESULT:      -4.0      1.592      3.737
REMARK  2 active torsions:
REMARK  status: ('A' for Active; 'I' for Inactive)
REMARK    1  A    between atoms: C3_3  and  C6_6 
REMARK    2  A    between atoms: C6_6  and  O9_9 
ROOT
HETATM    1  C2  UNL     1     -33.790   6.453   5.642  1.00 20.00     0.045 A 
HETATM    2  C5  UNL     1     -34.725   5.601   4.823  1.00 20.00     0.019 A 
HETATM    3  C6  UNL     1     -34.027   6.786   4.190  1.00 20.00     0.066 A 
HETATM    4  C8  UNL     1     -34.355   4.198   4.485  1.00 20.00     0.013 C 
ENDROOT
BRANCH   3   5
HETATM    5  C3  UNL     1     -32.926   6.670   3.139  1.00 20.00     0.024 A 
HETATM    6  C1  UNL     1     -32.783   7.647   2.001  1.00 20.00     0.012 A 
HETATM    7  C4  UNL     1     -31.718   7.574   3.064  1.00 20.00    -0.011 A 
HETATM    8  C7  UNL     1     -31.525   8.709   4.009  1.00 20.00     0.010 C 
ENDBRANCH   3   5
BRANCH   3   9
HETATM    9  O9  UNL     1     -34.888   7.928   3.975  1.00 20.00    -0.389 OA
HETATM   10  H23 UNL     1     -35.604   7.831   4.613  1.00 20.00     0.210 HD
ENDBRANCH   3   9
TORSDOF 2
ENDMDL
MODEL 6
REMARK VINA RESULT:      -4.0      1.519      2.193
REMARK  2 active torsions:
REMARK  status: ('A' for Active; 'I' for Inactive)
REMARK    1  A    between atoms: C3_3  and  C6_6 
REMARK    2  A    between atoms: C6_6  and  O9_9 
ROOT
HETATM    1  C2  UNL     1     -32.756   5.980   2.480  1.00 20.00     0.045 A 
HETATM    2  C5  UNL     1     -32.889   7.476   2.356  1.00 20.00     0.019 A 
HETATM    3  C6  UNL     1     -33.613   6.738   3.462  1.00 20.00     0.066 A 
HETATM    4  C8  UNL     1     -31.720   8.356   2.632  1.00 20.00     0.013 C 
ENDROOT
BRANCH   3   5
HETATM    5  C3  UNL     1     -33.253   6.846   4.941  1.00 20.00     0.024 A 
HETATM    6  C1  UNL     1     -34.229   7.330   5.982  1.00 20.00     0.012 A 
HETATM    7  C4  UNL     1     -33.749   5.903   6.012  1.00 20.00    -0.011 A 
HETATM    8  C7  UNL     1     -34.690   4.789   5.706  1.00 20.00     0.010 C 
ENDBRANCH   3   5
BRANCH   3   9
HETATM    9  O9  UNL     1     -35.035   6.597   3.241  1.00 20.00    -0.389 OA
HETATM   10  H23 UNL     1     -35.235   5.676   3.444  1.00 20.00     0.210 HD
ENDBRANCH   3   9
TORSDOF 2
ENDMDL
MODEL 7
REMARK VINA RESULT:      -3.9     10.517     11.776
REMARK  2 active torsions:
REMARK  status: ('A' for Active; 'I' for Inactive)
REMARK    1  A    between atoms: C3_3  and  C6_6 
REMARK    2  A    between atoms: C6_6  and  O9_9 
ROOT
HETATM    1  C2  UNL     1     -34.805  13.406  -7.173  1.00 20.00     0.045 A 
HETATM    2  C5  UNL     1     -36.263  13.789  -7.219  1.00 20.00     0.019 A 
HETATM    3  C6  UNL     1     -35.509  13.823  -5.906  1.00 20.00     0.066 A 
HETATM    4  C8  UNL     1     -36.687  15.035  -7.915  1.00 20.00     0.013 C 
ENDROOT
BRANCH   3   5
HETATM    5  C3  UNL     1     -35.147  15.104  -5.160  1.00 20.00     0.024 A 
HETATM    6  C1  UNL     1     -35.115  15.187  -3.656  1.00 20.00     0.012 A 
HETATM    7  C4  UNL     1     -33.838  15.334  -4.441  1.00 20.00    -0.011 A 
HETATM    8  C7  UNL     1     -32.787  14.281  -4.364  1.00 20.00     0.010 C 
ENDBRANCH   3   5
BRANCH   3   9
HETATM    9  O9  UNL     1     -35.829  12.728  -5.017  1.00 20.00    -0.389 OA
HETATM   10  H23 UNL     1     -35.268  12.856  -4.243  1.00 20.00     0.210 HD
ENDBRANCH   3   9
TORSDOF 2
ENDMDL
MODEL 8
REMARK VINA RESULT:      -3.9     10.496     11.918
REMARK  2 active torsions:
REMARK  status: ('A' for Active; 'I' for Inactive)
REMARK    1  A    between atoms: C3_3  and  C6_6 
REMARK    2  A    between atoms: C6_6  and  O9_9 
ROOT
HETATM    1  C2  UNL     1     -36.928  14.417  -6.422  1.00 20.00     0.045 A 
HETATM    2  C5  UNL     1     -37.702  14.302  -5.134  1.00 20.00     0.019 A 
HETATM    3  C6  UNL     1     -36.217  14.010  -5.156  1.00 20.00     0.066 A 
HETATM    4  C8  UNL     1     -38.254  15.523  -4.482  1.00 20.00     0.013 C 
ENDROOT
BRANCH   3   5
HETATM    5  C3  UNL     1     -35.161  14.892  -4.497  1.00 20.00     0.024 A 
HETATM    6  C1  UNL     1     -33.765  14.408  -4.204  1.00 20.00     0.012 A 
HETATM    7  C4  UNL     1     -33.981  15.498  -5.220  1.00 20.00    -0.011 A 
HETATM    8  C7  UNL     1     -33.725  15.237  -6.664  1.00 20.00     0.010 C 
ENDBRANCH   3   5
BRANCH   3   9
HETATM    9  O9  UNL     1     -35.895  12.601  -5.082  1.00 20.00    -0.389 OA
HETATM   10  H23 UNL     1     -35.859  12.300  -5.997  1.00 20.00     0.210 HD
ENDBRANCH   3   9
TORSDOF 2
ENDMDL
MODEL 9
REMARK VINA RESULT:      -3.9      1.439      3.831
REMARK  2 active torsions:
REMARK  status: ('A' for Active; 'I' for Inactive)
REMARK    1  A    between atoms: C3_3  and  C6_6 
REMARK    2  A    between atoms: C6_6  and  O9_9 
ROOT
HETATM    1  C2  UNL     1     -32.410   6.272   2.729  1.00 20.00     0.045 A 
HETATM    2  C5  UNL     1     -33.315   6.801   3.812  1.00 20.00     0.019 A 
HETATM    3  C6  UNL     1     -32.528   7.760   2.944  1.00 20.00     0.066 A 
HETATM    4  C8  UNL     1     -34.792   6.659   3.687  1.00 20.00     0.013 C 
ENDROOT
BRANCH   3   5
HETATM    5  C3  UNL     1     -33.154   8.685   1.905  1.00 20.00     0.024 A 
HETATM    6  C1  UNL     1     -32.690  10.102   1.694  1.00 20.00     0.012 A 
HETATM    7  C4  UNL     1     -32.493   9.081   0.605  1.00 20.00    -0.011 A 
HETATM    8  C7  UNL     1     -31.122   8.623   0.248  1.00 20.00     0.010 C 
ENDBRANCH   3   5
BRANCH   3   9
HETATM    9  O9  UNL     1     -31.390   8.355   3.610  1.00 20.00    -0.389 OA
HETATM   10  H23 UNL     1     -31.763   8.909   4.305  1.00 20.00     0.210 HD
ENDBRANCH   3   9
TORSDOF 2
ENDMDL
