MODEL 1
REMARK VINA RESULT:      -4.9      0.000      0.000
REMARK  2 active torsions:
REMARK  status: ('A' for Active; 'I' for Inactive)
REMARK    1  A    between atoms: C4_4  and  C7_7 
REMARK    2  A    between atoms: C7_7  and  C8_8 
ROOT
HETATM    1  C1  UNL     1     -33.151   4.966   3.010  1.00 20.00     0.034 C 
HETATM    2  C2  UNL     1     -33.811   3.661   3.401  1.00 20.00     0.168 C 
HETATM    3  C3  UNL     1     -34.734   5.366   4.694  1.00 20.00     0.173 C 
HETATM    4  C4  UNL     1     -34.206   5.975   3.406  1.00 20.00     0.026 C 
HETATM    5  O9  UNL     1     -34.646   3.942   4.535  1.00 20.00    -0.391 OA
ENDROOT
BRANCH   4   6
HETATM    6  C7  UNL     1     -33.684   7.390   3.569  1.00 20.00     0.067 C 
HETATM    7 BR10 UNL     1     -33.409   7.734   5.486  1.00 20.00    -0.090 Br
BRANCH   6   8
HETATM    8  C8  UNL     1     -32.402   7.733   2.781  1.00 20.00    -0.008 C 
HETATM    9  C5  UNL     1     -31.319   8.274   3.722  1.00 20.00     0.011 C 
HETATM   10  C6  UNL     1     -32.622   8.704   1.644  1.00 20.00     0.011 C 
ENDBRANCH   6   8
ENDBRANCH   4   6
TORSDOF 2
ENDMDL
MODEL 2
REMARK VINA RESULT:      -4.5      2.596      4.214
REMARK  2 active torsions:
REMARK  status: ('A' for Active; 'I' for Inactive)
REMARK    1  A    between atoms: C4_4  and  C7_7 
REMARK    2  A    between atoms: C7_7  and  C8_8 
ROOT
HETATM    1  C1  UNL     1     -31.844   7.452   3.377  1.00 20.00     0.034 C 
HETATM    2  C2  UNL     1     -31.321   8.710   2.715  1.00 20.00     0.168 C 
HETATM    3  C3  UNL     1     -33.452   8.273   1.878  1.00 20.00     0.173 C 
HETATM    4  C4  UNL     1     -33.340   7.642   3.256  1.00 20.00     0.026 C 
HETATM    5  O9  UNL     1     -32.271   9.072   1.702  1.00 20.00    -0.391 OA
ENDROOT
BRANCH   4   6
HETATM    6  C7  UNL     1     -34.143   6.365   3.409  1.00 20.00     0.067 C 
HETATM    7 BR10 UNL     1     -33.057   4.865   2.743  1.00 20.00    -0.090 Br
BRANCH   6   8
HETATM    8  C8  UNL     1     -34.658   6.055   4.830  1.00 20.00    -0.008 C 
HETATM    9  C5  UNL     1     -33.977   6.964   5.861  1.00 20.00     0.011 C 
HETATM   10  C6  UNL     1     -34.497   4.609   5.240  1.00 20.00     0.011 C 
ENDBRANCH   6   8
ENDBRANCH   4   6
TORSDOF 2
ENDMDL
MODEL 3
REMARK VINA RESULT:      -4.1     11.922     12.285
REMARK  2 active torsions:
REMARK  status: ('A' for Active; 'I' for Inactive)
REMARK    1  A    between atoms: C4_4  and  C7_7 
REMARK    2  A    between atoms: C7_7  and  C8_8 
ROOT
HETATM    1  C1  UNL     1     -35.721  15.093  -4.278  1.00 20.00     0.034 C 
HETATM    2  C2  UNL     1     -35.600  13.766  -4.997  1.00 20.00     0.168 C 
HETATM    3  C3  UNL     1     -33.479  14.722  -4.860  1.00 20.00     0.173 C 
HETATM    4  C4  UNL     1     -34.324  15.270  -3.723  1.00 20.00     0.026 C 
HETATM    5  O9  UNL     1     -34.246  13.669  -5.465  1.00 20.00    -0.391 OA
ENDROOT
BRANCH   4   6
HETATM    6  C7  UNL     1     -33.983  16.697  -3.341  1.00 20.00     0.067 C 
HETATM    7 BR10 UNL     1     -35.359  17.886  -4.092  1.00 20.00    -0.090 Br
BRANCH   6   8
HETATM    8  C8  UNL     1     -33.813  16.972  -1.833  1.00 20.00    -0.008 C 
HETATM    9  C5  UNL     1     -35.179  17.142  -1.157  1.00 20.00     0.011 C 
HETATM   10  C6  UNL     1     -32.937  18.163  -1.520  1.00 20.00     0.011 C 
ENDBRANCH   6   8
ENDBRANCH   4   6
TORSDOF 2
ENDMDL
MODEL 4
REMARK VINA RESULT:      -4.1      1.508      1.971
REMARK  2 active torsions:
REMARK  status: ('A' for Active; 'I' for Inactive)
REMARK    1  A    between atoms: C4_4  and  C7_7 
REMARK    2  A    between atoms: C7_7  and  C8_8 
ROOT
HETATM    1  C1  UNL     1     -33.118   5.964   2.763  1.00 20.00     0.034 C 
HETATM    2  C2  UNL     1     -33.949   5.008   3.594  1.00 20.00     0.168 C 
HETATM    3  C3  UNL     1     -34.008   7.105   4.610  1.00 20.00     0.173 C 
HETATM    4  C4  UNL     1     -33.729   7.299   3.129  1.00 20.00     0.026 C 
HETATM    5  O9  UNL     1     -34.331   5.716   4.783  1.00 20.00    -0.391 OA
ENDROOT
BRANCH   4   6
HETATM    6  C7  UNL     1     -32.844   8.492   2.826  1.00 20.00     0.067 C 
HETATM    7 BR10 UNL     1     -31.062   8.152   3.586  1.00 20.00    -0.090 Br
BRANCH   6   8
HETATM    8  C8  UNL     1     -32.718   8.881   1.338  1.00 20.00    -0.008 C 
HETATM    9  C5  UNL     1     -31.319   8.543   0.808  1.00 20.00     0.011 C 
HETATM   10  C6  UNL     1     -33.036  10.330   1.053  1.00 20.00     0.011 C 
ENDBRANCH   6   8
ENDBRANCH   4   6
TORSDOF 2
ENDMDL
MODEL 5
REMARK VINA RESULT:      -4.1     11.488     12.241
REMARK  2 active torsions:
REMARK  status: ('A' for Active; 'I' for Inactive)
REMARK    1  A    between atoms: C4_4  and  C7_7 
REMARK    2  A    between atoms: C7_7  and  C8_8 
ROOT
HETATM    1  C1  UNL     1     -35.929  15.592  -4.712  1.00 20.00     0.034 C 
HETATM    2  C2  UNL     1     -36.415  14.196  -5.041  1.00 20.00     0.168 C 
HETATM    3  C3  UNL     1     -34.271  14.034  -4.140  1.00 20.00     0.173 C 
HETATM    4  C4  UNL     1     -34.909  15.316  -3.631  1.00 20.00     0.026 C 
HETATM    5  O9  UNL     1     -35.307  13.309  -4.821  1.00 20.00    -0.391 OA
ENDROOT
BRANCH   4   6
HETATM    6  C7  UNL     1     -33.919  16.443  -3.406  1.00 20.00     0.067 C 
HETATM    7 BR10 UNL     1     -33.718  17.437  -5.092  1.00 20.00    -0.090 Br
BRANCH   6   8
HETATM    8  C8  UNL     1     -34.250  17.415  -2.255  1.00 20.00    -0.008 C 
HETATM    9  C5  UNL     1     -32.975  17.813  -1.502  1.00 20.00     0.011 C 
HETATM   10  C6  UNL     1     -35.275  16.887  -1.279  1.00 20.00     0.011 C 
ENDBRANCH   6   8
ENDBRANCH   4   6
TORSDOF 2
ENDMDL
MODEL 6
REMARK VINA RESULT:      -4.1      2.153      4.059
REMARK  2 active torsions:
REMARK  status: ('A' for Active; 'I' for Inactive)
REMARK    1  A    between atoms: C4_4  and  C7_7 
REMARK    2  A    between atoms: C7_7  and  C8_8 
ROOT
HETATM    1  C1  UNL     1     -31.535   8.356   2.915  1.00 20.00     0.034 C 
HETATM    2  C2  UNL     1     -31.728   9.291   1.739  1.00 20.00     0.168 C 
HETATM    3  C3  UNL     1     -33.548   7.838   1.827  1.00 20.00     0.173 C 
HETATM    4  C4  UNL     1     -32.960   7.953   3.223  1.00 20.00     0.026 C 
HETATM    5  O9  UNL     1     -32.883   8.826   1.025  1.00 20.00    -0.391 OA
ENDROOT
BRANCH   4   6
HETATM    6  C7  UNL     1     -33.084   6.684   4.045  1.00 20.00     0.067 C 
HETATM    7 BR10 UNL     1     -33.830   7.153   5.803  1.00 20.00    -0.090 Br
BRANCH   6   8
HETATM    8  C8  UNL     1     -33.905   5.543   3.409  1.00 20.00    -0.008 C 
HETATM    9  C5  UNL     1     -34.671   4.764   4.485  1.00 20.00     0.011 C 
HETATM   10  C6  UNL     1     -33.085   4.587   2.574  1.00 20.00     0.011 C 
ENDBRANCH   6   8
ENDBRANCH   4   6
TORSDOF 2
ENDMDL
MODEL 7
REMARK VINA RESULT:      -4.0      2.430      4.234
REMARK  2 active torsions:
REMARK  status: ('A' for Active; 'I' for Inactive)
REMARK    1  A    between atoms: C4_4  and  C7_7 
REMARK    2  A    between atoms: C7_7  and  C8_8 
ROOT
HETATM    1  C1  UNL     1     -31.579   8.079   1.443  1.00 20.00     0.034 C 
HETATM    2  C2  UNL     1     -31.808   9.369   0.683  1.00 20.00     0.168 C 
HETATM    3  C3  UNL     1     -33.537   9.107   2.224  1.00 20.00     0.173 C 
HETATM    4  C4  UNL     1     -32.325   8.345   2.732  1.00 20.00     0.026 C 
HETATM    5  O9  UNL     1     -33.093   9.866   1.088  1.00 20.00    -0.391 OA
ENDROOT
BRANCH   4   6
HETATM    6  C7  UNL     1     -32.674   7.095   3.517  1.00 20.00     0.067 C 
HETATM    7 BR10 UNL     1     -33.370   7.641   5.274  1.00 20.00    -0.090 Br
BRANCH   6   8
HETATM    8  C8  UNL     1     -33.659   6.121   2.837  1.00 20.00    -0.008 C 
HETATM    9  C5  UNL     1     -34.922   5.948   3.690  1.00 20.00     0.011 C 
HETATM   10  C6  UNL     1     -33.066   4.767   2.524  1.00 20.00     0.011 C 
ENDBRANCH   6   8
ENDBRANCH   4   6
TORSDOF 2
ENDMDL
MODEL 8
REMARK VINA RESULT:      -3.9     11.895     12.312
REMARK  2 active torsions:
REMARK  status: ('A' for Active; 'I' for Inactive)
REMARK    1  A    between atoms: C4_4  and  C7_7 
REMARK    2  A    between atoms: C7_7  and  C8_8 
ROOT
HETATM    1  C1  UNL     1     -35.139  14.504  -4.460  1.00 20.00     0.034 C 
HETATM    2  C2  UNL     1     -36.004  13.442  -5.106  1.00 20.00     0.168 C 
HETATM    3  C3  UNL     1     -37.387  15.169  -4.376  1.00 20.00     0.173 C 
HETATM    4  C4  UNL     1     -36.000  15.738  -4.619  1.00 20.00     0.026 C 
HETATM    5  O9  UNL     1     -37.369  13.826  -4.883  1.00 20.00    -0.391 OA
ENDROOT
BRANCH   4   6
HETATM    6  C7  UNL     1     -35.634  16.875  -3.685  1.00 20.00     0.067 C 
HETATM    7 BR10 UNL     1     -37.287  17.802  -3.158  1.00 20.00    -0.090 Br
BRANCH   6   8
HETATM    8  C8  UNL     1     -34.823  16.487  -2.431  1.00 20.00    -0.008 C 
HETATM    9  C5  UNL     1     -35.544  16.947  -1.158  1.00 20.00     0.011 C 
HETATM   10  C6  UNL     1     -33.404  17.010  -2.430  1.00 20.00     0.011 C 
ENDBRANCH   6   8
ENDBRANCH   4   6
TORSDOF 2
ENDMDL
MODEL 9
REMARK VINA RESULT:      -3.9     11.704     12.496
REMARK  2 active torsions:
REMARK  status: ('A' for Active; 'I' for Inactive)
REMARK    1  A    between atoms: C4_4  and  C7_7 
REMARK    2  A    between atoms: C7_7  and  C8_8 
ROOT
HETATM    1  C1  UNL     1     -34.237  14.663  -6.470  1.00 20.00     0.034 C 
HETATM    2  C2  UNL     1     -35.053  13.468  -6.914  1.00 20.00     0.168 C 
HETATM    3  C3  UNL     1     -35.242  13.667  -4.599  1.00 20.00     0.173 C 
HETATM    4  C4  UNL     1     -34.919  15.036  -5.172  1.00 20.00     0.026 C 
HETATM    5  O9  UNL     1     -35.508  12.811  -5.721  1.00 20.00    -0.391 OA
ENDROOT
BRANCH   4   6
HETATM    6  C7  UNL     1     -34.076  15.899  -4.253  1.00 20.00     0.067 C 
HETATM    7 BR10 UNL     1     -33.709  17.603  -5.166  1.00 20.00    -0.090 Br
BRANCH   6   8
HETATM    8  C8  UNL     1     -34.661  16.166  -2.850  1.00 20.00    -0.008 C 
HETATM    9  C5  UNL     1     -36.067  16.770  -2.957  1.00 20.00     0.011 C 
HETATM   10  C6  UNL     1     -33.793  17.045  -1.980  1.00 20.00     0.011 C 
ENDBRANCH   6   8
ENDBRANCH   4   6
TORSDOF 2
ENDMDL
