MODEL 1
REMARK VINA RESULT:      -5.0      0.000      0.000
REMARK  3 active torsions:
REMARK  status: ('A' for Active; 'I' for Inactive)
REMARK    1  A    between atoms: C2_2  and  C6_6 
REMARK    2  A    between atoms: C3_3  and  C7_7 
REMARK    3  A    between atoms: C3_3  and  O8_8 
ROOT
HETATM    1  C1  UNL     1     -33.365   5.296   2.949  1.00 20.00     0.045 A 
HETATM    2  C2  UNL     1     -33.416   6.787   2.736  1.00 20.00     0.022 A 
HETATM    3  C3  UNL     1     -34.333   6.134   3.748  1.00 20.00     0.062 A 
ENDROOT
BRANCH   3   4
HETATM    4  C7  UNL     1     -34.139   6.295   5.219  1.00 20.00     0.034 C 
HETATM    5  C5  UNL     1     -34.579   5.087   6.005  1.00 20.00     0.008 C 
ENDBRANCH   3   4
BRANCH   3   6
HETATM    6  O8  UNL     1     -35.715   6.038   3.359  1.00 20.00    -0.389 OA
HETATM    7  H22 UNL     1     -35.768   5.279   2.764  1.00 20.00     0.210 HD
ENDBRANCH   3   6
BRANCH   2   8
HETATM    8  C6  UNL     1     -32.265   7.644   3.137  1.00 20.00     0.003 C 
HETATM    9  C4  UNL     1     -31.911   8.678   2.100  1.00 20.00     0.005 C 
ENDBRANCH   2   8
TORSDOF 3
ENDMDL
MODEL 2
REMARK VINA RESULT:      -4.6      1.789      2.528
REMARK  3 active torsions:
REMARK  status: ('A' for Active; 'I' for Inactive)
REMARK    1  A    between atoms: C2_2  and  C6_6 
REMARK    2  A    between atoms: C3_3  and  C7_7 
REMARK    3  A    between atoms: C3_3  and  O8_8 
ROOT
HETATM    1  C1  UNL     1     -31.408   8.007   3.329  1.00 20.00     0.045 A 
HETATM    2  C2  UNL     1     -32.143   8.218   2.031  1.00 20.00     0.022 A 
HETATM    3  C3  UNL     1     -32.694   7.262   3.068  1.00 20.00     0.062 A 
ENDROOT
BRANCH   3   4
HETATM    4  C7  UNL     1     -33.912   7.575   3.872  1.00 20.00     0.034 C 
HETATM    5  C5  UNL     1     -33.734   7.290   5.341  1.00 20.00     0.008 C 
ENDBRANCH   3   4
BRANCH   3   6
HETATM    6  O8  UNL     1     -32.556   5.864   2.756  1.00 20.00    -0.389 OA
HETATM    7  H22 UNL     1     -32.811   5.777   1.828  1.00 20.00     0.210 HD
ENDBRANCH   3   6
BRANCH   2   8
HETATM    8  C6  UNL     1     -32.785   9.529   1.734  1.00 20.00     0.003 C 
HETATM    9  C4  UNL     1     -32.795   9.860   0.264  1.00 20.00     0.005 C 
ENDBRANCH   2   8
TORSDOF 3
ENDMDL
MODEL 3
REMARK VINA RESULT:      -4.0      2.323      4.633
REMARK  3 active torsions:
REMARK  status: ('A' for Active; 'I' for Inactive)
REMARK    1  A    between atoms: C2_2  and  C6_6 
REMARK    2  A    between atoms: C3_3  and  C7_7 
REMARK    3  A    between atoms: C3_3  and  O8_8 
ROOT
HETATM    1  C1  UNL     1     -31.369   8.377   3.026  1.00 20.00     0.045 A 
HETATM    2  C2  UNL     1     -32.818   7.980   2.907  1.00 20.00     0.022 A 
HETATM    3  C3  UNL     1     -32.213   8.949   1.913  1.00 20.00     0.062 A 
ENDROOT
BRANCH   3   4
HETATM    4  C7  UNL     1     -31.935   8.568   0.497  1.00 20.00     0.034 C 
HETATM    5  C5  UNL     1     -32.886   9.208  -0.480  1.00 20.00     0.008 C 
ENDBRANCH   3   4
BRANCH   3   6
HETATM    6  O8  UNL     1     -32.610  10.323   2.070  1.00 20.00    -0.389 OA
HETATM    7  H22 UNL     1     -31.838  10.849   1.821  1.00 20.00     0.210 HD
ENDBRANCH   3   6
BRANCH   2   8
HETATM    8  C6  UNL     1     -33.187   6.585   2.537  1.00 20.00     0.003 C 
HETATM    9  C4  UNL     1     -34.270   6.010   3.414  1.00 20.00     0.005 C 
ENDBRANCH   2   8
TORSDOF 3
ENDMDL
MODEL 4
REMARK VINA RESULT:      -4.0      1.551      1.909
REMARK  3 active torsions:
REMARK  status: ('A' for Active; 'I' for Inactive)
REMARK    1  A    between atoms: C2_2  and  C6_6 
REMARK    2  A    between atoms: C3_3  and  C7_7 
REMARK    3  A    between atoms: C3_3  and  O8_8 
ROOT
HETATM    1  C1  UNL     1     -34.265   8.032   4.051  1.00 20.00     0.045 A 
HETATM    2  C2  UNL     1     -32.866   7.473   4.058  1.00 20.00     0.022 A 
HETATM    3  C3  UNL     1     -34.019   6.636   4.569  1.00 20.00     0.062 A 
ENDROOT
BRANCH   3   4
HETATM    4  C7  UNL     1     -34.544   5.459   3.816  1.00 20.00     0.034 C 
HETATM    5  C5  UNL     1     -34.378   4.162   4.564  1.00 20.00     0.008 C 
ENDBRANCH   3   4
BRANCH   3   6
HETATM    6  O8  UNL     1     -34.082   6.477   5.998  1.00 20.00    -0.389 OA
HETATM    7  H22 UNL     1     -33.293   6.913   6.346  1.00 20.00     0.210 HD
ENDBRANCH   3   6
BRANCH   2   8
HETATM    8  C6  UNL     1     -32.169   7.175   2.776  1.00 20.00     0.003 C 
HETATM    9  C4  UNL     1     -31.921   8.404   1.940  1.00 20.00     0.005 C 
ENDBRANCH   2   8
TORSDOF 3
ENDMDL
MODEL 5
REMARK VINA RESULT:      -3.9      1.849      2.992
REMARK  3 active torsions:
REMARK  status: ('A' for Active; 'I' for Inactive)
REMARK    1  A    between atoms: C2_2  and  C6_6 
REMARK    2  A    between atoms: C3_3  and  C7_7 
REMARK    3  A    between atoms: C3_3  and  O8_8 
ROOT
HETATM    1  C1  UNL     1     -34.804   6.617   3.249  1.00 20.00     0.045 A 
HETATM    2  C2  UNL     1     -33.624   5.816   2.761  1.00 20.00     0.022 A 
HETATM    3  C3  UNL     1     -33.412   7.187   3.365  1.00 20.00     0.062 A 
ENDROOT
BRANCH   3   4
HETATM    4  C7  UNL     1     -32.796   7.378   4.712  1.00 20.00     0.034 C 
HETATM    5  C5  UNL     1     -33.809   7.372   5.826  1.00 20.00     0.008 C 
ENDBRANCH   3   4
BRANCH   3   6
HETATM    6  O8  UNL     1     -33.081   8.231   2.431  1.00 20.00    -0.389 OA
HETATM    7  H22 UNL     1     -33.565   8.021   1.622  1.00 20.00     0.210 HD
ENDBRANCH   3   6
BRANCH   2   8
HETATM    8  C6  UNL     1     -33.224   4.564   3.461  1.00 20.00     0.003 C 
HETATM    9  C4  UNL     1     -34.293   4.037   4.383  1.00 20.00     0.005 C 
ENDBRANCH   2   8
TORSDOF 3
ENDMDL
MODEL 6
REMARK VINA RESULT:      -3.9      2.034      3.067
REMARK  3 active torsions:
REMARK  status: ('A' for Active; 'I' for Inactive)
REMARK    1  A    between atoms: C2_2  and  C6_6 
REMARK    2  A    between atoms: C3_3  and  C7_7 
REMARK    3  A    between atoms: C3_3  and  O8_8 
ROOT
HETATM    1  C1  UNL     1     -35.474   5.843   3.754  1.00 20.00     0.045 A 
HETATM    2  C2  UNL     1     -34.484   6.099   4.859  1.00 20.00     0.022 A 
HETATM    3  C3  UNL     1     -34.192   5.049   3.809  1.00 20.00     0.062 A 
ENDROOT
BRANCH   3   4
HETATM    4  C7  UNL     1     -33.151   5.243   2.757  1.00 20.00     0.034 C 
HETATM    5  C5  UNL     1     -32.757   3.957   2.077  1.00 20.00     0.008 C 
ENDBRANCH   3   4
BRANCH   3   6
HETATM    6  O8  UNL     1     -34.317   3.685   4.247  1.00 20.00    -0.389 OA
HETATM    7  H22 UNL     1     -34.559   3.178   3.461  1.00 20.00     0.210 HD
ENDBRANCH   3   6
BRANCH   2   8
HETATM    8  C6  UNL     1     -33.746   7.392   4.923  1.00 20.00     0.003 C 
HETATM    9  C4  UNL     1     -33.319   7.758   6.321  1.00 20.00     0.005 C 
ENDBRANCH   2   8
TORSDOF 3
ENDMDL
MODEL 7
REMARK VINA RESULT:      -3.9     11.297     12.121
REMARK  3 active torsions:
REMARK  status: ('A' for Active; 'I' for Inactive)
REMARK    1  A    between atoms: C2_2  and  C6_6 
REMARK    2  A    between atoms: C3_3  and  C7_7 
REMARK    3  A    between atoms: C3_3  and  O8_8 
ROOT
HETATM    1  C1  UNL     1     -36.127  15.131  -4.553  1.00 20.00     0.045 A 
HETATM    2  C2  UNL     1     -34.848  14.683  -3.895  1.00 20.00     0.022 A 
HETATM    3  C3  UNL     1     -35.338  13.992  -5.150  1.00 20.00     0.062 A 
ENDROOT
BRANCH   3   4
HETATM    4  C7  UNL     1     -34.663  14.166  -6.470  1.00 20.00     0.034 C 
HETATM    5  C5  UNL     1     -35.121  13.165  -7.499  1.00 20.00     0.008 C 
ENDBRANCH   3   4
BRANCH   3   6
HETATM    6  O8  UNL     1     -35.890  12.677  -4.957  1.00 20.00    -0.389 OA
HETATM    7  H22 UNL     1     -36.105  12.351  -5.840  1.00 20.00     0.210 HD
ENDBRANCH   3   6
BRANCH   2   8
HETATM    8  C6  UNL     1     -33.654  15.573  -3.889  1.00 20.00     0.003 C 
HETATM    9  C4  UNL     1     -33.705  16.619  -2.805  1.00 20.00     0.005 C 
ENDBRANCH   2   8
TORSDOF 3
ENDMDL
MODEL 8
REMARK VINA RESULT:      -3.9      2.178      4.120
REMARK  3 active torsions:
REMARK  status: ('A' for Active; 'I' for Inactive)
REMARK    1  A    between atoms: C2_2  and  C6_6 
REMARK    2  A    between atoms: C3_3  and  C7_7 
REMARK    3  A    between atoms: C3_3  and  O8_8 
ROOT
HETATM    1  C1  UNL     1     -32.443   6.283   2.744  1.00 20.00     0.045 A 
HETATM    2  C2  UNL     1     -33.084   6.965   3.925  1.00 20.00     0.022 A 
HETATM    3  C3  UNL     1     -32.356   7.783   2.880  1.00 20.00     0.062 A 
ENDROOT
BRANCH   3   4
HETATM    4  C7  UNL     1     -33.076   8.661   1.911  1.00 20.00     0.034 C 
HETATM    5  C5  UNL     1     -32.151   9.342   0.936  1.00 20.00     0.008 C 
ENDBRANCH   3   4
BRANCH   3   6
HETATM    6  O8  UNL     1     -31.076   8.303   3.282  1.00 20.00    -0.389 OA
HETATM    7  H22 UNL     1     -30.880   7.887   4.132  1.00 20.00     0.210 HD
ENDBRANCH   3   6
BRANCH   2   8
HETATM    8  C6  UNL     1     -34.567   6.989   4.067  1.00 20.00     0.003 C 
HETATM    9  C4  UNL     1     -35.167   5.614   4.204  1.00 20.00     0.005 C 
ENDBRANCH   2   8
TORSDOF 3
ENDMDL
MODEL 9
REMARK VINA RESULT:      -3.8      1.353      3.289
REMARK  3 active torsions:
REMARK  status: ('A' for Active; 'I' for Inactive)
REMARK    1  A    between atoms: C2_2  and  C6_6 
REMARK    2  A    between atoms: C3_3  and  C7_7 
REMARK    3  A    between atoms: C3_3  and  O8_8 
ROOT
HETATM    1  C1  UNL     1     -35.106   6.109   3.439  1.00 20.00     0.045 A 
HETATM    2  C2  UNL     1     -34.415   5.259   4.473  1.00 20.00     0.022 A 
HETATM    3  C3  UNL     1     -33.634   5.810   3.300  1.00 20.00     0.062 A 
ENDROOT
BRANCH   3   4
HETATM    4  C7  UNL     1     -32.634   6.908   3.454  1.00 20.00     0.034 C 
HETATM    5  C5  UNL     1     -32.638   7.871   2.296  1.00 20.00     0.008 C 
ENDBRANCH   3   4
BRANCH   3   6
HETATM    6  O8  UNL     1     -33.281   4.851   2.287  1.00 20.00    -0.389 OA
HETATM    7  H22 UNL     1     -32.439   5.153   1.922  1.00 20.00     0.210 HD
ENDBRANCH   3   6
BRANCH   2   8
HETATM    8  C6  UNL     1     -34.233   5.765   5.863  1.00 20.00     0.003 C 
HETATM    9  C4  UNL     1     -34.028   7.257   5.924  1.00 20.00     0.005 C 
ENDBRANCH   2   8
TORSDOF 3
ENDMDL
