MODEL 1
REMARK VINA RESULT:      -5.9      0.000      0.000
REMARK  2 active torsions:
REMARK  status: ('A' for Active; 'I' for Inactive)
REMARK    1  A    between atoms: C3_3  and  C6_6 
REMARK    2  A    between atoms: C6_6  and  O9_9 
ROOT
HETATM    1  C2  UNL     1     -35.035   6.036   3.622  1.00 20.00     0.045 A 
HETATM    2  C5  UNL     1     -34.067   5.866   4.764  1.00 20.00     0.019 A 
HETATM    3  C6  UNL     1     -33.572   6.333   3.412  1.00 20.00     0.066 A 
HETATM    4  C8  UNL     1     -34.127   6.780   5.938  1.00 20.00     0.013 C 
ENDROOT
BRANCH   3   5
HETATM    5  C3  UNL     1     -33.061   7.744   3.128  1.00 20.00     0.024 A 
HETATM    6  C1  UNL     1     -31.621   8.139   3.326  1.00 20.00     0.012 A 
HETATM    7  C4  UNL     1     -32.197   8.063   1.936  1.00 20.00    -0.011 A 
HETATM    8  C7  UNL     1     -32.429   9.309   1.152  1.00 20.00     0.010 C 
ENDBRANCH   3   5
BRANCH   3   9
HETATM    9  O9  UNL     1     -32.862   5.320   2.664  1.00 20.00    -0.389 OA
HETATM   10  H23 UNL     1     -33.341   5.234   1.832  1.00 20.00     0.210 HD
ENDBRANCH   3   9
TORSDOF 2
ENDMDL
MODEL 2
REMARK VINA RESULT:      -4.7      1.634      2.318
REMARK  2 active torsions:
REMARK  status: ('A' for Active; 'I' for Inactive)
REMARK    1  A    between atoms: C3_3  and  C6_6 
REMARK    2  A    between atoms: C6_6  and  O9_9 
ROOT
HETATM    1  C2  UNL     1     -32.456   6.292   2.634  1.00 20.00     0.045 A 
HETATM    2  C5  UNL     1     -33.261   6.874   3.766  1.00 20.00     0.019 A 
HETATM    3  C6  UNL     1     -32.442   7.780   2.873  1.00 20.00     0.066 A 
HETATM    4  C8  UNL     1     -34.749   6.854   3.714  1.00 20.00     0.013 C 
ENDROOT
BRANCH   3   5
HETATM    5  C3  UNL     1     -33.042   8.770   1.877  1.00 20.00     0.024 A 
HETATM    6  C1  UNL     1     -32.507  10.167   1.702  1.00 20.00     0.012 A 
HETATM    7  C4  UNL     1     -32.341   9.154   0.600  1.00 20.00    -0.011 A 
HETATM    8  C7  UNL     1     -33.111   9.291  -0.668  1.00 20.00     0.010 C 
ENDBRANCH   3   5
BRANCH   3   9
HETATM    9  O9  UNL     1     -31.229   8.272   3.488  1.00 20.00    -0.389 OA
HETATM   10  H23 UNL     1     -30.741   8.706   2.779  1.00 20.00     0.210 HD
ENDBRANCH   3   9
TORSDOF 2
ENDMDL
MODEL 3
REMARK VINA RESULT:      -4.7      1.611      4.246
REMARK  2 active torsions:
REMARK  status: ('A' for Active; 'I' for Inactive)
REMARK    1  A    between atoms: C3_3  and  C6_6 
REMARK    2  A    between atoms: C6_6  and  O9_9 
ROOT
HETATM    1  C2  UNL     1     -32.729  10.095   1.851  1.00 20.00     0.045 A 
HETATM    2  C5  UNL     1     -32.109   9.344   0.701  1.00 20.00     0.019 A 
HETATM    3  C6  UNL     1     -32.267   8.673   2.049  1.00 20.00     0.066 A 
HETATM    4  C8  UNL     1     -32.938   8.955  -0.473  1.00 20.00     0.013 C 
ENDROOT
BRANCH   3   5
HETATM    5  C3  UNL     1     -33.241   7.532   2.328  1.00 20.00     0.024 A 
HETATM    6  C1  UNL     1     -32.784   6.118   2.576  1.00 20.00     0.012 A 
HETATM    7  C4  UNL     1     -33.396   6.920   3.695  1.00 20.00    -0.011 A 
HETATM    8  C7  UNL     1     -34.748   6.571   4.215  1.00 20.00     0.010 C 
ENDBRANCH   3   5
BRANCH   3   9
HETATM    9  O9  UNL     1     -31.032   8.549   2.792  1.00 20.00    -0.389 OA
HETATM   10  H23 UNL     1     -31.106   9.179   3.517  1.00 20.00     0.210 HD
ENDBRANCH   3   9
TORSDOF 2
ENDMDL
MODEL 4
REMARK VINA RESULT:      -4.5      1.560      2.343
REMARK  2 active torsions:
REMARK  status: ('A' for Active; 'I' for Inactive)
REMARK    1  A    between atoms: C3_3  and  C6_6 
REMARK    2  A    between atoms: C6_6  and  O9_9 
ROOT
HETATM    1  C2  UNL     1     -34.559   5.621   5.539  1.00 20.00     0.045 A 
HETATM    2  C5  UNL     1     -34.633   4.412   4.643  1.00 20.00     0.019 A 
HETATM    3  C6  UNL     1     -34.525   5.797   4.042  1.00 20.00     0.066 A 
HETATM    4  C8  UNL     1     -33.502   3.444   4.597  1.00 20.00     0.013 C 
ENDROOT
BRANCH   3   5
HETATM    5  C3  UNL     1     -33.290   6.319   3.311  1.00 20.00     0.024 A 
HETATM    6  C1  UNL     1     -33.379   7.132   2.047  1.00 20.00     0.012 A 
HETATM    7  C4  UNL     1     -32.902   7.775   3.323  1.00 20.00    -0.011 A 
HETATM    8  C7  UNL     1     -31.474   8.171   3.474  1.00 20.00     0.010 C 
ENDBRANCH   3   5
BRANCH   3   9
HETATM    9  O9  UNL     1     -35.760   6.289   3.473  1.00 20.00    -0.389 OA
HETATM   10  H23 UNL     1     -36.178   5.521   3.067  1.00 20.00     0.210 HD
ENDBRANCH   3   9
TORSDOF 2
ENDMDL
MODEL 5
REMARK VINA RESULT:      -4.5      0.772      3.802
REMARK  2 active torsions:
REMARK  status: ('A' for Active; 'I' for Inactive)
REMARK    1  A    between atoms: C3_3  and  C6_6 
REMARK    2  A    between atoms: C6_6  and  O9_9 
ROOT
HETATM    1  C2  UNL     1     -31.353   8.049   2.844  1.00 20.00     0.045 A 
HETATM    2  C5  UNL     1     -32.313   8.343   1.720  1.00 20.00     0.019 A 
HETATM    3  C6  UNL     1     -32.647   7.280   2.744  1.00 20.00     0.066 A 
HETATM    4  C8  UNL     1     -33.035   9.644   1.673  1.00 20.00     0.013 C 
ENDROOT
BRANCH   3   5
HETATM    5  C3  UNL     1     -33.755   7.413   3.786  1.00 20.00     0.024 A 
HETATM    6  C1  UNL     1     -34.766   6.325   4.037  1.00 20.00     0.012 A 
HETATM    7  C4  UNL     1     -33.736   6.651   5.086  1.00 20.00    -0.011 A 
HETATM    8  C7  UNL     1     -34.142   7.319   6.354  1.00 20.00     0.010 C 
ENDBRANCH   3   5
BRANCH   3   9
HETATM    9  O9  UNL     1     -32.497   5.926   2.258  1.00 20.00    -0.389 OA
HETATM   10  H23 UNL     1     -33.395   5.589   2.159  1.00 20.00     0.210 HD
ENDBRANCH   3   9
TORSDOF 2
ENDMDL
MODEL 6
REMARK VINA RESULT:      -4.3     10.637     11.437
REMARK  2 active torsions:
REMARK  status: ('A' for Active; 'I' for Inactive)
REMARK    1  A    between atoms: C3_3  and  C6_6 
REMARK    2  A    between atoms: C6_6  and  O9_9 
ROOT
HETATM    1  C2  UNL     1     -36.248  14.794  -6.152  1.00 20.00     0.045 A 
HETATM    2  C5  UNL     1     -37.224  14.607  -5.019  1.00 20.00     0.019 A 
HETATM    3  C6  UNL     1     -35.848  13.980  -4.947  1.00 20.00     0.066 A 
HETATM    4  C8  UNL     1     -37.607  15.763  -4.163  1.00 20.00     0.013 C 
ENDROOT
BRANCH   3   5
HETATM    5  C3  UNL     1     -34.750  14.433  -3.987  1.00 20.00     0.024 A 
HETATM    6  C1  UNL     1     -33.290  14.410  -4.357  1.00 20.00     0.012 A 
HETATM    7  C4  UNL     1     -34.000  15.726  -4.173  1.00 20.00    -0.011 A 
HETATM    8  C7  UNL     1     -33.687  16.589  -3.000  1.00 20.00     0.010 C 
ENDBRANCH   3   5
BRANCH   3   9
HETATM    9  O9  UNL     1     -35.840  12.552  -5.171  1.00 20.00    -0.389 OA
HETATM   10  H23 UNL     1     -36.493  12.398  -5.864  1.00 20.00     0.210 HD
ENDBRANCH   3   9
TORSDOF 2
ENDMDL
MODEL 7
REMARK VINA RESULT:      -4.2      1.817      3.813
REMARK  2 active torsions:
REMARK  status: ('A' for Active; 'I' for Inactive)
REMARK    1  A    between atoms: C3_3  and  C6_6 
REMARK    2  A    between atoms: C6_6  and  O9_9 
ROOT
HETATM    1  C2  UNL     1     -33.617   7.683   2.645  1.00 20.00     0.045 A 
HETATM    2  C5  UNL     1     -32.587   6.603   2.438  1.00 20.00     0.019 A 
HETATM    3  C6  UNL     1     -32.636   7.364   3.745  1.00 20.00     0.066 A 
HETATM    4  C8  UNL     1     -33.008   5.177   2.342  1.00 20.00     0.013 C 
ENDROOT
BRANCH   3   5
HETATM    5  C3  UNL     1     -33.074   6.754   5.075  1.00 20.00     0.024 A 
HETATM    6  C1  UNL     1     -33.995   7.468   6.029  1.00 20.00     0.012 A 
HETATM    7  C4  UNL     1     -34.470   6.237   5.303  1.00 20.00    -0.011 A 
HETATM    8  C7  UNL     1     -34.688   4.965   6.048  1.00 20.00     0.010 C 
ENDBRANCH   3   5
BRANCH   3   9
HETATM    9  O9  UNL     1     -31.577   8.337   3.898  1.00 20.00    -0.389 OA
HETATM   10  H23 UNL     1     -31.903   9.138   3.472  1.00 20.00     0.210 HD
ENDBRANCH   3   9
TORSDOF 2
ENDMDL
MODEL 8
REMARK VINA RESULT:      -4.0     10.681     12.142
REMARK  2 active torsions:
REMARK  status: ('A' for Active; 'I' for Inactive)
REMARK    1  A    between atoms: C3_3  and  C6_6 
REMARK    2  A    between atoms: C6_6  and  O9_9 
ROOT
HETATM    1  C2  UNL     1     -34.416  14.389  -4.129  1.00 20.00     0.045 A 
HETATM    2  C5  UNL     1     -34.129  14.279  -5.604  1.00 20.00     0.019 A 
HETATM    3  C6  UNL     1     -35.527  14.029  -5.083  1.00 20.00     0.066 A 
HETATM    4  C8  UNL     1     -33.790  15.496  -6.393  1.00 20.00     0.013 C 
ENDROOT
BRANCH   3   5
HETATM    5  C3  UNL     1     -36.714  14.955  -5.336  1.00 20.00     0.024 A 
HETATM    6  C1  UNL     1     -38.143  14.498  -5.198  1.00 20.00     0.012 A 
HETATM    7  C4  UNL     1     -37.572  15.491  -4.220  1.00 20.00    -0.011 A 
HETATM    8  C7  UNL     1     -38.029  16.909  -4.237  1.00 20.00     0.010 C 
ENDBRANCH   3   5
BRANCH   3   9
HETATM    9  O9  UNL     1     -35.904  12.633  -5.056  1.00 20.00    -0.389 OA
HETATM   10  H23 UNL     1     -35.127  12.153  -5.365  1.00 20.00     0.210 HD
ENDBRANCH   3   9
TORSDOF 2
ENDMDL
MODEL 9
REMARK VINA RESULT:      -3.9     10.991     12.248
REMARK  2 active torsions:
REMARK  status: ('A' for Active; 'I' for Inactive)
REMARK    1  A    between atoms: C3_3  and  C6_6 
REMARK    2  A    between atoms: C6_6  and  O9_9 
ROOT
HETATM    1  C2  UNL     1     -34.563  15.221  -3.755  1.00 20.00     0.045 A 
HETATM    2  C5  UNL     1     -33.392  16.019  -4.265  1.00 20.00     0.019 A 
HETATM    3  C6  UNL     1     -33.814  14.751  -4.976  1.00 20.00     0.066 A 
HETATM    4  C8  UNL     1     -33.607  17.365  -4.865  1.00 20.00     0.013 C 
ENDROOT
BRANCH   3   5
HETATM    5  C3  UNL     1     -34.454  14.719  -6.362  1.00 20.00     0.024 A 
HETATM    6  C1  UNL     1     -34.461  13.483  -7.223  1.00 20.00     0.012 A 
HETATM    7  C4  UNL     1     -35.748  13.998  -6.635  1.00 20.00    -0.011 A 
HETATM    8  C7  UNL     1     -36.780  14.614  -7.515  1.00 20.00     0.010 C 
ENDBRANCH   3   5
BRANCH   3   9
HETATM    9  O9  UNL     1     -32.939  13.625  -4.738  1.00 20.00    -0.389 OA
HETATM   10  H23 UNL     1     -33.518  12.905  -4.463  1.00 20.00     0.210 HD
ENDBRANCH   3   9
TORSDOF 2
ENDMDL
