MODEL 1
REMARK VINA RESULT:      -4.7      0.000      0.000
REMARK  2 active torsions:
REMARK  status: ('A' for Active; 'I' for Inactive)
REMARK    1  A    between atoms: C4_4  and  C7_7 
REMARK    2  A    between atoms: C7_7  and  C8_8 
ROOT
HETATM    1  C1  UNL     1     -34.487   5.462   4.857  1.00 20.00     0.034 C 
HETATM    2  C2  UNL     1     -34.529   3.994   4.484  1.00 20.00     0.168 C 
HETATM    3  C3  UNL     1     -33.233   5.115   2.905  1.00 20.00     0.173 C 
HETATM    4  C4  UNL     1     -34.203   6.109   3.520  1.00 20.00     0.026 C 
HETATM    5  O9  UNL     1     -33.620   3.818   3.387  1.00 20.00    -0.391 OA
ENDROOT
BRANCH   4   6
HETATM    6  C7  UNL     1     -33.653   7.519   3.616  1.00 20.00     0.067 C 
HETATM    7 BR10 UNL     1     -33.309   7.923   5.511  1.00 20.00    -0.090 Br
BRANCH   6   8
HETATM    8  C8  UNL     1     -32.395   7.814   2.776  1.00 20.00    -0.008 C 
HETATM    9  C5  UNL     1     -31.248   8.300   3.671  1.00 20.00     0.011 C 
HETATM   10  C6  UNL     1     -32.620   8.802   1.655  1.00 20.00     0.011 C 
ENDBRANCH   6   8
ENDBRANCH   4   6
TORSDOF 2
ENDMDL
MODEL 2
REMARK VINA RESULT:      -4.6      2.302      4.182
REMARK  2 active torsions:
REMARK  status: ('A' for Active; 'I' for Inactive)
REMARK    1  A    between atoms: C4_4  and  C7_7 
REMARK    2  A    between atoms: C7_7  and  C8_8 
ROOT
HETATM    1  C1  UNL     1     -33.293   8.123   1.787  1.00 20.00     0.034 C 
HETATM    2  C2  UNL     1     -32.112   9.070   1.834  1.00 20.00     0.168 C 
HETATM    3  C3  UNL     1     -31.899   7.548   3.584  1.00 20.00     0.173 C 
HETATM    4  C4  UNL     1     -33.371   7.660   3.225  1.00 20.00     0.026 C 
HETATM    5  O9  UNL     1     -31.220   8.573   2.843  1.00 20.00    -0.391 OA
ENDROOT
BRANCH   4   6
HETATM    6  C7  UNL     1     -34.147   6.372   3.423  1.00 20.00     0.067 C 
HETATM    7 BR10 UNL     1     -33.035   4.874   2.798  1.00 20.00    -0.090 Br
BRANCH   6   8
HETATM    8  C8  UNL     1     -34.649   6.097   4.854  1.00 20.00    -0.008 C 
HETATM    9  C5  UNL     1     -33.948   7.019   5.860  1.00 20.00     0.011 C 
HETATM   10  C6  UNL     1     -34.501   4.658   5.293  1.00 20.00     0.011 C 
ENDBRANCH   6   8
ENDBRANCH   4   6
TORSDOF 2
ENDMDL
MODEL 3
REMARK VINA RESULT:      -4.3      1.339      1.758
REMARK  2 active torsions:
REMARK  status: ('A' for Active; 'I' for Inactive)
REMARK    1  A    between atoms: C4_4  and  C7_7 
REMARK    2  A    between atoms: C7_7  and  C8_8 
ROOT
HETATM    1  C1  UNL     1     -34.364   6.767   4.168  1.00 20.00     0.034 C 
HETATM    2  C2  UNL     1     -34.587   5.269   4.136  1.00 20.00     0.168 C 
HETATM    3  C3  UNL     1     -32.860   5.784   2.660  1.00 20.00     0.173 C 
HETATM    4  C4  UNL     1     -33.741   7.012   2.812  1.00 20.00     0.026 C 
HETATM    5  O9  UNL     1     -33.540   4.710   3.328  1.00 20.00    -0.391 OA
ENDROOT
BRANCH   4   6
HETATM    6  C7  UNL     1     -32.985   8.323   2.703  1.00 20.00     0.067 C 
HETATM    7 BR10 UNL     1     -31.274   8.134   3.654  1.00 20.00    -0.090 Br
BRANCH   6   8
HETATM    8  C8  UNL     1     -32.741   8.847   1.273  1.00 20.00    -0.008 C 
HETATM    9  C5  UNL     1     -31.313   8.522   0.816  1.00 20.00     0.011 C 
HETATM   10  C6  UNL     1     -33.006  10.325   1.105  1.00 20.00     0.011 C 
ENDBRANCH   6   8
ENDBRANCH   4   6
TORSDOF 2
ENDMDL
MODEL 4
REMARK VINA RESULT:      -4.3      2.045      4.066
REMARK  2 active torsions:
REMARK  status: ('A' for Active; 'I' for Inactive)
REMARK    1  A    between atoms: C4_4  and  C7_7 
REMARK    2  A    between atoms: C7_7  and  C8_8 
ROOT
HETATM    1  C1  UNL     1     -33.332   7.831   1.804  1.00 20.00     0.034 C 
HETATM    2  C2  UNL     1     -32.591   8.985   1.161  1.00 20.00     0.168 C 
HETATM    3  C3  UNL     1     -31.437   8.356   3.084  1.00 20.00     0.173 C 
HETATM    4  C4  UNL     1     -32.892   7.952   3.247  1.00 20.00     0.026 C 
HETATM    5  O9  UNL     1     -31.367   9.152   1.891  1.00 20.00    -0.391 OA
ENDROOT
BRANCH   4   6
HETATM    6  C7  UNL     1     -33.088   6.690   4.064  1.00 20.00     0.067 C 
HETATM    7 BR10 UNL     1     -33.833   7.193   5.814  1.00 20.00    -0.090 Br
BRANCH   6   8
HETATM    8  C8  UNL     1     -33.954   5.591   3.417  1.00 20.00    -0.008 C 
HETATM    9  C5  UNL     1     -34.874   4.943   4.460  1.00 20.00     0.011 C 
HETATM   10  C6  UNL     1     -33.161   4.522   2.702  1.00 20.00     0.011 C 
ENDBRANCH   6   8
ENDBRANCH   4   6
TORSDOF 2
ENDMDL
MODEL 5
REMARK VINA RESULT:      -4.0     11.491     12.105
REMARK  2 active torsions:
REMARK  status: ('A' for Active; 'I' for Inactive)
REMARK    1  A    between atoms: C4_4  and  C7_7 
REMARK    2  A    between atoms: C7_7  and  C8_8 
ROOT
HETATM    1  C1  UNL     1     -36.619  15.032  -4.711  1.00 20.00     0.034 C 
HETATM    2  C2  UNL     1     -36.278  13.648  -5.223  1.00 20.00     0.168 C 
HETATM    3  C3  UNL     1     -34.454  14.452  -4.018  1.00 20.00     0.173 C 
HETATM    4  C4  UNL     1     -35.245  15.640  -4.537  1.00 20.00     0.026 C 
HETATM    5  O9  UNL     1     -35.020  13.285  -4.637  1.00 20.00    -0.391 OA
ENDROOT
BRANCH   4   6
HETATM    6  C7  UNL     1     -35.211  16.845  -3.617  1.00 20.00     0.067 C 
HETATM    7 BR10 UNL     1     -37.055  17.478  -3.353  1.00 20.00    -0.090 Br
BRANCH   6   8
HETATM    8  C8  UNL     1     -34.523  16.637  -2.253  1.00 20.00    -0.008 C 
HETATM    9  C5  UNL     1     -35.489  16.959  -1.106  1.00 20.00     0.011 C 
HETATM   10  C6  UNL     1     -33.245  17.424  -2.080  1.00 20.00     0.011 C 
ENDBRANCH   6   8
ENDBRANCH   4   6
TORSDOF 2
ENDMDL
MODEL 6
REMARK VINA RESULT:      -3.9     12.033     12.843
REMARK  2 active torsions:
REMARK  status: ('A' for Active; 'I' for Inactive)
REMARK    1  A    between atoms: C4_4  and  C7_7 
REMARK    2  A    between atoms: C7_7  and  C8_8 
ROOT
HETATM    1  C1  UNL     1     -33.944  17.290  -1.292  1.00 20.00     0.034 C 
HETATM    2  C2  UNL     1     -32.914  18.387  -1.124  1.00 20.00     0.168 C 
HETATM    3  C3  UNL     1     -33.348  18.133  -3.398  1.00 20.00     0.173 C 
HETATM    4  C4  UNL     1     -33.664  16.820  -2.702  1.00 20.00     0.026 C 
HETATM    5  O9  UNL     1     -32.711  18.970  -2.420  1.00 20.00    -0.391 OA
ENDROOT
BRANCH   4   6
HETATM    6  C7  UNL     1     -34.804  16.050  -3.339  1.00 20.00     0.067 C 
HETATM    7 BR10 UNL     1     -35.566  17.149  -4.783  1.00 20.00    -0.090 Br
BRANCH   6   8
HETATM    8  C8  UNL     1     -34.458  14.644  -3.871  1.00 20.00    -0.008 C 
HETATM    9  C5  UNL     1     -33.098  14.655  -4.581  1.00 20.00     0.011 C 
HETATM   10  C6  UNL     1     -35.507  14.056  -4.786  1.00 20.00     0.011 C 
ENDBRANCH   6   8
ENDBRANCH   4   6
TORSDOF 2
ENDMDL
MODEL 7
REMARK VINA RESULT:      -3.9     11.632     12.480
REMARK  2 active torsions:
REMARK  status: ('A' for Active; 'I' for Inactive)
REMARK    1  A    between atoms: C4_4  and  C7_7 
REMARK    2  A    between atoms: C7_7  and  C8_8 
ROOT
HETATM    1  C1  UNL     1     -33.932  15.873  -5.843  1.00 20.00     0.034 C 
HETATM    2  C2  UNL     1     -33.967  14.423  -6.281  1.00 20.00     0.168 C 
HETATM    3  C3  UNL     1     -34.594  14.526  -4.040  1.00 20.00     0.173 C 
HETATM    4  C4  UNL     1     -33.730  15.736  -4.350  1.00 20.00     0.026 C 
HETATM    5  O9  UNL     1     -34.530  13.674  -5.195  1.00 20.00    -0.391 OA
ENDROOT
BRANCH   4   6
HETATM    6  C7  UNL     1     -34.104  16.973  -3.557  1.00 20.00     0.067 C 
HETATM    7 BR10 UNL     1     -35.986  17.405  -3.931  1.00 20.00    -0.090 Br
BRANCH   6   8
HETATM    8  C8  UNL     1     -33.871  16.897  -2.034  1.00 20.00    -0.008 C 
HETATM    9  C5  UNL     1     -35.203  16.991  -1.279  1.00 20.00     0.011 C 
HETATM   10  C6  UNL     1     -32.910  17.937  -1.505  1.00 20.00     0.011 C 
ENDBRANCH   6   8
ENDBRANCH   4   6
TORSDOF 2
ENDMDL
MODEL 8
REMARK VINA RESULT:      -3.9     11.690     12.566
REMARK  2 active torsions:
REMARK  status: ('A' for Active; 'I' for Inactive)
REMARK    1  A    between atoms: C4_4  and  C7_7 
REMARK    2  A    between atoms: C7_7  and  C8_8 
ROOT
HETATM    1  C1  UNL     1     -34.462  14.624  -6.656  1.00 20.00     0.034 C 
HETATM    2  C2  UNL     1     -35.094  13.258  -6.827  1.00 20.00     0.168 C 
HETATM    3  C3  UNL     1     -35.080  13.779  -4.557  1.00 20.00     0.173 C 
HETATM    4  C4  UNL     1     -33.960  14.553  -5.231  1.00 20.00     0.026 C 
HETATM    5  O9  UNL     1     -35.594  12.867  -5.540  1.00 20.00    -0.391 OA
ENDROOT
BRANCH   4   6
HETATM    6  C7  UNL     1     -33.685  15.904  -4.600  1.00 20.00     0.067 C 
HETATM    7 BR10 UNL     1     -34.015  17.298  -5.948  1.00 20.00    -0.090 Br
BRANCH   6   8
HETATM    8  C8  UNL     1     -34.466  16.220  -3.309  1.00 20.00    -0.008 C 
HETATM    9  C5  UNL     1     -35.681  17.105  -3.616  1.00 20.00     0.011 C 
HETATM   10  C6  UNL     1     -33.631  16.859  -2.224  1.00 20.00     0.011 C 
ENDBRANCH   6   8
ENDBRANCH   4   6
TORSDOF 2
ENDMDL
MODEL 9
REMARK VINA RESULT:      -3.9     11.725     12.396
REMARK  2 active torsions:
REMARK  status: ('A' for Active; 'I' for Inactive)
REMARK    1  A    between atoms: C4_4  and  C7_7 
REMARK    2  A    between atoms: C7_7  and  C8_8 
ROOT
HETATM    1  C1  UNL     1     -34.542  14.963  -6.535  1.00 20.00     0.034 C 
HETATM    2  C2  UNL     1     -34.577  13.524  -7.006  1.00 20.00     0.168 C 
HETATM    3  C3  UNL     1     -35.634  13.641  -4.934  1.00 20.00     0.173 C 
HETATM    4  C4  UNL     1     -34.653  14.796  -5.035  1.00 20.00     0.026 C 
HETATM    5  O9  UNL     1     -35.391  12.800  -6.073  1.00 20.00    -0.391 OA
ENDROOT
BRANCH   4   6
HETATM    6  C7  UNL     1     -35.102  16.045  -4.302  1.00 20.00     0.067 C 
HETATM    7 BR10 UNL     1     -37.062  15.993  -4.131  1.00 20.00    -0.090 Br
BRANCH   6   8
HETATM    8  C8  UNL     1     -34.458  16.290  -2.924  1.00 20.00    -0.008 C 
HETATM    9  C5  UNL     1     -35.525  16.656  -1.885  1.00 20.00     0.011 C 
HETATM   10  C6  UNL     1     -33.371  17.341  -2.930  1.00 20.00     0.011 C 
ENDBRANCH   6   8
ENDBRANCH   4   6
TORSDOF 2
ENDMDL
