MODEL 1
REMARK VINA RESULT:      -5.0      0.000      0.000
REMARK  3 active torsions:
REMARK  status: ('A' for Active; 'I' for Inactive)
REMARK    1  A    between atoms: C3_3  and  C6_6 
REMARK    2  A    between atoms: C3_3  and  O8_8 
REMARK    3  A    between atoms: C6_6  and  C7_7 
ROOT
HETATM    1  C1  UNL     1     -35.389   6.076   3.858  1.00 20.00     0.045 A 
HETATM    2  C2  UNL     1     -34.529   5.207   4.737  1.00 20.00     0.019 A 
HETATM    3  C3  UNL     1     -33.974   6.496   4.170  1.00 20.00     0.061 A 
HETATM    4  C4  UNL     1     -34.080   3.868   4.262  1.00 20.00     0.013 C 
ENDROOT
BRANCH   3   5
HETATM    5  C6  UNL     1     -32.946   6.513   3.087  1.00 20.00     0.038 C 
BRANCH   5   6
HETATM    6  C7  UNL     1     -32.089   7.790   3.111  1.00 20.00    -0.002 C 
HETATM    7  C5  UNL     1     -32.200   8.588   1.822  1.00 20.00     0.005 C 
ENDBRANCH   5   6
ENDBRANCH   3   5
BRANCH   3   8
HETATM    8  O8  UNL     1     -33.833   7.575   5.110  1.00 20.00    -0.389 OA
HETATM    9  H22 UNL     1     -34.072   8.377   4.627  1.00 20.00     0.210 HD
ENDBRANCH   3   8
TORSDOF 3
ENDMDL
MODEL 2
REMARK VINA RESULT:      -4.8      1.573      2.188
REMARK  3 active torsions:
REMARK  status: ('A' for Active; 'I' for Inactive)
REMARK    1  A    between atoms: C3_3  and  C6_6 
REMARK    2  A    between atoms: C3_3  and  O8_8 
REMARK    3  A    between atoms: C6_6  and  C7_7 
ROOT
HETATM    1  C1  UNL     1     -34.468   5.032   5.598  1.00 20.00     0.045 A 
HETATM    2  C2  UNL     1     -34.533   6.536   5.620  1.00 20.00     0.019 A 
HETATM    3  C3  UNL     1     -34.570   5.794   4.301  1.00 20.00     0.061 A 
HETATM    4  C4  UNL     1     -33.352   7.333   6.054  1.00 20.00     0.013 C 
ENDROOT
BRANCH   3   5
HETATM    5  C6  UNL     1     -33.420   5.802   3.349  1.00 20.00     0.038 C 
BRANCH   5   6
HETATM    6  C7  UNL     1     -33.398   7.060   2.465  1.00 20.00    -0.002 C 
HETATM    7  C5  UNL     1     -32.137   7.885   2.661  1.00 20.00     0.005 C 
ENDBRANCH   5   6
ENDBRANCH   3   5
BRANCH   3   8
HETATM    8  O8  UNL     1     -35.852   5.754   3.650  1.00 20.00    -0.389 OA
HETATM    9  H22 UNL     1     -35.804   5.022   3.021  1.00 20.00     0.210 HD
ENDBRANCH   3   8
TORSDOF 3
ENDMDL
MODEL 3
REMARK VINA RESULT:      -4.5      1.542      1.794
REMARK  3 active torsions:
REMARK  status: ('A' for Active; 'I' for Inactive)
REMARK    1  A    between atoms: C3_3  and  C6_6 
REMARK    2  A    between atoms: C3_3  and  O8_8 
REMARK    3  A    between atoms: C6_6  and  C7_7 
ROOT
HETATM    1  C1  UNL     1     -33.321   4.733   3.440  1.00 20.00     0.045 A 
HETATM    2  C2  UNL     1     -34.606   4.972   4.187  1.00 20.00     0.019 A 
HETATM    3  C3  UNL     1     -34.078   6.021   3.232  1.00 20.00     0.061 A 
HETATM    4  C4  UNL     1     -34.592   5.160   5.665  1.00 20.00     0.013 C 
ENDROOT
BRANCH   3   5
HETATM    5  C6  UNL     1     -33.497   7.311   3.706  1.00 20.00     0.038 C 
BRANCH   5   6
HETATM    6  C7  UNL     1     -32.123   7.602   3.079  1.00 20.00    -0.002 C 
HETATM    7  C5  UNL     1     -32.214   8.564   1.905  1.00 20.00     0.005 C 
ENDBRANCH   5   6
ENDBRANCH   3   5
BRANCH   3   8
HETATM    8  O8  UNL     1     -34.789   6.136   1.986  1.00 20.00    -0.389 OA
HETATM    9  H22 UNL     1     -34.622   7.033   1.671  1.00 20.00     0.210 HD
ENDBRANCH   3   8
TORSDOF 3
ENDMDL
MODEL 4
REMARK VINA RESULT:      -4.5      1.684      3.761
REMARK  3 active torsions:
REMARK  status: ('A' for Active; 'I' for Inactive)
REMARK    1  A    between atoms: C3_3  and  C6_6 
REMARK    2  A    between atoms: C3_3  and  O8_8 
REMARK    3  A    between atoms: C6_6  and  C7_7 
ROOT
HETATM    1  C1  UNL     1     -33.045   7.503   2.287  1.00 20.00     0.045 A 
HETATM    2  C2  UNL     1     -32.397   7.227   3.618  1.00 20.00     0.019 A 
HETATM    3  C3  UNL     1     -33.368   6.228   3.026  1.00 20.00     0.061 A 
HETATM    4  C4  UNL     1     -32.735   8.060   4.806  1.00 20.00     0.013 C 
ENDROOT
BRANCH   3   5
HETATM    5  C6  UNL     1     -34.735   6.017   3.586  1.00 20.00     0.038 C 
BRANCH   5   6
HETATM    6  C7  UNL     1     -34.827   4.747   4.448  1.00 20.00    -0.002 C 
HETATM    7  C5  UNL     1     -34.587   5.028   5.923  1.00 20.00     0.005 C 
ENDBRANCH   5   6
ENDBRANCH   3   5
BRANCH   3   8
HETATM    8  O8  UNL     1     -32.775   5.029   2.496  1.00 20.00    -0.389 OA
HETATM    9  H22 UNL     1     -32.260   5.309   1.728  1.00 20.00     0.210 HD
ENDBRANCH   3   8
TORSDOF 3
ENDMDL
MODEL 5
REMARK VINA RESULT:      -4.4      1.775      2.349
REMARK  3 active torsions:
REMARK  status: ('A' for Active; 'I' for Inactive)
REMARK    1  A    between atoms: C3_3  and  C6_6 
REMARK    2  A    between atoms: C3_3  and  O8_8 
REMARK    3  A    between atoms: C6_6  and  C7_7 
ROOT
HETATM    1  C1  UNL     1     -33.803   7.561   3.560  1.00 20.00     0.045 A 
HETATM    2  C2  UNL     1     -32.923   6.340   3.509  1.00 20.00     0.019 A 
HETATM    3  C3  UNL     1     -32.347   7.705   3.197  1.00 20.00     0.061 A 
HETATM    4  C4  UNL     1     -33.134   5.304   2.460  1.00 20.00     0.013 C 
ENDROOT
BRANCH   3   5
HETATM    5  C6  UNL     1     -31.961   8.109   1.812  1.00 20.00     0.038 C 
BRANCH   5   6
HETATM    6  C7  UNL     1     -32.511   9.493   1.430  1.00 20.00    -0.002 C 
HETATM    7  C5  UNL     1     -32.918   9.571  -0.033  1.00 20.00     0.005 C 
ENDBRANCH   5   6
ENDBRANCH   3   5
BRANCH   3   8
HETATM    8  O8  UNL     1     -31.499   8.266   4.215  1.00 20.00    -0.389 OA
HETATM    9  H22 UNL     1     -30.709   7.711   4.233  1.00 20.00     0.210 HD
ENDBRANCH   3   8
TORSDOF 3
ENDMDL
MODEL 6
REMARK VINA RESULT:      -4.3      1.837      3.359
REMARK  3 active torsions:
REMARK  status: ('A' for Active; 'I' for Inactive)
REMARK    1  A    between atoms: C3_3  and  C6_6 
REMARK    2  A    between atoms: C3_3  and  O8_8 
REMARK    3  A    between atoms: C6_6  and  C7_7 
ROOT
HETATM    1  C1  UNL     1     -34.070   5.698   1.967  1.00 20.00     0.045 A 
HETATM    2  C2  UNL     1     -32.852   6.091   2.761  1.00 20.00     0.019 A 
HETATM    3  C3  UNL     1     -34.025   5.427   3.450  1.00 20.00     0.061 A 
HETATM    4  C4  UNL     1     -32.517   7.528   2.963  1.00 20.00     0.013 C 
ENDROOT
BRANCH   3   5
HETATM    5  C6  UNL     1     -34.934   6.172   4.371  1.00 20.00     0.038 C 
BRANCH   5   6
HETATM    6  C7  UNL     1     -34.447   6.141   5.829  1.00 20.00    -0.002 C 
HETATM    7  C5  UNL     1     -33.643   7.377   6.198  1.00 20.00     0.005 C 
ENDBRANCH   5   6
ENDBRANCH   3   5
BRANCH   3   8
HETATM    8  O8  UNL     1     -33.823   4.054   3.830  1.00 20.00    -0.389 OA
HETATM    9  H22 UNL     1     -34.505   3.861   4.487  1.00 20.00     0.210 HD
ENDBRANCH   3   8
TORSDOF 3
ENDMDL
MODEL 7
REMARK VINA RESULT:      -4.3      1.574      4.452
REMARK  3 active torsions:
REMARK  status: ('A' for Active; 'I' for Inactive)
REMARK    1  A    between atoms: C3_3  and  C6_6 
REMARK    2  A    between atoms: C3_3  and  O8_8 
REMARK    3  A    between atoms: C6_6  and  C7_7 
ROOT
HETATM    1  C1  UNL     1     -31.388   8.514   1.006  1.00 20.00     0.045 A 
HETATM    2  C2  UNL     1     -32.154   9.657   1.617  1.00 20.00     0.019 A 
HETATM    3  C3  UNL     1     -32.082   8.325   2.331  1.00 20.00     0.061 A 
HETATM    4  C4  UNL     1     -33.404  10.153   0.977  1.00 20.00     0.013 C 
ENDROOT
BRANCH   3   5
HETATM    5  C6  UNL     1     -33.257   7.410   2.433  1.00 20.00     0.038 C 
BRANCH   5   6
HETATM    6  C7  UNL     1     -33.579   7.026   3.887  1.00 20.00    -0.002 C 
HETATM    7  C5  UNL     1     -34.668   5.970   3.981  1.00 20.00     0.005 C 
ENDBRANCH   5   6
ENDBRANCH   3   5
BRANCH   3   8
HETATM    8  O8  UNL     1     -31.226   8.288   3.487  1.00 20.00    -0.389 OA
HETATM    9  H22 UNL     1     -30.323   8.278   3.145  1.00 20.00     0.210 HD
ENDBRANCH   3   8
TORSDOF 3
ENDMDL
MODEL 8
REMARK VINA RESULT:      -4.3      0.808      3.833
REMARK  3 active torsions:
REMARK  status: ('A' for Active; 'I' for Inactive)
REMARK    1  A    between atoms: C3_3  and  C6_6 
REMARK    2  A    between atoms: C3_3  and  O8_8 
REMARK    3  A    between atoms: C6_6  and  C7_7 
ROOT
HETATM    1  C1  UNL     1     -31.353   7.922   3.430  1.00 20.00     0.045 A 
HETATM    2  C2  UNL     1     -32.446   8.677   2.722  1.00 20.00     0.019 A 
HETATM    3  C3  UNL     1     -32.784   7.464   3.562  1.00 20.00     0.061 A 
HETATM    4  C4  UNL     1     -32.526   8.665   1.235  1.00 20.00     0.013 C 
ENDROOT
BRANCH   3   5
HETATM    5  C6  UNL     1     -33.210   6.168   2.955  1.00 20.00     0.038 C 
BRANCH   5   6
HETATM    6  C7  UNL     1     -34.540   5.657   3.536  1.00 20.00    -0.002 C 
HETATM    7  C5  UNL     1     -34.362   4.402   4.374  1.00 20.00     0.005 C 
ENDBRANCH   5   6
ENDBRANCH   3   5
BRANCH   3   8
HETATM    8  O8  UNL     1     -33.417   7.742   4.823  1.00 20.00    -0.389 OA
HETATM    9  H22 UNL     1     -34.359   7.837   4.628  1.00 20.00     0.210 HD
ENDBRANCH   3   8
TORSDOF 3
ENDMDL
MODEL 9
REMARK VINA RESULT:      -3.8     11.761     12.520
REMARK  3 active torsions:
REMARK  status: ('A' for Active; 'I' for Inactive)
REMARK    1  A    between atoms: C3_3  and  C6_6 
REMARK    2  A    between atoms: C3_3  and  O8_8 
REMARK    3  A    between atoms: C6_6  and  C7_7 
ROOT
HETATM    1  C1  UNL     1     -36.301  14.531  -6.501  1.00 20.00     0.045 A 
HETATM    2  C2  UNL     1     -35.268  13.622  -7.112  1.00 20.00     0.019 A 
HETATM    3  C3  UNL     1     -35.392  13.725  -5.607  1.00 20.00     0.061 A 
HETATM    4  C4  UNL     1     -34.111  14.193  -7.858  1.00 20.00     0.013 C 
ENDROOT
BRANCH   3   5
HETATM    5  C6  UNL     1     -34.369  14.416  -4.768  1.00 20.00     0.038 C 
BRANCH   5   6
HETATM    6  C7  UNL     1     -34.987  15.483  -3.848  1.00 20.00    -0.002 C 
HETATM    7  C5  UNL     1     -33.935  16.260  -3.074  1.00 20.00     0.005 C 
ENDBRANCH   5   6
ENDBRANCH   3   5
BRANCH   3   8
HETATM    8  O8  UNL     1     -35.996  12.592  -4.958  1.00 20.00    -0.389 OA
HETATM    9  H22 UNL     1     -35.535  12.498  -4.114  1.00 20.00     0.210 HD
ENDBRANCH   3   8
TORSDOF 3
ENDMDL
