MODEL 1
REMARK VINA RESULT:      -4.8      0.000      0.000
REMARK  3 active torsions:
REMARK  status: ('A' for Active; 'I' for Inactive)
REMARK    1  A    between atoms: C1_1  and  C7_7 
REMARK    2  A    between atoms: C1_1  and  C8_8 
REMARK    3  A    between atoms: C8_8  and  C9_9 
ROOT
HETATM    1  C3  UNL     1     -33.399   7.505   5.752  1.00 20.00     0.018 C 
HETATM    2  C8  UNL     1     -33.923   7.435   4.315  1.00 20.00     0.058 C 
ENDROOT
BRANCH   2   3
HETATM    3  C1  UNL     1     -34.837   6.208   4.209  1.00 20.00     0.131 C 
HETATM    4  O10 UNL     1     -35.674   6.099   3.313  1.00 20.00    -0.298 OA
BRANCH   3   5
HETATM    5  C7  UNL     1     -34.630   5.122   5.254  1.00 20.00     0.074 C 
HETATM    6  C2  UNL     1     -34.136   3.819   4.653  1.00 20.00     0.013 C 
ENDBRANCH   3   5
ENDBRANCH   2   3
BRANCH   2   7
HETATM    7  C9  UNL     1     -32.824   7.481   3.202  1.00 20.00    -0.041 C 
HETATM    8  C4  UNL     1     -33.272   8.407   2.051  1.00 20.00     0.015 C 
HETATM    9  C5  UNL     1     -32.498   6.095   2.615  1.00 20.00     0.015 C 
HETATM   10  C6  UNL     1     -31.520   8.069   3.785  1.00 20.00     0.015 C 
ENDBRANCH   2   7
TORSDOF 3
ENDMDL
MODEL 2
REMARK VINA RESULT:      -4.5      1.649      4.106
REMARK  3 active torsions:
REMARK  status: ('A' for Active; 'I' for Inactive)
REMARK    1  A    between atoms: C1_1  and  C7_7 
REMARK    2  A    between atoms: C1_1  and  C8_8 
REMARK    3  A    between atoms: C8_8  and  C9_9 
ROOT
HETATM    1  C3  UNL     1     -32.636   4.873   2.547  1.00 20.00     0.018 C 
HETATM    2  C8  UNL     1     -33.546   6.075   2.816  1.00 20.00     0.058 C 
ENDROOT
BRANCH   2   3
HETATM    3  C1  UNL     1     -32.668   7.331   2.844  1.00 20.00     0.131 C 
HETATM    4  O10 UNL     1     -31.697   7.426   3.595  1.00 20.00    -0.298 OA
BRANCH   3   5
HETATM    5  C7  UNL     1     -33.045   8.438   1.871  1.00 20.00     0.074 C 
HETATM    6  C2  UNL     1     -31.870   8.903   1.030  1.00 20.00     0.013 C 
ENDBRANCH   3   5
ENDBRANCH   2   3
BRANCH   2   7
HETATM    7  C9  UNL     1     -34.470   5.942   4.072  1.00 20.00    -0.041 C 
HETATM    8  C4  UNL     1     -35.935   6.244   3.689  1.00 20.00     0.015 C 
HETATM    9  C5  UNL     1     -34.064   6.880   5.224  1.00 20.00     0.015 C 
HETATM   10  C6  UNL     1     -34.421   4.491   4.601  1.00 20.00     0.015 C 
ENDBRANCH   2   7
TORSDOF 3
ENDMDL
MODEL 3
REMARK VINA RESULT:      -4.5      1.369      3.614
REMARK  3 active torsions:
REMARK  status: ('A' for Active; 'I' for Inactive)
REMARK    1  A    between atoms: C1_1  and  C7_7 
REMARK    2  A    between atoms: C1_1  and  C8_8 
REMARK    3  A    between atoms: C8_8  and  C9_9 
ROOT
HETATM    1  C3  UNL     1     -33.728   7.407   5.829  1.00 20.00     0.018 C 
HETATM    2  C8  UNL     1     -33.286   6.695   4.546  1.00 20.00     0.058 C 
ENDROOT
BRANCH   2   3
HETATM    3  C1  UNL     1     -33.098   7.761   3.460  1.00 20.00     0.131 C 
HETATM    4  O10 UNL     1     -34.030   8.469   3.079  1.00 20.00    -0.298 OA
BRANCH   3   5
HETATM    5  C7  UNL     1     -31.691   7.914   2.903  1.00 20.00     0.074 C 
HETATM    6  C2  UNL     1     -31.669   8.596   1.547  1.00 20.00     0.013 C 
ENDBRANCH   3   5
ENDBRANCH   2   3
BRANCH   2   7
HETATM    7  C9  UNL     1     -34.202   5.510   4.093  1.00 20.00    -0.041 C 
HETATM    8  C4  UNL     1     -33.537   4.737   2.934  1.00 20.00     0.015 C 
HETATM    9  C5  UNL     1     -35.600   5.966   3.636  1.00 20.00     0.015 C 
HETATM   10  C6  UNL     1     -34.385   4.519   5.264  1.00 20.00     0.015 C 
ENDBRANCH   2   7
TORSDOF 3
ENDMDL
MODEL 4
REMARK VINA RESULT:      -4.5      1.357      3.514
REMARK  3 active torsions:
REMARK  status: ('A' for Active; 'I' for Inactive)
REMARK    1  A    between atoms: C1_1  and  C7_7 
REMARK    2  A    between atoms: C1_1  and  C8_8 
REMARK    3  A    between atoms: C8_8  and  C9_9 
ROOT
HETATM    1  C3  UNL     1     -33.783   7.351   5.842  1.00 20.00     0.018 C 
HETATM    2  C8  UNL     1     -33.288   6.679   4.558  1.00 20.00     0.058 C 
ENDROOT
BRANCH   2   3
HETATM    3  C1  UNL     1     -33.108   7.771   3.497  1.00 20.00     0.131 C 
HETATM    4  O10 UNL     1     -34.050   8.467   3.118  1.00 20.00    -0.298 OA
BRANCH   3   5
HETATM    5  C7  UNL     1     -31.697   7.966   2.963  1.00 20.00     0.074 C 
HETATM    6  C2  UNL     1     -31.677   8.556   1.565  1.00 20.00     0.013 C 
ENDBRANCH   3   5
ENDBRANCH   2   3
BRANCH   2   7
HETATM    7  C9  UNL     1     -34.154   5.474   4.061  1.00 20.00    -0.041 C 
HETATM    8  C4  UNL     1     -35.548   5.968   3.618  1.00 20.00     0.015 C 
HETATM    9  C5  UNL     1     -34.341   4.382   5.130  1.00 20.00     0.015 C 
HETATM   10  C6  UNL     1     -33.483   4.825   2.830  1.00 20.00     0.015 C 
ENDBRANCH   2   7
TORSDOF 3
ENDMDL
MODEL 5
REMARK VINA RESULT:      -4.5      1.370      3.630
REMARK  3 active torsions:
REMARK  status: ('A' for Active; 'I' for Inactive)
REMARK    1  A    between atoms: C1_1  and  C7_7 
REMARK    2  A    between atoms: C1_1  and  C8_8 
REMARK    3  A    between atoms: C8_8  and  C9_9 
ROOT
HETATM    1  C3  UNL     1     -33.821   7.325   5.851  1.00 20.00     0.018 C 
HETATM    2  C8  UNL     1     -33.294   6.676   4.568  1.00 20.00     0.058 C 
ENDROOT
BRANCH   2   3
HETATM    3  C1  UNL     1     -33.107   7.784   3.525  1.00 20.00     0.131 C 
HETATM    4  O10 UNL     1     -34.043   8.497   3.162  1.00 20.00    -0.298 OA
BRANCH   3   5
HETATM    5  C7  UNL     1     -31.697   7.972   2.988  1.00 20.00     0.074 C 
HETATM    6  C2  UNL     1     -31.678   8.535   1.578  1.00 20.00     0.013 C 
ENDBRANCH   3   5
ENDBRANCH   2   3
BRANCH   2   7
HETATM    7  C9  UNL     1     -34.136   5.468   4.039  1.00 20.00    -0.041 C 
HETATM    8  C4  UNL     1     -34.332   4.424   5.160  1.00 20.00     0.015 C 
HETATM    9  C5  UNL     1     -33.495   4.767   2.827  1.00 20.00     0.015 C 
HETATM   10  C6  UNL     1     -35.539   5.958   3.616  1.00 20.00     0.015 C 
ENDBRANCH   2   7
TORSDOF 3
ENDMDL
MODEL 6
REMARK VINA RESULT:      -4.1     11.351     12.609
REMARK  3 active torsions:
REMARK  status: ('A' for Active; 'I' for Inactive)
REMARK    1  A    between atoms: C1_1  and  C7_7 
REMARK    2  A    between atoms: C1_1  and  C8_8 
REMARK    3  A    between atoms: C8_8  and  C9_9 
ROOT
HETATM    1  C3  UNL     1     -36.760  15.454  -4.821  1.00 20.00     0.018 C 
HETATM    2  C8  UNL     1     -35.365  15.152  -5.377  1.00 20.00     0.058 C 
ENDROOT
BRANCH   2   3
HETATM    3  C1  UNL     1     -35.346  13.685  -5.821  1.00 20.00     0.131 C 
HETATM    4  O10 UNL     1     -35.934  12.808  -5.188  1.00 20.00    -0.298 OA
BRANCH   3   5
HETATM    5  C7  UNL     1     -34.585  13.379  -7.103  1.00 20.00     0.074 C 
HETATM    6  C2  UNL     1     -34.288  14.624  -7.918  1.00 20.00     0.013 C 
ENDBRANCH   3   5
ENDBRANCH   2   3
BRANCH   2   7
HETATM    7  C9  UNL     1     -34.176  15.524  -4.430  1.00 20.00    -0.041 C 
HETATM    8  C4  UNL     1     -33.384  16.714  -5.014  1.00 20.00     0.015 C 
HETATM    9  C5  UNL     1     -33.200  14.356  -4.197  1.00 20.00     0.015 C 
HETATM   10  C6  UNL     1     -34.726  15.966  -3.056  1.00 20.00     0.015 C 
ENDBRANCH   2   7
TORSDOF 3
ENDMDL
MODEL 7
REMARK VINA RESULT:      -4.1     11.470     12.480
REMARK  3 active torsions:
REMARK  status: ('A' for Active; 'I' for Inactive)
REMARK    1  A    between atoms: C1_1  and  C7_7 
REMARK    2  A    between atoms: C1_1  and  C8_8 
REMARK    3  A    between atoms: C8_8  and  C9_9 
ROOT
HETATM    1  C3  UNL     1     -33.050  14.663  -4.485  1.00 20.00     0.018 C 
HETATM    2  C8  UNL     1     -34.544  14.484  -4.201  1.00 20.00     0.058 C 
ENDROOT
BRANCH   2   3
HETATM    3  C1  UNL     1     -35.140  13.647  -5.338  1.00 20.00     0.131 C 
HETATM    4  O10 UNL     1     -35.983  12.774  -5.128  1.00 20.00    -0.298 OA
BRANCH   3   5
HETATM    5  C7  UNL     1     -34.655  13.975  -6.742  1.00 20.00     0.074 C 
HETATM    6  C2  UNL     1     -35.785  14.026  -7.754  1.00 20.00     0.013 C 
ENDBRANCH   3   5
ENDBRANCH   2   3
BRANCH   2   7
HETATM    7  C9  UNL     1     -35.333  15.808  -3.932  1.00 20.00    -0.041 C 
HETATM    8  C4  UNL     1     -35.020  16.335  -2.515  1.00 20.00     0.015 C 
HETATM    9  C5  UNL     1     -36.859  15.641  -4.063  1.00 20.00     0.015 C 
HETATM   10  C6  UNL     1     -34.886  16.892  -4.936  1.00 20.00     0.015 C 
ENDBRANCH   2   7
TORSDOF 3
ENDMDL
MODEL 8
REMARK VINA RESULT:      -4.0     11.330     12.668
REMARK  3 active torsions:
REMARK  status: ('A' for Active; 'I' for Inactive)
REMARK    1  A    between atoms: C1_1  and  C7_7 
REMARK    2  A    between atoms: C1_1  and  C8_8 
REMARK    3  A    between atoms: C8_8  and  C9_9 
ROOT
HETATM    1  C3  UNL     1     -34.863  15.406  -7.278  1.00 20.00     0.018 C 
HETATM    2  C8  UNL     1     -34.595  14.473  -6.093  1.00 20.00     0.058 C 
ENDROOT
BRANCH   2   3
HETATM    3  C1  UNL     1     -35.901  13.736  -5.773  1.00 20.00     0.131 C 
HETATM    4  O10 UNL     1     -35.909  12.667  -5.162  1.00 20.00    -0.298 OA
BRANCH   3   5
HETATM    5  C7  UNL     1     -37.185  14.414  -6.225  1.00 20.00     0.074 C 
HETATM    6  C2  UNL     1     -38.224  14.496  -5.120  1.00 20.00     0.013 C 
ENDBRANCH   3   5
ENDBRANCH   2   3
BRANCH   2   7
HETATM    7  C9  UNL     1     -33.950  15.155  -4.841  1.00 20.00    -0.041 C 
HETATM    8  C4  UNL     1     -32.842  14.253  -4.256  1.00 20.00     0.015 C 
HETATM    9  C5  UNL     1     -34.968  15.460  -3.726  1.00 20.00     0.015 C 
HETATM   10  C6  UNL     1     -33.289  16.486  -5.258  1.00 20.00     0.015 C 
ENDBRANCH   2   7
TORSDOF 3
ENDMDL
MODEL 9
REMARK VINA RESULT:      -3.7     11.739     12.927
REMARK  3 active torsions:
REMARK  status: ('A' for Active; 'I' for Inactive)
REMARK    1  A    between atoms: C1_1  and  C7_7 
REMARK    2  A    between atoms: C1_1  and  C8_8 
REMARK    3  A    between atoms: C8_8  and  C9_9 
ROOT
HETATM    1  C3  UNL     1     -33.544  16.138  -6.681  1.00 20.00     0.018 C 
HETATM    2  C8  UNL     1     -34.615  15.556  -5.753  1.00 20.00     0.058 C 
ENDROOT
BRANCH   2   3
HETATM    3  C1  UNL     1     -33.946  15.232  -4.412  1.00 20.00     0.131 C 
HETATM    4  O10 UNL     1     -32.941  14.525  -4.343  1.00 20.00    -0.298 OA
BRANCH   3   5
HETATM    5  C7  UNL     1     -34.577  15.857  -3.176  1.00 20.00     0.074 C 
HETATM    6  C2  UNL     1     -33.672  16.877  -2.510  1.00 20.00     0.013 C 
ENDBRANCH   3   5
ENDBRANCH   2   3
BRANCH   2   7
HETATM    7  C9  UNL     1     -35.425  14.355  -6.343  1.00 20.00    -0.041 C 
HETATM    8  C4  UNL     1     -36.600  14.876  -7.198  1.00 20.00     0.015 C 
HETATM    9  C5  UNL     1     -35.989  13.415  -5.261  1.00 20.00     0.015 C 
HETATM   10  C6  UNL     1     -34.515  13.520  -7.271  1.00 20.00     0.015 C 
ENDBRANCH   2   7
TORSDOF 3
ENDMDL
