MODEL 1
REMARK VINA RESULT:      -5.1      0.000      0.000
REMARK  3 active torsions:
REMARK  status: ('A' for Active; 'I' for Inactive)
REMARK    1  A    between atoms: C2_2  and  C6_6 
REMARK    2  A    between atoms: C3_3  and  C7_7 
REMARK    3  A    between atoms: C3_3  and  O8_8 
ROOT
HETATM    1  C1  UNL     1     -32.916   6.314   2.854  1.00 20.00     0.045 A 
HETATM    2  C2  UNL     1     -33.736   7.258   3.694  1.00 20.00     0.022 A 
HETATM    3  C3  UNL     1     -32.555   7.777   2.911  1.00 20.00     0.062 A 
ENDROOT
BRANCH   3   4
HETATM    4  C7  UNL     1     -32.776   8.644   1.716  1.00 20.00     0.034 C 
HETATM    5  C5  UNL     1     -31.535   8.819   0.880  1.00 20.00     0.008 C 
ENDBRANCH   3   4
BRANCH   3   6
HETATM    6  O8  UNL     1     -31.364   8.101   3.648  1.00 20.00    -0.389 OA
HETATM    7  H22 UNL     1     -31.460   7.670   4.508  1.00 20.00     0.210 HD
ENDBRANCH   3   6
BRANCH   2   8
HETATM    8  C6  UNL     1     -33.704   7.157   5.180  1.00 20.00     0.003 C 
HETATM    9  C4  UNL     1     -34.419   5.937   5.704  1.00 20.00     0.005 C 
ENDBRANCH   2   8
TORSDOF 3
ENDMDL
MODEL 2
REMARK VINA RESULT:      -4.7      1.271      3.927
REMARK  3 active torsions:
REMARK  status: ('A' for Active; 'I' for Inactive)
REMARK    1  A    between atoms: C2_2  and  C6_6 
REMARK    2  A    between atoms: C3_3  and  C7_7 
REMARK    3  A    between atoms: C3_3  and  O8_8 
ROOT
HETATM    1  C1  UNL     1     -31.613   8.067   3.712  1.00 20.00     0.045 A 
HETATM    2  C2  UNL     1     -32.507   8.565   2.606  1.00 20.00     0.022 A 
HETATM    3  C3  UNL     1     -32.843   7.284   3.330  1.00 20.00     0.062 A 
ENDROOT
BRANCH   3   4
HETATM    4  C7  UNL     1     -34.012   7.237   4.257  1.00 20.00     0.034 C 
HETATM    5  C5  UNL     1     -33.611   7.270   5.710  1.00 20.00     0.008 C 
ENDBRANCH   3   4
BRANCH   3   6
HETATM    6  O8  UNL     1     -32.609   6.050   2.632  1.00 20.00    -0.389 OA
HETATM    7  H22 UNL     1     -32.685   6.259   1.692  1.00 20.00     0.210 HD
ENDBRANCH   3   6
BRANCH   2   8
HETATM    8  C6  UNL     1     -32.026   8.562   1.196  1.00 20.00     0.003 C 
HETATM    9  C4  UNL     1     -32.648   9.649   0.358  1.00 20.00     0.005 C 
ENDBRANCH   2   8
TORSDOF 3
ENDMDL
MODEL 3
REMARK VINA RESULT:      -4.5      2.109      4.141
REMARK  3 active torsions:
REMARK  status: ('A' for Active; 'I' for Inactive)
REMARK    1  A    between atoms: C2_2  and  C6_6 
REMARK    2  A    between atoms: C3_3  and  C7_7 
REMARK    3  A    between atoms: C3_3  and  O8_8 
ROOT
HETATM    1  C1  UNL     1     -33.266   4.896   2.503  1.00 20.00     0.045 A 
HETATM    2  C2  UNL     1     -32.864   6.099   3.317  1.00 20.00     0.022 A 
HETATM    3  C3  UNL     1     -34.171   5.399   3.599  1.00 20.00     0.062 A 
ENDROOT
BRANCH   3   4
HETATM    4  C7  UNL     1     -34.335   4.605   4.852  1.00 20.00     0.034 C 
HETATM    5  C5  UNL     1     -34.669   5.457   6.048  1.00 20.00     0.008 C 
ENDBRANCH   3   4
BRANCH   3   6
HETATM    6  O8  UNL     1     -35.377   6.051   3.166  1.00 20.00    -0.389 OA
HETATM    7  H22 UNL     1     -35.203   6.358   2.266  1.00 20.00     0.210 HD
ENDBRANCH   3   6
BRANCH   2   8
HETATM    8  C6  UNL     1     -32.821   7.448   2.685  1.00 20.00     0.003 C 
HETATM    9  C4  UNL     1     -31.629   8.264   3.117  1.00 20.00     0.005 C 
ENDBRANCH   2   8
TORSDOF 3
ENDMDL
MODEL 4
REMARK VINA RESULT:      -4.5      1.557      4.014
REMARK  3 active torsions:
REMARK  status: ('A' for Active; 'I' for Inactive)
REMARK    1  A    between atoms: C2_2  and  C6_6 
REMARK    2  A    between atoms: C3_3  and  C7_7 
REMARK    3  A    between atoms: C3_3  and  O8_8 
ROOT
HETATM    1  C1  UNL     1     -34.225   6.558   2.336  1.00 20.00     0.045 A 
HETATM    2  C2  UNL     1     -32.820   6.477   2.875  1.00 20.00     0.022 A 
HETATM    3  C3  UNL     1     -33.995   6.221   3.787  1.00 20.00     0.062 A 
ENDROOT
BRANCH   3   4
HETATM    4  C7  UNL     1     -34.267   4.840   4.282  1.00 20.00     0.034 C 
HETATM    5  C5  UNL     1     -34.620   4.800   5.746  1.00 20.00     0.008 C 
ENDBRANCH   3   4
BRANCH   3   6
HETATM    6  O8  UNL     1     -34.336   7.251   4.731  1.00 20.00    -0.389 OA
HETATM    7  H22 UNL     1     -34.756   6.798   5.475  1.00 20.00     0.210 HD
ENDBRANCH   3   6
BRANCH   2   8
HETATM    8  C6  UNL     1     -31.993   7.711   2.994  1.00 20.00     0.003 C 
HETATM    9  C4  UNL     1     -32.050   8.580   1.764  1.00 20.00     0.005 C 
ENDBRANCH   2   8
TORSDOF 3
ENDMDL
MODEL 5
REMARK VINA RESULT:      -4.3      1.603      1.997
REMARK  3 active torsions:
REMARK  status: ('A' for Active; 'I' for Inactive)
REMARK    1  A    between atoms: C2_2  and  C6_6 
REMARK    2  A    between atoms: C3_3  and  C7_7 
REMARK    3  A    between atoms: C3_3  and  O8_8 
ROOT
HETATM    1  C1  UNL     1     -34.588   6.499   2.412  1.00 20.00     0.045 A 
HETATM    2  C2  UNL     1     -34.392   6.274   3.888  1.00 20.00     0.022 A 
HETATM    3  C3  UNL     1     -33.202   6.281   2.961  1.00 20.00     0.062 A 
ENDROOT
BRANCH   3   4
HETATM    4  C7  UNL     1     -32.232   7.415   3.003  1.00 20.00     0.034 C 
HETATM    5  C5  UNL     1     -32.368   8.347   1.827  1.00 20.00     0.008 C 
ENDBRANCH   3   4
BRANCH   3   6
HETATM    6  O8  UNL     1     -32.596   5.014   2.652  1.00 20.00    -0.389 OA
HETATM    7  H22 UNL     1     -32.256   4.673   3.490  1.00 20.00     0.210 HD
ENDBRANCH   3   6
BRANCH   2   8
HETATM    8  C6  UNL     1     -34.879   5.017   4.524  1.00 20.00     0.003 C 
HETATM    9  C4  UNL     1     -34.607   4.962   6.006  1.00 20.00     0.005 C 
ENDBRANCH   2   8
TORSDOF 3
ENDMDL
MODEL 6
REMARK VINA RESULT:      -4.1      1.589      2.419
REMARK  3 active torsions:
REMARK  status: ('A' for Active; 'I' for Inactive)
REMARK    1  A    between atoms: C2_2  and  C6_6 
REMARK    2  A    between atoms: C3_3  and  C7_7 
REMARK    3  A    between atoms: C3_3  and  O8_8 
ROOT
HETATM    1  C1  UNL     1     -33.818   7.609   5.741  1.00 20.00     0.045 A 
HETATM    2  C2  UNL     1     -33.520   6.190   5.333  1.00 20.00     0.022 A 
HETATM    3  C3  UNL     1     -33.432   7.302   4.317  1.00 20.00     0.062 A 
ENDROOT
BRANCH   3   4
HETATM    4  C7  UNL     1     -32.101   7.733   3.797  1.00 20.00     0.034 C 
HETATM    5  C5  UNL     1     -32.144   8.155   2.351  1.00 20.00     0.008 C 
ENDBRANCH   3   4
BRANCH   3   6
HETATM    6  O8  UNL     1     -34.489   7.396   3.347  1.00 20.00    -0.389 OA
HETATM    7  H22 UNL     1     -34.452   8.298   3.002  1.00 20.00     0.210 HD
ENDBRANCH   3   6
BRANCH   2   8
HETATM    8  C6  UNL     1     -34.614   5.179   5.292  1.00 20.00     0.003 C 
HETATM    9  C4  UNL     1     -34.292   3.998   4.412  1.00 20.00     0.005 C 
ENDBRANCH   2   8
TORSDOF 3
ENDMDL
MODEL 7
REMARK VINA RESULT:      -4.1      1.538      2.064
REMARK  3 active torsions:
REMARK  status: ('A' for Active; 'I' for Inactive)
REMARK    1  A    between atoms: C2_2  and  C6_6 
REMARK    2  A    between atoms: C3_3  and  C7_7 
REMARK    3  A    between atoms: C3_3  and  O8_8 
ROOT
HETATM    1  C1  UNL     1     -31.427   8.403   3.049  1.00 20.00     0.045 A 
HETATM    2  C2  UNL     1     -32.536   7.463   2.651  1.00 20.00     0.022 A 
HETATM    3  C3  UNL     1     -32.361   8.776   1.926  1.00 20.00     0.062 A 
ENDROOT
BRANCH   3   4
HETATM    4  C7  UNL     1     -31.864   8.789   0.519  1.00 20.00     0.034 C 
HETATM    5  C5  UNL     1     -32.867   9.355  -0.452  1.00 20.00     0.008 C 
ENDBRANCH   3   4
BRANCH   3   6
HETATM    6  O8  UNL     1     -33.303   9.822   2.216  1.00 20.00    -0.389 OA
HETATM    7  H22 UNL     1     -34.130   9.558   1.790  1.00 20.00     0.210 HD
ENDBRANCH   3   6
BRANCH   2   8
HETATM    8  C6  UNL     1     -33.682   7.228   3.573  1.00 20.00     0.003 C 
HETATM    9  C4  UNL     1     -34.325   5.878   3.381  1.00 20.00     0.005 C 
ENDBRANCH   2   8
TORSDOF 3
ENDMDL
MODEL 8
REMARK VINA RESULT:      -4.0      2.244      4.211
REMARK  3 active torsions:
REMARK  status: ('A' for Active; 'I' for Inactive)
REMARK    1  A    between atoms: C2_2  and  C6_6 
REMARK    2  A    between atoms: C3_3  and  C7_7 
REMARK    3  A    between atoms: C3_3  and  O8_8 
ROOT
HETATM    1  C1  UNL     1     -34.161   4.056   4.181  1.00 20.00     0.045 A 
HETATM    2  C2  UNL     1     -33.381   5.271   3.750  1.00 20.00     0.022 A 
HETATM    3  C3  UNL     1     -34.649   5.434   4.551  1.00 20.00     0.062 A 
ENDROOT
BRANCH   3   4
HETATM    4  C7  UNL     1     -34.580   5.891   5.971  1.00 20.00     0.034 C 
HETATM    5  C5  UNL     1     -33.900   7.227   6.124  1.00 20.00     0.008 C 
ENDBRANCH   3   4
BRANCH   3   6
HETATM    6  O8  UNL     1     -35.818   5.894   3.853  1.00 20.00    -0.389 OA
HETATM    7  H22 UNL     1     -36.261   6.507   4.455  1.00 20.00     0.210 HD
ENDBRANCH   3   6
BRANCH   2   8
HETATM    8  C6  UNL     1     -33.315   5.644   2.309  1.00 20.00     0.003 C 
HETATM    9  C4  UNL     1     -32.864   7.065   2.087  1.00 20.00     0.005 C 
ENDBRANCH   2   8
TORSDOF 3
ENDMDL
MODEL 9
REMARK VINA RESULT:      -3.6     10.419     11.332
REMARK  3 active torsions:
REMARK  status: ('A' for Active; 'I' for Inactive)
REMARK    1  A    between atoms: C2_2  and  C6_6 
REMARK    2  A    between atoms: C3_3  and  C7_7 
REMARK    3  A    between atoms: C3_3  and  O8_8 
ROOT
HETATM    1  C1  UNL     1     -34.433  14.063  -4.144  1.00 20.00     0.045 A 
HETATM    2  C2  UNL     1     -34.637  15.552  -4.040  1.00 20.00     0.022 A 
HETATM    3  C3  UNL     1     -33.910  14.970  -5.228  1.00 20.00     0.062 A 
ENDROOT
BRANCH   3   4
HETATM    4  C7  UNL     1     -34.559  14.974  -6.572  1.00 20.00     0.034 C 
HETATM    5  C5  UNL     1     -34.444  13.650  -7.283  1.00 20.00     0.008 C 
ENDBRANCH   3   4
BRANCH   3   6
HETATM    6  O8  UNL     1     -32.483  15.133  -5.275  1.00 20.00    -0.389 OA
HETATM    7  H22 UNL     1     -32.234  15.527  -4.428  1.00 20.00     0.210 HD
ENDBRANCH   3   6
BRANCH   2   8
HETATM    8  C6  UNL     1     -33.920  16.333  -2.993  1.00 20.00     0.003 C 
HETATM    9  C4  UNL     1     -34.821  16.781  -1.870  1.00 20.00     0.005 C 
ENDBRANCH   2   8
TORSDOF 3
ENDMDL
