MODEL 1
REMARK VINA RESULT:      -4.5      0.000      0.000
REMARK  3 active torsions:
REMARK  status: ('A' for Active; 'I' for Inactive)
REMARK    1  A    between atoms: C1_1  and  C8_8 
REMARK    2  A    between atoms: C1_1  and  C9_9 
REMARK    3  A    between atoms: C9_9  and  C10_10 
ROOT
HETATM    1  C4  UNL     1     -30.985   8.347   3.490  1.00 20.00     0.018 C 
HETATM    2  C9  UNL     1     -32.401   8.414   2.909  1.00 20.00     0.059 C 
ENDROOT
BRANCH   2   3
HETATM    3  C1  UNL     1     -33.067   7.047   3.129  1.00 20.00     0.134 C 
HETATM    4  O11 UNL     1     -32.643   6.030   2.579  1.00 20.00    -0.297 OA
BRANCH   3   5
HETATM    5  C8  UNL     1     -34.253   7.001   4.092  1.00 20.00     0.048 C 
HETATM    6  C2  UNL     1     -33.761   7.233   5.516  1.00 20.00     0.017 C 
HETATM    7  C3  UNL     1     -34.996   5.673   3.980  1.00 20.00     0.017 C 
ENDBRANCH   3   5
ENDBRANCH   2   3
BRANCH   2   8
HETATM    8  C10 UNL     1     -32.486   8.900   1.424  1.00 20.00    -0.041 C 
HETATM    9  C5  UNL     1     -31.138   8.645   0.714  1.00 20.00     0.015 C 
HETATM   10  C6  UNL     1     -32.752  10.420   1.375  1.00 20.00     0.015 C 
HETATM   11  C7  UNL     1     -33.589   8.189   0.619  1.00 20.00     0.015 C 
ENDBRANCH   2   8
TORSDOF 3
ENDMDL
MODEL 2
REMARK VINA RESULT:      -4.4     10.015     11.215
REMARK  3 active torsions:
REMARK  status: ('A' for Active; 'I' for Inactive)
REMARK    1  A    between atoms: C1_1  and  C8_8 
REMARK    2  A    between atoms: C1_1  and  C9_9 
REMARK    3  A    between atoms: C9_9  and  C10_10 
ROOT
HETATM    1  C4  UNL     1     -33.144  14.750  -4.499  1.00 20.00     0.018 C 
HETATM    2  C9  UNL     1     -34.630  14.602  -4.155  1.00 20.00     0.059 C 
ENDROOT
BRANCH   2   3
HETATM    3  C1  UNL     1     -35.310  13.853  -5.310  1.00 20.00     0.134 C 
HETATM    4  O11 UNL     1     -35.911  12.795  -5.125  1.00 20.00    -0.297 OA
BRANCH   3   5
HETATM    5  C8  UNL     1     -35.238  14.501  -6.692  1.00 20.00     0.048 C 
HETATM    6  C2  UNL     1     -36.645  14.637  -7.264  1.00 20.00     0.017 C 
HETATM    7  C3  UNL     1     -34.344  13.693  -7.629  1.00 20.00     0.017 C 
ENDBRANCH   3   5
ENDBRANCH   2   3
BRANCH   2   8
HETATM    8  C10 UNL     1     -35.359  15.934  -3.780  1.00 20.00    -0.041 C 
HETATM    9  C5  UNL     1     -34.933  17.054  -4.754  1.00 20.00     0.015 C 
HETATM   10  C6  UNL     1     -34.956  16.382  -2.359  1.00 20.00     0.015 C 
HETATM   11  C7  UNL     1     -36.894  15.817  -3.834  1.00 20.00     0.015 C 
ENDBRANCH   2   8
TORSDOF 3
ENDMDL
MODEL 3
REMARK VINA RESULT:      -4.4      0.049      1.301
REMARK  3 active torsions:
REMARK  status: ('A' for Active; 'I' for Inactive)
REMARK    1  A    between atoms: C1_1  and  C8_8 
REMARK    2  A    between atoms: C1_1  and  C9_9 
REMARK    3  A    between atoms: C9_9  and  C10_10 
ROOT
HETATM    1  C4  UNL     1     -30.981   8.342   3.536  1.00 20.00     0.018 C 
HETATM    2  C9  UNL     1     -32.396   8.415   2.954  1.00 20.00     0.059 C 
ENDROOT
BRANCH   2   3
HETATM    3  C1  UNL     1     -33.063   7.047   3.163  1.00 20.00     0.134 C 
HETATM    4  O11 UNL     1     -32.635   6.033   2.611  1.00 20.00    -0.297 OA
BRANCH   3   5
HETATM    5  C8  UNL     1     -34.257   6.997   4.115  1.00 20.00     0.048 C 
HETATM    6  C2  UNL     1     -33.776   7.219   5.545  1.00 20.00     0.017 C 
HETATM    7  C3  UNL     1     -35.002   5.672   3.988  1.00 20.00     0.017 C 
ENDBRANCH   3   5
ENDBRANCH   2   3
BRANCH   2   8
HETATM    8  C10 UNL     1     -32.478   8.913   1.473  1.00 20.00    -0.041 C 
HETATM    9  C5  UNL     1     -33.589   8.143   0.725  1.00 20.00     0.015 C 
HETATM   10  C6  UNL     1     -31.149   8.631   0.740  1.00 20.00     0.015 C 
HETATM   11  C7  UNL     1     -32.784  10.418   1.359  1.00 20.00     0.015 C 
ENDBRANCH   2   8
TORSDOF 3
ENDMDL
MODEL 4
REMARK VINA RESULT:      -4.4      1.359      4.314
REMARK  3 active torsions:
REMARK  status: ('A' for Active; 'I' for Inactive)
REMARK    1  A    between atoms: C1_1  and  C8_8 
REMARK    2  A    between atoms: C1_1  and  C9_9 
REMARK    3  A    between atoms: C9_9  and  C10_10 
ROOT
HETATM    1  C4  UNL     1     -33.731   7.408   5.851  1.00 20.00     0.018 C 
HETATM    2  C9  UNL     1     -33.368   6.692   4.546  1.00 20.00     0.059 C 
ENDROOT
BRANCH   2   3
HETATM    3  C1  UNL     1     -33.318   7.745   3.429  1.00 20.00     0.134 C 
HETATM    4  O11 UNL     1     -34.270   8.495   3.210  1.00 20.00    -0.297 OA
BRANCH   3   5
HETATM    5  C8  UNL     1     -32.020   7.845   2.629  1.00 20.00     0.048 C 
HETATM    6  C2  UNL     1     -30.891   8.303   3.546  1.00 20.00     0.017 C 
HETATM    7  C3  UNL     1     -32.179   8.794   1.444  1.00 20.00     0.017 C 
ENDBRANCH   3   5
ENDBRANCH   2   3
BRANCH   2   8
HETATM    8  C10 UNL     1     -34.274   5.467   4.188  1.00 20.00    -0.041 C 
HETATM    9  C5  UNL     1     -34.487   4.593   5.442  1.00 20.00     0.015 C 
HETATM   10  C6  UNL     1     -33.584   4.586   3.124  1.00 20.00     0.015 C 
HETATM   11  C7  UNL     1     -35.659   5.878   3.653  1.00 20.00     0.015 C 
ENDBRANCH   2   8
TORSDOF 3
ENDMDL
MODEL 5
REMARK VINA RESULT:      -4.3      9.765     11.519
REMARK  3 active torsions:
REMARK  status: ('A' for Active; 'I' for Inactive)
REMARK    1  A    between atoms: C1_1  and  C8_8 
REMARK    2  A    between atoms: C1_1  and  C9_9 
REMARK    3  A    between atoms: C9_9  and  C10_10 
ROOT
HETATM    1  C4  UNL     1     -37.027  15.245  -4.159  1.00 20.00     0.018 C 
HETATM    2  C9  UNL     1     -35.810  15.222  -5.089  1.00 20.00     0.059 C 
ENDROOT
BRANCH   2   3
HETATM    3  C1  UNL     1     -35.821  13.885  -5.847  1.00 20.00     0.134 C 
HETATM    4  O11 UNL     1     -35.970  12.814  -5.258  1.00 20.00    -0.297 OA
BRANCH   3   5
HETATM    5  C8  UNL     1     -35.677  13.950  -7.367  1.00 20.00     0.048 C 
HETATM    6  C2  UNL     1     -34.206  13.815  -7.744  1.00 20.00     0.017 C 
HETATM    7  C3  UNL     1     -36.266  15.245  -7.917  1.00 20.00     0.017 C 
ENDBRANCH   3   5
ENDBRANCH   2   3
BRANCH   2   8
HETATM    8  C10 UNL     1     -34.439  15.517  -4.395  1.00 20.00    -0.041 C 
HETATM    9  C5  UNL     1     -34.683  16.146  -3.006  1.00 20.00     0.015 C 
HETATM   10  C6  UNL     1     -33.629  16.535  -5.225  1.00 20.00     0.015 C 
HETATM   11  C7  UNL     1     -33.578  14.255  -4.200  1.00 20.00     0.015 C 
ENDBRANCH   2   8
TORSDOF 3
ENDMDL
MODEL 6
REMARK VINA RESULT:      -4.2     10.210     11.239
REMARK  3 active torsions:
REMARK  status: ('A' for Active; 'I' for Inactive)
REMARK    1  A    between atoms: C1_1  and  C8_8 
REMARK    2  A    between atoms: C1_1  and  C9_9 
REMARK    3  A    between atoms: C9_9  and  C10_10 
ROOT
HETATM    1  C4  UNL     1     -33.654  16.295  -6.558  1.00 20.00     0.018 C 
HETATM    2  C9  UNL     1     -34.694  15.609  -5.667  1.00 20.00     0.059 C 
ENDROOT
BRANCH   2   3
HETATM    3  C1  UNL     1     -34.020  15.270  -4.329  1.00 20.00     0.134 C 
HETATM    4  O11 UNL     1     -33.021  14.551  -4.277  1.00 20.00    -0.297 OA
BRANCH   3   5
HETATM    5  C8  UNL     1     -34.621  15.896  -3.072  1.00 20.00     0.048 C 
HETATM    6  C2  UNL     1     -35.944  16.569  -3.421  1.00 20.00     0.017 C 
HETATM    7  C3  UNL     1     -33.652  16.892  -2.441  1.00 20.00     0.017 C 
ENDBRANCH   3   5
ENDBRANCH   2   3
BRANCH   2   8
HETATM    8  C10 UNL     1     -35.415  14.380  -6.314  1.00 20.00    -0.041 C 
HETATM    9  C5  UNL     1     -34.433  13.627  -7.238  1.00 20.00     0.015 C 
HETATM   10  C6  UNL     1     -36.597  14.853  -7.187  1.00 20.00     0.015 C 
HETATM   11  C7  UNL     1     -35.950  13.378  -5.274  1.00 20.00     0.015 C 
ENDBRANCH   2   8
TORSDOF 3
ENDMDL
MODEL 7
REMARK VINA RESULT:      -4.2     10.192     11.291
REMARK  3 active torsions:
REMARK  status: ('A' for Active; 'I' for Inactive)
REMARK    1  A    between atoms: C1_1  and  C8_8 
REMARK    2  A    between atoms: C1_1  and  C9_9 
REMARK    3  A    between atoms: C9_9  and  C10_10 
ROOT
HETATM    1  C4  UNL     1     -35.846  17.081  -5.283  1.00 20.00     0.018 C 
HETATM    2  C9  UNL     1     -35.056  16.166  -4.342  1.00 20.00     0.059 C 
ENDROOT
BRANCH   2   3
HETATM    3  C1  UNL     1     -33.974  17.014  -3.658  1.00 20.00     0.134 C 
HETATM    4  O11 UNL     1     -33.270  17.796  -4.297  1.00 20.00    -0.297 OA
BRANCH   3   5
HETATM    5  C8  UNL     1     -33.839  16.872  -2.142  1.00 20.00     0.048 C 
HETATM    6  C2  UNL     1     -35.225  16.867  -1.506  1.00 20.00     0.017 C 
HETATM    7  C3  UNL     1     -32.976  17.990  -1.563  1.00 20.00     0.017 C 
ENDBRANCH   3   5
ENDBRANCH   2   3
BRANCH   2   8
HETATM    8  C10 UNL     1     -34.484  14.869  -5.006  1.00 20.00    -0.041 C 
HETATM    9  C5  UNL     1     -34.206  15.128  -6.503  1.00 20.00     0.015 C 
HETATM   10  C6  UNL     1     -35.517  13.725  -4.920  1.00 20.00     0.015 C 
HETATM   11  C7  UNL     1     -33.173  14.388  -4.356  1.00 20.00     0.015 C 
ENDBRANCH   2   8
TORSDOF 3
ENDMDL
MODEL 8
REMARK VINA RESULT:      -4.2      1.217      4.293
REMARK  3 active torsions:
REMARK  status: ('A' for Active; 'I' for Inactive)
REMARK    1  A    between atoms: C1_1  and  C8_8 
REMARK    2  A    between atoms: C1_1  and  C9_9 
REMARK    3  A    between atoms: C9_9  and  C10_10 
ROOT
HETATM    1  C4  UNL     1     -32.609   4.988   2.451  1.00 20.00     0.018 C 
HETATM    2  C9  UNL     1     -33.488   6.213   2.721  1.00 20.00     0.059 C 
ENDROOT
BRANCH   2   3
HETATM    3  C1  UNL     1     -32.580   7.452   2.730  1.00 20.00     0.134 C 
HETATM    4  O11 UNL     1     -31.771   7.649   3.636  1.00 20.00    -0.297 OA
BRANCH   3   5
HETATM    5  C8  UNL     1     -32.701   8.408   1.543  1.00 20.00     0.048 C 
HETATM    6  C2  UNL     1     -31.395   8.409   0.757  1.00 20.00     0.017 C 
HETATM    7  C3  UNL     1     -33.059   9.816   2.010  1.00 20.00     0.017 C 
ENDBRANCH   3   5
ENDBRANCH   2   3
BRANCH   2   8
HETATM    8  C10 UNL     1     -34.393   6.112   3.994  1.00 20.00    -0.041 C 
HETATM    9  C5  UNL     1     -34.299   4.690   4.589  1.00 20.00     0.015 C 
HETATM   10  C6  UNL     1     -35.870   6.358   3.620  1.00 20.00     0.015 C 
HETATM   11  C7  UNL     1     -33.997   7.114   5.095  1.00 20.00     0.015 C 
ENDBRANCH   2   8
TORSDOF 3
ENDMDL
MODEL 9
REMARK VINA RESULT:      -4.2     10.013     11.161
REMARK  3 active torsions:
REMARK  status: ('A' for Active; 'I' for Inactive)
REMARK    1  A    between atoms: C1_1  and  C8_8 
REMARK    2  A    between atoms: C1_1  and  C9_9 
REMARK    3  A    between atoms: C9_9  and  C10_10 
ROOT
HETATM    1  C4  UNL     1     -34.680  16.084  -2.850  1.00 20.00     0.018 C 
HETATM    2  C9  UNL     1     -35.050  15.747  -4.297  1.00 20.00     0.059 C 
ENDROOT
BRANCH   2   3
HETATM    3  C1  UNL     1     -34.903  14.229  -4.481  1.00 20.00     0.134 C 
HETATM    4  O11 UNL     1     -33.945  13.615  -4.008  1.00 20.00    -0.297 OA
BRANCH   3   5
HETATM    5  C8  UNL     1     -36.017  13.512  -5.241  1.00 20.00     0.048 C 
HETATM    6  C2  UNL     1     -35.581  13.280  -6.684  1.00 20.00     0.017 C 
HETATM    7  C3  UNL     1     -37.317  14.308  -5.184  1.00 20.00     0.017 C 
ENDBRANCH   3   5
ENDBRANCH   2   3
BRANCH   2   8
HETATM    8  C10 UNL     1     -34.284  16.569  -5.386  1.00 20.00    -0.041 C 
HETATM    9  C5  UNL     1     -33.656  17.825  -4.744  1.00 20.00     0.015 C 
HETATM   10  C6  UNL     1     -35.262  17.050  -6.479  1.00 20.00     0.015 C 
HETATM   11  C7  UNL     1     -33.156  15.768  -6.063  1.00 20.00     0.015 C 
ENDBRANCH   2   8
TORSDOF 3
ENDMDL
