MODEL 1
REMARK VINA RESULT:      -5.2      0.000      0.000
REMARK  3 active torsions:
REMARK  status: ('A' for Active; 'I' for Inactive)
REMARK    1  A    between atoms: C1_1  and  C8_8 
REMARK    2  A    between atoms: C2_2  and  C3_3 
REMARK    3  A    between atoms: C3_3  and  C9_9 
ROOT
HETATM    1  C1  UNL     1     -32.629   8.440   2.893  1.00 20.00    -0.012 C 
HETATM    2  C3  UNL     1     -33.157   7.364   3.509  1.00 20.00    -0.020 C 
ENDROOT
BRANCH   2   3
HETATM    3  C2  UNL     1     -32.946   7.350   4.989  1.00 20.00     0.265 C 
HETATM    4  O10 UNL     1     -33.798   7.681   5.804  1.00 20.00    -0.302 OA
ENDBRANCH   2   3
BRANCH   2   5
HETATM    5  C9  UNL     1     -33.910   6.224   2.853  1.00 20.00     0.013 C 
HETATM    6  C6  UNL     1     -33.017   5.001   2.617  1.00 20.00     0.015 C 
HETATM    7  C7  UNL     1     -35.177   5.843   3.623  1.00 20.00     0.015 C 
ENDBRANCH   2   5
BRANCH   1   8
HETATM    8  C8  UNL     1     -32.650   8.772   1.418  1.00 20.00     0.001 C 
HETATM    9  C4  UNL     1     -33.006  10.246   1.220  1.00 20.00     0.013 C 
HETATM   10  C5  UNL     1     -31.289   8.462   0.794  1.00 20.00     0.013 C 
ENDBRANCH   1   8
TORSDOF 3
ENDMDL
MODEL 2
REMARK VINA RESULT:      -4.9      1.941      2.859
REMARK  3 active torsions:
REMARK  status: ('A' for Active; 'I' for Inactive)
REMARK    1  A    between atoms: C1_1  and  C8_8 
REMARK    2  A    between atoms: C2_2  and  C3_3 
REMARK    3  A    between atoms: C3_3  and  C9_9 
ROOT
HETATM    1  C1  UNL     1     -32.825   6.848   2.616  1.00 20.00    -0.012 C 
HETATM    2  C3  UNL     1     -33.540   6.074   3.455  1.00 20.00    -0.020 C 
ENDROOT
BRANCH   2   3
HETATM    3  C2  UNL     1     -33.585   4.633   3.059  1.00 20.00     0.265 C 
HETATM    4  O10 UNL     1     -32.800   4.113   2.277  1.00 20.00    -0.302 OA
ENDBRANCH   2   3
BRANCH   2   5
HETATM    5  C9  UNL     1     -34.264   6.525   4.708  1.00 20.00     0.013 C 
HETATM    6  C6  UNL     1     -34.872   5.349   5.480  1.00 20.00     0.015 C 
HETATM    7  C7  UNL     1     -33.379   7.383   5.615  1.00 20.00     0.015 C 
ENDBRANCH   2   5
BRANCH   1   8
HETATM    8  C8  UNL     1     -32.576   8.336   2.707  1.00 20.00     0.001 C 
HETATM    9  C4  UNL     1     -31.234   8.599   3.391  1.00 20.00     0.013 C 
HETATM   10  C5  UNL     1     -32.594   8.955   1.308  1.00 20.00     0.013 C 
ENDBRANCH   1   8
TORSDOF 3
ENDMDL
MODEL 3
REMARK VINA RESULT:      -4.2      1.097      3.996
REMARK  3 active torsions:
REMARK  status: ('A' for Active; 'I' for Inactive)
REMARK    1  A    between atoms: C1_1  and  C8_8 
REMARK    2  A    between atoms: C2_2  and  C3_3 
REMARK    3  A    between atoms: C3_3  and  C9_9 
ROOT
HETATM    1  C1  UNL     1     -32.804   6.998   3.316  1.00 20.00    -0.012 C 
HETATM    2  C3  UNL     1     -32.254   8.091   2.751  1.00 20.00    -0.020 C 
ENDROOT
BRANCH   2   3
HETATM    3  C2  UNL     1     -31.292   8.813   3.640  1.00 20.00     0.265 C 
HETATM    4  O10 UNL     1     -31.430   8.921   4.852  1.00 20.00    -0.302 OA
ENDBRANCH   2   3
BRANCH   2   5
HETATM    5  C9  UNL     1     -32.518   8.619   1.355  1.00 20.00     0.013 C 
HETATM    6  C6  UNL     1     -33.006  10.071   1.369  1.00 20.00     0.015 C 
HETATM    7  C7  UNL     1     -31.310   8.450   0.430  1.00 20.00     0.015 C 
ENDBRANCH   2   5
BRANCH   1   8
HETATM    8  C8  UNL     1     -33.811   6.045   2.712  1.00 20.00     0.001 C 
HETATM    9  C4  UNL     1     -33.162   4.680   2.480  1.00 20.00     0.013 C 
HETATM   10  C5  UNL     1     -35.022   5.911   3.636  1.00 20.00     0.013 C 
ENDBRANCH   1   8
TORSDOF 3
ENDMDL
MODEL 4
REMARK VINA RESULT:      -4.2      1.579      2.765
REMARK  3 active torsions:
REMARK  status: ('A' for Active; 'I' for Inactive)
REMARK    1  A    between atoms: C1_1  and  C8_8 
REMARK    2  A    between atoms: C2_2  and  C3_3 
REMARK    3  A    between atoms: C3_3  and  C9_9 
ROOT
HETATM    1  C1  UNL     1     -32.831   7.542   2.009  1.00 20.00    -0.012 C 
HETATM    2  C3  UNL     1     -33.339   7.064   3.161  1.00 20.00    -0.020 C 
ENDROOT
BRANCH   2   3
HETATM    3  C2  UNL     1     -33.881   5.675   3.054  1.00 20.00     0.265 C 
HETATM    4  O10 UNL     1     -33.186   4.681   2.888  1.00 20.00    -0.302 OA
ENDBRANCH   2   3
BRANCH   2   5
HETATM    5  C9  UNL     1     -33.402   7.787   4.492  1.00 20.00     0.013 C 
HETATM    6  C6  UNL     1     -33.966   6.900   5.607  1.00 20.00     0.015 C 
HETATM    7  C7  UNL     1     -32.051   8.387   4.893  1.00 20.00     0.015 C 
ENDBRANCH   2   5
BRANCH   1   8
HETATM    8  C8  UNL     1     -32.211   8.898   1.756  1.00 20.00     0.001 C 
HETATM    9  C4  UNL     1     -31.164   8.794   0.646  1.00 20.00     0.013 C 
HETATM   10  C5  UNL     1     -33.297   9.905   1.374  1.00 20.00     0.013 C 
ENDBRANCH   1   8
TORSDOF 3
ENDMDL
MODEL 5
REMARK VINA RESULT:      -4.1     10.085     11.104
REMARK  3 active torsions:
REMARK  status: ('A' for Active; 'I' for Inactive)
REMARK    1  A    between atoms: C1_1  and  C8_8 
REMARK    2  A    between atoms: C2_2  and  C3_3 
REMARK    3  A    between atoms: C3_3  and  C9_9 
ROOT
HETATM    1  C1  UNL     1     -35.201  15.845  -3.023  1.00 20.00    -0.012 C 
HETATM    2  C3  UNL     1     -34.690  15.206  -4.094  1.00 20.00    -0.020 C 
ENDROOT
BRANCH   2   3
HETATM    3  C2  UNL     1     -35.661  14.296  -4.776  1.00 20.00     0.265 C 
HETATM    4  O10 UNL     1     -35.520  13.083  -4.857  1.00 20.00    -0.302 OA
ENDBRANCH   2   3
BRANCH   2   5
HETATM    5  C9  UNL     1     -33.280  15.332  -4.635  1.00 20.00     0.013 C 
HETATM    6  C6  UNL     1     -32.401  14.140  -4.241  1.00 20.00     0.015 C 
HETATM    7  C7  UNL     1     -33.255  15.561  -6.148  1.00 20.00     0.015 C 
ENDBRANCH   2   5
BRANCH   1   8
HETATM    8  C8  UNL     1     -34.507  16.825  -2.104  1.00 20.00     0.001 C 
HETATM    9  C4  UNL     1     -34.276  18.149  -2.834  1.00 20.00     0.013 C 
HETATM   10  C5  UNL     1     -35.348  17.046  -0.846  1.00 20.00     0.013 C 
ENDBRANCH   1   8
TORSDOF 3
ENDMDL
MODEL 6
REMARK VINA RESULT:      -4.1     10.300     11.306
REMARK  3 active torsions:
REMARK  status: ('A' for Active; 'I' for Inactive)
REMARK    1  A    between atoms: C1_1  and  C8_8 
REMARK    2  A    between atoms: C2_2  and  C3_3 
REMARK    3  A    between atoms: C3_3  and  C9_9 
ROOT
HETATM    1  C1  UNL     1     -33.956  16.365  -3.011  1.00 20.00    -0.012 C 
HETATM    2  C3  UNL     1     -34.153  17.104  -1.902  1.00 20.00    -0.020 C 
ENDROOT
BRANCH   2   3
HETATM    3  C2  UNL     1     -32.944  17.863  -1.458  1.00 20.00     0.265 C 
HETATM    4  O10 UNL     1     -32.580  18.921  -1.955  1.00 20.00    -0.302 OA
ENDBRANCH   2   3
BRANCH   2   5
HETATM    5  C9  UNL     1     -35.439  17.221  -1.109  1.00 20.00     0.013 C 
HETATM    6  C6  UNL     1     -35.188  17.651   0.341  1.00 20.00     0.015 C 
HETATM    7  C7  UNL     1     -36.461  18.138  -1.787  1.00 20.00     0.015 C 
ENDBRANCH   2   5
BRANCH   1   8
HETATM    8  C8  UNL     1     -34.949  15.478  -3.727  1.00 20.00     0.001 C 
HETATM    9  C4  UNL     1     -35.517  16.208  -4.945  1.00 20.00     0.013 C 
HETATM   10  C5  UNL     1     -34.273  14.174  -4.153  1.00 20.00     0.013 C 
ENDBRANCH   1   8
TORSDOF 3
ENDMDL
MODEL 7
REMARK VINA RESULT:      -4.1     10.511     11.543
REMARK  3 active torsions:
REMARK  status: ('A' for Active; 'I' for Inactive)
REMARK    1  A    between atoms: C1_1  and  C8_8 
REMARK    2  A    between atoms: C2_2  and  C3_3 
REMARK    3  A    between atoms: C3_3  and  C9_9 
ROOT
HETATM    1  C1  UNL     1     -34.050  17.227  -3.272  1.00 20.00    -0.012 C 
HETATM    2  C3  UNL     1     -34.231  16.263  -4.196  1.00 20.00    -0.020 C 
ENDROOT
BRANCH   2   3
HETATM    3  C2  UNL     1     -34.476  16.785  -5.575  1.00 20.00     0.265 C 
HETATM    4  O10 UNL     1     -33.639  16.775  -6.469  1.00 20.00    -0.302 OA
ENDBRANCH   2   3
BRANCH   2   5
HETATM    5  C9  UNL     1     -34.206  14.766  -3.959  1.00 20.00     0.013 C 
HETATM    6  C6  UNL     1     -35.319  14.041  -4.723  1.00 20.00     0.015 C 
HETATM    7  C7  UNL     1     -32.838  14.151  -4.262  1.00 20.00     0.015 C 
ENDBRANCH   2   5
BRANCH   1   8
HETATM    8  C8  UNL     1     -33.788  17.061  -1.792  1.00 20.00     0.001 C 
HETATM    9  C4  UNL     1     -32.814  18.137  -1.311  1.00 20.00     0.013 C 
HETATM   10  C5  UNL     1     -35.103  17.143  -1.016  1.00 20.00     0.013 C 
ENDBRANCH   1   8
TORSDOF 3
ENDMDL
MODEL 8
REMARK VINA RESULT:      -4.0     10.398     11.337
REMARK  3 active torsions:
REMARK  status: ('A' for Active; 'I' for Inactive)
REMARK    1  A    between atoms: C1_1  and  C8_8 
REMARK    2  A    between atoms: C2_2  and  C3_3 
REMARK    3  A    between atoms: C3_3  and  C9_9 
ROOT
HETATM    1  C1  UNL     1     -33.759  16.386  -2.691  1.00 20.00    -0.012 C 
HETATM    2  C3  UNL     1     -34.433  15.936  -3.767  1.00 20.00    -0.020 C 
ENDROOT
BRANCH   2   3
HETATM    3  C2  UNL     1     -33.871  14.680  -4.353  1.00 20.00     0.265 C 
HETATM    4  O10 UNL     1     -34.277  13.557  -4.080  1.00 20.00    -0.302 OA
ENDBRANCH   2   3
BRANCH   2   5
HETATM    5  C9  UNL     1     -35.656  16.571  -4.400  1.00 20.00     0.013 C 
HETATM    6  C6  UNL     1     -35.556  16.621  -5.928  1.00 20.00     0.015 C 
HETATM    7  C7  UNL     1     -36.957  15.900  -3.952  1.00 20.00     0.015 C 
ENDBRANCH   2   5
BRANCH   1   8
HETATM    8  C8  UNL     1     -34.043  17.617  -1.862  1.00 20.00     0.001 C 
HETATM    9  C4  UNL     1     -35.095  17.298  -0.798  1.00 20.00     0.013 C 
HETATM   10  C5  UNL     1     -32.753  18.115  -1.207  1.00 20.00     0.013 C 
ENDBRANCH   1   8
TORSDOF 3
ENDMDL
MODEL 9
REMARK VINA RESULT:      -3.9     10.662     11.470
REMARK  3 active torsions:
REMARK  status: ('A' for Active; 'I' for Inactive)
REMARK    1  A    between atoms: C1_1  and  C8_8 
REMARK    2  A    between atoms: C2_2  and  C3_3 
REMARK    3  A    between atoms: C3_3  and  C9_9 
ROOT
HETATM    1  C1  UNL     1     -35.512  15.919  -3.928  1.00 20.00    -0.012 C 
HETATM    2  C3  UNL     1     -35.494  16.836  -2.941  1.00 20.00    -0.020 C 
ENDROOT
BRANCH   2   3
HETATM    3  C2  UNL     1     -36.389  18.008  -3.186  1.00 20.00     0.265 C 
HETATM    4  O10 UNL     1     -35.989  19.116  -3.519  1.00 20.00    -0.302 OA
ENDBRANCH   2   3
BRANCH   2   5
HETATM    5  C9  UNL     1     -34.679  16.775  -1.664  1.00 20.00     0.013 C 
HETATM    6  C6  UNL     1     -33.326  17.480  -1.807  1.00 20.00     0.015 C 
HETATM    7  C7  UNL     1     -35.453  17.305  -0.454  1.00 20.00     0.015 C 
ENDBRANCH   2   5
BRANCH   1   8
HETATM    8  C8  UNL     1     -34.734  14.626  -4.012  1.00 20.00     0.001 C 
HETATM    9  C4  UNL     1     -35.487  13.620  -4.883  1.00 20.00     0.013 C 
HETATM   10  C5  UNL     1     -33.341  14.891  -4.584  1.00 20.00     0.013 C 
ENDBRANCH   1   8
TORSDOF 3
ENDMDL
