MODEL 1
REMARK VINA RESULT:      -3.9      0.000      0.000
REMARK  2 active torsions:
REMARK  status: ('A' for Active; 'I' for Inactive)
REMARK    1  A    between atoms: C3_3  and  C8_8 
REMARK    2  A    between atoms: C4_4  and  C9_9 
ROOT
HETATM    1  C1  UNL     1     -36.243  14.091  -7.307  1.00 20.00     0.034 C 
HETATM    2  C2  UNL     1     -34.983  13.256  -7.403  1.00 20.00     0.168 C 
HETATM    3  C3  UNL     1     -35.828  15.168  -6.327  1.00 20.00     0.031 C 
HETATM    4  C4  UNL     1     -34.986  14.357  -5.346  1.00 20.00     0.134 C 
HETATM    5  O10 UNL     1     -34.318  13.354  -6.134  1.00 20.00    -0.385 OA
ENDROOT
BRANCH   4   6
HETATM    6  C9  UNL     1     -33.951  15.181  -4.599  1.00 20.00    -0.025 C 
HETATM    7  C5  UNL     1     -32.740  14.300  -4.230  1.00 20.00     0.017 C 
HETATM    8  C6  UNL     1     -34.563  15.753  -3.306  1.00 20.00     0.017 C 
HETATM    9  C7  UNL     1     -33.467  16.349  -5.481  1.00 20.00     0.017 C 
ENDBRANCH   4   6
BRANCH   3  10
HETATM   10  C8  UNL     1     -36.998  15.894  -5.688  1.00 20.00     0.121 C 
HETATM   11 CL11 UNL     1     -37.972  14.768  -4.721  1.00 20.00    -0.130 Cl
ENDBRANCH   3  10
TORSDOF 2
ENDMDL
MODEL 2
REMARK VINA RESULT:      -3.9      0.101      1.314
REMARK  2 active torsions:
REMARK  status: ('A' for Active; 'I' for Inactive)
REMARK    1  A    between atoms: C3_3  and  C8_8 
REMARK    2  A    between atoms: C4_4  and  C9_9 
ROOT
HETATM    1  C1  UNL     1     -36.325  14.133  -7.268  1.00 20.00     0.034 C 
HETATM    2  C2  UNL     1     -35.089  13.263  -7.363  1.00 20.00     0.168 C 
HETATM    3  C3  UNL     1     -35.873  15.211  -6.305  1.00 20.00     0.031 C 
HETATM    4  C4  UNL     1     -35.045  14.390  -5.320  1.00 20.00     0.134 C 
HETATM    5  O10 UNL     1     -34.411  13.360  -6.101  1.00 20.00    -0.385 OA
ENDROOT
BRANCH   4   6
HETATM    6  C9  UNL     1     -33.982  15.195  -4.593  1.00 20.00    -0.025 C 
HETATM    7  C5  UNL     1     -33.495  16.355  -5.484  1.00 20.00     0.017 C 
HETATM    8  C6  UNL     1     -32.780  14.295  -4.246  1.00 20.00     0.017 C 
HETATM    9  C7  UNL     1     -34.560  15.779  -3.288  1.00 20.00     0.017 C 
ENDBRANCH   4   6
BRANCH   3  10
HETATM   10  C8  UNL     1     -37.017  15.977  -5.666  1.00 20.00     0.121 C 
HETATM   11 CL11 UNL     1     -37.916  14.929  -4.550  1.00 20.00    -0.130 Cl
ENDBRANCH   3  10
TORSDOF 2
ENDMDL
MODEL 3
REMARK VINA RESULT:      -3.8      1.709      2.235
REMARK  2 active torsions:
REMARK  status: ('A' for Active; 'I' for Inactive)
REMARK    1  A    between atoms: C3_3  and  C8_8 
REMARK    2  A    between atoms: C4_4  and  C9_9 
ROOT
HETATM    1  C1  UNL     1     -37.157  14.353  -5.060  1.00 20.00     0.034 C 
HETATM    2  C2  UNL     1     -36.144  13.319  -5.506  1.00 20.00     0.168 C 
HETATM    3  C3  UNL     1     -36.268  15.532  -4.724  1.00 20.00     0.031 C 
HETATM    4  C4  UNL     1     -35.082  14.826  -4.076  1.00 20.00     0.134 C 
HETATM    5  O10 UNL     1     -34.933  13.578  -4.779  1.00 20.00    -0.385 OA
ENDROOT
BRANCH   4   6
HETATM    6  C9  UNL     1     -33.782  15.607  -4.158  1.00 20.00    -0.025 C 
HETATM    7  C5  UNL     1     -33.784  16.505  -5.412  1.00 20.00     0.017 C 
HETATM    8  C6  UNL     1     -32.586  14.639  -4.241  1.00 20.00     0.017 C 
HETATM    9  C7  UNL     1     -33.618  16.497  -2.910  1.00 20.00     0.017 C 
ENDBRANCH   4   6
BRANCH   3  10
HETATM   10  C8  UNL     1     -36.937  16.566  -3.835  1.00 20.00     0.121 C 
HETATM   11 CL11 UNL     1     -36.893  18.165  -4.604  1.00 20.00    -0.130 Cl
ENDBRANCH   3  10
TORSDOF 2
ENDMDL
MODEL 4
REMARK VINA RESULT:      -3.8      2.229      2.879
REMARK  2 active torsions:
REMARK  status: ('A' for Active; 'I' for Inactive)
REMARK    1  A    between atoms: C3_3  and  C8_8 
REMARK    2  A    between atoms: C4_4  and  C9_9 
ROOT
HETATM    1  C1  UNL     1     -37.510  14.701  -6.192  1.00 20.00     0.034 C 
HETATM    2  C2  UNL     1     -37.940  14.785  -4.742  1.00 20.00     0.168 C 
HETATM    3  C3  UNL     1     -36.002  14.780  -6.073  1.00 20.00     0.031 C 
HETATM    4  C4  UNL     1     -35.852  15.807  -4.955  1.00 20.00     0.134 C 
HETATM    5  O10 UNL     1     -36.956  15.577  -4.059  1.00 20.00    -0.385 OA
ENDROOT
BRANCH   4   6
HETATM    6  C9  UNL     1     -34.549  15.691  -4.185  1.00 20.00    -0.025 C 
HETATM    7  C5  UNL     1     -33.448  16.517  -4.882  1.00 20.00     0.017 C 
HETATM    8  C6  UNL     1     -34.100  14.218  -4.121  1.00 20.00     0.017 C 
HETATM    9  C7  UNL     1     -34.732  16.219  -2.749  1.00 20.00     0.017 C 
ENDBRANCH   4   6
BRANCH   3  10
HETATM   10  C8  UNL     1     -35.308  15.166  -7.367  1.00 20.00     0.121 C 
HETATM   11 CL11 UNL     1     -34.102  13.941  -7.811  1.00 20.00    -0.130 Cl
ENDBRANCH   3  10
TORSDOF 2
ENDMDL
MODEL 5
REMARK VINA RESULT:      -3.7      1.968      3.142
REMARK  2 active torsions:
REMARK  status: ('A' for Active; 'I' for Inactive)
REMARK    1  A    between atoms: C3_3  and  C8_8 
REMARK    2  A    between atoms: C4_4  and  C9_9 
ROOT
HETATM    1  C1  UNL     1     -34.857  14.885  -5.279  1.00 20.00     0.034 C 
HETATM    2  C2  UNL     1     -33.388  15.182  -5.055  1.00 20.00     0.168 C 
HETATM    3  C3  UNL     1     -35.520  15.897  -4.368  1.00 20.00     0.031 C 
HETATM    4  C4  UNL     1     -34.577  15.870  -3.169  1.00 20.00     0.134 C 
HETATM    5  O10 UNL     1     -33.258  15.663  -3.708  1.00 20.00    -0.385 OA
ENDROOT
BRANCH   4   6
HETATM    6  C9  UNL     1     -34.590  17.148  -2.349  1.00 20.00    -0.025 C 
HETATM    7  C5  UNL     1     -35.112  18.320  -3.205  1.00 20.00     0.017 C 
HETATM    8  C6  UNL     1     -33.165  17.481  -1.865  1.00 20.00     0.017 C 
HETATM    9  C7  UNL     1     -35.508  16.981  -1.121  1.00 20.00     0.017 C 
ENDBRANCH   4   6
BRANCH   3  10
HETATM   10  C8  UNL     1     -36.962  15.561  -4.032  1.00 20.00     0.121 C 
HETATM   11 CL11 UNL     1     -37.556  14.262  -5.086  1.00 20.00    -0.130 Cl
ENDBRANCH   3  10
TORSDOF 2
ENDMDL
MODEL 6
REMARK VINA RESULT:      -3.6      2.381      3.863
REMARK  2 active torsions:
REMARK  status: ('A' for Active; 'I' for Inactive)
REMARK    1  A    between atoms: C3_3  and  C8_8 
REMARK    2  A    between atoms: C4_4  and  C9_9 
ROOT
HETATM    1  C1  UNL     1     -36.145  16.954  -2.759  1.00 20.00     0.034 C 
HETATM    2  C2  UNL     1     -36.972  16.245  -3.811  1.00 20.00     0.168 C 
HETATM    3  C3  UNL     1     -34.737  16.734  -3.272  1.00 20.00     0.031 C 
HETATM    4  C4  UNL     1     -34.837  15.303  -3.792  1.00 20.00     0.134 C 
HETATM    5  O10 UNL     1     -36.170  15.168  -4.319  1.00 20.00    -0.385 OA
ENDROOT
BRANCH   4   6
HETATM    6  C9  UNL     1     -33.830  14.973  -4.879  1.00 20.00    -0.025 C 
HETATM    7  C5  UNL     1     -33.314  16.271  -5.534  1.00 20.00     0.017 C 
HETATM    8  C6  UNL     1     -34.489  14.097  -5.962  1.00 20.00     0.017 C 
HETATM    9  C7  UNL     1     -32.634  14.209  -4.279  1.00 20.00     0.017 C 
ENDBRANCH   4   6
BRANCH   3  10
HETATM   10  C8  UNL     1     -33.665  16.938  -2.217  1.00 20.00     0.121 C 
HETATM   11 CL11 UNL     1     -34.396  17.456  -0.684  1.00 20.00    -0.130 Cl
ENDBRANCH   3  10
TORSDOF 2
ENDMDL
MODEL 7
REMARK VINA RESULT:      -3.6      2.156      3.006
REMARK  2 active torsions:
REMARK  status: ('A' for Active; 'I' for Inactive)
REMARK    1  A    between atoms: C3_3  and  C8_8 
REMARK    2  A    between atoms: C4_4  and  C9_9 
ROOT
HETATM    1  C1  UNL     1     -37.893  14.792  -5.837  1.00 20.00     0.034 C 
HETATM    2  C2  UNL     1     -38.199  15.193  -4.409  1.00 20.00     0.168 C 
HETATM    3  C3  UNL     1     -36.386  14.650  -5.803  1.00 20.00     0.031 C 
HETATM    4  C4  UNL     1     -36.004  15.817  -4.898  1.00 20.00     0.134 C 
HETATM    5  O10 UNL     1     -37.061  15.924  -3.926  1.00 20.00    -0.385 OA
ENDROOT
BRANCH   4   6
HETATM    6  C9  UNL     1     -34.679  15.629  -4.181  1.00 20.00    -0.025 C 
HETATM    7  C5  UNL     1     -34.754  16.233  -2.763  1.00 20.00     0.017 C 
HETATM    8  C6  UNL     1     -33.550  16.330  -4.961  1.00 20.00     0.017 C 
HETATM    9  C7  UNL     1     -34.347  14.128  -4.065  1.00 20.00     0.017 C 
ENDBRANCH   4   6
BRANCH   3  10
HETATM   10  C8  UNL     1     -35.738  14.691  -7.176  1.00 20.00     0.121 C 
HETATM   11 CL11 UNL     1     -34.869  13.177  -7.496  1.00 20.00    -0.130 Cl
ENDBRANCH   3  10
TORSDOF 2
ENDMDL
MODEL 8
REMARK VINA RESULT:      -3.6      2.284      3.127
REMARK  2 active torsions:
REMARK  status: ('A' for Active; 'I' for Inactive)
REMARK    1  A    between atoms: C3_3  and  C8_8 
REMARK    2  A    between atoms: C4_4  and  C9_9 
ROOT
HETATM    1  C1  UNL     1     -34.128  17.041  -7.663  1.00 20.00     0.034 C 
HETATM    2  C2  UNL     1     -34.172  18.140  -6.620  1.00 20.00     0.168 C 
HETATM    3  C3  UNL     1     -34.270  15.799  -6.809  1.00 20.00     0.031 C 
HETATM    4  C4  UNL     1     -33.425  16.180  -5.597  1.00 20.00     0.134 C 
HETATM    5  O10 UNL     1     -33.615  17.596  -5.414  1.00 20.00    -0.385 OA
ENDROOT
BRANCH   4   6
HETATM    6  C9  UNL     1     -33.814  15.452  -4.324  1.00 20.00    -0.025 C 
HETATM    7  C5  UNL     1     -32.940  14.194  -4.145  1.00 20.00     0.017 C 
HETATM    8  C6  UNL     1     -35.294  15.024  -4.389  1.00 20.00     0.017 C 
HETATM    9  C7  UNL     1     -33.615  16.373  -3.104  1.00 20.00     0.017 C 
ENDBRANCH   4   6
BRANCH   3  10
HETATM   10  C8  UNL     1     -33.819  14.526  -7.504  1.00 20.00     0.121 C 
HETATM   11 CL11 UNL     1     -35.107  13.306  -7.457  1.00 20.00    -0.130 Cl
ENDBRANCH   3  10
TORSDOF 2
ENDMDL
MODEL 9
REMARK VINA RESULT:      -3.6     11.737     13.168
REMARK  2 active torsions:
REMARK  status: ('A' for Active; 'I' for Inactive)
REMARK    1  A    between atoms: C3_3  and  C8_8 
REMARK    2  A    between atoms: C4_4  and  C9_9 
ROOT
HETATM    1  C1  UNL     1     -32.796   8.373   5.251  1.00 20.00     0.034 C 
HETATM    2  C2  UNL     1     -33.730   7.669   6.214  1.00 20.00     0.168 C 
HETATM    3  C3  UNL     1     -33.042   7.608   3.967  1.00 20.00     0.031 C 
HETATM    4  C4  UNL     1     -33.181   6.185   4.499  1.00 20.00     0.134 C 
HETATM    5  O10 UNL     1     -33.829   6.304   5.779  1.00 20.00    -0.385 OA
ENDROOT
BRANCH   4   6
HETATM    6  C9  UNL     1     -34.000   5.272   3.604  1.00 20.00    -0.025 C 
HETATM    7  C5  UNL     1     -34.528   4.071   4.414  1.00 20.00     0.017 C 
HETATM    8  C6  UNL     1     -33.131   4.748   2.444  1.00 20.00     0.017 C 
HETATM    9  C7  UNL     1     -35.200   6.043   3.018  1.00 20.00     0.017 C 
ENDBRANCH   4   6
BRANCH   3  10
HETATM   10  C8  UNL     1     -31.941   7.779   2.935  1.00 20.00     0.121 C 
HETATM   11 CL11 UNL     1     -32.536   8.709   1.545  1.00 20.00    -0.130 Cl
ENDBRANCH   3  10
TORSDOF 2
ENDMDL
