MODEL 1
REMARK VINA RESULT:      -4.3      0.000      0.000
REMARK  4 active torsions:
REMARK  status: ('A' for Active; 'I' for Inactive)
REMARK    1  A    between atoms: C2_2  and  C8_8 
REMARK    2  A    between atoms: C3_3  and  C10_10 
REMARK    3  A    between atoms: C3_3  and  O11_11 
REMARK    4  A    between atoms: C9_9  and  C10_10 
ROOT
HETATM    1  C1  UNL     1     -33.190  16.125  -4.867  1.00 20.00     0.046 A 
HETATM    2  C2  UNL     1     -33.945  15.599  -3.675  1.00 20.00     0.023 A 
HETATM    3  C3  UNL     1     -33.807  14.750  -4.920  1.00 20.00     0.069 A 
ENDROOT
BRANCH   3   4
HETATM    4  C10 UNL     1     -34.994  14.474  -5.864  1.00 20.00    -0.017 C 
HETATM    5  C6  UNL     1     -35.536  15.820  -6.373  1.00 20.00     0.018 C 
HETATM    6  C7  UNL     1     -34.486  13.649  -7.058  1.00 20.00     0.018 C 
BRANCH   4   7
HETATM    7  C9  UNL     1     -36.076  13.700  -5.068  1.00 20.00     0.007 C 
HETATM    8  C5  UNL     1     -37.509  14.184  -5.253  1.00 20.00     0.006 C 
ENDBRANCH   4   7
ENDBRANCH   3   4
BRANCH   3   9
HETATM    9  O11 UNL     1     -32.890  13.647  -4.817  1.00 20.00    -0.389 OA
HETATM   10  H31 UNL     1     -32.601  13.460  -5.721  1.00 20.00     0.210 HD
ENDBRANCH   3   9
BRANCH   2  11
HETATM   11  C8  UNL     1     -35.239  16.220  -3.271  1.00 20.00     0.003 C 
HETATM   12  C4  UNL     1     -35.237  16.711  -1.846  1.00 20.00     0.005 C 
ENDBRANCH   2  11
TORSDOF 4
ENDMDL
MODEL 2
REMARK VINA RESULT:      -4.3      0.520      1.427
REMARK  4 active torsions:
REMARK  status: ('A' for Active; 'I' for Inactive)
REMARK    1  A    between atoms: C2_2  and  C8_8 
REMARK    2  A    between atoms: C3_3  and  C10_10 
REMARK    3  A    between atoms: C3_3  and  O11_11 
REMARK    4  A    between atoms: C9_9  and  C10_10 
ROOT
HETATM    1  C1  UNL     1     -33.277  16.134  -4.853  1.00 20.00     0.046 A 
HETATM    2  C2  UNL     1     -34.001  15.551  -3.668  1.00 20.00     0.023 A 
HETATM    3  C3  UNL     1     -33.810  14.726  -4.922  1.00 20.00     0.069 A 
ENDROOT
BRANCH   3   4
HETATM    4  C10 UNL     1     -34.977  14.390  -5.872  1.00 20.00    -0.017 C 
HETATM    5  C6  UNL     1     -34.419  13.618  -7.079  1.00 20.00     0.018 C 
HETATM    6  C7  UNL     1     -35.978  13.497  -5.120  1.00 20.00     0.018 C 
BRANCH   4   7
HETATM    7  C9  UNL     1     -35.638  15.720  -6.316  1.00 20.00     0.007 C 
HETATM    8  C5  UNL     1     -37.151  15.682  -6.495  1.00 20.00     0.006 C 
ENDBRANCH   4   7
ENDBRANCH   3   4
BRANCH   3   9
HETATM    9  O11 UNL     1     -32.829  13.678  -4.830  1.00 20.00    -0.389 OA
HETATM   10  H31 UNL     1     -32.877  13.198  -5.668  1.00 20.00     0.210 HD
ENDBRANCH   3   9
BRANCH   2  11
HETATM   11  C8  UNL     1     -35.330  16.089  -3.261  1.00 20.00     0.003 C 
HETATM   12  C4  UNL     1     -35.315  16.723  -1.894  1.00 20.00     0.005 C 
ENDBRANCH   2  11
TORSDOF 4
ENDMDL
MODEL 3
REMARK VINA RESULT:      -4.3      0.523      1.931
REMARK  4 active torsions:
REMARK  status: ('A' for Active; 'I' for Inactive)
REMARK    1  A    between atoms: C2_2  and  C8_8 
REMARK    2  A    between atoms: C3_3  and  C10_10 
REMARK    3  A    between atoms: C3_3  and  O11_11 
REMARK    4  A    between atoms: C9_9  and  C10_10 
ROOT
HETATM    1  C1  UNL     1     -33.250  16.127  -4.558  1.00 20.00     0.046 A 
HETATM    2  C2  UNL     1     -34.001  15.552  -3.386  1.00 20.00     0.023 A 
HETATM    3  C3  UNL     1     -33.860  14.753  -4.663  1.00 20.00     0.069 A 
ENDROOT
BRANCH   3   4
HETATM    4  C10 UNL     1     -35.047  14.508  -5.616  1.00 20.00    -0.017 C 
HETATM    5  C6  UNL     1     -36.136  13.737  -4.853  1.00 20.00     0.018 C 
HETATM    6  C7  UNL     1     -35.607  15.870  -6.059  1.00 20.00     0.018 C 
BRANCH   4   7
HETATM    7  C9  UNL     1     -34.532  13.693  -6.831  1.00 20.00     0.007 C 
HETATM    8  C5  UNL     1     -33.825  14.496  -7.917  1.00 20.00     0.006 C 
ENDBRANCH   4   7
ENDBRANCH   3   4
BRANCH   3   9
HETATM    9  O11 UNL     1     -32.937  13.651  -4.604  1.00 20.00    -0.389 OA
HETATM   10  H31 UNL     1     -32.490  13.729  -3.751  1.00 20.00     0.210 HD
ENDBRANCH   3   9
BRANCH   2  11
HETATM   11  C8  UNL     1     -35.298  16.150  -2.958  1.00 20.00     0.003 C 
HETATM   12  C4  UNL     1     -35.198  16.899  -1.654  1.00 20.00     0.005 C 
ENDBRANCH   2  11
TORSDOF 4
ENDMDL
MODEL 4
REMARK VINA RESULT:      -4.2      1.582      2.559
REMARK  4 active torsions:
REMARK  status: ('A' for Active; 'I' for Inactive)
REMARK    1  A    between atoms: C2_2  and  C8_8 
REMARK    2  A    between atoms: C3_3  and  C10_10 
REMARK    3  A    between atoms: C3_3  and  O11_11 
REMARK    4  A    between atoms: C9_9  and  C10_10 
ROOT
HETATM    1  C1  UNL     1     -33.821  13.998  -4.201  1.00 20.00     0.046 A 
HETATM    2  C2  UNL     1     -35.020  14.815  -3.798  1.00 20.00     0.023 A 
HETATM    3  C3  UNL     1     -35.059  13.983  -5.061  1.00 20.00     0.069 A 
ENDROOT
BRANCH   3   4
HETATM    4  C10 UNL     1     -35.028  14.619  -6.466  1.00 20.00    -0.017 C 
HETATM    5  C6  UNL     1     -35.063  13.493  -7.512  1.00 20.00     0.018 C 
HETATM    6  C7  UNL     1     -36.276  15.501  -6.630  1.00 20.00     0.018 C 
BRANCH   4   7
HETATM    7  C9  UNL     1     -33.730  15.457  -6.589  1.00 20.00     0.007 C 
HETATM    8  C5  UNL     1     -33.864  16.784  -7.328  1.00 20.00     0.006 C 
ENDBRANCH   4   7
ENDBRANCH   3   4
BRANCH   3   9
HETATM    9  O11 UNL     1     -35.857  12.789  -4.991  1.00 20.00    -0.389 OA
HETATM   10  H31 UNL     1     -35.536  12.303  -4.220  1.00 20.00     0.210 HD
ENDBRANCH   3   9
BRANCH   2  11
HETATM   11  C8  UNL     1     -34.957  16.304  -3.823  1.00 20.00     0.003 C 
HETATM   12  C4  UNL     1     -33.829  16.861  -2.994  1.00 20.00     0.005 C 
ENDBRANCH   2  11
TORSDOF 4
ENDMDL
MODEL 5
REMARK VINA RESULT:      -4.2     10.982     11.668
REMARK  4 active torsions:
REMARK  status: ('A' for Active; 'I' for Inactive)
REMARK    1  A    between atoms: C2_2  and  C8_8 
REMARK    2  A    between atoms: C3_3  and  C10_10 
REMARK    3  A    between atoms: C3_3  and  O11_11 
REMARK    4  A    between atoms: C9_9  and  C10_10 
ROOT
HETATM    1  C1  UNL     1     -31.699   7.448   3.448  1.00 20.00     0.046 A 
HETATM    2  C2  UNL     1     -32.645   8.395   2.758  1.00 20.00     0.023 A 
HETATM    3  C3  UNL     1     -33.185   7.303   3.654  1.00 20.00     0.069 A 
ENDROOT
BRANCH   3   4
HETATM    4  C10 UNL     1     -33.924   6.070   3.096  1.00 20.00    -0.017 C 
HETATM    5  C6  UNL     1     -34.675   6.487   1.821  1.00 20.00     0.018 C 
HETATM    6  C7  UNL     1     -32.883   4.996   2.742  1.00 20.00     0.018 C 
BRANCH   4   7
HETATM    7  C9  UNL     1     -34.906   5.561   4.182  1.00 20.00     0.007 C 
HETATM    8  C5  UNL     1     -34.445   4.344   4.975  1.00 20.00     0.006 C 
ENDBRANCH   4   7
ENDBRANCH   3   4
BRANCH   3   9
HETATM    9  O11 UNL     1     -33.687   7.741   4.929  1.00 20.00    -0.389 OA
HETATM   10  H31 UNL     1     -33.618   8.705   4.922  1.00 20.00     0.210 HD
ENDBRANCH   3   9
BRANCH   2  11
HETATM   11  C8  UNL     1     -32.796   8.360   1.275  1.00 20.00     0.003 C 
HETATM   12  C4  UNL     1     -32.483   9.680   0.620  1.00 20.00     0.005 C 
ENDBRANCH   2  11
TORSDOF 4
ENDMDL
MODEL 6
REMARK VINA RESULT:      -4.1      1.492      1.781
REMARK  4 active torsions:
REMARK  status: ('A' for Active; 'I' for Inactive)
REMARK    1  A    between atoms: C2_2  and  C8_8 
REMARK    2  A    between atoms: C3_3  and  C10_10 
REMARK    3  A    between atoms: C3_3  and  O11_11 
REMARK    4  A    between atoms: C9_9  and  C10_10 
ROOT
HETATM    1  C1  UNL     1     -33.584  14.085  -4.163  1.00 20.00     0.046 A 
HETATM    2  C2  UNL     1     -34.783  14.891  -3.739  1.00 20.00     0.023 A 
HETATM    3  C3  UNL     1     -34.820  14.096  -5.026  1.00 20.00     0.069 A 
ENDROOT
BRANCH   3   4
HETATM    4  C10 UNL     1     -34.786  14.770  -6.412  1.00 20.00    -0.017 C 
HETATM    5  C6  UNL     1     -33.490  15.590  -6.525  1.00 20.00     0.018 C 
HETATM    6  C7  UNL     1     -34.786  13.673  -7.489  1.00 20.00     0.018 C 
BRANCH   4   7
HETATM    7  C9  UNL     1     -36.035  15.679  -6.538  1.00 20.00     0.007 C 
HETATM    8  C5  UNL     1     -37.245  15.054  -7.223  1.00 20.00     0.006 C 
ENDBRANCH   4   7
ENDBRANCH   3   4
BRANCH   3   9
HETATM    9  O11 UNL     1     -35.619  12.900  -4.992  1.00 20.00    -0.389 OA
HETATM   10  H31 UNL     1     -36.105  12.934  -4.157  1.00 20.00     0.210 HD
ENDBRANCH   3   9
BRANCH   2  11
HETATM   11  C8  UNL     1     -34.720  16.380  -3.722  1.00 20.00     0.003 C 
HETATM   12  C4  UNL     1     -33.724  16.916  -2.726  1.00 20.00     0.005 C 
ENDBRANCH   2  11
TORSDOF 4
ENDMDL
MODEL 7
REMARK VINA RESULT:      -4.0      1.188      3.462
REMARK  4 active torsions:
REMARK  status: ('A' for Active; 'I' for Inactive)
REMARK    1  A    between atoms: C2_2  and  C8_8 
REMARK    2  A    between atoms: C3_3  and  C10_10 
REMARK    3  A    between atoms: C3_3  and  O11_11 
REMARK    4  A    between atoms: C9_9  and  C10_10 
ROOT
HETATM    1  C1  UNL     1     -36.010  13.582  -5.213  1.00 20.00     0.046 A 
HETATM    2  C2  UNL     1     -36.032  14.668  -6.256  1.00 20.00     0.023 A 
HETATM    3  C3  UNL     1     -34.714  14.182  -5.694  1.00 20.00     0.069 A 
ENDROOT
BRANCH   3   4
HETATM    4  C10 UNL     1     -33.860  15.039  -4.739  1.00 20.00    -0.017 C 
HETATM    5  C6  UNL     1     -32.667  14.197  -4.260  1.00 20.00     0.018 C 
HETATM    6  C7  UNL     1     -33.338  16.261  -5.514  1.00 20.00     0.018 C 
BRANCH   4   7
HETATM    7  C9  UNL     1     -34.753  15.473  -3.549  1.00 20.00     0.007 C 
HETATM    8  C5  UNL     1     -34.164  16.535  -2.628  1.00 20.00     0.006 C 
ENDBRANCH   4   7
ENDBRANCH   3   4
BRANCH   3   9
HETATM    9  O11 UNL     1     -33.931  13.358  -6.577  1.00 20.00    -0.389 OA
HETATM   10  H31 UNL     1     -33.139  13.118  -6.078  1.00 20.00     0.210 HD
ENDBRANCH   3   9
BRANCH   2  11
HETATM   11  C8  UNL     1     -36.592  16.011  -5.932  1.00 20.00     0.003 C 
HETATM   12  C4  UNL     1     -36.872  16.844  -7.156  1.00 20.00     0.005 C 
ENDBRANCH   2  11
TORSDOF 4
ENDMDL
MODEL 8
REMARK VINA RESULT:      -4.0     11.588     12.480
REMARK  4 active torsions:
REMARK  status: ('A' for Active; 'I' for Inactive)
REMARK    1  A    between atoms: C2_2  and  C8_8 
REMARK    2  A    between atoms: C3_3  and  C10_10 
REMARK    3  A    between atoms: C3_3  and  O11_11 
REMARK    4  A    between atoms: C9_9  and  C10_10 
ROOT
HETATM    1  C1  UNL     1     -33.698   6.067   1.682  1.00 20.00     0.046 A 
HETATM    2  C2  UNL     1     -32.482   6.466   2.477  1.00 20.00     0.023 A 
HETATM    3  C3  UNL     1     -33.498   5.514   3.070  1.00 20.00     0.069 A 
ENDROOT
BRANCH   3   4
HETATM    4  C10 UNL     1     -34.449   5.930   4.210  1.00 20.00    -0.017 C 
HETATM    5  C6  UNL     1     -35.846   6.172   3.617  1.00 20.00     0.018 C 
HETATM    6  C7  UNL     1     -34.523   4.781   5.229  1.00 20.00     0.018 C 
BRANCH   4   7
HETATM    7  C9  UNL     1     -33.887   7.220   4.862  1.00 20.00     0.007 C 
HETATM    8  C5  UNL     1     -33.789   7.207   6.383  1.00 20.00     0.006 C 
ENDBRANCH   4   7
ENDBRANCH   3   4
BRANCH   3   9
HETATM    9  O11 UNL     1     -33.087   4.137   3.143  1.00 20.00    -0.389 OA
HETATM   10  H31 UNL     1     -32.147   4.156   3.367  1.00 20.00     0.210 HD
ENDBRANCH   3   9
BRANCH   2  11
HETATM   11  C8  UNL     1     -32.325   7.868   2.958  1.00 20.00     0.003 C 
HETATM   12  C4  UNL     1     -32.133   8.857   1.837  1.00 20.00     0.005 C 
ENDBRANCH   2  11
TORSDOF 4
ENDMDL
MODEL 9
REMARK VINA RESULT:      -4.0      1.578      3.516
REMARK  4 active torsions:
REMARK  status: ('A' for Active; 'I' for Inactive)
REMARK    1  A    between atoms: C2_2  and  C8_8 
REMARK    2  A    between atoms: C3_3  and  C10_10 
REMARK    3  A    between atoms: C3_3  and  O11_11 
REMARK    4  A    between atoms: C9_9  and  C10_10 
ROOT
HETATM    1  C1  UNL     1     -32.794  14.879  -4.512  1.00 20.00     0.046 A 
HETATM    2  C2  UNL     1     -34.105  14.634  -5.211  1.00 20.00     0.023 A 
HETATM    3  C3  UNL     1     -33.590  16.046  -5.037  1.00 20.00     0.069 A 
ENDROOT
BRANCH   3   4
HETATM    4  C10 UNL     1     -34.237  17.042  -4.054  1.00 20.00    -0.017 C 
HETATM    5  C6  UNL     1     -33.496  18.385  -4.161  1.00 20.00     0.018 C 
HETATM    6  C7  UNL     1     -35.707  17.242  -4.457  1.00 20.00     0.018 C 
BRANCH   4   7
HETATM    7  C9  UNL     1     -34.124  16.453  -2.624  1.00 20.00     0.007 C 
HETATM    8  C5  UNL     1     -35.263  16.798  -1.672  1.00 20.00     0.006 C 
ENDBRANCH   4   7
ENDBRANCH   3   4
BRANCH   3   9
HETATM    9  O11 UNL     1     -33.078  16.669  -6.228  1.00 20.00    -0.389 OA
HETATM   10  H31 UNL     1     -33.335  17.599  -6.169  1.00 20.00     0.210 HD
ENDBRANCH   3   9
BRANCH   2  11
HETATM   11  C8  UNL     1     -35.276  14.111  -4.452  1.00 20.00     0.003 C 
HETATM   12  C4  UNL     1     -36.411  13.676  -5.344  1.00 20.00     0.005 C 
ENDBRANCH   2  11
TORSDOF 4
ENDMDL
