MODEL 1
REMARK VINA RESULT:      -5.5      0.000      0.000
REMARK  3 active torsions:
REMARK  status: ('A' for Active; 'I' for Inactive)
REMARK    1  A    between atoms: C1_1  and  C6_6 
REMARK    2  A    between atoms: C2_2  and  C3_3 
REMARK    3  A    between atoms: C3_3  and  C8_8 
ROOT
HETATM    1  C1  UNL     1     -32.829   7.426   2.337  1.00 20.00    -0.012 C 
HETATM    2  C3  UNL     1     -33.290   6.995   3.525  1.00 20.00    -0.024 C 
ENDROOT
BRANCH   2   3
HETATM    3  C2  UNL     1     -34.131   5.769   3.503  1.00 20.00     0.265 C 
HETATM    4  O9  UNL     1     -33.677   4.650   3.294  1.00 20.00    -0.302 OA
ENDBRANCH   2   3
BRANCH   2   5
HETATM    5  C8  UNL     1     -33.051   7.671   4.848  1.00 20.00     0.037 C 
HETATM    6  C7  UNL     1     -33.898   7.067   5.960  1.00 20.00     0.010 C 
ENDBRANCH   2   5
BRANCH   1   7
HETATM    7  C6  UNL     1     -31.988   8.613   2.088  1.00 20.00     0.009 A 
HETATM    8  C4  UNL     1     -31.625   8.939   0.676  1.00 20.00     0.009 A 
HETATM    9  C5  UNL     1     -32.612   9.793   1.414  1.00 20.00     0.009 A 
ENDBRANCH   1   7
TORSDOF 3
ENDMDL
MODEL 2
REMARK VINA RESULT:      -5.1      1.362      2.259
REMARK  3 active torsions:
REMARK  status: ('A' for Active; 'I' for Inactive)
REMARK    1  A    between atoms: C1_1  and  C6_6 
REMARK    2  A    between atoms: C2_2  and  C3_3 
REMARK    3  A    between atoms: C3_3  and  C8_8 
ROOT
HETATM    1  C1  UNL     1     -32.757   8.167   3.016  1.00 20.00    -0.012 C 
HETATM    2  C3  UNL     1     -33.389   7.199   3.703  1.00 20.00    -0.024 C 
ENDROOT
BRANCH   2   3
HETATM    3  C2  UNL     1     -33.342   7.301   5.186  1.00 20.00     0.265 C 
HETATM    4  O9  UNL     1     -34.140   6.733   5.922  1.00 20.00    -0.302 OA
ENDBRANCH   2   3
BRANCH   2   5
HETATM    5  C8  UNL     1     -34.097   6.020   3.093  1.00 20.00     0.037 C 
HETATM    6  C7  UNL     1     -33.139   4.882   2.770  1.00 20.00     0.010 C 
ENDBRANCH   2   5
BRANCH   1   7
HETATM    7  C6  UNL     1     -32.649   8.291   1.549  1.00 20.00     0.009 A 
HETATM    8  C4  UNL     1     -32.561   9.660   0.959  1.00 20.00     0.009 A 
HETATM    9  C5  UNL     1     -31.356   8.769   0.974  1.00 20.00     0.009 A 
ENDBRANCH   1   7
TORSDOF 3
ENDMDL
MODEL 3
REMARK VINA RESULT:      -4.5      2.136      4.389
REMARK  3 active torsions:
REMARK  status: ('A' for Active; 'I' for Inactive)
REMARK    1  A    between atoms: C1_1  and  C6_6 
REMARK    2  A    between atoms: C2_2  and  C3_3 
REMARK    3  A    between atoms: C3_3  and  C8_8 
ROOT
HETATM    1  C1  UNL     1     -33.358   7.194   4.898  1.00 20.00    -0.012 C 
HETATM    2  C3  UNL     1     -32.976   7.116   3.610  1.00 20.00    -0.024 C 
ENDROOT
BRANCH   2   3
HETATM    3  C2  UNL     1     -31.845   7.992   3.202  1.00 20.00     0.265 C 
HETATM    4  O9  UNL     1     -31.848   8.650   2.168  1.00 20.00    -0.302 OA
ENDBRANCH   2   3
BRANCH   2   5
HETATM    5  C8  UNL     1     -33.622   6.251   2.562  1.00 20.00     0.037 C 
HETATM    6  C7  UNL     1     -32.916   4.911   2.413  1.00 20.00     0.010 C 
ENDBRANCH   2   5
BRANCH   1   7
HETATM    7  C6  UNL     1     -34.451   6.444   5.548  1.00 20.00     0.009 A 
HETATM    8  C4  UNL     1     -35.161   5.398   4.752  1.00 20.00     0.009 A 
HETATM    9  C5  UNL     1     -34.230   4.999   5.856  1.00 20.00     0.009 A 
ENDBRANCH   1   7
TORSDOF 3
ENDMDL
MODEL 4
REMARK VINA RESULT:      -4.3      1.993      4.049
REMARK  3 active torsions:
REMARK  status: ('A' for Active; 'I' for Inactive)
REMARK    1  A    between atoms: C1_1  and  C6_6 
REMARK    2  A    between atoms: C2_2  and  C3_3 
REMARK    3  A    between atoms: C3_3  and  C8_8 
ROOT
HETATM    1  C1  UNL     1     -33.515   5.846   3.186  1.00 20.00    -0.012 C 
HETATM    2  C3  UNL     1     -33.287   7.122   3.546  1.00 20.00    -0.024 C 
ENDROOT
BRANCH   2   3
HETATM    3  C2  UNL     1     -32.201   7.831   2.818  1.00 20.00     0.265 C 
HETATM    4  O9  UNL     1     -31.246   8.351   3.382  1.00 20.00    -0.302 OA
ENDBRANCH   2   3
BRANCH   2   5
HETATM    5  C8  UNL     1     -34.012   7.861   4.638  1.00 20.00     0.037 C 
HETATM    6  C7  UNL     1     -33.416   7.582   6.011  1.00 20.00     0.010 C 
ENDBRANCH   2   5
BRANCH   1   7
HETATM    7  C6  UNL     1     -34.521   4.928   3.755  1.00 20.00     0.009 A 
HETATM    8  C4  UNL     1     -34.055   3.617   4.300  1.00 20.00     0.009 A 
HETATM    9  C5  UNL     1     -34.513   4.698   5.232  1.00 20.00     0.009 A 
ENDBRANCH   1   7
TORSDOF 3
ENDMDL
MODEL 5
REMARK VINA RESULT:      -4.2      2.068      4.336
REMARK  3 active torsions:
REMARK  status: ('A' for Active; 'I' for Inactive)
REMARK    1  A    between atoms: C1_1  and  C6_6 
REMARK    2  A    between atoms: C2_2  and  C3_3 
REMARK    3  A    between atoms: C3_3  and  C8_8 
ROOT
HETATM    1  C1  UNL     1     -32.897   6.675   3.383  1.00 20.00    -0.012 C 
HETATM    2  C3  UNL     1     -32.474   7.726   2.657  1.00 20.00    -0.024 C 
ENDROOT
BRANCH   2   3
HETATM    3  C2  UNL     1     -31.299   8.466   3.189  1.00 20.00     0.265 C 
HETATM    4  O9  UNL     1     -31.198   8.807   4.362  1.00 20.00    -0.302 OA
ENDBRANCH   2   3
BRANCH   2   5
HETATM    5  C8  UNL     1     -33.113   8.221   1.389  1.00 20.00     0.037 C 
HETATM    6  C7  UNL     1     -32.362   9.404   0.793  1.00 20.00     0.010 C 
ENDBRANCH   2   5
BRANCH   1   7
HETATM    7  C6  UNL     1     -34.037   5.787   3.080  1.00 20.00     0.009 A 
HETATM    8  C4  UNL     1     -34.329   4.665   4.022  1.00 20.00     0.009 A 
HETATM    9  C5  UNL     1     -35.239   5.854   3.966  1.00 20.00     0.009 A 
ENDBRANCH   1   7
TORSDOF 3
ENDMDL
MODEL 6
REMARK VINA RESULT:      -4.1     10.441     11.093
REMARK  3 active torsions:
REMARK  status: ('A' for Active; 'I' for Inactive)
REMARK    1  A    between atoms: C1_1  and  C6_6 
REMARK    2  A    between atoms: C2_2  and  C3_3 
REMARK    3  A    between atoms: C3_3  and  C8_8 
ROOT
HETATM    1  C1  UNL     1     -35.446  15.613  -3.285  1.00 20.00    -0.012 C 
HETATM    2  C3  UNL     1     -34.970  14.757  -4.207  1.00 20.00    -0.024 C 
ENDROOT
BRANCH   2   3
HETATM    3  C2  UNL     1     -35.982  13.979  -4.972  1.00 20.00     0.265 C 
HETATM    4  O9  UNL     1     -35.873  12.780  -5.198  1.00 20.00    -0.302 OA
ENDBRANCH   2   3
BRANCH   2   5
HETATM    5  C8  UNL     1     -33.515  14.505  -4.492  1.00 20.00     0.037 C 
HETATM    6  C7  UNL     1     -32.931  15.541  -5.443  1.00 20.00     0.010 C 
ENDBRANCH   2   5
BRANCH   1   7
HETATM    7  C6  UNL     1     -34.659  16.487  -2.394  1.00 20.00     0.009 A 
HETATM    8  C4  UNL     1     -35.033  17.931  -2.308  1.00 20.00     0.009 A 
HETATM    9  C5  UNL     1     -35.314  17.012  -1.158  1.00 20.00     0.009 A 
ENDBRANCH   1   7
TORSDOF 3
ENDMDL
MODEL 7
REMARK VINA RESULT:      -4.1      2.160      3.949
REMARK  3 active torsions:
REMARK  status: ('A' for Active; 'I' for Inactive)
REMARK    1  A    between atoms: C1_1  and  C6_6 
REMARK    2  A    between atoms: C2_2  and  C3_3 
REMARK    3  A    between atoms: C3_3  and  C8_8 
ROOT
HETATM    1  C1  UNL     1     -33.513   7.015   2.601  1.00 20.00    -0.012 C 
HETATM    2  C3  UNL     1     -32.506   7.899   2.480  1.00 20.00    -0.024 C 
ENDROOT
BRANCH   2   3
HETATM    3  C2  UNL     1     -32.559   8.803   1.300  1.00 20.00     0.265 C 
HETATM    4  O9  UNL     1     -31.596   9.006   0.570  1.00 20.00    -0.302 OA
ENDBRANCH   2   3
BRANCH   2   5
HETATM    5  C8  UNL     1     -31.333   8.015   3.414  1.00 20.00     0.037 C 
HETATM    6  C7  UNL     1     -31.626   8.934   4.592  1.00 20.00     0.010 C 
ENDBRANCH   2   5
BRANCH   1   7
HETATM    7  C6  UNL     1     -33.690   6.010   3.668  1.00 20.00     0.009 A 
HETATM    8  C4  UNL     1     -34.255   6.458   4.976  1.00 20.00     0.009 A 
HETATM    9  C5  UNL     1     -35.081   5.619   4.048  1.00 20.00     0.009 A 
ENDBRANCH   1   7
TORSDOF 3
ENDMDL
MODEL 8
REMARK VINA RESULT:      -4.0     10.751     11.220
REMARK  3 active torsions:
REMARK  status: ('A' for Active; 'I' for Inactive)
REMARK    1  A    between atoms: C1_1  and  C6_6 
REMARK    2  A    between atoms: C2_2  and  C3_3 
REMARK    3  A    between atoms: C3_3  and  C8_8 
ROOT
HETATM    1  C1  UNL     1     -33.517  16.733  -2.686  1.00 20.00    -0.012 C 
HETATM    2  C3  UNL     1     -34.033  17.294  -1.578  1.00 20.00    -0.024 C 
ENDROOT
BRANCH   2   3
HETATM    3  C2  UNL     1     -33.158  18.256  -0.855  1.00 20.00     0.265 C 
HETATM    4  O9  UNL     1     -31.951  18.339  -1.050  1.00 20.00    -0.302 OA
ENDBRANCH   2   3
BRANCH   2   5
HETATM    5  C8  UNL     1     -35.392  16.999  -1.005  1.00 20.00     0.037 C 
HETATM    6  C7  UNL     1     -35.558  17.568   0.397  1.00 20.00     0.010 C 
ENDBRANCH   2   5
BRANCH   1   7
HETATM    7  C6  UNL     1     -34.171  15.749  -3.571  1.00 20.00     0.009 A 
HETATM    8  C4  UNL     1     -33.982  15.889  -5.047  1.00 20.00     0.009 A 
HETATM    9  C5  UNL     1     -33.308  14.774  -4.305  1.00 20.00     0.009 A 
ENDBRANCH   1   7
TORSDOF 3
ENDMDL
MODEL 9
REMARK VINA RESULT:      -3.9     10.394     11.254
REMARK  3 active torsions:
REMARK  status: ('A' for Active; 'I' for Inactive)
REMARK    1  A    between atoms: C1_1  and  C6_6 
REMARK    2  A    between atoms: C2_2  and  C3_3 
REMARK    3  A    between atoms: C3_3  and  C8_8 
ROOT
HETATM    1  C1  UNL     1     -34.619  15.595  -3.464  1.00 20.00    -0.012 C 
HETATM    2  C3  UNL     1     -35.567  14.935  -4.152  1.00 20.00    -0.024 C 
ENDROOT
BRANCH   2   3
HETATM    3  C2  UNL     1     -35.153  13.655  -4.787  1.00 20.00     0.265 C 
HETATM    4  O9  UNL     1     -35.953  12.813  -5.180  1.00 20.00    -0.302 OA
ENDBRANCH   2   3
BRANCH   2   5
HETATM    5  C8  UNL     1     -36.982  15.405  -4.354  1.00 20.00     0.037 C 
HETATM    6  C7  UNL     1     -37.132  16.244  -5.616  1.00 20.00     0.010 C 
ENDBRANCH   2   5
BRANCH   1   7
HETATM    7  C6  UNL     1     -34.768  16.881  -2.755  1.00 20.00     0.009 A 
HETATM    8  C4  UNL     1     -35.219  16.854  -1.330  1.00 20.00     0.009 A 
HETATM    9  C5  UNL     1     -33.800  17.203  -1.663  1.00 20.00     0.009 A 
ENDBRANCH   1   7
TORSDOF 3
ENDMDL
