MODEL 1
REMARK VINA RESULT:      -5.3      0.000      0.000
REMARK  2 active torsions:
REMARK  status: ('A' for Active; 'I' for Inactive)
REMARK    1  A    between atoms: C4_4  and  C8_8 
REMARK    2  A    between atoms: C5_5  and  C9_9 
ROOT
HETATM    1  C1  UNL     1     -34.032   4.577   3.815  1.00 20.00     0.027 C 
HETATM    2  C2  UNL     1     -35.018   5.740   3.889  1.00 20.00     0.010 C 
HETATM    3  C3  UNL     1     -33.054   4.769   2.664  1.00 20.00     0.168 C 
HETATM    4  C4  UNL     1     -34.303   7.101   3.861  1.00 20.00     0.029 C 
HETATM    5  C5  UNL     1     -33.325   7.128   2.668  1.00 20.00     0.130 C 
HETATM    6  O10 UNL     1     -32.401   6.035   2.749  1.00 20.00    -0.385 OA
ENDROOT
BRANCH   5   7
HETATM    7  C9  UNL     1     -32.514   8.416   2.577  1.00 20.00     0.007 C 
HETATM    8  C6  UNL     1     -31.132   8.229   3.201  1.00 20.00     0.012 C 
HETATM    9  C7  UNL     1     -32.388   8.871   1.124  1.00 20.00     0.012 C 
ENDBRANCH   5   7
BRANCH   4  10
HETATM   10  C8  UNL     1     -33.619   7.374   5.207  1.00 20.00     0.121 C 
HETATM   11 CL11 UNL     1     -34.482   6.533   6.503  1.00 20.00    -0.130 Cl
ENDBRANCH   4  10
TORSDOF 2
ENDMDL
MODEL 2
REMARK VINA RESULT:      -4.4     11.533     12.701
REMARK  2 active torsions:
REMARK  status: ('A' for Active; 'I' for Inactive)
REMARK    1  A    between atoms: C4_4  and  C8_8 
REMARK    2  A    between atoms: C5_5  and  C9_9 
ROOT
HETATM    1  C1  UNL     1     -34.129  14.545  -5.598  1.00 20.00     0.027 C 
HETATM    2  C2  UNL     1     -33.051  15.626  -5.635  1.00 20.00     0.010 C 
HETATM    3  C3  UNL     1     -34.471  14.170  -4.163  1.00 20.00     0.168 C 
HETATM    4  C4  UNL     1     -33.394  16.809  -4.715  1.00 20.00     0.029 C 
HETATM    5  C5  UNL     1     -33.753  16.269  -3.316  1.00 20.00     0.130 C 
HETATM    6  O10 UNL     1     -34.827  15.323  -3.401  1.00 20.00    -0.385 OA
ENDROOT
BRANCH   5   7
HETATM    7  C9  UNL     1     -34.170  17.357  -2.333  1.00 20.00     0.007 C 
HETATM    8  C6  UNL     1     -35.265  16.848  -1.397  1.00 20.00     0.012 C 
HETATM    9  C7  UNL     1     -32.966  17.850  -1.532  1.00 20.00     0.012 C 
ENDBRANCH   5   7
BRANCH   4  10
HETATM   10  C8  UNL     1     -34.509  17.663  -5.335  1.00 20.00     0.121 C 
HETATM   11 CL11 UNL     1     -34.169  17.944  -7.049  1.00 20.00    -0.130 Cl
ENDBRANCH   4  10
TORSDOF 2
ENDMDL
MODEL 3
REMARK VINA RESULT:      -4.2     11.143     12.543
REMARK  2 active torsions:
REMARK  status: ('A' for Active; 'I' for Inactive)
REMARK    1  A    between atoms: C4_4  and  C8_8 
REMARK    2  A    between atoms: C5_5  and  C9_9 
ROOT
HETATM    1  C1  UNL     1     -33.250  19.122  -2.472  1.00 20.00     0.027 C 
HETATM    2  C2  UNL     1     -33.084  17.884  -1.594  1.00 20.00     0.010 C 
HETATM    3  C3  UNL     1     -33.322  18.738  -3.943  1.00 20.00     0.168 C 
HETATM    4  C4  UNL     1     -34.117  16.797  -1.935  1.00 20.00     0.029 C 
HETATM    5  C5  UNL     1     -34.097  16.547  -3.457  1.00 20.00     0.130 C 
HETATM    6  O10 UNL     1     -34.341  17.765  -4.172  1.00 20.00    -0.385 OA
ENDROOT
BRANCH   5   7
HETATM    7  C9  UNL     1     -35.129  15.524  -3.919  1.00 20.00     0.007 C 
HETATM    8  C6  UNL     1     -35.838  16.005  -5.183  1.00 20.00     0.012 C 
HETATM    9  C7  UNL     1     -34.472  14.165  -4.157  1.00 20.00     0.012 C 
ENDBRANCH   5   7
BRANCH   4  10
HETATM   10  C8  UNL     1     -35.503  17.191  -1.408  1.00 20.00     0.121 C 
HETATM   11 CL11 UNL     1     -35.424  17.480   0.336  1.00 20.00    -0.130 Cl
ENDBRANCH   4  10
TORSDOF 2
ENDMDL
MODEL 4
REMARK VINA RESULT:      -4.2     11.353     12.286
REMARK  2 active torsions:
REMARK  status: ('A' for Active; 'I' for Inactive)
REMARK    1  A    between atoms: C4_4  and  C8_8 
REMARK    2  A    between atoms: C5_5  and  C9_9 
ROOT
HETATM    1  C1  UNL     1     -34.171  18.319  -0.724  1.00 20.00     0.027 C 
HETATM    2  C2  UNL     1     -35.266  17.255  -0.700  1.00 20.00     0.010 C 
HETATM    3  C3  UNL     1     -32.952  17.824  -1.490  1.00 20.00     0.168 C 
HETATM    4  C4  UNL     1     -35.558  16.701  -2.104  1.00 20.00     0.029 C 
HETATM    5  C5  UNL     1     -34.228  16.278  -2.762  1.00 20.00     0.130 C 
HETATM    6  O10 UNL     1     -33.311  17.379  -2.797  1.00 20.00    -0.385 OA
ENDROOT
BRANCH   5   7
HETATM    7  C9  UNL     1     -34.392  15.765  -4.189  1.00 20.00     0.007 C 
HETATM    8  C6  UNL     1     -33.220  16.211  -5.061  1.00 20.00     0.012 C 
HETATM    9  C7  UNL     1     -34.523  14.243  -4.202  1.00 20.00     0.012 C 
ENDBRANCH   5   7
BRANCH   4  10
HETATM   10  C8  UNL     1     -36.340  17.728  -2.933  1.00 20.00     0.121 C 
HETATM   11 CL11 UNL     1     -37.703  16.938  -3.741  1.00 20.00    -0.130 Cl
ENDBRANCH   4  10
TORSDOF 2
ENDMDL
MODEL 5
REMARK VINA RESULT:      -4.1     11.435     12.711
REMARK  2 active torsions:
REMARK  status: ('A' for Active; 'I' for Inactive)
REMARK    1  A    between atoms: C4_4  and  C8_8 
REMARK    2  A    between atoms: C5_5  and  C9_9 
ROOT
HETATM    1  C1  UNL     1     -34.698  16.907  -6.315  1.00 20.00     0.027 C 
HETATM    2  C2  UNL     1     -35.901  16.407  -5.518  1.00 20.00     0.010 C 
HETATM    3  C3  UNL     1     -33.930  17.962  -5.532  1.00 20.00     0.168 C 
HETATM    4  C4  UNL     1     -35.511  16.003  -4.086  1.00 20.00     0.029 C 
HETATM    5  C5  UNL     1     -34.712  17.153  -3.441  1.00 20.00     0.130 C 
HETATM    6  O10 UNL     1     -33.567  17.480  -4.238  1.00 20.00    -0.385 OA
ENDROOT
BRANCH   5   7
HETATM    7  C9  UNL     1     -34.221  16.837  -2.032  1.00 20.00     0.007 C 
HETATM    8  C6  UNL     1     -33.031  17.721  -1.664  1.00 20.00     0.012 C 
HETATM    9  C7  UNL     1     -35.350  17.007  -1.018  1.00 20.00     0.012 C 
ENDBRANCH   5   7
BRANCH   4  10
HETATM   10  C8  UNL     1     -34.750  14.670  -4.094  1.00 20.00     0.121 C 
HETATM   11 CL11 UNL     1     -35.714  13.431  -4.910  1.00 20.00    -0.130 Cl
ENDBRANCH   4  10
TORSDOF 2
ENDMDL
MODEL 6
REMARK VINA RESULT:      -4.1     11.149     12.425
REMARK  2 active torsions:
REMARK  status: ('A' for Active; 'I' for Inactive)
REMARK    1  A    between atoms: C4_4  and  C8_8 
REMARK    2  A    between atoms: C5_5  and  C9_9 
ROOT
HETATM    1  C1  UNL     1     -36.127  13.943  -7.918  1.00 20.00     0.027 C 
HETATM    2  C2  UNL     1     -36.524  15.218  -7.178  1.00 20.00     0.010 C 
HETATM    3  C3  UNL     1     -34.663  13.606  -7.670  1.00 20.00     0.168 C 
HETATM    4  C4  UNL     1     -36.106  15.176  -5.699  1.00 20.00     0.029 C 
HETATM    5  C5  UNL     1     -34.616  14.787  -5.611  1.00 20.00     0.130 C 
HETATM    6  O10 UNL     1     -34.381  13.538  -6.273  1.00 20.00    -0.385 OA
ENDROOT
BRANCH   5   7
HETATM    7  C9  UNL     1     -34.106  14.657  -4.180  1.00 20.00     0.007 C 
HETATM    8  C6  UNL     1     -32.672  14.129  -4.163  1.00 20.00     0.012 C 
HETATM    9  C7  UNL     1     -34.192  15.998  -3.453  1.00 20.00     0.012 C 
ENDBRANCH   5   7
BRANCH   4  10
HETATM   10  C8  UNL     1     -37.023  14.231  -4.910  1.00 20.00     0.121 C 
HETATM   11 CL11 UNL     1     -38.717  14.588  -5.280  1.00 20.00    -0.130 Cl
ENDBRANCH   4  10
TORSDOF 2
ENDMDL
MODEL 7
REMARK VINA RESULT:      -4.1     11.364     12.187
REMARK  2 active torsions:
REMARK  status: ('A' for Active; 'I' for Inactive)
REMARK    1  A    between atoms: C4_4  and  C8_8 
REMARK    2  A    between atoms: C5_5  and  C9_9 
ROOT
HETATM    1  C1  UNL     1     -36.582  14.542  -6.257  1.00 20.00     0.027 C 
HETATM    2  C2  UNL     1     -36.015  13.613  -5.186  1.00 20.00     0.010 C 
HETATM    3  C3  UNL     1     -37.031  15.862  -5.648  1.00 20.00     0.168 C 
HETATM    4  C4  UNL     1     -34.964  14.319  -4.314  1.00 20.00     0.029 C 
HETATM    5  C5  UNL     1     -35.551  15.652  -3.803  1.00 20.00     0.130 C 
HETATM    6  O10 UNL     1     -35.976  16.468  -4.901  1.00 20.00    -0.385 OA
ENDROOT
BRANCH   5   7
HETATM    7  C9  UNL     1     -34.568  16.468  -2.971  1.00 20.00     0.007 C 
HETATM    8  C6  UNL     1     -34.196  17.763  -3.691  1.00 20.00     0.012 C 
HETATM    9  C7  UNL     1     -35.153  16.771  -1.592  1.00 20.00     0.012 C 
ENDBRANCH   5   7
BRANCH   4  10
HETATM   10  C8  UNL     1     -33.654  14.497  -5.092  1.00 20.00     0.121 C 
HETATM   11 CL11 UNL     1     -32.292  13.929  -4.115  1.00 20.00    -0.130 Cl
ENDBRANCH   4  10
TORSDOF 2
ENDMDL
MODEL 8
REMARK VINA RESULT:      -3.9     11.511     12.353
REMARK  2 active torsions:
REMARK  status: ('A' for Active; 'I' for Inactive)
REMARK    1  A    between atoms: C4_4  and  C8_8 
REMARK    2  A    between atoms: C5_5  and  C9_9 
ROOT
HETATM    1  C1  UNL     1     -36.101  14.538  -5.086  1.00 20.00     0.027 C 
HETATM    2  C2  UNL     1     -34.831  14.286  -4.277  1.00 20.00     0.010 C 
HETATM    3  C3  UNL     1     -37.158  15.226  -4.235  1.00 20.00     0.168 C 
HETATM    4  C4  UNL     1     -34.357  15.553  -3.546  1.00 20.00     0.029 C 
HETATM    5  C5  UNL     1     -35.543  16.152  -2.762  1.00 20.00     0.130 C 
HETATM    6  O10 UNL     1     -36.644  16.417  -3.640  1.00 20.00    -0.385 OA
ENDROOT
BRANCH   5   7
HETATM    7  C9  UNL     1     -35.201  17.452  -2.042  1.00 20.00     0.007 C 
HETATM    8  C6  UNL     1     -36.104  18.588  -2.520  1.00 20.00     0.012 C 
HETATM    9  C7  UNL     1     -35.316  17.276  -0.529  1.00 20.00     0.012 C 
ENDBRANCH   5   7
BRANCH   4  10
HETATM   10  C8  UNL     1     -33.730  16.541  -4.538  1.00 20.00     0.121 C 
HETATM   11 CL11 UNL     1     -32.900  15.655  -5.826  1.00 20.00    -0.130 Cl
ENDBRANCH   4  10
TORSDOF 2
ENDMDL
MODEL 9
REMARK VINA RESULT:      -3.9     11.461     12.598
REMARK  2 active torsions:
REMARK  status: ('A' for Active; 'I' for Inactive)
REMARK    1  A    between atoms: C4_4  and  C8_8 
REMARK    2  A    between atoms: C5_5  and  C9_9 
ROOT
HETATM    1  C1  UNL     1     -32.915  15.525  -5.412  1.00 20.00     0.027 C 
HETATM    2  C2  UNL     1     -33.405  14.807  -4.157  1.00 20.00     0.010 C 
HETATM    3  C3  UNL     1     -34.002  15.560  -6.476  1.00 20.00     0.168 C 
HETATM    4  C4  UNL     1     -34.765  15.347  -3.683  1.00 20.00     0.029 C 
HETATM    5  C5  UNL     1     -35.743  15.356  -4.875  1.00 20.00     0.130 C 
HETATM    6  O10 UNL     1     -35.208  16.123  -5.961  1.00 20.00    -0.385 OA
ENDROOT
BRANCH   5   7
HETATM    7  C9  UNL     1     -37.113  15.931  -4.532  1.00 20.00     0.007 C 
HETATM    8  C6  UNL     1     -37.431  17.135  -5.418  1.00 20.00     0.012 C 
HETATM    9  C7  UNL     1     -38.196  14.862  -4.672  1.00 20.00     0.012 C 
ENDBRANCH   5   7
BRANCH   4  10
HETATM   10  C8  UNL     1     -34.596  16.727  -3.032  1.00 20.00     0.121 C 
HETATM   11 CL11 UNL     1     -35.305  16.718  -1.410  1.00 20.00    -0.130 Cl
ENDBRANCH   4  10
TORSDOF 2
ENDMDL
