MODEL 1
REMARK VINA RESULT:      -6.6      0.000      0.000
REMARK  2 active torsions:
REMARK  status: ('A' for Active; 'I' for Inactive)
REMARK    1  A    between atoms: C3_3  and  C7_7 
REMARK    2  A    between atoms: C4_4  and  C9_9 
ROOT
HETATM    1  C1  UNL     1     -34.637   4.809   5.490  1.00 20.00    -0.003 C 
HETATM    2  C2  UNL     1     -34.362   4.392   4.249  1.00 20.00     0.131 C 
HETATM    3  C5  UNL     1     -34.372   6.217   5.922  1.00 20.00     0.032 C 
HETATM    4  C6  UNL     1     -34.098   7.107   4.712  1.00 20.00     0.040 C 
HETATM    5  C7  UNL     1     -33.206   6.369   3.718  1.00 20.00     0.151 C 
HETATM    6  O10 UNL     1     -33.780   5.141   3.260  1.00 20.00    -0.354 OA
ENDROOT
BRANCH   5   7
HETATM    7  C3  UNL     1     -33.023   7.175   2.473  1.00 20.00     0.009 C 
HETATM    8  C4  UNL     1     -32.122   8.151   2.251  1.00 20.00    -0.071 C 
HETATM    9  C8  UNL     1     -31.145   8.542   3.329  1.00 20.00     0.044 C 
BRANCH   8  10
HETATM   10  C9  UNL     1     -32.025   8.946   0.979  1.00 20.00     0.148 C 
HETATM   11 CL11 UNL     1     -32.838  10.517   1.165  1.00 20.00    -0.126 Cl
ENDBRANCH   8  10
ENDBRANCH   5   7
TORSDOF 2
ENDMDL
MODEL 2
REMARK VINA RESULT:      -5.8      0.982      1.568
REMARK  2 active torsions:
REMARK  status: ('A' for Active; 'I' for Inactive)
REMARK    1  A    between atoms: C3_3  and  C7_7 
REMARK    2  A    between atoms: C4_4  and  C9_9 
ROOT
HETATM    1  C1  UNL     1     -34.438   5.146   5.713  1.00 20.00    -0.003 C 
HETATM    2  C2  UNL     1     -34.249   6.469   5.649  1.00 20.00     0.131 C 
HETATM    3  C5  UNL     1     -34.330   4.277   4.500  1.00 20.00     0.032 C 
HETATM    4  C6  UNL     1     -33.670   5.038   3.352  1.00 20.00     0.040 C 
HETATM    5  C7  UNL     1     -34.211   6.464   3.297  1.00 20.00     0.151 C 
HETATM    6  O10 UNL     1     -33.991   7.189   4.511  1.00 20.00    -0.354 OA
ENDROOT
BRANCH   5   7
HETATM    7  C3  UNL     1     -33.493   7.262   2.258  1.00 20.00     0.009 C 
HETATM    8  C4  UNL     1     -32.355   7.965   2.405  1.00 20.00    -0.071 C 
HETATM    9  C8  UNL     1     -31.655   8.008   3.738  1.00 20.00     0.044 C 
BRANCH   8  10
HETATM   10  C9  UNL     1     -31.711   8.779   1.317  1.00 20.00     0.148 C 
HETATM   11 CL11 UNL     1     -32.624  10.280   1.041  1.00 20.00    -0.126 Cl
ENDBRANCH   8  10
ENDBRANCH   5   7
TORSDOF 2
ENDMDL
MODEL 3
REMARK VINA RESULT:      -5.5      1.574      2.046
REMARK  2 active torsions:
REMARK  status: ('A' for Active; 'I' for Inactive)
REMARK    1  A    between atoms: C3_3  and  C7_7 
REMARK    2  A    between atoms: C4_4  and  C9_9 
ROOT
HETATM    1  C1  UNL     1     -34.375   6.191   5.913  1.00 20.00    -0.003 C 
HETATM    2  C2  UNL     1     -33.457   7.160   5.821  1.00 20.00     0.131 C 
HETATM    3  C5  UNL     1     -34.894   5.484   4.700  1.00 20.00     0.032 C 
HETATM    4  C6  UNL     1     -34.014   5.781   3.488  1.00 20.00     0.040 C 
HETATM    5  C7  UNL     1     -33.626   7.257   3.478  1.00 20.00     0.151 C 
HETATM    6  O10 UNL     1     -32.924   7.656   4.660  1.00 20.00    -0.354 OA
ENDROOT
BRANCH   5   7
HETATM    7  C3  UNL     1     -32.667   7.544   2.368  1.00 20.00     0.009 C 
HETATM    8  C4  UNL     1     -32.535   8.690   1.674  1.00 20.00    -0.071 C 
HETATM    9  C8  UNL     1     -33.414   9.873   1.986  1.00 20.00     0.044 C 
BRANCH   8  10
HETATM   10  C9  UNL     1     -31.569   8.891   0.539  1.00 20.00     0.148 C 
HETATM   11 CL11 UNL     1     -32.441   9.006  -1.006  1.00 20.00    -0.126 Cl
ENDBRANCH   8  10
ENDBRANCH   5   7
TORSDOF 2
ENDMDL
MODEL 4
REMARK VINA RESULT:      -4.6      1.146      1.925
REMARK  2 active torsions:
REMARK  status: ('A' for Active; 'I' for Inactive)
REMARK    1  A    between atoms: C3_3  and  C7_7 
REMARK    2  A    between atoms: C4_4  and  C9_9 
ROOT
HETATM    1  C1  UNL     1     -34.675   4.910   5.574  1.00 20.00    -0.003 C 
HETATM    2  C2  UNL     1     -34.339   6.154   5.936  1.00 20.00     0.131 C 
HETATM    3  C5  UNL     1     -34.370   4.380   4.209  1.00 20.00     0.032 C 
HETATM    4  C6  UNL     1     -33.379   5.291   3.488  1.00 20.00     0.040 C 
HETATM    5  C7  UNL     1     -33.740   6.752   3.742  1.00 20.00     0.151 C 
HETATM    6  O10 UNL     1     -33.743   7.091   5.133  1.00 20.00    -0.354 OA
ENDROOT
BRANCH   5   7
HETATM    7  C3  UNL     1     -32.715   7.661   3.145  1.00 20.00     0.009 C 
HETATM    8  C4  UNL     1     -32.660   8.118   1.880  1.00 20.00    -0.071 C 
HETATM    9  C8  UNL     1     -33.714   7.717   0.881  1.00 20.00     0.044 C 
BRANCH   8  10
HETATM   10  C9  UNL     1     -31.569   9.003   1.342  1.00 20.00     0.148 C 
HETATM   11 CL11 UNL     1     -32.257  10.499   0.672  1.00 20.00    -0.126 Cl
ENDBRANCH   8  10
ENDBRANCH   5   7
TORSDOF 2
ENDMDL
MODEL 5
REMARK VINA RESULT:      -4.5      2.838      5.199
REMARK  2 active torsions:
REMARK  status: ('A' for Active; 'I' for Inactive)
REMARK    1  A    between atoms: C3_3  and  C7_7 
REMARK    2  A    between atoms: C4_4  and  C9_9 
ROOT
HETATM    1  C1  UNL     1     -31.839   9.508   0.099  1.00 20.00    -0.003 C 
HETATM    2  C2  UNL     1     -31.105   8.671   0.841  1.00 20.00     0.131 C 
HETATM    3  C5  UNL     1     -33.222   9.910   0.505  1.00 20.00     0.032 C 
HETATM    4  C6  UNL     1     -33.489   9.524   1.958  1.00 20.00     0.040 C 
HETATM    5  C7  UNL     1     -32.920   8.135   2.237  1.00 20.00     0.151 C 
HETATM    6  O10 UNL     1     -31.511   8.052   1.994  1.00 20.00    -0.354 OA
ENDROOT
BRANCH   5   7
HETATM    7  C3  UNL     1     -33.063   7.787   3.683  1.00 20.00     0.009 C 
HETATM    8  C4  UNL     1     -33.891   6.877   4.229  1.00 20.00    -0.071 C 
HETATM    9  C8  UNL     1     -34.816   6.070   3.356  1.00 20.00     0.044 C 
BRANCH   8  10
HETATM   10  C9  UNL     1     -34.007   6.609   5.704  1.00 20.00     0.148 C 
HETATM   11 CL11 UNL     1     -34.617   4.963   5.991  1.00 20.00    -0.126 Cl
ENDBRANCH   8  10
ENDBRANCH   5   7
TORSDOF 2
ENDMDL
MODEL 6
REMARK VINA RESULT:      -4.5      2.722      5.093
REMARK  2 active torsions:
REMARK  status: ('A' for Active; 'I' for Inactive)
REMARK    1  A    between atoms: C3_3  and  C7_7 
REMARK    2  A    between atoms: C4_4  and  C9_9 
ROOT
HETATM    1  C1  UNL     1     -32.107   9.990   0.825  1.00 20.00    -0.003 C 
HETATM    2  C2  UNL     1     -33.239  10.078   1.533  1.00 20.00     0.131 C 
HETATM    3  C5  UNL     1     -31.267   8.752   0.838  1.00 20.00     0.032 C 
HETATM    4  C6  UNL     1     -32.038   7.586   1.452  1.00 20.00     0.040 C 
HETATM    5  C7  UNL     1     -32.816   8.067   2.675  1.00 20.00     0.151 C 
HETATM    6  O10 UNL     1     -33.741   9.115   2.369  1.00 20.00    -0.354 OA
ENDROOT
BRANCH   5   7
HETATM    7  C3  UNL     1     -33.672   6.971   3.221  1.00 20.00     0.009 C 
HETATM    8  C4  UNL     1     -33.958   6.718   4.512  1.00 20.00    -0.071 C 
HETATM    9  C8  UNL     1     -33.392   7.593   5.600  1.00 20.00     0.044 C 
BRANCH   8  10
HETATM   10  C9  UNL     1     -34.799   5.567   4.988  1.00 20.00     0.148 C 
HETATM   11 CL11 UNL     1     -34.195   4.036   4.316  1.00 20.00    -0.126 Cl
ENDBRANCH   8  10
ENDBRANCH   5   7
TORSDOF 2
ENDMDL
MODEL 7
REMARK VINA RESULT:      -4.3     11.330     12.276
REMARK  2 active torsions:
REMARK  status: ('A' for Active; 'I' for Inactive)
REMARK    1  A    between atoms: C3_3  and  C7_7 
REMARK    2  A    between atoms: C4_4  and  C9_9 
ROOT
HETATM    1  C1  UNL     1     -33.307  15.847  -5.849  1.00 20.00    -0.003 C 
HETATM    2  C2  UNL     1     -33.668  17.053  -5.393  1.00 20.00     0.131 C 
HETATM    3  C5  UNL     1     -33.469  14.613  -5.019  1.00 20.00     0.032 C 
HETATM    4  C6  UNL     1     -34.367  14.889  -3.816  1.00 20.00     0.040 C 
HETATM    5  C7  UNL     1     -34.021  16.247  -3.212  1.00 20.00     0.151 C 
HETATM    6  O10 UNL     1     -34.164  17.324  -4.145  1.00 20.00    -0.354 OA
ENDROOT
BRANCH   5   7
HETATM    7  C3  UNL     1     -34.967  16.591  -2.108  1.00 20.00     0.009 C 
HETATM    8  C4  UNL     1     -34.723  17.355  -1.026  1.00 20.00    -0.071 C 
HETATM    9  C8  UNL     1     -33.365  17.976  -0.825  1.00 20.00     0.044 C 
BRANCH   8  10
HETATM   10  C9  UNL     1     -35.719  17.624   0.067  1.00 20.00     0.148 C 
HETATM   11 CL11 UNL     1     -34.884  18.052   1.577  1.00 20.00    -0.126 Cl
ENDBRANCH   8  10
ENDBRANCH   5   7
TORSDOF 2
ENDMDL
MODEL 8
REMARK VINA RESULT:      -4.3     11.160     11.835
REMARK  2 active torsions:
REMARK  status: ('A' for Active; 'I' for Inactive)
REMARK    1  A    between atoms: C3_3  and  C7_7 
REMARK    2  A    between atoms: C4_4  and  C9_9 
ROOT
HETATM    1  C1  UNL     1     -33.646  18.355   0.026  1.00 20.00    -0.003 C 
HETATM    2  C2  UNL     1     -34.843  17.758  -0.024  1.00 20.00     0.131 C 
HETATM    3  C5  UNL     1     -32.688  18.292  -1.121  1.00 20.00     0.032 C 
HETATM    4  C6  UNL     1     -33.389  17.783  -2.379  1.00 20.00     0.040 C 
HETATM    5  C7  UNL     1     -34.322  16.630  -2.021  1.00 20.00     0.151 C 
HETATM    6  O10 UNL     1     -35.318  16.998  -1.061  1.00 20.00    -0.354 OA
ENDROOT
BRANCH   5   7
HETATM    7  C3  UNL     1     -35.108  16.196  -3.216  1.00 20.00     0.009 C 
HETATM    8  C4  UNL     1     -34.728  15.336  -4.179  1.00 20.00    -0.071 C 
HETATM    9  C8  UNL     1     -33.369  14.687  -4.126  1.00 20.00     0.044 C 
BRANCH   8  10
HETATM   10  C9  UNL     1     -35.563  14.978  -5.377  1.00 20.00     0.148 C 
HETATM   11 CL11 UNL     1     -36.045  13.267  -5.310  1.00 20.00    -0.126 Cl
ENDBRANCH   8  10
ENDBRANCH   5   7
TORSDOF 2
ENDMDL
MODEL 9
REMARK VINA RESULT:      -4.3     11.153     11.723
REMARK  2 active torsions:
REMARK  status: ('A' for Active; 'I' for Inactive)
REMARK    1  A    between atoms: C3_3  and  C7_7 
REMARK    2  A    between atoms: C4_4  and  C9_9 
ROOT
HETATM    1  C1  UNL     1     -36.788  14.014  -5.310  1.00 20.00    -0.003 C 
HETATM    2  C2  UNL     1     -35.565  13.631  -4.925  1.00 20.00     0.131 C 
HETATM    3  C5  UNL     1     -37.351  15.346  -4.928  1.00 20.00     0.032 C 
HETATM    4  C6  UNL     1     -36.253  16.256  -4.379  1.00 20.00     0.040 C 
HETATM    5  C7  UNL     1     -35.330  15.458  -3.462  1.00 20.00     0.151 C 
HETATM    6  O10 UNL     1     -34.714  14.347  -4.122  1.00 20.00    -0.354 OA
ENDROOT
BRANCH   5   7
HETATM    7  C3  UNL     1     -34.180  16.298  -3.010  1.00 20.00     0.009 C 
HETATM    8  C4  UNL     1     -34.096  17.037  -1.888  1.00 20.00    -0.071 C 
HETATM    9  C8  UNL     1     -35.247  17.080  -0.917  1.00 20.00     0.044 C 
BRANCH   8  10
HETATM   10  C9  UNL     1     -32.914  17.891  -1.519  1.00 20.00     0.148 C 
HETATM   11 CL11 UNL     1     -33.109  18.545   0.123  1.00 20.00    -0.126 Cl
ENDBRANCH   8  10
ENDBRANCH   5   7
TORSDOF 2
ENDMDL
