MODEL 1
REMARK VINA RESULT:      -5.1      0.000      0.000
REMARK  3 active torsions:
REMARK  status: ('A' for Active; 'I' for Inactive)
REMARK    1  A    between atoms: C2_2  and  C6_6 
REMARK    2  A    between atoms: C3_3  and  O8_8 
REMARK    3  A    between atoms: C6_6  and  C7_7 
ROOT
HETATM    1  C1  UNL     1     -33.448   5.232   3.183  1.00 20.00     0.045 A 
HETATM    2  C2  UNL     1     -33.602   6.715   2.961  1.00 20.00     0.022 A 
HETATM    3  C3  UNL     1     -34.411   6.020   4.036  1.00 20.00     0.058 A 
HETATM    4  C4  UNL     1     -34.134   6.212   5.490  1.00 20.00     0.046 C 
ENDROOT
BRANCH   2   5
HETATM    5  C6  UNL     1     -32.482   7.643   3.280  1.00 20.00     0.007 C 
BRANCH   5   6
HETATM    6  C7  UNL     1     -31.807   8.210   2.019  1.00 20.00    -0.004 C 
HETATM    7  C5  UNL     1     -32.559   9.398   1.440  1.00 20.00     0.005 C 
ENDBRANCH   5   6
ENDBRANCH   2   5
BRANCH   3   8
HETATM    8  O8  UNL     1     -35.806   5.838   3.738  1.00 20.00    -0.390 OA
HETATM    9  H22 UNL     1     -36.054   4.997   4.145  1.00 20.00     0.210 HD
ENDBRANCH   3   8
TORSDOF 3
ENDMDL
MODEL 2
REMARK VINA RESULT:      -5.0      1.254      1.717
REMARK  3 active torsions:
REMARK  status: ('A' for Active; 'I' for Inactive)
REMARK    1  A    between atoms: C2_2  and  C6_6 
REMARK    2  A    between atoms: C3_3  and  O8_8 
REMARK    3  A    between atoms: C6_6  and  C7_7 
ROOT
HETATM    1  C1  UNL     1     -35.408   6.060   3.634  1.00 20.00     0.045 A 
HETATM    2  C2  UNL     1     -34.032   6.550   4.004  1.00 20.00     0.022 A 
HETATM    3  C3  UNL     1     -34.562   5.260   4.593  1.00 20.00     0.058 A 
HETATM    4  C4  UNL     1     -34.036   3.923   4.188  1.00 20.00     0.046 C 
ENDROOT
BRANCH   2   5
HETATM    5  C6  UNL     1     -32.944   6.574   2.988  1.00 20.00     0.007 C 
BRANCH   5   6
HETATM    6  C7  UNL     1     -32.089   7.852   3.069  1.00 20.00    -0.004 C 
HETATM    7  C5  UNL     1     -32.072   8.626   1.761  1.00 20.00     0.005 C 
ENDBRANCH   5   6
ENDBRANCH   2   5
BRANCH   3   8
HETATM    8  O8  UNL     1     -34.951   5.327   5.977  1.00 20.00    -0.390 OA
HETATM    9  H22 UNL     1     -34.127   5.378   6.478  1.00 20.00     0.210 HD
ENDBRANCH   3   8
TORSDOF 3
ENDMDL
MODEL 3
REMARK VINA RESULT:      -4.4      1.752      2.607
REMARK  3 active torsions:
REMARK  status: ('A' for Active; 'I' for Inactive)
REMARK    1  A    between atoms: C2_2  and  C6_6 
REMARK    2  A    between atoms: C3_3  and  O8_8 
REMARK    3  A    between atoms: C6_6  and  C7_7 
ROOT
HETATM    1  C1  UNL     1     -31.406   7.964   3.407  1.00 20.00     0.045 A 
HETATM    2  C2  UNL     1     -32.159   8.278   2.141  1.00 20.00     0.022 A 
HETATM    3  C3  UNL     1     -32.701   7.249   3.111  1.00 20.00     0.058 A 
HETATM    4  C4  UNL     1     -33.904   7.507   3.956  1.00 20.00     0.046 C 
ENDROOT
BRANCH   2   5
HETATM    5  C6  UNL     1     -32.795   9.613   1.957  1.00 20.00     0.007 C 
BRANCH   5   6
HETATM    6  C7  UNL     1     -32.604  10.166   0.533  1.00 20.00    -0.004 C 
HETATM    7  C5  UNL     1     -33.046   9.182  -0.538  1.00 20.00     0.005 C 
ENDBRANCH   5   6
ENDBRANCH   2   5
BRANCH   3   8
HETATM    8  O8  UNL     1     -32.579   5.879   2.690  1.00 20.00    -0.390 OA
HETATM    9  H22 UNL     1     -31.962   5.468   3.309  1.00 20.00     0.210 HD
ENDBRANCH   3   8
TORSDOF 3
ENDMDL
MODEL 4
REMARK VINA RESULT:      -4.4      2.164      4.172
REMARK  3 active torsions:
REMARK  status: ('A' for Active; 'I' for Inactive)
REMARK    1  A    between atoms: C2_2  and  C6_6 
REMARK    2  A    between atoms: C3_3  and  O8_8 
REMARK    3  A    between atoms: C6_6  and  C7_7 
ROOT
HETATM    1  C1  UNL     1     -31.512   8.406   3.291  1.00 20.00     0.045 A 
HETATM    2  C2  UNL     1     -32.855   7.843   2.906  1.00 20.00     0.022 A 
HETATM    3  C3  UNL     1     -32.118   8.764   1.958  1.00 20.00     0.058 A 
HETATM    4  C4  UNL     1     -31.489   8.273   0.696  1.00 20.00     0.046 C 
ENDROOT
BRANCH   2   5
HETATM    5  C6  UNL     1     -33.011   6.385   2.641  1.00 20.00     0.007 C 
BRANCH   5   6
HETATM    6  C7  UNL     1     -34.263   5.794   3.314  1.00 20.00    -0.004 C 
HETATM    7  C5  UNL     1     -34.376   6.185   4.779  1.00 20.00     0.005 C 
ENDBRANCH   5   6
ENDBRANCH   2   5
BRANCH   3   8
HETATM    8  O8  UNL     1     -32.653  10.095   1.850  1.00 20.00    -0.390 OA
HETATM    9  H22 UNL     1     -31.927  10.689   2.080  1.00 20.00     0.210 HD
ENDBRANCH   3   8
TORSDOF 3
ENDMDL
MODEL 5
REMARK VINA RESULT:      -4.1      2.169      4.042
REMARK  3 active torsions:
REMARK  status: ('A' for Active; 'I' for Inactive)
REMARK    1  A    between atoms: C2_2  and  C6_6 
REMARK    2  A    between atoms: C3_3  and  O8_8 
REMARK    3  A    between atoms: C6_6  and  C7_7 
ROOT
HETATM    1  C1  UNL     1     -32.419   6.293   2.727  1.00 20.00     0.045 A 
HETATM    2  C2  UNL     1     -33.052   6.995   3.901  1.00 20.00     0.022 A 
HETATM    3  C3  UNL     1     -32.325   7.794   2.840  1.00 20.00     0.058 A 
HETATM    4  C4  UNL     1     -33.046   8.663   1.864  1.00 20.00     0.046 C 
ENDROOT
BRANCH   2   5
HETATM    5  C6  UNL     1     -34.534   7.027   4.047  1.00 20.00     0.007 C 
BRANCH   5   6
HETATM    6  C7  UNL     1     -35.138   5.625   4.245  1.00 20.00    -0.004 C 
HETATM    7  C5  UNL     1     -34.650   4.956   5.521  1.00 20.00     0.005 C 
ENDBRANCH   5   6
ENDBRANCH   2   5
BRANCH   3   8
HETATM    8  O8  UNL     1     -31.042   8.314   3.231  1.00 20.00    -0.390 OA
HETATM    9  H22 UNL     1     -31.118   8.520   4.172  1.00 20.00     0.210 HD
ENDBRANCH   3   8
TORSDOF 3
ENDMDL
MODEL 6
REMARK VINA RESULT:      -4.1      1.434      3.479
REMARK  3 active torsions:
REMARK  status: ('A' for Active; 'I' for Inactive)
REMARK    1  A    between atoms: C2_2  and  C6_6 
REMARK    2  A    between atoms: C3_3  and  O8_8 
REMARK    3  A    between atoms: C6_6  and  C7_7 
ROOT
HETATM    1  C1  UNL     1     -32.736   7.521   2.576  1.00 20.00     0.045 A 
HETATM    2  C2  UNL     1     -33.725   7.297   3.690  1.00 20.00     0.022 A 
HETATM    3  C3  UNL     1     -33.534   6.242   2.621  1.00 20.00     0.058 A 
HETATM    4  C4  UNL     1     -32.848   4.945   2.896  1.00 20.00     0.046 C 
ENDROOT
BRANCH   2   5
HETATM    5  C6  UNL     1     -33.251   7.110   5.090  1.00 20.00     0.007 C 
BRANCH   5   6
HETATM    6  C7  UNL     1     -34.353   6.569   6.018  1.00 20.00    -0.004 C 
HETATM    7  C5  UNL     1     -34.622   5.089   5.802  1.00 20.00     0.005 C 
ENDBRANCH   5   6
ENDBRANCH   2   5
BRANCH   3   8
HETATM    8  O8  UNL     1     -34.601   6.134   1.662  1.00 20.00    -0.390 OA
HETATM    9  H22 UNL     1     -34.290   5.509   0.994  1.00 20.00     0.210 HD
ENDBRANCH   3   8
TORSDOF 3
ENDMDL
MODEL 7
REMARK VINA RESULT:      -4.0     10.723     11.452
REMARK  3 active torsions:
REMARK  status: ('A' for Active; 'I' for Inactive)
REMARK    1  A    between atoms: C2_2  and  C6_6 
REMARK    2  A    between atoms: C3_3  and  O8_8 
REMARK    3  A    between atoms: C6_6  and  C7_7 
ROOT
HETATM    1  C1  UNL     1     -35.972  15.074  -4.540  1.00 20.00     0.045 A 
HETATM    2  C2  UNL     1     -34.673  14.526  -4.007  1.00 20.00     0.022 A 
HETATM    3  C3  UNL     1     -35.315  13.905  -5.230  1.00 20.00     0.058 A 
HETATM    4  C4  UNL     1     -34.746  14.072  -6.600  1.00 20.00     0.046 C 
ENDROOT
BRANCH   2   5
HETATM    5  C6  UNL     1     -33.426  15.337  -4.086  1.00 20.00     0.007 C 
BRANCH   5   6
HETATM    6  C7  UNL     1     -33.648  16.802  -3.670  1.00 20.00    -0.004 C 
HETATM    7  C5  UNL     1     -33.705  16.977  -2.161  1.00 20.00     0.005 C 
ENDBRANCH   5   6
ENDBRANCH   2   5
BRANCH   3   8
HETATM    8  O8  UNL     1     -35.934  12.624  -5.019  1.00 20.00    -0.390 OA
HETATM    9  H22 UNL     1     -35.512  12.023  -5.647  1.00 20.00     0.210 HD
ENDBRANCH   3   8
TORSDOF 3
ENDMDL
MODEL 8
REMARK VINA RESULT:      -3.9     10.812     11.510
REMARK  3 active torsions:
REMARK  status: ('A' for Active; 'I' for Inactive)
REMARK    1  A    between atoms: C2_2  and  C6_6 
REMARK    2  A    between atoms: C3_3  and  O8_8 
REMARK    3  A    between atoms: C6_6  and  C7_7 
ROOT
HETATM    1  C1  UNL     1     -34.954  14.045  -4.961  1.00 20.00     0.045 A 
HETATM    2  C2  UNL     1     -34.634  14.806  -3.701  1.00 20.00     0.022 A 
HETATM    3  C3  UNL     1     -33.575  14.624  -4.768  1.00 20.00     0.058 A 
HETATM    4  C4  UNL     1     -33.112  15.751  -5.630  1.00 20.00     0.046 C 
ENDROOT
BRANCH   2   5
HETATM    5  C6  UNL     1     -35.279  16.122  -3.433  1.00 20.00     0.007 C 
BRANCH   5   6
HETATM    6  C7  UNL     1     -34.935  16.674  -2.039  1.00 20.00    -0.004 C 
HETATM    7  C5  UNL     1     -33.501  17.171  -1.947  1.00 20.00     0.005 C 
ENDBRANCH   5   6
ENDBRANCH   2   5
BRANCH   3   8
HETATM    8  O8  UNL     1     -32.537  13.680  -4.453  1.00 20.00    -0.390 OA
HETATM    9  H22 UNL     1     -31.744  14.207  -4.287  1.00 20.00     0.210 HD
ENDBRANCH   3   8
TORSDOF 3
ENDMDL
MODEL 9
REMARK VINA RESULT:      -3.9      2.385      4.547
REMARK  3 active torsions:
REMARK  status: ('A' for Active; 'I' for Inactive)
REMARK    1  A    between atoms: C2_2  and  C6_6 
REMARK    2  A    between atoms: C3_3  and  O8_8 
REMARK    3  A    between atoms: C6_6  and  C7_7 
ROOT
HETATM    1  C1  UNL     1     -32.567  10.229   1.448  1.00 20.00     0.045 A 
HETATM    2  C2  UNL     1     -33.066   8.854   1.808  1.00 20.00     0.022 A 
HETATM    3  C3  UNL     1     -32.448   9.106   0.449  1.00 20.00     0.058 A 
HETATM    4  C4  UNL     1     -31.102   8.580   0.075  1.00 20.00     0.046 C 
ENDROOT
BRANCH   2   5
HETATM    5  C6  UNL     1     -32.376   8.057   2.861  1.00 20.00     0.007 C 
BRANCH   5   6
HETATM    6  C7  UNL     1     -33.255   6.918   3.408  1.00 20.00    -0.004 C 
HETATM    7  C5  UNL     1     -33.691   7.157   4.846  1.00 20.00     0.005 C 
ENDBRANCH   5   6
ENDBRANCH   2   5
BRANCH   3   8
HETATM    8  O8  UNL     1     -33.373   9.145  -0.652  1.00 20.00    -0.390 OA
HETATM    9  H22 UNL     1     -32.985   8.589  -1.340  1.00 20.00     0.210 HD
ENDBRANCH   3   8
TORSDOF 3
ENDMDL
