MODEL 1
REMARK VINA RESULT:      -5.6      0.000      0.000
REMARK  2 active torsions:
REMARK  status: ('A' for Active; 'I' for Inactive)
REMARK    1  A    between atoms: C4_4  and  C5_5 
REMARK    2  A    between atoms: C6_6  and  C7_7 
ROOT
HETATM    1  C1  UNL     1     -34.165   6.686   5.091  1.00 20.00     0.038 A 
HETATM    2  C2  UNL     1     -34.512   5.534   5.757  1.00 20.00     0.142 A 
HETATM    3  C3  UNL     1     -34.064   4.937   3.710  1.00 20.00     0.152 A 
HETATM    4  C4  UNL     1     -33.873   6.298   3.761  1.00 20.00    -0.011 A 
HETATM    5  O10 UNL     1     -34.454   4.463   4.922  1.00 20.00    -0.334 OA
ENDROOT
BRANCH   4   6
HETATM    6  C5  UNL     1     -33.450   7.145   2.639  1.00 20.00     0.023 C 
HETATM    7  C7  UNL     1     -32.393   7.974   2.646  1.00 20.00    -0.024 C 
HETATM    8  C8  UNL     1     -31.409   8.189   3.755  1.00 20.00     0.051 C 
BRANCH   7   9
HETATM    9  C6  UNL     1     -32.170   8.743   1.392  1.00 20.00     0.265 C 
HETATM   10  O9  UNL     1     -32.520   9.910   1.253  1.00 20.00    -0.302 OA
ENDBRANCH   7   9
ENDBRANCH   4   6
TORSDOF 2
ENDMDL
MODEL 2
REMARK VINA RESULT:      -5.5      0.622      1.174
REMARK  2 active torsions:
REMARK  status: ('A' for Active; 'I' for Inactive)
REMARK    1  A    between atoms: C4_4  and  C5_5 
REMARK    2  A    between atoms: C6_6  and  C7_7 
ROOT
HETATM    1  C1  UNL     1     -34.135   4.967   3.797  1.00 20.00     0.038 A 
HETATM    2  C2  UNL     1     -34.501   4.663   5.087  1.00 20.00     0.142 A 
HETATM    3  C3  UNL     1     -34.099   6.804   5.062  1.00 20.00     0.152 A 
HETATM    4  C4  UNL     1     -33.875   6.359   3.781  1.00 20.00    -0.011 A 
HETATM    5  O10 UNL     1     -34.481   5.776   5.865  1.00 20.00    -0.334 OA
ENDROOT
BRANCH   4   6
HETATM    6  C5  UNL     1     -33.450   7.191   2.648  1.00 20.00     0.023 C 
HETATM    7  C7  UNL     1     -32.378   8.001   2.639  1.00 20.00    -0.024 C 
HETATM    8  C8  UNL     1     -31.379   8.206   3.737  1.00 20.00     0.051 C 
BRANCH   7   9
HETATM    9  C6  UNL     1     -32.154   8.759   1.378  1.00 20.00     0.265 C 
HETATM   10  O9  UNL     1     -32.475   9.934   1.239  1.00 20.00    -0.302 OA
ENDBRANCH   7   9
ENDBRANCH   4   6
TORSDOF 2
ENDMDL
MODEL 3
REMARK VINA RESULT:      -5.4      1.028      4.609
REMARK  2 active torsions:
REMARK  status: ('A' for Active; 'I' for Inactive)
REMARK    1  A    between atoms: C4_4  and  C5_5 
REMARK    2  A    between atoms: C6_6  and  C7_7 
ROOT
HETATM    1  C1  UNL     1     -33.139   8.241   1.696  1.00 20.00     0.038 A 
HETATM    2  C2  UNL     1     -32.169   9.214   1.662  1.00 20.00     0.142 A 
HETATM    3  C3  UNL     1     -31.756   8.011   3.431  1.00 20.00     0.152 A 
HETATM    4  C4  UNL     1     -32.870   7.458   2.845  1.00 20.00    -0.011 A 
HETATM    5  O10 UNL     1     -31.322   9.082   2.716  1.00 20.00    -0.334 OA
ENDROOT
BRANCH   4   6
HETATM    6  C5  UNL     1     -33.607   6.290   3.343  1.00 20.00     0.023 C 
HETATM    7  C7  UNL     1     -34.050   6.129   4.601  1.00 20.00    -0.024 C 
HETATM    8  C8  UNL     1     -33.930   7.093   5.742  1.00 20.00     0.051 C 
BRANCH   7   9
HETATM    9  C6  UNL     1     -34.763   4.852   4.874  1.00 20.00     0.265 C 
HETATM   10  O9  UNL     1     -34.441   3.785   4.364  1.00 20.00    -0.302 OA
ENDBRANCH   7   9
ENDBRANCH   4   6
TORSDOF 2
ENDMDL
MODEL 4
REMARK VINA RESULT:      -4.8      1.065      4.679
REMARK  2 active torsions:
REMARK  status: ('A' for Active; 'I' for Inactive)
REMARK    1  A    between atoms: C4_4  and  C5_5 
REMARK    2  A    between atoms: C6_6  and  C7_7 
ROOT
HETATM    1  C1  UNL     1     -33.233   8.293   1.831  1.00 20.00     0.038 A 
HETATM    2  C2  UNL     1     -32.156   9.082   1.504  1.00 20.00     0.142 A 
HETATM    3  C3  UNL     1     -31.652   8.126   3.396  1.00 20.00     0.152 A 
HETATM    4  C4  UNL     1     -32.905   7.671   3.060  1.00 20.00    -0.011 A 
HETATM    5  O10 UNL     1     -31.188   8.988   2.453  1.00 20.00    -0.334 OA
ENDROOT
BRANCH   4   6
HETATM    6  C5  UNL     1     -33.711   6.728   3.846  1.00 20.00     0.023 C 
HETATM    7  C7  UNL     1     -33.793   5.405   3.627  1.00 20.00    -0.024 C 
HETATM    8  C8  UNL     1     -33.073   4.606   2.584  1.00 20.00     0.051 C 
BRANCH   7   9
HETATM    9  C6  UNL     1     -34.687   4.654   4.549  1.00 20.00     0.265 C 
HETATM   10  O9  UNL     1     -34.716   4.851   5.759  1.00 20.00    -0.302 OA
ENDBRANCH   7   9
ENDBRANCH   4   6
TORSDOF 2
ENDMDL
MODEL 5
REMARK VINA RESULT:      -4.6     10.687     11.605
REMARK  2 active torsions:
REMARK  status: ('A' for Active; 'I' for Inactive)
REMARK    1  A    between atoms: C4_4  and  C5_5 
REMARK    2  A    between atoms: C6_6  and  C7_7 
ROOT
HETATM    1  C1  UNL     1     -35.856  15.537  -4.368  1.00 20.00     0.038 A 
HETATM    2  C2  UNL     1     -36.234  14.321  -4.886  1.00 20.00     0.142 A 
HETATM    3  C3  UNL     1     -34.238  14.031  -4.062  1.00 20.00     0.152 A 
HETATM    4  C4  UNL     1     -34.559  15.348  -3.831  1.00 20.00    -0.011 A 
HETATM    5  O10 UNL     1     -35.255  13.398  -4.704  1.00 20.00    -0.334 OA
ENDROOT
BRANCH   4   6
HETATM    6  C5  UNL     1     -33.700  16.333  -3.161  1.00 20.00     0.023 C 
HETATM    7  C7  UNL     1     -34.017  17.005  -2.041  1.00 20.00    -0.024 C 
HETATM    8  C8  UNL     1     -35.266  16.881  -1.224  1.00 20.00     0.051 C 
BRANCH   7   9
HETATM    9  C6  UNL     1     -32.988  17.963  -1.553  1.00 20.00     0.265 C 
HETATM   10  O9  UNL     1     -32.544  18.875  -2.243  1.00 20.00    -0.302 OA
ENDBRANCH   7   9
ENDBRANCH   4   6
TORSDOF 2
ENDMDL
MODEL 6
REMARK VINA RESULT:      -4.6     11.034     12.130
REMARK  2 active torsions:
REMARK  status: ('A' for Active; 'I' for Inactive)
REMARK    1  A    between atoms: C4_4  and  C5_5 
REMARK    2  A    between atoms: C6_6  and  C7_7 
ROOT
HETATM    1  C1  UNL     1     -33.967  17.127  -1.513  1.00 20.00     0.038 A 
HETATM    2  C2  UNL     1     -33.085  18.177  -1.412  1.00 20.00     0.142 A 
HETATM    3  C3  UNL     1     -33.477  17.921  -3.540  1.00 20.00     0.152 A 
HETATM    4  C4  UNL     1     -34.222  16.961  -2.896  1.00 20.00    -0.011 A 
HETATM    5  O10 UNL     1     -32.781  18.666  -2.642  1.00 20.00    -0.334 OA
ENDROOT
BRANCH   4   6
HETATM    6  C5  UNL     1     -35.096  15.977  -3.548  1.00 20.00     0.023 C 
HETATM    7  C7  UNL     1     -34.678  14.876  -4.195  1.00 20.00    -0.024 C 
HETATM    8  C8  UNL     1     -33.269  14.395  -4.364  1.00 20.00     0.051 C 
BRANCH   7   9
HETATM    9  C6  UNL     1     -35.751  14.033  -4.789  1.00 20.00     0.265 C 
HETATM   10  O9  UNL     1     -35.577  12.863  -5.115  1.00 20.00    -0.302 OA
ENDBRANCH   7   9
ENDBRANCH   4   6
TORSDOF 2
ENDMDL
MODEL 7
REMARK VINA RESULT:      -4.4     10.855     11.628
REMARK  2 active torsions:
REMARK  status: ('A' for Active; 'I' for Inactive)
REMARK    1  A    between atoms: C4_4  and  C5_5 
REMARK    2  A    between atoms: C6_6  and  C7_7 
ROOT
HETATM    1  C1  UNL     1     -33.470  17.181  -2.618  1.00 20.00     0.038 A 
HETATM    2  C2  UNL     1     -33.319  17.846  -1.424  1.00 20.00     0.142 A 
HETATM    3  C3  UNL     1     -35.243  16.829  -1.311  1.00 20.00     0.152 A 
HETATM    4  C4  UNL     1     -34.719  16.519  -2.544  1.00 20.00    -0.011 A 
HETATM    5  O10 UNL     1     -34.395  17.637  -0.622  1.00 20.00    -0.334 OA
ENDROOT
BRANCH   4   6
HETATM    6  C5  UNL     1     -35.360  15.670  -3.557  1.00 20.00     0.023 C 
HETATM    7  C7  UNL     1     -34.746  14.705  -4.262  1.00 20.00    -0.024 C 
HETATM    8  C8  UNL     1     -33.318  14.263  -4.155  1.00 20.00     0.051 C 
BRANCH   7   9
HETATM    9  C6  UNL     1     -35.600  13.983  -5.244  1.00 20.00     0.265 C 
HETATM   10  O9  UNL     1     -35.777  12.770  -5.209  1.00 20.00    -0.302 OA
ENDBRANCH   7   9
ENDBRANCH   4   6
TORSDOF 2
ENDMDL
MODEL 8
REMARK VINA RESULT:      -4.3      1.411      1.814
REMARK  2 active torsions:
REMARK  status: ('A' for Active; 'I' for Inactive)
REMARK    1  A    between atoms: C4_4  and  C5_5 
REMARK    2  A    between atoms: C6_6  and  C7_7 
ROOT
HETATM    1  C1  UNL     1     -32.830   7.846   4.871  1.00 20.00     0.038 A 
HETATM    2  C2  UNL     1     -33.725   7.233   5.715  1.00 20.00     0.142 A 
HETATM    3  C3  UNL     1     -34.135   6.444   3.726  1.00 20.00     0.152 A 
HETATM    4  C4  UNL     1     -33.095   7.332   3.578  1.00 20.00    -0.011 A 
HETATM    5  O10 UNL     1     -34.524   6.377   5.026  1.00 20.00    -0.334 OA
ENDROOT
BRANCH   4   6
HETATM    6  C5  UNL     1     -32.422   7.658   2.314  1.00 20.00     0.023 C 
HETATM    7  C7  UNL     1     -32.500   8.837   1.675  1.00 20.00    -0.024 C 
HETATM    8  C8  UNL     1     -33.238  10.066   2.111  1.00 20.00     0.051 C 
BRANCH   7   9
HETATM    9  C6  UNL     1     -31.739   8.929   0.399  1.00 20.00     0.265 C 
HETATM   10  O9  UNL     1     -32.282   9.021  -0.697  1.00 20.00    -0.302 OA
ENDBRANCH   7   9
ENDBRANCH   4   6
TORSDOF 2
ENDMDL
MODEL 9
REMARK VINA RESULT:      -4.3     11.490     12.120
REMARK  2 active torsions:
REMARK  status: ('A' for Active; 'I' for Inactive)
REMARK    1  A    between atoms: C4_4  and  C5_5 
REMARK    2  A    between atoms: C6_6  and  C7_7 
ROOT
HETATM    1  C1  UNL     1     -34.321  15.491  -3.551  1.00 20.00     0.038 A 
HETATM    2  C2  UNL     1     -35.475  15.188  -4.233  1.00 20.00     0.142 A 
HETATM    3  C3  UNL     1     -36.035  16.651  -2.718  1.00 20.00     0.152 A 
HETATM    4  C4  UNL     1     -34.684  16.442  -2.567  1.00 20.00    -0.011 A 
HETATM    5  O10 UNL     1     -36.525  15.891  -3.732  1.00 20.00    -0.334 OA
ENDROOT
BRANCH   4   6
HETATM    6  C5  UNL     1     -33.824  17.093  -1.570  1.00 20.00     0.023 C 
HETATM    7  C7  UNL     1     -33.140  18.233  -1.761  1.00 20.00    -0.024 C 
HETATM    8  C8  UNL     1     -33.127  19.097  -2.986  1.00 20.00     0.051 C 
BRANCH   7   9
HETATM    9  C6  UNL     1     -32.323  18.695  -0.606  1.00 20.00     0.265 C 
HETATM   10  O9  UNL     1     -31.189  18.284  -0.384  1.00 20.00    -0.302 OA
ENDBRANCH   7   9
ENDBRANCH   4   6
TORSDOF 2
ENDMDL
