MODEL 1
REMARK VINA RESULT:      -4.9      0.000      0.000
REMARK  2 active torsions:
REMARK  status: ('A' for Active; 'I' for Inactive)
REMARK    1  A    between atoms: C5_5  and  C7_7 
REMARK    2  A    between atoms: C7_7  and  C8_8 
ROOT
HETATM    1  C1  UNL     1     -33.166   5.477   2.680  1.00 20.00     0.066 C 
HETATM    2  C2  UNL     1     -34.182   7.261   4.044  1.00 20.00     0.048 C 
HETATM    3  C3  UNL     1     -33.013   7.518   4.972  1.00 20.00     0.169 C 
HETATM    4  C4  UNL     1     -33.503   6.911   2.735  1.00 20.00     0.123 C 
HETATM    5  C5  UNL     1     -32.239   7.772   2.777  1.00 20.00     0.139 C 
HETATM    6  N9  UNL     1     -32.899   4.348   2.637  1.00 20.00    -0.197 NA
HETATM    7  O10 UNL     1     -31.951   8.038   4.164  1.00 20.00    -0.384 OA
ENDROOT
BRANCH   5   8
HETATM    8  C7  UNL     1     -32.423   9.113   2.075  1.00 20.00     0.033 C 
BRANCH   8   9
HETATM    9  C8  UNL     1     -31.919   9.059   0.636  1.00 20.00    -0.002 C 
HETATM   10  C6  UNL     1     -33.012   9.442  -0.348  1.00 20.00     0.005 C 
ENDBRANCH   8   9
ENDBRANCH   5   8
TORSDOF 2
ENDMDL
MODEL 2
REMARK VINA RESULT:      -4.9      1.209      1.394
REMARK  2 active torsions:
REMARK  status: ('A' for Active; 'I' for Inactive)
REMARK    1  A    between atoms: C5_5  and  C7_7 
REMARK    2  A    between atoms: C7_7  and  C8_8 
ROOT
HETATM    1  C1  UNL     1     -34.228   4.893   3.995  1.00 20.00     0.066 C 
HETATM    2  C2  UNL     1     -34.544   7.237   4.690  1.00 20.00     0.048 C 
HETATM    3  C3  UNL     1     -33.141   7.506   5.192  1.00 20.00     0.169 C 
HETATM    4  C4  UNL     1     -34.312   6.290   3.530  1.00 20.00     0.123 C 
HETATM    5  C5  UNL     1     -32.967   6.767   2.978  1.00 20.00     0.139 C 
HETATM    6  N9  UNL     1     -34.160   3.794   4.361  1.00 20.00    -0.197 NA
HETATM    7  O10 UNL     1     -32.273   7.426   4.056  1.00 20.00    -0.384 OA
ENDROOT
BRANCH   5   8
HETATM    8  C7  UNL     1     -33.126   7.774   1.844  1.00 20.00     0.033 C 
BRANCH   8   9
HETATM    9  C8  UNL     1     -32.057   8.860   1.913  1.00 20.00    -0.002 C 
HETATM   10  C6  UNL     1     -32.485  10.106   1.155  1.00 20.00     0.005 C 
ENDBRANCH   8   9
ENDBRANCH   5   8
TORSDOF 2
ENDMDL
MODEL 3
REMARK VINA RESULT:      -4.7      2.340      4.129
REMARK  2 active torsions:
REMARK  status: ('A' for Active; 'I' for Inactive)
REMARK    1  A    between atoms: C5_5  and  C7_7 
REMARK    2  A    between atoms: C7_7  and  C8_8 
ROOT
HETATM    1  C1  UNL     1     -32.552   9.165   1.578  1.00 20.00     0.066 C 
HETATM    2  C2  UNL     1     -31.274   7.921   3.279  1.00 20.00     0.048 C 
HETATM    3  C3  UNL     1     -32.049   8.365   4.502  1.00 20.00     0.169 C 
HETATM    4  C4  UNL     1     -32.343   7.849   2.209  1.00 20.00     0.123 C 
HETATM    5  C5  UNL     1     -33.578   7.418   3.004  1.00 20.00     0.139 C 
HETATM    6  N9  UNL     1     -32.717  10.202   1.082  1.00 20.00    -0.197 NA
HETATM    7  O10 UNL     1     -33.371   7.831   4.369  1.00 20.00    -0.384 OA
ENDROOT
BRANCH   5   8
HETATM    8  C7  UNL     1     -33.775   5.907   3.000  1.00 20.00     0.033 C 
BRANCH   8   9
HETATM    9  C8  UNL     1     -34.877   5.490   3.970  1.00 20.00    -0.002 C 
HETATM   10  C6  UNL     1     -34.426   4.343   4.860  1.00 20.00     0.005 C 
ENDBRANCH   8   9
ENDBRANCH   5   8
TORSDOF 2
ENDMDL
MODEL 4
REMARK VINA RESULT:      -4.5     10.429     11.149
REMARK  2 active torsions:
REMARK  status: ('A' for Active; 'I' for Inactive)
REMARK    1  A    between atoms: C5_5  and  C7_7 
REMARK    2  A    between atoms: C7_7  and  C8_8 
ROOT
HETATM    1  C1  UNL     1     -35.336  13.751  -4.734  1.00 20.00     0.066 C 
HETATM    2  C2  UNL     1     -33.161  14.857  -4.382  1.00 20.00     0.048 C 
HETATM    3  C3  UNL     1     -33.122  15.672  -5.658  1.00 20.00     0.169 C 
HETATM    4  C4  UNL     1     -34.635  14.844  -4.034  1.00 20.00     0.123 C 
HETATM    5  C5  UNL     1     -35.105  16.210  -4.537  1.00 20.00     0.139 C 
HETATM    6  N9  UNL     1     -35.887  12.892  -5.286  1.00 20.00    -0.197 NA
HETATM    7  O10 UNL     1     -34.192  16.619  -5.575  1.00 20.00    -0.384 OA
ENDROOT
BRANCH   5   8
HETATM    8  C7  UNL     1     -35.077  17.275  -3.447  1.00 20.00     0.033 C 
BRANCH   8   9
HETATM    9  C8  UNL     1     -35.220  16.653  -2.061  1.00 20.00    -0.002 C 
HETATM   10  C6  UNL     1     -34.316  17.340  -1.050  1.00 20.00     0.005 C 
ENDBRANCH   8   9
ENDBRANCH   5   8
TORSDOF 2
ENDMDL
MODEL 5
REMARK VINA RESULT:      -4.1     10.752     11.373
REMARK  2 active torsions:
REMARK  status: ('A' for Active; 'I' for Inactive)
REMARK    1  A    between atoms: C5_5  and  C7_7 
REMARK    2  A    between atoms: C7_7  and  C8_8 
ROOT
HETATM    1  C1  UNL     1     -36.727  14.112  -4.904  1.00 20.00     0.066 C 
HETATM    2  C2  UNL     1     -34.547  14.176  -6.053  1.00 20.00     0.048 C 
HETATM    3  C3  UNL     1     -34.650  15.570  -6.637  1.00 20.00     0.169 C 
HETATM    4  C4  UNL     1     -35.276  14.308  -4.731  1.00 20.00     0.123 C 
HETATM    5  C5  UNL     1     -34.961  15.749  -4.324  1.00 20.00     0.139 C 
HETATM    6  N9  UNL     1     -37.870  13.958  -5.040  1.00 20.00    -0.197 NA
HETATM    7  O10 UNL     1     -34.668  16.479  -5.531  1.00 20.00    -0.384 OA
ENDROOT
BRANCH   5   8
HETATM    8  C7  UNL     1     -33.741  15.844  -3.415  1.00 20.00     0.033 C 
BRANCH   8   9
HETATM    9  C8  UNL     1     -33.927  16.918  -2.347  1.00 20.00    -0.002 C 
HETATM   10  C6  UNL     1     -35.278  16.789  -1.663  1.00 20.00     0.005 C 
ENDBRANCH   8   9
ENDBRANCH   5   8
TORSDOF 2
ENDMDL
MODEL 6
REMARK VINA RESULT:      -4.1     10.507     11.290
REMARK  2 active torsions:
REMARK  status: ('A' for Active; 'I' for Inactive)
REMARK    1  A    between atoms: C5_5  and  C7_7 
REMARK    2  A    between atoms: C7_7  and  C8_8 
ROOT
HETATM    1  C1  UNL     1     -35.437  13.859  -4.971  1.00 20.00     0.066 C 
HETATM    2  C2  UNL     1     -35.172  16.221  -5.628  1.00 20.00     0.048 C 
HETATM    3  C3  UNL     1     -36.523  16.728  -5.168  1.00 20.00     0.169 C 
HETATM    4  C4  UNL     1     -34.842  15.157  -4.600  1.00 20.00     0.123 C 
HETATM    5  C5  UNL     1     -35.487  15.714  -3.330  1.00 20.00     0.139 C 
HETATM    6  N9  UNL     1     -35.906  12.838  -5.263  1.00 20.00    -0.197 NA
HETATM    7  O10 UNL     1     -36.549  16.597  -3.743  1.00 20.00    -0.384 OA
ENDROOT
BRANCH   5   8
HETATM    8  C7  UNL     1     -34.509  16.526  -2.488  1.00 20.00     0.033 C 
BRANCH   8   9
HETATM    9  C8  UNL     1     -35.166  17.026  -1.204  1.00 20.00    -0.002 C 
HETATM   10  C6  UNL     1     -34.225  17.922  -0.415  1.00 20.00     0.005 C 
ENDBRANCH   8   9
ENDBRANCH   5   8
TORSDOF 2
ENDMDL
MODEL 7
REMARK VINA RESULT:      -4.0     10.803     11.411
REMARK  2 active torsions:
REMARK  status: ('A' for Active; 'I' for Inactive)
REMARK    1  A    between atoms: C5_5  and  C7_7 
REMARK    2  A    between atoms: C7_7  and  C8_8 
ROOT
HETATM    1  C1  UNL     1     -33.199  18.042  -1.946  1.00 20.00     0.066 C 
HETATM    2  C2  UNL     1     -35.279  17.011  -1.118  1.00 20.00     0.048 C 
HETATM    3  C3  UNL     1     -36.255  17.725  -2.030  1.00 20.00     0.169 C 
HETATM    4  C4  UNL     1     -34.056  16.843  -1.996  1.00 20.00     0.123 C 
HETATM    5  C5  UNL     1     -34.670  16.663  -3.386  1.00 20.00     0.139 C 
HETATM    6  N9  UNL     1     -32.525  18.987  -1.908  1.00 20.00    -0.197 NA
HETATM    7  O10 UNL     1     -35.968  17.289  -3.363  1.00 20.00    -0.384 OA
ENDROOT
BRANCH   5   8
HETATM    8  C7  UNL     1     -34.868  15.197  -3.751  1.00 20.00     0.033 C 
BRANCH   8   9
HETATM    9  C8  UNL     1     -33.609  14.607  -4.379  1.00 20.00    -0.002 C 
HETATM   10  C6  UNL     1     -32.964  15.585  -5.349  1.00 20.00     0.005 C 
ENDBRANCH   8   9
ENDBRANCH   5   8
TORSDOF 2
ENDMDL
MODEL 8
REMARK VINA RESULT:      -3.9      1.985      2.499
REMARK  2 active torsions:
REMARK  status: ('A' for Active; 'I' for Inactive)
REMARK    1  A    between atoms: C5_5  and  C7_7 
REMARK    2  A    between atoms: C7_7  and  C8_8 
ROOT
HETATM    1  C1  UNL     1     -33.354   7.171   5.068  1.00 20.00     0.066 C 
HETATM    2  C2  UNL     1     -32.913   5.628   3.196  1.00 20.00     0.048 C 
HETATM    3  C3  UNL     1     -34.104   5.987   2.333  1.00 20.00     0.169 C 
HETATM    4  C4  UNL     1     -32.557   6.950   3.847  1.00 20.00     0.123 C 
HETATM    5  C5  UNL     1     -32.923   7.962   2.760  1.00 20.00     0.139 C 
HETATM    6  N9  UNL     1     -33.983   7.345   6.028  1.00 20.00    -0.197 NA
HETATM    7  O10 UNL     1     -33.923   7.347   1.924  1.00 20.00    -0.384 OA
ENDROOT
BRANCH   5   8
HETATM    8  C7  UNL     1     -31.736   8.324   1.876  1.00 20.00     0.033 C 
BRANCH   8   9
HETATM    9  C8  UNL     1     -32.171   9.165   0.679  1.00 20.00    -0.002 C 
HETATM   10  C6  UNL     1     -32.666  10.534   1.116  1.00 20.00     0.005 C 
ENDBRANCH   8   9
ENDBRANCH   5   8
TORSDOF 2
ENDMDL
MODEL 9
REMARK VINA RESULT:      -3.8     10.150     11.064
REMARK  2 active torsions:
REMARK  status: ('A' for Active; 'I' for Inactive)
REMARK    1  A    between atoms: C5_5  and  C7_7 
REMARK    2  A    between atoms: C7_7  and  C8_8 
ROOT
HETATM    1  C1  UNL     1     -34.921  16.321  -2.826  1.00 20.00     0.066 C 
HETATM    2  C2  UNL     1     -33.336  15.840  -4.652  1.00 20.00     0.048 C 
HETATM    3  C3  UNL     1     -33.000  14.412  -4.278  1.00 20.00     0.169 C 
HETATM    4  C4  UNL     1     -34.792  15.961  -4.250  1.00 20.00     0.123 C 
HETATM    5  C5  UNL     1     -35.325  14.550  -4.510  1.00 20.00     0.139 C 
HETATM    6  N9  UNL     1     -35.022  16.604  -1.704  1.00 20.00    -0.197 NA
HETATM    7  O10 UNL     1     -34.202  13.650  -4.434  1.00 20.00    -0.384 OA
ENDROOT
BRANCH   5   8
HETATM    8  C7  UNL     1     -35.942  14.407  -5.897  1.00 20.00     0.033 C 
BRANCH   8   9
HETATM    9  C8  UNL     1     -35.242  13.319  -6.706  1.00 20.00    -0.002 C 
HETATM   10  C6  UNL     1     -34.413  13.914  -7.832  1.00 20.00     0.005 C 
ENDBRANCH   8   9
ENDBRANCH   5   8
TORSDOF 2
ENDMDL
