MODEL 1
REMARK VINA RESULT:      -5.2      0.000      0.000
REMARK  2 active torsions:
REMARK  status: ('A' for Active; 'I' for Inactive)
REMARK    1  A    between atoms: C6_6  and  C8_8 
REMARK    2  A    between atoms: C7_7  and  C9_9 
ROOT
HETATM    1  C1  UNL     1     -33.667   7.111   5.179  1.00 20.00     0.027 C 
HETATM    2  C4  UNL     1     -34.536   6.724   3.989  1.00 20.00     0.010 C 
HETATM    3  C5  UNL     1     -32.621   8.135   4.772  1.00 20.00     0.168 C 
HETATM    4  C7  UNL     1     -33.693   6.325   2.769  1.00 20.00     0.029 C 
HETATM    5  C8  UNL     1     -32.586   7.360   2.491  1.00 20.00     0.130 C 
HETATM    6  O10 UNL     1     -31.838   7.679   3.671  1.00 20.00    -0.385 OA
ENDROOT
BRANCH   5   7
HETATM    7  C6  UNL     1     -33.094   8.605   1.813  1.00 20.00     0.015 A 
HETATM    8  C2  UNL     1     -32.183   9.787   1.618  1.00 20.00     0.007 A 
HETATM    9  C3  UNL     1     -32.612   8.967   0.434  1.00 20.00     0.007 A 
ENDBRANCH   5   7
BRANCH   4  10
HETATM   10  C9  UNL     1     -33.080   4.933   2.971  1.00 20.00     0.121 C 
HETATM   11 CL11 UNL     1     -34.090   3.977   4.068  1.00 20.00    -0.130 Cl
ENDBRANCH   4  10
TORSDOF 2
ENDMDL
MODEL 2
REMARK VINA RESULT:      -4.4     10.840     11.645
REMARK  2 active torsions:
REMARK  status: ('A' for Active; 'I' for Inactive)
REMARK    1  A    between atoms: C6_6  and  C8_8 
REMARK    2  A    between atoms: C7_7  and  C9_9 
ROOT
HETATM    1  C1  UNL     1     -33.044  15.572  -5.592  1.00 20.00     0.027 C 
HETATM    2  C4  UNL     1     -33.256  14.554  -4.479  1.00 20.00     0.010 C 
HETATM    3  C5  UNL     1     -33.489  16.956  -5.149  1.00 20.00     0.168 C 
HETATM    4  C7  UNL     1     -34.682  14.614  -3.912  1.00 20.00     0.029 C 
HETATM    5  C8  UNL     1     -35.097  16.063  -3.591  1.00 20.00     0.130 C 
HETATM    6  O10 UNL     1     -34.838  16.952  -4.686  1.00 20.00    -0.385 OA
ENDROOT
BRANCH   5   7
HETATM    7  C6  UNL     1     -34.496  16.583  -2.311  1.00 20.00     0.015 A 
HETATM    8  C2  UNL     1     -34.672  18.026  -1.924  1.00 20.00     0.007 A 
HETATM    9  C3  UNL     1     -35.384  16.950  -1.153  1.00 20.00     0.007 A 
ENDBRANCH   5   7
BRANCH   4  10
HETATM   10  C9  UNL     1     -35.679  13.981  -4.892  1.00 20.00     0.121 C 
HETATM   11 CL11 UNL     1     -37.295  14.660  -4.638  1.00 20.00    -0.130 Cl
ENDBRANCH   4  10
TORSDOF 2
ENDMDL
MODEL 3
REMARK VINA RESULT:      -4.1     11.017     11.831
REMARK  2 active torsions:
REMARK  status: ('A' for Active; 'I' for Inactive)
REMARK    1  A    between atoms: C6_6  and  C8_8 
REMARK    2  A    between atoms: C7_7  and  C9_9 
ROOT
HETATM    1  C1  UNL     1     -36.142  17.812  -1.886  1.00 20.00     0.027 C 
HETATM    2  C4  UNL     1     -35.024  17.040  -1.196  1.00 20.00     0.010 C 
HETATM    3  C5  UNL     1     -36.310  17.347  -3.323  1.00 20.00     0.168 C 
HETATM    4  C7  UNL     1     -33.731  17.042  -2.023  1.00 20.00     0.029 C 
HETATM    5  C8  UNL     1     -34.005  16.667  -3.492  1.00 20.00     0.130 C 
HETATM    6  O10 UNL     1     -35.086  17.425  -4.049  1.00 20.00    -0.385 OA
ENDROOT
BRANCH   5   7
HETATM    7  C6  UNL     1     -34.211  15.189  -3.699  1.00 20.00     0.015 A 
HETATM    8  C2  UNL     1     -34.490  14.648  -5.075  1.00 20.00     0.007 A 
HETATM    9  C3  UNL     1     -33.169  14.372  -4.413  1.00 20.00     0.007 A 
ENDBRANCH   5   7
BRANCH   4  10
HETATM   10  C9  UNL     1     -33.043  18.412  -1.945  1.00 20.00     0.121 C 
HETATM   11 CL11 UNL     1     -32.169  18.566  -0.412  1.00 20.00    -0.130 Cl
ENDBRANCH   4  10
TORSDOF 2
ENDMDL
MODEL 4
REMARK VINA RESULT:      -4.0      2.348      3.918
REMARK  2 active torsions:
REMARK  status: ('A' for Active; 'I' for Inactive)
REMARK    1  A    between atoms: C6_6  and  C8_8 
REMARK    2  A    between atoms: C7_7  and  C9_9 
ROOT
HETATM    1  C1  UNL     1     -32.216   8.586   4.881  1.00 20.00     0.027 C 
HETATM    2  C4  UNL     1     -31.362   8.135   3.702  1.00 20.00     0.010 C 
HETATM    3  C5  UNL     1     -33.297   7.563   5.185  1.00 20.00     0.168 C 
HETATM    4  C7  UNL     1     -32.219   7.734   2.493  1.00 20.00     0.029 C 
HETATM    5  C8  UNL     1     -33.359   6.782   2.906  1.00 20.00     0.130 C 
HETATM    6  O10 UNL     1     -34.090   7.276   4.035  1.00 20.00    -0.385 OA
ENDROOT
BRANCH   5   7
HETATM    7  C6  UNL     1     -32.898   5.366   3.131  1.00 20.00     0.015 A 
HETATM    8  C2  UNL     1     -33.857   4.331   3.651  1.00 20.00     0.007 A 
HETATM    9  C3  UNL     1     -33.376   4.262   2.229  1.00 20.00     0.007 A 
ENDBRANCH   5   7
BRANCH   4  10
HETATM   10  C9  UNL     1     -32.792   8.979   1.801  1.00 20.00     0.121 C 
HETATM   11 CL11 UNL     1     -31.828   9.375   0.369  1.00 20.00    -0.130 Cl
ENDBRANCH   4  10
TORSDOF 2
ENDMDL
MODEL 5
REMARK VINA RESULT:      -4.0     11.214     11.929
REMARK  2 active torsions:
REMARK  status: ('A' for Active; 'I' for Inactive)
REMARK    1  A    between atoms: C6_6  and  C8_8 
REMARK    2  A    between atoms: C7_7  and  C9_9 
ROOT
HETATM    1  C1  UNL     1     -35.100  13.739  -6.565  1.00 20.00     0.027 C 
HETATM    2  C4  UNL     1     -35.886  13.348  -5.319  1.00 20.00     0.010 C 
HETATM    3  C5  UNL     1     -34.210  14.939  -6.286  1.00 20.00     0.168 C 
HETATM    4  C7  UNL     1     -36.610  14.550  -4.697  1.00 20.00     0.029 C 
HETATM    5  C8  UNL     1     -35.665  15.759  -4.549  1.00 20.00     0.130 C 
HETATM    6  O10 UNL     1     -34.953  16.037  -5.762  1.00 20.00    -0.385 OA
ENDROOT
BRANCH   5   7
HETATM    7  C6  UNL     1     -34.725  15.637  -3.379  1.00 20.00     0.015 A 
HETATM    8  C2  UNL     1     -33.723  16.723  -3.097  1.00 20.00     0.007 A 
HETATM    9  C3  UNL     1     -34.895  16.526  -2.177  1.00 20.00     0.007 A 
ENDBRANCH   5   7
BRANCH   4  10
HETATM   10  C9  UNL     1     -37.836  14.934  -5.537  1.00 20.00     0.121 C 
HETATM   11 CL11 UNL     1     -39.131  15.529  -4.485  1.00 20.00    -0.130 Cl
ENDBRANCH   4  10
TORSDOF 2
ENDMDL
MODEL 6
REMARK VINA RESULT:      -3.9     10.957     11.942
REMARK  2 active torsions:
REMARK  status: ('A' for Active; 'I' for Inactive)
REMARK    1  A    between atoms: C6_6  and  C8_8 
REMARK    2  A    between atoms: C7_7  and  C9_9 
ROOT
HETATM    1  C1  UNL     1     -35.923  16.321  -5.858  1.00 20.00     0.027 C 
HETATM    2  C4  UNL     1     -34.671  17.174  -5.696  1.00 20.00     0.010 C 
HETATM    3  C5  UNL     1     -36.500  15.947  -4.503  1.00 20.00     0.168 C 
HETATM    4  C7  UNL     1     -33.664  16.536  -4.728  1.00 20.00     0.029 C 
HETATM    5  C8  UNL     1     -34.350  16.086  -3.423  1.00 20.00     0.130 C 
HETATM    6  O10 UNL     1     -35.530  15.311  -3.674  1.00 20.00    -0.385 OA
ENDROOT
BRANCH   5   7
HETATM    7  C6  UNL     1     -34.636  17.224  -2.479  1.00 20.00     0.015 A 
HETATM    8  C2  UNL     1     -35.268  16.958  -1.141  1.00 20.00     0.007 A 
HETATM    9  C3  UNL     1     -33.829  17.383  -1.219  1.00 20.00     0.007 A 
ENDBRANCH   5   7
BRANCH   4  10
HETATM   10  C9  UNL     1     -32.956  15.348  -5.392  1.00 20.00     0.121 C 
HETATM   11 CL11 UNL     1     -32.477  14.163  -4.165  1.00 20.00    -0.130 Cl
ENDBRANCH   4  10
TORSDOF 2
ENDMDL
MODEL 7
REMARK VINA RESULT:      -3.9     11.794     12.575
REMARK  2 active torsions:
REMARK  status: ('A' for Active; 'I' for Inactive)
REMARK    1  A    between atoms: C6_6  and  C8_8 
REMARK    2  A    between atoms: C7_7  and  C9_9 
ROOT
HETATM    1  C1  UNL     1     -34.030  13.996  -7.897  1.00 20.00     0.027 C 
HETATM    2  C4  UNL     1     -34.266  15.478  -7.632  1.00 20.00     0.010 C 
HETATM    3  C5  UNL     1     -35.098  13.151  -7.224  1.00 20.00     0.168 C 
HETATM    4  C7  UNL     1     -34.461  15.769  -6.137  1.00 20.00     0.029 C 
HETATM    5  C8  UNL     1     -35.478  14.798  -5.506  1.00 20.00     0.130 C 
HETATM    6  O10 UNL     1     -35.190  13.431  -5.829  1.00 20.00    -0.385 OA
ENDROOT
BRANCH   5   7
HETATM    7  C6  UNL     1     -36.908  15.145  -5.826  1.00 20.00     0.015 A 
HETATM    8  C2  UNL     1     -38.033  14.337  -5.240  1.00 20.00     0.007 A 
HETATM    9  C3  UNL     1     -37.796  15.745  -4.770  1.00 20.00     0.007 A 
ENDBRANCH   5   7
BRANCH   4  10
HETATM   10  C9  UNL     1     -33.120  15.691  -5.393  1.00 20.00     0.121 C 
HETATM   11 CL11 UNL     1     -33.390  15.786  -3.645  1.00 20.00    -0.130 Cl
ENDBRANCH   4  10
TORSDOF 2
ENDMDL
MODEL 8
REMARK VINA RESULT:      -3.8     11.050     11.856
REMARK  2 active torsions:
REMARK  status: ('A' for Active; 'I' for Inactive)
REMARK    1  A    between atoms: C6_6  and  C8_8 
REMARK    2  A    between atoms: C7_7  and  C9_9 
ROOT
HETATM    1  C1  UNL     1     -33.003  15.607  -5.203  1.00 20.00     0.027 C 
HETATM    2  C4  UNL     1     -33.822  16.866  -4.947  1.00 20.00     0.010 C 
HETATM    3  C5  UNL     1     -33.906  14.390  -5.315  1.00 20.00     0.168 C 
HETATM    4  C7  UNL     1     -34.800  16.687  -3.777  1.00 20.00     0.029 C 
HETATM    5  C8  UNL     1     -35.599  15.376  -3.911  1.00 20.00     0.130 C 
HETATM    6  O10 UNL     1     -34.749  14.252  -4.173  1.00 20.00    -0.385 OA
ENDROOT
BRANCH   5   7
HETATM    7  C6  UNL     1     -36.717  15.461  -4.917  1.00 20.00     0.015 A 
HETATM    8  C2  UNL     1     -37.523  14.238  -5.259  1.00 20.00     0.007 A 
HETATM    9  C3  UNL     1     -38.149  15.352  -4.468  1.00 20.00     0.007 A 
ENDBRANCH   5   7
BRANCH   4  10
HETATM   10  C9  UNL     1     -34.050  16.718  -2.439  1.00 20.00     0.121 C 
HETATM   11 CL11 UNL     1     -35.198  16.917  -1.104  1.00 20.00    -0.130 Cl
ENDBRANCH   4  10
TORSDOF 2
ENDMDL
MODEL 9
REMARK VINA RESULT:      -3.8     11.780     12.719
REMARK  2 active torsions:
REMARK  status: ('A' for Active; 'I' for Inactive)
REMARK    1  A    between atoms: C6_6  and  C8_8 
REMARK    2  A    between atoms: C7_7  and  C9_9 
ROOT
HETATM    1  C1  UNL     1     -35.081  15.910  -3.179  1.00 20.00     0.027 C 
HETATM    2  C4  UNL     1     -33.642  15.842  -3.676  1.00 20.00     0.010 C 
HETATM    3  C5  UNL     1     -36.030  15.284  -4.187  1.00 20.00     0.168 C 
HETATM    4  C7  UNL     1     -33.503  16.386  -5.105  1.00 20.00     0.029 C 
HETATM    5  C8  UNL     1     -34.572  15.784  -6.040  1.00 20.00     0.130 C 
HETATM    6  O10 UNL     1     -35.888  15.871  -5.479  1.00 20.00    -0.385 OA
ENDROOT
BRANCH   5   7
HETATM    7  C6  UNL     1     -34.255  14.377  -6.475  1.00 20.00     0.015 A 
HETATM    8  C2  UNL     1     -35.238  13.604  -7.310  1.00 20.00     0.007 A 
HETATM    9  C3  UNL     1     -33.950  14.082  -7.918  1.00 20.00     0.007 A 
ENDBRANCH   5   7
BRANCH   4  10
HETATM   10  C9  UNL     1     -33.596  17.918  -5.111  1.00 20.00     0.121 C 
HETATM   11 CL11 UNL     1     -34.011  18.495  -6.733  1.00 20.00    -0.130 Cl
ENDBRANCH   4  10
TORSDOF 2
ENDMDL
