MODEL 1
REMARK VINA RESULT:      -5.7      0.000      0.000
REMARK  4 active torsions:
REMARK  status: ('A' for Active; 'I' for Inactive)
REMARK    1  A    between atoms: C2_2  and  C8_8 
REMARK    2  A    between atoms: C3_3  and  C9_9 
REMARK    3  A    between atoms: C3_3  and  O11_11 
REMARK    4  A    between atoms: C9_9  and  C10_10 
ROOT
HETATM    1  C1  UNL     1     -31.529   8.151   3.359  1.00 20.00     0.045 A 
HETATM    2  C2  UNL     1     -31.983   8.185   1.923  1.00 20.00     0.022 A 
HETATM    3  C3  UNL     1     -32.901   7.644   2.993  1.00 20.00     0.063 A 
ENDROOT
BRANCH   3   4
HETATM    4  C9  UNL     1     -33.199   6.151   3.053  1.00 20.00     0.046 C 
BRANCH   4   5
HETATM    5  C10 UNL     1     -34.244   5.713   4.112  1.00 20.00    -0.049 C 
HETATM    6  C5  UNL     1     -34.104   4.193   4.327  1.00 20.00     0.014 C 
HETATM    7  C6  UNL     1     -35.676   6.009   3.635  1.00 20.00     0.014 C 
HETATM    8  C7  UNL     1     -34.003   6.421   5.455  1.00 20.00     0.014 C 
ENDBRANCH   4   5
ENDBRANCH   3   4
BRANCH   3   9
HETATM    9  O11 UNL     1     -34.005   8.471   3.397  1.00 20.00    -0.389 OA
HETATM   10  H31 UNL     1     -34.448   7.989   4.107  1.00 20.00     0.210 HD
ENDBRANCH   3   9
BRANCH   2  11
HETATM   11  C8  UNL     1     -32.250   9.491   1.255  1.00 20.00     0.003 C 
HETATM   12  C4  UNL     1     -32.877   9.338  -0.108  1.00 20.00     0.005 C 
ENDBRANCH   2  11
TORSDOF 4
ENDMDL
MODEL 2
REMARK VINA RESULT:      -5.2      1.435      4.716
REMARK  4 active torsions:
REMARK  status: ('A' for Active; 'I' for Inactive)
REMARK    1  A    between atoms: C2_2  and  C8_8 
REMARK    2  A    between atoms: C3_3  and  C9_9 
REMARK    3  A    between atoms: C3_3  and  O11_11 
REMARK    4  A    between atoms: C9_9  and  C10_10 
ROOT
HETATM    1  C1  UNL     1     -33.348   7.247   4.516  1.00 20.00     0.045 A 
HETATM    2  C2  UNL     1     -34.555   6.553   3.939  1.00 20.00     0.022 A 
HETATM    3  C3  UNL     1     -33.363   6.850   3.061  1.00 20.00     0.063 A 
ENDROOT
BRANCH   3   4
HETATM    4  C9  UNL     1     -33.461   7.923   1.983  1.00 20.00     0.046 C 
BRANCH   4   5
HETATM    5  C10 UNL     1     -32.208   8.817   1.803  1.00 20.00    -0.049 C 
HETATM    6  C5  UNL     1     -32.677  10.277   1.640  1.00 20.00     0.014 C 
HETATM    7  C6  UNL     1     -31.414   8.417   0.549  1.00 20.00     0.014 C 
HETATM    8  C7  UNL     1     -31.287   8.735   3.032  1.00 20.00     0.014 C 
ENDBRANCH   4   5
ENDBRANCH   3   4
BRANCH   3   9
HETATM    9  O11 UNL     1     -32.514   5.747   2.704  1.00 20.00    -0.389 OA
HETATM   10  H31 UNL     1     -31.609   6.057   2.839  1.00 20.00     0.210 HD
ENDBRANCH   3   9
BRANCH   2  11
HETATM   11  C8  UNL     1     -34.887   5.161   4.357  1.00 20.00     0.003 C 
HETATM   12  C4  UNL     1     -34.602   4.900   5.814  1.00 20.00     0.005 C 
ENDBRANCH   2  11
TORSDOF 4
ENDMDL
MODEL 3
REMARK VINA RESULT:      -4.7      1.369      4.637
REMARK  4 active torsions:
REMARK  status: ('A' for Active; 'I' for Inactive)
REMARK    1  A    between atoms: C2_2  and  C8_8 
REMARK    2  A    between atoms: C3_3  and  C9_9 
REMARK    3  A    between atoms: C3_3  and  O11_11 
REMARK    4  A    between atoms: C9_9  and  C10_10 
ROOT
HETATM    1  C1  UNL     1     -32.050   8.172   3.929  1.00 20.00     0.045 A 
HETATM    2  C2  UNL     1     -33.415   7.692   4.349  1.00 20.00     0.022 A 
HETATM    3  C3  UNL     1     -32.948   7.493   2.927  1.00 20.00     0.063 A 
ENDROOT
BRANCH   3   4
HETATM    4  C9  UNL     1     -33.578   8.302   1.800  1.00 20.00     0.046 C 
BRANCH   4   5
HETATM    5  C10 UNL     1     -32.605   9.185   0.977  1.00 20.00    -0.049 C 
HETATM    6  C5  UNL     1     -33.108   9.226  -0.480  1.00 20.00     0.014 C 
HETATM    7  C6  UNL     1     -31.182   8.600   0.986  1.00 20.00     0.014 C 
HETATM    8  C7  UNL     1     -32.564  10.622   1.520  1.00 20.00     0.014 C 
ENDBRANCH   4   5
ENDBRANCH   3   4
BRANCH   3   9
HETATM    9  O11 UNL     1     -32.562   6.164   2.538  1.00 20.00    -0.389 OA
HETATM   10  H31 UNL     1     -32.857   5.584   3.253  1.00 20.00     0.210 HD
ENDBRANCH   3   9
BRANCH   2  11
HETATM   11  C8  UNL     1     -33.545   6.546   5.294  1.00 20.00     0.003 C 
HETATM   12  C4  UNL     1     -34.796   5.735   5.067  1.00 20.00     0.005 C 
ENDBRANCH   2  11
TORSDOF 4
ENDMDL
MODEL 4
REMARK VINA RESULT:      -4.7      1.376      4.635
REMARK  4 active torsions:
REMARK  status: ('A' for Active; 'I' for Inactive)
REMARK    1  A    between atoms: C2_2  and  C8_8 
REMARK    2  A    between atoms: C3_3  and  C9_9 
REMARK    3  A    between atoms: C3_3  and  O11_11 
REMARK    4  A    between atoms: C9_9  and  C10_10 
ROOT
HETATM    1  C1  UNL     1     -32.052   8.199   3.930  1.00 20.00     0.045 A 
HETATM    2  C2  UNL     1     -33.408   7.694   4.350  1.00 20.00     0.022 A 
HETATM    3  C3  UNL     1     -32.942   7.513   2.925  1.00 20.00     0.063 A 
ENDROOT
BRANCH   3   4
HETATM    4  C9  UNL     1     -33.588   8.322   1.806  1.00 20.00     0.046 C 
BRANCH   4   5
HETATM    5  C10 UNL     1     -32.619   9.163   0.936  1.00 20.00    -0.049 C 
HETATM    6  C5  UNL     1     -32.616  10.607   1.477  1.00 20.00     0.014 C 
HETATM    7  C6  UNL     1     -33.074   9.193  -0.533  1.00 20.00     0.014 C 
HETATM    8  C7  UNL     1     -31.186   8.611   1.009  1.00 20.00     0.014 C 
ENDBRANCH   4   5
ENDBRANCH   3   4
BRANCH   3   9
HETATM    9  O11 UNL     1     -32.537   6.193   2.525  1.00 20.00    -0.389 OA
HETATM   10  H31 UNL     1     -33.296   5.814   2.062  1.00 20.00     0.210 HD
ENDBRANCH   3   9
BRANCH   2  11
HETATM   11  C8  UNL     1     -33.519   6.540   5.287  1.00 20.00     0.003 C 
HETATM   12  C4  UNL     1     -34.781   5.739   5.088  1.00 20.00     0.005 C 
ENDBRANCH   2  11
TORSDOF 4
ENDMDL
MODEL 5
REMARK VINA RESULT:      -4.5     10.641     11.856
REMARK  4 active torsions:
REMARK  status: ('A' for Active; 'I' for Inactive)
REMARK    1  A    between atoms: C2_2  and  C8_8 
REMARK    2  A    between atoms: C3_3  and  C9_9 
REMARK    3  A    between atoms: C3_3  and  O11_11 
REMARK    4  A    between atoms: C9_9  and  C10_10 
ROOT
HETATM    1  C1  UNL     1     -37.323  14.334  -5.783  1.00 20.00     0.045 A 
HETATM    2  C2  UNL     1     -36.014  14.640  -6.465  1.00 20.00     0.022 A 
HETATM    3  C3  UNL     1     -36.033  14.239  -5.009  1.00 20.00     0.063 A 
ENDROOT
BRANCH   3   4
HETATM    4  C9  UNL     1     -35.715  15.270  -3.933  1.00 20.00     0.046 C 
BRANCH   4   5
HETATM    5  C10 UNL     1     -34.283  15.863  -3.968  1.00 20.00    -0.049 C 
HETATM    6  C5  UNL     1     -34.018  16.562  -2.620  1.00 20.00     0.014 C 
HETATM    7  C6  UNL     1     -34.139  16.902  -5.093  1.00 20.00     0.014 C 
HETATM    8  C7  UNL     1     -33.230  14.760  -4.162  1.00 20.00     0.014 C 
ENDBRANCH   4   5
ENDBRANCH   3   4
BRANCH   3   9
HETATM    9  O11 UNL     1     -35.593  12.910  -4.684  1.00 20.00    -0.389 OA
HETATM   10  H31 UNL     1     -36.393  12.413  -4.470  1.00 20.00     0.210 HD
ENDBRANCH   3   9
BRANCH   2  11
HETATM   11  C8  UNL     1     -35.489  13.725  -7.519  1.00 20.00     0.003 C 
HETATM   12  C4  UNL     1     -34.070  14.040  -7.918  1.00 20.00     0.005 C 
ENDBRANCH   2  11
TORSDOF 4
ENDMDL
MODEL 6
REMARK VINA RESULT:      -4.2     10.634     11.730
REMARK  4 active torsions:
REMARK  status: ('A' for Active; 'I' for Inactive)
REMARK    1  A    between atoms: C2_2  and  C8_8 
REMARK    2  A    between atoms: C3_3  and  C9_9 
REMARK    3  A    between atoms: C3_3  and  O11_11 
REMARK    4  A    between atoms: C9_9  and  C10_10 
ROOT
HETATM    1  C1  UNL     1     -35.133  16.837  -1.497  1.00 20.00     0.045 A 
HETATM    2  C2  UNL     1     -33.727  16.961  -2.024  1.00 20.00     0.022 A 
HETATM    3  C3  UNL     1     -34.878  16.767  -2.981  1.00 20.00     0.063 A 
ENDROOT
BRANCH   3   4
HETATM    4  C9  UNL     1     -35.039  15.442  -3.718  1.00 20.00     0.046 C 
BRANCH   4   5
HETATM    5  C10 UNL     1     -33.976  15.140  -4.804  1.00 20.00    -0.049 C 
HETATM    6  C5  UNL     1     -34.657  14.346  -5.937  1.00 20.00     0.014 C 
HETATM    7  C6  UNL     1     -32.826  14.291  -4.236  1.00 20.00     0.014 C 
HETATM    8  C7  UNL     1     -33.401  16.438  -5.395  1.00 20.00     0.014 C 
ENDBRANCH   4   5
ENDBRANCH   3   4
BRANCH   3   9
HETATM    9  O11 UNL     1     -35.302  17.908  -3.745  1.00 20.00    -0.389 OA
HETATM   10  H31 UNL     1     -34.694  18.622  -3.511  1.00 20.00     0.210 HD
ENDBRANCH   3   9
BRANCH   2  11
HETATM   11  C8  UNL     1     -33.004  18.261  -1.927  1.00 20.00     0.003 C 
HETATM   12  C4  UNL     1     -32.331  18.463  -0.593  1.00 20.00     0.005 C 
ENDBRANCH   2  11
TORSDOF 4
ENDMDL
MODEL 7
REMARK VINA RESULT:      -4.2     11.102     11.910
REMARK  4 active torsions:
REMARK  status: ('A' for Active; 'I' for Inactive)
REMARK    1  A    between atoms: C2_2  and  C8_8 
REMARK    2  A    between atoms: C3_3  and  C9_9 
REMARK    3  A    between atoms: C3_3  and  O11_11 
REMARK    4  A    between atoms: C9_9  and  C10_10 
ROOT
HETATM    1  C1  UNL     1     -35.240  16.496  -3.826  1.00 20.00     0.045 A 
HETATM    2  C2  UNL     1     -34.050  16.161  -2.965  1.00 20.00     0.022 A 
HETATM    3  C3  UNL     1     -33.940  16.086  -4.469  1.00 20.00     0.063 A 
ENDROOT
BRANCH   3   4
HETATM    4  C9  UNL     1     -33.827  14.730  -5.156  1.00 20.00     0.046 C 
BRANCH   4   5
HETATM    5  C10 UNL     1     -34.993  14.356  -6.108  1.00 20.00    -0.049 C 
HETATM    6  C5  UNL     1     -34.413  13.543  -7.282  1.00 20.00     0.014 C 
HETATM    7  C6  UNL     1     -35.674  15.614  -6.673  1.00 20.00     0.014 C 
HETATM    8  C7  UNL     1     -36.042  13.494  -5.387  1.00 20.00     0.014 C 
ENDBRANCH   4   5
ENDBRANCH   3   4
BRANCH   3   9
HETATM    9  O11 UNL     1     -33.209  17.132  -5.131  1.00 20.00    -0.389 OA
HETATM   10  H31 UNL     1     -32.333  16.767  -5.311  1.00 20.00     0.210 HD
ENDBRANCH   3   9
BRANCH   2  11
HETATM   11  C8  UNL     1     -33.366  17.232  -2.186  1.00 20.00     0.003 C 
HETATM   12  C4  UNL     1     -34.103  17.604  -0.924  1.00 20.00     0.005 C 
ENDBRANCH   2  11
TORSDOF 4
ENDMDL
MODEL 8
REMARK VINA RESULT:      -4.1     10.933     12.243
REMARK  4 active torsions:
REMARK  status: ('A' for Active; 'I' for Inactive)
REMARK    1  A    between atoms: C2_2  and  C8_8 
REMARK    2  A    between atoms: C3_3  and  C9_9 
REMARK    3  A    between atoms: C3_3  and  O11_11 
REMARK    4  A    between atoms: C9_9  and  C10_10 
ROOT
HETATM    1  C1  UNL     1     -33.565  17.741  -5.091  1.00 20.00     0.045 A 
HETATM    2  C2  UNL     1     -34.280  16.857  -4.102  1.00 20.00     0.022 A 
HETATM    3  C3  UNL     1     -33.772  16.280  -5.402  1.00 20.00     0.063 A 
ENDROOT
BRANCH   3   4
HETATM    4  C9  UNL     1     -34.758  15.868  -6.487  1.00 20.00     0.046 C 
BRANCH   4   5
HETATM    5  C10 UNL     1     -35.306  14.421  -6.387  1.00 20.00    -0.049 C 
HETATM    6  C5  UNL     1     -36.758  14.418  -6.905  1.00 20.00     0.014 C 
HETATM    7  C6  UNL     1     -35.307  13.926  -4.930  1.00 20.00     0.014 C 
HETATM    8  C7  UNL     1     -34.479  13.453  -7.249  1.00 20.00     0.014 C 
ENDBRANCH   4   5
ENDBRANCH   3   4
BRANCH   3   9
HETATM    9  O11 UNL     1     -32.597  15.454  -5.343  1.00 20.00    -0.389 OA
HETATM   10  H31 UNL     1     -31.849  16.064  -5.292  1.00 20.00     0.210 HD
ENDBRANCH   3   9
BRANCH   2  11
HETATM   11  C8  UNL     1     -33.639  16.523  -2.798  1.00 20.00     0.003 C 
HETATM   12  C4  UNL     1     -34.426  17.018  -1.611  1.00 20.00     0.005 C 
ENDBRANCH   2  11
TORSDOF 4
ENDMDL
MODEL 9
REMARK VINA RESULT:      -4.0     10.864     11.679
REMARK  4 active torsions:
REMARK  status: ('A' for Active; 'I' for Inactive)
REMARK    1  A    between atoms: C2_2  and  C8_8 
REMARK    2  A    between atoms: C3_3  and  C9_9 
REMARK    3  A    between atoms: C3_3  and  O11_11 
REMARK    4  A    between atoms: C9_9  and  C10_10 
ROOT
HETATM    1  C1  UNL     1     -33.390  15.085  -4.454  1.00 20.00     0.045 A 
HETATM    2  C2  UNL     1     -34.717  14.991  -3.746  1.00 20.00     0.022 A 
HETATM    3  C3  UNL     1     -33.989  16.312  -3.815  1.00 20.00     0.063 A 
ENDROOT
BRANCH   3   4
HETATM    4  C9  UNL     1     -33.358  16.899  -2.559  1.00 20.00     0.046 C 
BRANCH   4   5
HETATM    5  C10 UNL     1     -34.298  17.750  -1.665  1.00 20.00    -0.049 C 
HETATM    6  C5  UNL     1     -33.519  18.157  -0.398  1.00 20.00     0.014 C 
HETATM    7  C6  UNL     1     -35.538  16.946  -1.239  1.00 20.00     0.014 C 
HETATM    8  C7  UNL     1     -34.749  19.027  -2.393  1.00 20.00     0.014 C 
ENDBRANCH   4   5
ENDBRANCH   3   4
BRANCH   3   9
HETATM    9  O11 UNL     1     -34.504  17.303  -4.721  1.00 20.00    -0.389 OA
HETATM   10  H31 UNL     1     -34.329  16.964  -5.609  1.00 20.00     0.210 HD
ENDBRANCH   3   9
BRANCH   2  11
HETATM   11  C8  UNL     1     -35.964  14.746  -4.525  1.00 20.00     0.003 C 
HETATM   12  C4  UNL     1     -35.945  13.436  -5.270  1.00 20.00     0.005 C 
ENDBRANCH   2  11
TORSDOF 4
ENDMDL
