MODEL 1
REMARK VINA RESULT:      -4.4      0.000      0.000
REMARK  4 active torsions:
REMARK  status: ('A' for Active; 'I' for Inactive)
REMARK    1  A    between atoms: C1_1  and  C9_9 
REMARK    2  A    between atoms: C2_2  and  C7_7 
REMARK    3  A    between atoms: C2_2  and  C8_8 
REMARK    4  A    between atoms: C8_8  and  O10_10 
ROOT
HETATM    1  C1  UNL     1     -33.233   6.783   4.340  1.00 20.00    -0.013 C 
HETATM    2  C2  UNL     1     -32.576   7.543   3.437  1.00 20.00    -0.060 C 
ENDROOT
BRANCH   2   3
HETATM    3  C7  UNL     1     -32.744   7.482   1.936  1.00 20.00     0.031 C 
HETATM    4  C3  UNL     1     -32.198   8.716   1.231  1.00 20.00     0.010 C 
ENDBRANCH   2   3
BRANCH   2   5
HETATM    5  C8  UNL     1     -31.589   8.580   3.931  1.00 20.00     0.198 C 
BRANCH   5   6
HETATM    6  O10 UNL     1     -31.838   8.863   5.302  1.00 20.00    -0.397 OA
HETATM    7  H28 UNL     1     -32.801   8.912   5.407  1.00 20.00     0.209 HD
ENDBRANCH   5   6
ENDBRANCH   2   5
BRANCH   1   8
HETATM    8  C9  UNL     1     -34.259   5.666   4.169  1.00 20.00    -0.033 C 
HETATM    9  C4  UNL     1     -35.553   6.216   3.547  1.00 20.00     0.018 C 
HETATM   10  C5  UNL     1     -33.730   4.478   3.346  1.00 20.00     0.018 C 
HETATM   11  C6  UNL     1     -34.608   5.121   5.574  1.00 20.00     0.018 C 
ENDBRANCH   1   8
TORSDOF 4
ENDMDL
MODEL 2
REMARK VINA RESULT:      -4.2      1.935      4.427
REMARK  4 active torsions:
REMARK  status: ('A' for Active; 'I' for Inactive)
REMARK    1  A    between atoms: C1_1  and  C9_9 
REMARK    2  A    between atoms: C2_2  and  C7_7 
REMARK    3  A    between atoms: C2_2  and  C8_8 
REMARK    4  A    between atoms: C8_8  and  O10_10 
ROOT
HETATM    1  C1  UNL     1     -33.074   7.328   2.355  1.00 20.00    -0.013 C 
HETATM    2  C2  UNL     1     -33.599   6.886   3.519  1.00 20.00    -0.060 C 
ENDROOT
BRANCH   2   3
HETATM    3  C7  UNL     1     -33.385   7.506   4.881  1.00 20.00     0.031 C 
HETATM    4  C3  UNL     1     -34.123   6.766   5.987  1.00 20.00     0.010 C 
ENDBRANCH   2   3
BRANCH   2   5
HETATM    5  C8  UNL     1     -34.508   5.675   3.500  1.00 20.00     0.198 C 
BRANCH   5   6
HETATM    6  O10 UNL     1     -33.725   4.490   3.416  1.00 20.00    -0.397 OA
HETATM    7  H28 UNL     1     -33.474   4.257   4.323  1.00 20.00     0.209 HD
ENDBRANCH   5   6
ENDBRANCH   2   5
BRANCH   1   8
HETATM    8  C9  UNL     1     -32.132   8.488   2.045  1.00 20.00    -0.033 C 
HETATM    9  C4  UNL     1     -31.105   8.664   3.177  1.00 20.00     0.018 C 
HETATM   10  C5  UNL     1     -31.418   8.345   0.690  1.00 20.00     0.018 C 
HETATM   11  C6  UNL     1     -32.978   9.782   1.974  1.00 20.00     0.018 C 
ENDBRANCH   1   8
TORSDOF 4
ENDMDL
MODEL 3
REMARK VINA RESULT:      -4.2      1.926      4.447
REMARK  4 active torsions:
REMARK  status: ('A' for Active; 'I' for Inactive)
REMARK    1  A    between atoms: C1_1  and  C9_9 
REMARK    2  A    between atoms: C2_2  and  C7_7 
REMARK    3  A    between atoms: C2_2  and  C8_8 
REMARK    4  A    between atoms: C8_8  and  O10_10 
ROOT
HETATM    1  C1  UNL     1     -33.082   7.402   2.284  1.00 20.00    -0.013 C 
HETATM    2  C2  UNL     1     -33.559   6.929   3.456  1.00 20.00    -0.060 C 
ENDROOT
BRANCH   2   3
HETATM    3  C7  UNL     1     -33.326   7.538   4.820  1.00 20.00     0.031 C 
HETATM    4  C3  UNL     1     -34.073   6.807   5.927  1.00 20.00     0.010 C 
ENDBRANCH   2   3
BRANCH   2   5
HETATM    5  C8  UNL     1     -34.431   5.691   3.446  1.00 20.00     0.198 C 
BRANCH   5   6
HETATM    6  O10 UNL     1     -33.617   4.534   3.301  1.00 20.00    -0.397 OA
HETATM    7  H28 UNL     1     -33.235   4.349   4.174  1.00 20.00     0.209 HD
ENDBRANCH   5   6
ENDBRANCH   2   5
BRANCH   1   8
HETATM    8  C9  UNL     1     -32.185   8.595   1.964  1.00 20.00    -0.033 C 
HETATM    9  C4  UNL     1     -31.421   8.356   0.651  1.00 20.00     0.018 C 
HETATM   10  C5  UNL     1     -32.948   9.930   1.907  1.00 20.00     0.018 C 
HETATM   11  C6  UNL     1     -31.139   8.721   3.098  1.00 20.00     0.018 C 
ENDBRANCH   1   8
TORSDOF 4
ENDMDL
MODEL 4
REMARK VINA RESULT:      -4.1      1.527      4.233
REMARK  4 active torsions:
REMARK  status: ('A' for Active; 'I' for Inactive)
REMARK    1  A    between atoms: C1_1  and  C9_9 
REMARK    2  A    between atoms: C2_2  and  C7_7 
REMARK    3  A    between atoms: C2_2  and  C8_8 
REMARK    4  A    between atoms: C8_8  and  O10_10 
ROOT
HETATM    1  C1  UNL     1     -32.934   8.639   2.533  1.00 20.00    -0.013 C 
HETATM    2  C2  UNL     1     -33.164   7.385   2.981  1.00 20.00    -0.060 C 
ENDROOT
BRANCH   2   3
HETATM    3  C7  UNL     1     -32.970   6.111   2.190  1.00 20.00     0.031 C 
HETATM    4  C3  UNL     1     -33.369   4.867   2.972  1.00 20.00     0.010 C 
ENDBRANCH   2   3
BRANCH   2   5
HETATM    5  C8  UNL     1     -33.640   7.192   4.405  1.00 20.00     0.198 C 
BRANCH   5   6
HETATM    6  O10 UNL     1     -32.699   7.763   5.306  1.00 20.00    -0.397 OA
HETATM    7  H28 UNL     1     -32.904   8.710   5.360  1.00 20.00     0.209 HD
ENDBRANCH   5   6
ENDBRANCH   2   5
BRANCH   1   8
HETATM    8  C9  UNL     1     -32.471   9.160   1.175  1.00 20.00    -0.033 C 
HETATM    9  C4  UNL     1     -31.052   8.658   0.861  1.00 20.00     0.018 C 
HETATM   10  C5  UNL     1     -33.433   8.803   0.028  1.00 20.00     0.018 C 
HETATM   11  C6  UNL     1     -32.415  10.705   1.252  1.00 20.00     0.018 C 
ENDBRANCH   1   8
TORSDOF 4
ENDMDL
MODEL 5
REMARK VINA RESULT:      -4.1     11.416     12.165
REMARK  4 active torsions:
REMARK  status: ('A' for Active; 'I' for Inactive)
REMARK    1  A    between atoms: C1_1  and  C9_9 
REMARK    2  A    between atoms: C2_2  and  C7_7 
REMARK    3  A    between atoms: C2_2  and  C8_8 
REMARK    4  A    between atoms: C8_8  and  O10_10 
ROOT
HETATM    1  C1  UNL     1     -33.583  16.376  -2.965  1.00 20.00    -0.013 C 
HETATM    2  C2  UNL     1     -34.114  15.448  -3.791  1.00 20.00    -0.060 C 
ENDROOT
BRANCH   2   3
HETATM    3  C7  UNL     1     -35.582  15.282  -4.113  1.00 20.00     0.031 C 
HETATM    4  C3  UNL     1     -35.872  14.012  -4.901  1.00 20.00     0.010 C 
ENDBRANCH   2   3
BRANCH   2   5
HETATM    5  C8  UNL     1     -33.188  14.481  -4.497  1.00 20.00     0.198 C 
BRANCH   5   6
HETATM    6  O10 UNL     1     -32.354  15.191  -5.404  1.00 20.00    -0.397 OA
HETATM    7  H28 UNL     1     -32.927  15.505  -6.122  1.00 20.00     0.209 HD
ENDBRANCH   5   6
ENDBRANCH   2   5
BRANCH   1   8
HETATM    8  C9  UNL     1     -34.233  17.463  -2.113  1.00 20.00    -0.033 C 
HETATM    9  C4  UNL     1     -34.793  18.583  -3.005  1.00 20.00     0.018 C 
HETATM   10  C5  UNL     1     -35.328  16.926  -1.175  1.00 20.00     0.018 C 
HETATM   11  C6  UNL     1     -33.136  18.084  -1.215  1.00 20.00     0.018 C 
ENDBRANCH   1   8
TORSDOF 4
ENDMDL
MODEL 6
REMARK VINA RESULT:      -4.1     11.131     12.286
REMARK  4 active torsions:
REMARK  status: ('A' for Active; 'I' for Inactive)
REMARK    1  A    between atoms: C1_1  and  C9_9 
REMARK    2  A    between atoms: C2_2  and  C7_7 
REMARK    3  A    between atoms: C2_2  and  C8_8 
REMARK    4  A    between atoms: C8_8  and  O10_10 
ROOT
HETATM    1  C1  UNL     1     -34.484  16.081  -2.694  1.00 20.00    -0.013 C 
HETATM    2  C2  UNL     1     -33.993  15.722  -3.900  1.00 20.00    -0.060 C 
ENDROOT
BRANCH   2   3
HETATM    3  C7  UNL     1     -33.266  16.629  -4.868  1.00 20.00     0.031 C 
HETATM    4  C3  UNL     1     -33.952  16.711  -6.225  1.00 20.00     0.010 C 
ENDBRANCH   2   3
BRANCH   2   5
HETATM    5  C8  UNL     1     -34.140  14.285  -4.354  1.00 20.00     0.198 C 
BRANCH   5   6
HETATM    6  O10 UNL     1     -32.854  13.706  -4.535  1.00 20.00    -0.397 OA
HETATM    7  H28 UNL     1     -32.388  13.791  -3.688  1.00 20.00     0.209 HD
ENDBRANCH   5   6
ENDBRANCH   2   5
BRANCH   1   8
HETATM    8  C9  UNL     1     -34.507  17.424  -1.969  1.00 20.00    -0.033 C 
HETATM    9  C4  UNL     1     -33.085  17.835  -1.554  1.00 20.00     0.018 C 
HETATM   10  C5  UNL     1     -35.173  18.544  -2.787  1.00 20.00     0.018 C 
HETATM   11  C6  UNL     1     -35.341  17.253  -0.677  1.00 20.00     0.018 C 
ENDBRANCH   1   8
TORSDOF 4
ENDMDL
MODEL 7
REMARK VINA RESULT:      -3.9     11.186     12.289
REMARK  4 active torsions:
REMARK  status: ('A' for Active; 'I' for Inactive)
REMARK    1  A    between atoms: C1_1  and  C9_9 
REMARK    2  A    between atoms: C2_2  and  C7_7 
REMARK    3  A    between atoms: C2_2  and  C8_8 
REMARK    4  A    between atoms: C8_8  and  O10_10 
ROOT
HETATM    1  C1  UNL     1     -34.660  16.063  -2.675  1.00 20.00    -0.013 C 
HETATM    2  C2  UNL     1     -34.135  15.704  -3.866  1.00 20.00    -0.060 C 
ENDROOT
BRANCH   2   3
HETATM    3  C7  UNL     1     -33.303  16.584  -4.771  1.00 20.00     0.031 C 
HETATM    4  C3  UNL     1     -34.029  16.964  -6.054  1.00 20.00     0.010 C 
ENDBRANCH   2   3
BRANCH   2   5
HETATM    5  C8  UNL     1     -34.357  14.293  -4.369  1.00 20.00     0.198 C 
BRANCH   5   6
HETATM    6  O10 UNL     1     -33.118  13.734  -4.789  1.00 20.00    -0.397 OA
HETATM    7  H28 UNL     1     -32.476  13.919  -4.085  1.00 20.00     0.209 HD
ENDBRANCH   5   6
ENDBRANCH   2   5
BRANCH   1   8
HETATM    8  C9  UNL     1     -34.628  17.385  -1.912  1.00 20.00    -0.033 C 
HETATM    9  C4  UNL     1     -35.186  18.523  -2.783  1.00 20.00     0.018 C 
HETATM   10  C5  UNL     1     -35.371  17.326  -0.565  1.00 20.00     0.018 C 
HETATM   11  C6  UNL     1     -33.150  17.717  -1.597  1.00 20.00     0.018 C 
ENDBRANCH   1   8
TORSDOF 4
ENDMDL
MODEL 8
REMARK VINA RESULT:      -3.9     11.255     12.306
REMARK  4 active torsions:
REMARK  status: ('A' for Active; 'I' for Inactive)
REMARK    1  A    between atoms: C1_1  and  C9_9 
REMARK    2  A    between atoms: C2_2  and  C7_7 
REMARK    3  A    between atoms: C2_2  and  C8_8 
REMARK    4  A    between atoms: C8_8  and  O10_10 
ROOT
HETATM    1  C1  UNL     1     -34.370  15.815  -3.381  1.00 20.00    -0.013 C 
HETATM    2  C2  UNL     1     -35.287  15.089  -4.057  1.00 20.00    -0.060 C 
ENDROOT
BRANCH   2   3
HETATM    3  C7  UNL     1     -36.757  15.418  -4.192  1.00 20.00     0.031 C 
HETATM    4  C3  UNL     1     -37.088  16.104  -5.509  1.00 20.00     0.010 C 
ENDBRANCH   2   3
BRANCH   2   5
HETATM    5  C8  UNL     1     -34.841  13.835  -4.779  1.00 20.00     0.198 C 
BRANCH   5   6
HETATM    6  O10 UNL     1     -35.909  12.896  -4.812  1.00 20.00    -0.397 OA
HETATM    7  H28 UNL     1     -36.437  13.046  -4.012  1.00 20.00     0.209 HD
ENDBRANCH   5   6
ENDBRANCH   2   5
BRANCH   1   8
HETATM    8  C9  UNL     1     -34.499  17.094  -2.557  1.00 20.00    -0.033 C 
HETATM    9  C4  UNL     1     -33.150  17.458  -1.916  1.00 20.00     0.018 C 
HETATM   10  C5  UNL     1     -35.050  18.283  -3.364  1.00 20.00     0.018 C 
HETATM   11  C6  UNL     1     -35.505  16.822  -1.412  1.00 20.00     0.018 C 
ENDBRANCH   1   8
TORSDOF 4
ENDMDL
MODEL 9
REMARK VINA RESULT:      -3.9     11.658     12.391
REMARK  4 active torsions:
REMARK  status: ('A' for Active; 'I' for Inactive)
REMARK    1  A    between atoms: C1_1  and  C9_9 
REMARK    2  A    between atoms: C2_2  and  C7_7 
REMARK    3  A    between atoms: C2_2  and  C8_8 
REMARK    4  A    between atoms: C8_8  and  O10_10 
ROOT
HETATM    1  C1  UNL     1     -35.739  15.700  -3.661  1.00 20.00    -0.013 C 
HETATM    2  C2  UNL     1     -35.384  14.945  -4.723  1.00 20.00    -0.060 C 
ENDROOT
BRANCH   2   3
HETATM    3  C7  UNL     1     -34.051  14.985  -5.436  1.00 20.00     0.031 C 
HETATM    4  C3  UNL     1     -34.015  16.011  -6.560  1.00 20.00     0.010 C 
ENDBRANCH   2   3
BRANCH   2   5
HETATM    5  C8  UNL     1     -36.372  13.936  -5.268  1.00 20.00     0.198 C 
BRANCH   5   6
HETATM    6  O10 UNL     1     -35.915  12.618  -4.989  1.00 20.00    -0.397 OA
HETATM    7  H28 UNL     1     -35.907  12.141  -5.834  1.00 20.00     0.209 HD
ENDBRANCH   5   6
ENDBRANCH   2   5
BRANCH   1   8
HETATM    8  C9  UNL     1     -34.991  16.792  -2.901  1.00 20.00    -0.033 C 
HETATM    9  C4  UNL     1     -35.549  16.933  -1.475  1.00 20.00     0.018 C 
HETATM   10  C5  UNL     1     -33.469  16.572  -2.863  1.00 20.00     0.018 C 
HETATM   11  C6  UNL     1     -35.235  18.134  -3.633  1.00 20.00     0.018 C 
ENDBRANCH   1   8
TORSDOF 4
ENDMDL
