MODEL 1
REMARK VINA RESULT:      -5.3      0.000      0.000
REMARK  4 active torsions:
REMARK  status: ('A' for Active; 'I' for Inactive)
REMARK    1  A    between atoms: C1_1  and  C9_9 
REMARK    2  A    between atoms: C2_2  and  C6_6 
REMARK    3  A    between atoms: C7_7  and  C9_9 
REMARK    4  A    between atoms: C8_8  and  C9_9 
ROOT
HETATM    1  C1  UNL     1     -32.372   7.608   2.545  1.00 20.00    -0.019 C 
HETATM    2  C2  UNL     1     -32.206   8.572   1.617  1.00 20.00    -0.073 C 
HETATM    3  C3  UNL     1     -30.940   8.627   0.802  1.00 20.00     0.044 C 
ENDROOT
BRANCH   1   4
HETATM    4  C9  UNL     1     -33.557   7.403   3.465  1.00 20.00     0.007 C 
BRANCH   4   5
HETATM    5  C7  UNL     1     -33.135   7.581   4.940  1.00 20.00     0.004 C 
HETATM    6  C4  UNL     1     -34.042   6.846   5.921  1.00 20.00     0.006 C 
ENDBRANCH   4   5
BRANCH   4   7
HETATM    7  C8  UNL     1     -34.165   5.998   3.270  1.00 20.00     0.004 C 
HETATM    8  C5  UNL     1     -33.168   4.976   2.738  1.00 20.00     0.006 C 
ENDBRANCH   4   7
ENDBRANCH   1   4
BRANCH   2   9
HETATM    9  C6  UNL     1     -33.227   9.622   1.283  1.00 20.00     0.148 C 
HETATM   10 CL10 UNL     1     -33.401   9.781  -0.478  1.00 20.00    -0.126 Cl
ENDBRANCH   2   9
TORSDOF 4
ENDMDL
MODEL 2
REMARK VINA RESULT:      -4.9      1.187      1.400
REMARK  4 active torsions:
REMARK  status: ('A' for Active; 'I' for Inactive)
REMARK    1  A    between atoms: C1_1  and  C9_9 
REMARK    2  A    between atoms: C2_2  and  C6_6 
REMARK    3  A    between atoms: C7_7  and  C9_9 
REMARK    4  A    between atoms: C8_8  and  C9_9 
ROOT
HETATM    1  C1  UNL     1     -32.683   7.173   3.464  1.00 20.00    -0.019 C 
HETATM    2  C2  UNL     1     -32.340   8.106   2.552  1.00 20.00    -0.073 C 
HETATM    3  C3  UNL     1     -30.984   8.759   2.612  1.00 20.00     0.044 C 
ENDROOT
BRANCH   1   4
HETATM    4  C9  UNL     1     -33.995   6.426   3.575  1.00 20.00     0.007 C 
BRANCH   4   5
HETATM    5  C7  UNL     1     -34.547   6.510   5.014  1.00 20.00     0.004 C 
HETATM    6  C4  UNL     1     -33.672   7.335   5.951  1.00 20.00     0.006 C 
ENDBRANCH   4   5
BRANCH   4   7
HETATM    7  C8  UNL     1     -33.817   4.946   3.178  1.00 20.00     0.004 C 
HETATM    8  C5  UNL     1     -34.184   3.972   4.290  1.00 20.00     0.006 C 
ENDBRANCH   4   7
ENDBRANCH   1   4
BRANCH   2   9
HETATM    9  C6  UNL     1     -33.212   8.548   1.411  1.00 20.00     0.148 C 
HETATM   10 CL10 UNL     1     -32.813  10.211   0.932  1.00 20.00    -0.126 Cl
ENDBRANCH   2   9
TORSDOF 4
ENDMDL
MODEL 3
REMARK VINA RESULT:      -4.7      2.566      4.468
REMARK  4 active torsions:
REMARK  status: ('A' for Active; 'I' for Inactive)
REMARK    1  A    between atoms: C1_1  and  C9_9 
REMARK    2  A    between atoms: C2_2  and  C6_6 
REMARK    3  A    between atoms: C7_7  and  C9_9 
REMARK    4  A    between atoms: C8_8  and  C9_9 
ROOT
HETATM    1  C1  UNL     1     -32.570   6.498   2.539  1.00 20.00    -0.019 C 
HETATM    2  C2  UNL     1     -33.497   5.592   2.912  1.00 20.00    -0.073 C 
HETATM    3  C3  UNL     1     -33.272   4.127   2.645  1.00 20.00     0.044 C 
ENDROOT
BRANCH   1   4
HETATM    4  C9  UNL     1     -32.627   8.002   2.705  1.00 20.00     0.007 C 
BRANCH   4   5
HETATM    5  C7  UNL     1     -32.027   8.707   1.469  1.00 20.00     0.004 C 
HETATM    6  C4  UNL     1     -32.671  10.056   1.170  1.00 20.00     0.006 C 
ENDBRANCH   4   5
BRANCH   4   7
HETATM    7  C8  UNL     1     -31.861   8.442   3.970  1.00 20.00     0.004 C 
HETATM    8  C5  UNL     1     -32.630   8.190   5.261  1.00 20.00     0.006 C 
ENDBRANCH   4   7
ENDBRANCH   1   4
BRANCH   2   9
HETATM    9  C6  UNL     1     -34.774   5.922   3.632  1.00 20.00     0.148 C 
HETATM   10 CL10 UNL     1     -34.761   5.227   5.268  1.00 20.00    -0.126 Cl
ENDBRANCH   2   9
TORSDOF 4
ENDMDL
MODEL 4
REMARK VINA RESULT:      -4.4      2.040      2.913
REMARK  4 active torsions:
REMARK  status: ('A' for Active; 'I' for Inactive)
REMARK    1  A    between atoms: C1_1  and  C9_9 
REMARK    2  A    between atoms: C2_2  and  C6_6 
REMARK    3  A    between atoms: C7_7  and  C9_9 
REMARK    4  A    between atoms: C8_8  and  C9_9 
ROOT
HETATM    1  C1  UNL     1     -33.352   7.292   2.492  1.00 20.00    -0.019 C 
HETATM    2  C2  UNL     1     -32.380   8.169   2.166  1.00 20.00    -0.073 C 
HETATM    3  C3  UNL     1     -32.540   9.062   0.964  1.00 20.00     0.044 C 
ENDROOT
BRANCH   1   4
HETATM    4  C9  UNL     1     -33.363   6.309   3.643  1.00 20.00     0.007 C 
BRANCH   4   5
HETATM    5  C7  UNL     1     -33.618   4.875   3.129  1.00 20.00     0.004 C 
HETATM    6  C4  UNL     1     -34.173   3.939   4.196  1.00 20.00     0.006 C 
ENDBRANCH   4   5
BRANCH   4   7
HETATM    7  C8  UNL     1     -34.447   6.685   4.674  1.00 20.00     0.004 C 
HETATM    8  C5  UNL     1     -33.878   7.154   6.007  1.00 20.00     0.006 C 
ENDBRANCH   4   7
ENDBRANCH   1   4
BRANCH   2   9
HETATM    9  C6  UNL     1     -31.112   8.368   2.947  1.00 20.00     0.148 C 
HETATM   10 CL10 UNL     1     -31.473   9.013   4.563  1.00 20.00    -0.126 Cl
ENDBRANCH   2   9
TORSDOF 4
ENDMDL
MODEL 5
REMARK VINA RESULT:      -4.4      2.689      4.426
REMARK  4 active torsions:
REMARK  status: ('A' for Active; 'I' for Inactive)
REMARK    1  A    between atoms: C1_1  and  C9_9 
REMARK    2  A    between atoms: C2_2  and  C6_6 
REMARK    3  A    between atoms: C7_7  and  C9_9 
REMARK    4  A    between atoms: C8_8  and  C9_9 
ROOT
HETATM    1  C1  UNL     1     -33.605   7.415   2.756  1.00 20.00    -0.019 C 
HETATM    2  C2  UNL     1     -34.043   6.207   3.166  1.00 20.00    -0.073 C 
HETATM    3  C3  UNL     1     -35.423   6.063   3.753  1.00 20.00     0.044 C 
ENDROOT
BRANCH   1   4
HETATM    4  C9  UNL     1     -32.255   7.758   2.163  1.00 20.00     0.007 C 
BRANCH   4   5
HETATM    5  C7  UNL     1     -31.351   8.427   3.221  1.00 20.00     0.004 C 
HETATM    6  C4  UNL     1     -31.974   8.466   4.611  1.00 20.00     0.006 C 
ENDBRANCH   4   5
BRANCH   4   7
HETATM    7  C8  UNL     1     -32.413   8.700   0.951  1.00 20.00     0.004 C 
HETATM    8  C5  UNL     1     -32.670  10.150   1.342  1.00 20.00     0.006 C 
ENDBRANCH   4   7
ENDBRANCH   1   4
BRANCH   2   9
HETATM    9  C6  UNL     1     -33.258   4.930   3.054  1.00 20.00     0.148 C 
HETATM   10 CL10 UNL     1     -33.915   3.700   4.155  1.00 20.00    -0.126 Cl
ENDBRANCH   2   9
TORSDOF 4
ENDMDL
MODEL 6
REMARK VINA RESULT:      -4.3      1.138      2.532
REMARK  4 active torsions:
REMARK  status: ('A' for Active; 'I' for Inactive)
REMARK    1  A    between atoms: C1_1  and  C9_9 
REMARK    2  A    between atoms: C2_2  and  C6_6 
REMARK    3  A    between atoms: C7_7  and  C9_9 
REMARK    4  A    between atoms: C8_8  and  C9_9 
ROOT
HETATM    1  C1  UNL     1     -33.520   8.289   3.068  1.00 20.00    -0.019 C 
HETATM    2  C2  UNL     1     -32.704   8.848   2.150  1.00 20.00    -0.073 C 
HETATM    3  C3  UNL     1     -33.109  10.123   1.457  1.00 20.00     0.044 C 
ENDROOT
BRANCH   1   4
HETATM    4  C9  UNL     1     -33.295   7.012   3.850  1.00 20.00     0.007 C 
BRANCH   4   5
HETATM    5  C7  UNL     1     -34.003   5.824   3.163  1.00 20.00     0.004 C 
HETATM    6  C4  UNL     1     -33.037   4.799   2.581  1.00 20.00     0.006 C 
ENDBRANCH   4   5
BRANCH   4   7
HETATM    7  C8  UNL     1     -33.816   7.157   5.295  1.00 20.00     0.004 C 
HETATM    8  C5  UNL     1     -34.486   5.896   5.825  1.00 20.00     0.006 C 
ENDBRANCH   4   7
ENDBRANCH   1   4
BRANCH   2   9
HETATM    9  C6  UNL     1     -31.355   8.311   1.765  1.00 20.00     0.148 C 
HETATM   10 CL10 UNL     1     -31.066   8.548   0.028  1.00 20.00    -0.126 Cl
ENDBRANCH   2   9
TORSDOF 4
ENDMDL
MODEL 7
REMARK VINA RESULT:      -4.2      2.451      4.543
REMARK  4 active torsions:
REMARK  status: ('A' for Active; 'I' for Inactive)
REMARK    1  A    between atoms: C1_1  and  C9_9 
REMARK    2  A    between atoms: C2_2  and  C6_6 
REMARK    3  A    between atoms: C7_7  and  C9_9 
REMARK    4  A    between atoms: C8_8  and  C9_9 
ROOT
HETATM    1  C1  UNL     1     -32.904   7.505   2.147  1.00 20.00    -0.019 C 
HETATM    2  C2  UNL     1     -33.236   7.024   3.363  1.00 20.00    -0.073 C 
HETATM    3  C3  UNL     1     -33.983   5.721   3.482  1.00 20.00     0.044 C 
ENDROOT
BRANCH   1   4
HETATM    4  C9  UNL     1     -32.177   8.794   1.829  1.00 20.00     0.007 C 
BRANCH   4   5
HETATM    5  C7  UNL     1     -33.125  10.004   1.979  1.00 20.00     0.004 C 
HETATM    6  C4  UNL     1     -32.403  11.346   1.947  1.00 20.00     0.006 C 
ENDBRANCH   4   5
BRANCH   4   7
HETATM    7  C8  UNL     1     -31.607   8.761   0.396  1.00 20.00     0.004 C 
HETATM    8  C5  UNL     1     -32.663   8.970  -0.681  1.00 20.00     0.006 C 
ENDBRANCH   4   7
ENDBRANCH   1   4
BRANCH   2   9
HETATM    9  C6  UNL     1     -32.884   7.680   4.668  1.00 20.00     0.148 C 
HETATM   10 CL10 UNL     1     -33.948   7.095   5.964  1.00 20.00    -0.126 Cl
ENDBRANCH   2   9
TORSDOF 4
ENDMDL
MODEL 8
REMARK VINA RESULT:      -4.2      2.677      4.449
REMARK  4 active torsions:
REMARK  status: ('A' for Active; 'I' for Inactive)
REMARK    1  A    between atoms: C1_1  and  C9_9 
REMARK    2  A    between atoms: C2_2  and  C6_6 
REMARK    3  A    between atoms: C7_7  and  C9_9 
REMARK    4  A    between atoms: C8_8  and  C9_9 
ROOT
HETATM    1  C1  UNL     1     -32.782   7.549   4.147  1.00 20.00    -0.019 C 
HETATM    2  C2  UNL     1     -33.726   7.087   4.993  1.00 20.00    -0.073 C 
HETATM    3  C3  UNL     1     -33.766   7.571   6.419  1.00 20.00     0.044 C 
ENDROOT
BRANCH   1   4
HETATM    4  C9  UNL     1     -32.573   7.170   2.697  1.00 20.00     0.007 C 
BRANCH   4   5
HETATM    5  C7  UNL     1     -32.821   8.387   1.777  1.00 20.00     0.004 C 
HETATM    6  C4  UNL     1     -31.595   8.790   0.966  1.00 20.00     0.006 C 
ENDBRANCH   4   5
BRANCH   4   7
HETATM    7  C8  UNL     1     -33.516   6.019   2.291  1.00 20.00     0.004 C 
HETATM    8  C5  UNL     1     -32.862   4.645   2.366  1.00 20.00     0.006 C 
ENDBRANCH   4   7
ENDBRANCH   1   4
BRANCH   2   9
HETATM    9  C6  UNL     1     -34.810   6.117   4.616  1.00 20.00     0.148 C 
HETATM   10 CL10 UNL     1     -34.625   4.598   5.518  1.00 20.00    -0.126 Cl
ENDBRANCH   2   9
TORSDOF 4
ENDMDL
MODEL 9
REMARK VINA RESULT:      -4.1      2.710      4.653
REMARK  4 active torsions:
REMARK  status: ('A' for Active; 'I' for Inactive)
REMARK    1  A    between atoms: C1_1  and  C9_9 
REMARK    2  A    between atoms: C2_2  and  C6_6 
REMARK    3  A    between atoms: C7_7  and  C9_9 
REMARK    4  A    between atoms: C8_8  and  C9_9 
ROOT
HETATM    1  C1  UNL     1     -33.028   7.599   4.134  1.00 20.00    -0.019 C 
HETATM    2  C2  UNL     1     -33.896   7.017   4.987  1.00 20.00    -0.073 C 
HETATM    3  C3  UNL     1     -33.942   7.448   6.430  1.00 20.00     0.044 C 
ENDROOT
BRANCH   1   4
HETATM    4  C9  UNL     1     -32.825   7.290   2.666  1.00 20.00     0.007 C 
BRANCH   4   5
HETATM    5  C7  UNL     1     -32.214   5.883   2.487  1.00 20.00     0.004 C 
HETATM    6  C4  UNL     1     -33.251   4.808   2.187  1.00 20.00     0.006 C 
ENDBRANCH   4   5
BRANCH   4   7
HETATM    7  C8  UNL     1     -31.903   8.339   2.009  1.00 20.00     0.004 C 
HETATM    8  C5  UNL     1     -32.581   9.130   0.897  1.00 20.00     0.006 C 
ENDBRANCH   4   7
ENDBRANCH   1   4
BRANCH   2   9
HETATM    9  C6  UNL     1     -34.889   5.956   4.604  1.00 20.00     0.148 C 
HETATM   10 CL10 UNL     1     -34.516   4.429   5.432  1.00 20.00    -0.126 Cl
ENDBRANCH   2   9
TORSDOF 4
ENDMDL
