MODEL 1
REMARK VINA RESULT:      -4.0      0.000      0.000
REMARK  1 active torsions:
REMARK  status: ('A' for Active; 'I' for Inactive)
REMARK    1  A    between atoms: C3_3  and  C8_8 
ROOT
HETATM    1  C1  UNL     1     -36.146  15.937  -4.729  1.00 20.00     0.284 C 
HETATM    2  C2  UNL     1     -33.429  16.358  -4.486  1.00 20.00     0.110 C 
HETATM    3  C3  UNL     1     -34.343  17.144  -3.535  1.00 20.00     0.233 C 
HETATM    4  C4  UNL     1     -35.557  14.562  -4.401  1.00 20.00     0.071 C 
HETATM    5  C5  UNL     1     -36.069  13.506  -5.377  1.00 20.00     0.023 C 
HETATM    6  N9  UNL     1     -35.784  16.966  -3.758  1.00 20.00     0.090 N 
HETATM    7  S10 UNL     1     -33.727  14.564  -4.460  1.00 20.00    -0.161 SA
HETATM    8  H27 UNL     1     -36.186  17.866  -4.069  1.00 20.00     0.316 HD
ENDROOT
BRANCH   3   9
HETATM    9  C8  UNL     1     -34.002  16.886  -2.062  1.00 20.00     0.011 C 
HETATM   10  C6  UNL     1     -32.961  17.889  -1.573  1.00 20.00     0.012 C 
HETATM   11  C7  UNL     1     -35.261  16.951  -1.204  1.00 20.00     0.012 C 
ENDBRANCH   3   9
TORSDOF 1
ENDMDL
MODEL 2
REMARK VINA RESULT:      -3.9      2.163      4.600
REMARK  1 active torsions:
REMARK  status: ('A' for Active; 'I' for Inactive)
REMARK    1  A    between atoms: C3_3  and  C8_8 
ROOT
HETATM    1  C1  UNL     1     -33.027  14.956  -4.171  1.00 20.00     0.284 C 
HETATM    2  C2  UNL     1     -33.926  16.167  -6.481  1.00 20.00     0.110 C 
HETATM    3  C3  UNL     1     -34.051  14.639  -6.402  1.00 20.00     0.233 C 
HETATM    4  C4  UNL     1     -34.121  15.925  -3.714  1.00 20.00     0.071 C 
HETATM    5  C5  UNL     1     -33.629  16.789  -2.554  1.00 20.00     0.023 C 
HETATM    6  N9  UNL     1     -33.476  14.023  -5.200  1.00 20.00     0.090 N 
HETATM    7  S10 UNL     1     -34.670  17.031  -5.065  1.00 20.00    -0.161 SA
HETATM    8  H27 UNL     1     -32.676  13.432  -5.479  1.00 20.00     0.316 HD
ENDROOT
BRANCH   3   9
HETATM    9  C8  UNL     1     -35.499  14.169  -6.596  1.00 20.00     0.011 C 
HETATM   10  C6  UNL     1     -35.644  13.423  -7.918  1.00 20.00     0.012 C 
HETATM   11  C7  UNL     1     -35.933  13.289  -5.428  1.00 20.00     0.012 C 
ENDBRANCH   3   9
TORSDOF 1
ENDMDL
MODEL 3
REMARK VINA RESULT:      -3.7      1.843      4.258
REMARK  1 active torsions:
REMARK  status: ('A' for Active; 'I' for Inactive)
REMARK    1  A    between atoms: C3_3  and  C8_8 
ROOT
HETATM    1  C1  UNL     1     -33.325  17.976  -3.399  1.00 20.00     0.284 C 
HETATM    2  C2  UNL     1     -35.801  16.780  -3.170  1.00 20.00     0.110 C 
HETATM    3  C3  UNL     1     -34.849  16.211  -4.231  1.00 20.00     0.233 C 
HETATM    4  C4  UNL     1     -33.391  17.469  -1.956  1.00 20.00     0.071 C 
HETATM    5  C5  UNL     1     -32.995  18.571  -0.976  1.00 20.00     0.023 C 
HETATM    6  N9  UNL     1     -33.580  16.933  -4.389  1.00 20.00     0.090 N 
HETATM    7  S10 UNL     1     -35.064  16.874  -1.510  1.00 20.00    -0.161 SA
HETATM    8  H27 UNL     1     -33.554  17.360  -5.329  1.00 20.00     0.316 HD
ENDROOT
BRANCH   3   9
HETATM    9  C8  UNL     1     -34.583  14.715  -4.025  1.00 20.00     0.011 C 
HETATM   10  C6  UNL     1     -35.546  13.881  -4.864  1.00 20.00     0.012 C 
HETATM   11  C7  UNL     1     -33.136  14.379  -4.369  1.00 20.00     0.012 C 
ENDBRANCH   3   9
TORSDOF 1
ENDMDL
MODEL 4
REMARK VINA RESULT:      -3.6      2.036      2.611
REMARK  1 active torsions:
REMARK  status: ('A' for Active; 'I' for Inactive)
REMARK    1  A    between atoms: C3_3  and  C8_8 
ROOT
HETATM    1  C1  UNL     1     -33.840  15.171  -7.052  1.00 20.00     0.284 C 
HETATM    2  C2  UNL     1     -33.676  14.450  -4.394  1.00 20.00     0.110 C 
HETATM    3  C3  UNL     1     -33.190  15.858  -4.764  1.00 20.00     0.233 C 
HETATM    4  C4  UNL     1     -35.278  14.848  -6.637  1.00 20.00     0.071 C 
HETATM    5  C5  UNL     1     -35.929  13.895  -7.636  1.00 20.00     0.023 C 
HETATM    6  N9  UNL     1     -33.204  16.171  -6.199  1.00 20.00     0.090 N 
HETATM    7  S10 UNL     1     -35.361  14.087  -4.974  1.00 20.00    -0.161 SA
HETATM    8  H27 UNL     1     -32.231  16.304  -6.519  1.00 20.00     0.316 HD
ENDROOT
BRANCH   3   9
HETATM    9  C8  UNL     1     -33.931  16.948  -3.979  1.00 20.00     0.011 C 
HETATM   10  C6  UNL     1     -33.678  16.793  -2.483  1.00 20.00     0.012 C 
HETATM   11  C7  UNL     1     -33.505  18.332  -4.459  1.00 20.00     0.012 C 
ENDBRANCH   3   9
TORSDOF 1
ENDMDL
MODEL 5
REMARK VINA RESULT:      -3.6      1.859      2.805
REMARK  1 active torsions:
REMARK  status: ('A' for Active; 'I' for Inactive)
REMARK    1  A    between atoms: C3_3  and  C8_8 
ROOT
HETATM    1  C1  UNL     1     -33.433  15.645  -5.216  1.00 20.00     0.284 C 
HETATM    2  C2  UNL     1     -35.918  15.983  -4.064  1.00 20.00     0.110 C 
HETATM    3  C3  UNL     1     -34.712  15.933  -3.116  1.00 20.00     0.233 C 
HETATM    4  C4  UNL     1     -33.983  16.937  -5.827  1.00 20.00     0.071 C 
HETATM    5  C5  UNL     1     -33.857  16.914  -7.348  1.00 20.00     0.023 C 
HETATM    6  N9  UNL     1     -33.419  15.656  -3.756  1.00 20.00     0.090 N 
HETATM    7  S10 UNL     1     -35.742  17.208  -5.397  1.00 20.00    -0.161 SA
HETATM    8  H27 UNL     1     -33.072  14.742  -3.424  1.00 20.00     0.316 HD
ENDROOT
BRANCH   3   9
HETATM    9  C8  UNL     1     -34.610  17.192  -2.244  1.00 20.00     0.011 C 
HETATM   10  C6  UNL     1     -35.447  17.032  -0.979  1.00 20.00     0.012 C 
HETATM   11  C7  UNL     1     -33.154  17.483  -1.898  1.00 20.00     0.012 C 
ENDBRANCH   3   9
TORSDOF 1
ENDMDL
MODEL 6
REMARK VINA RESULT:      -3.6      1.177      1.177
REMARK  1 active torsions:
REMARK  status: ('A' for Active; 'I' for Inactive)
REMARK    1  A    between atoms: C3_3  and  C8_8 
ROOT
HETATM    1  C1  UNL     1     -36.018  15.359  -5.340  1.00 20.00     0.284 C 
HETATM    2  C2  UNL     1     -34.131  17.314  -4.859  1.00 20.00     0.110 C 
HETATM    3  C3  UNL     1     -35.155  17.047  -3.747  1.00 20.00     0.233 C 
HETATM    4  C4  UNL     1     -34.668  14.644  -5.443  1.00 20.00     0.071 C 
HETATM    5  C5  UNL     1     -34.588  13.821  -6.726  1.00 20.00     0.023 C 
HETATM    6  N9  UNL     1     -36.200  16.069  -4.077  1.00 20.00     0.090 N 
HETATM    7  S10 UNL     1     -33.263  15.818  -5.420  1.00 20.00    -0.161 SA
HETATM    8  H27 UNL     1     -37.113  16.552  -4.101  1.00 20.00     0.316 HD
ENDROOT
BRANCH   3   9
HETATM    9  C8  UNL     1     -34.482  16.673  -2.420  1.00 20.00     0.011 C 
HETATM   10  C6  UNL     1     -33.213  17.494  -2.217  1.00 20.00     0.012 C 
HETATM   11  C7  UNL     1     -35.449  16.875  -1.258  1.00 20.00     0.012 C 
ENDBRANCH   3   9
TORSDOF 1
ENDMDL
MODEL 7
REMARK VINA RESULT:      -3.5      1.900      2.442
REMARK  1 active torsions:
REMARK  status: ('A' for Active; 'I' for Inactive)
REMARK    1  A    between atoms: C3_3  and  C8_8 
ROOT
HETATM    1  C1  UNL     1     -33.286  15.856  -6.139  1.00 20.00     0.284 C 
HETATM    2  C2  UNL     1     -34.099  14.374  -3.958  1.00 20.00     0.110 C 
HETATM    3  C3  UNL     1     -33.879  15.877  -3.736  1.00 20.00     0.233 C 
HETATM    4  C4  UNL     1     -34.628  15.243  -6.551  1.00 20.00     0.071 C 
HETATM    5  C5  UNL     1     -34.521  14.572  -7.918  1.00 20.00     0.023 C 
HETATM    6  N9  UNL     1     -33.355  16.614  -4.893  1.00 20.00     0.090 N 
HETATM    7  S10 UNL     1     -35.218  14.002  -5.342  1.00 20.00    -0.161 SA
HETATM    8  H27 UNL     1     -32.409  16.960  -4.667  1.00 20.00     0.316 HD
ENDROOT
BRANCH   3   9
HETATM    9  C8  UNL     1     -35.135  16.570  -3.193  1.00 20.00     0.011 C 
HETATM   10  C6  UNL     1     -35.013  16.794  -1.690  1.00 20.00     0.012 C 
HETATM   11  C7  UNL     1     -35.371  17.890  -3.919  1.00 20.00     0.012 C 
ENDBRANCH   3   9
TORSDOF 1
ENDMDL
MODEL 8
REMARK VINA RESULT:      -3.4      2.103      4.593
REMARK  1 active torsions:
REMARK  status: ('A' for Active; 'I' for Inactive)
REMARK    1  A    between atoms: C3_3  and  C8_8 
ROOT
HETATM    1  C1  UNL     1     -33.393  17.321  -4.718  1.00 20.00     0.284 C 
HETATM    2  C2  UNL     1     -35.942  16.521  -5.409  1.00 20.00     0.110 C 
HETATM    3  C3  UNL     1     -34.818  16.199  -6.404  1.00 20.00     0.233 C 
HETATM    4  C4  UNL     1     -33.833  16.376  -3.596  1.00 20.00     0.071 C 
HETATM    5  C5  UNL     1     -33.589  17.009  -2.228  1.00 20.00     0.023 C 
HETATM    6  N9  UNL     1     -33.493  16.724  -6.047  1.00 20.00     0.090 N 
HETATM    7  S10 UNL     1     -35.606  15.936  -3.721  1.00 20.00    -0.161 SA
HETATM    8  H27 UNL     1     -33.216  17.432  -6.746  1.00 20.00     0.316 HD
ENDROOT
BRANCH   3   9
HETATM    9  C8  UNL     1     -34.727  14.698  -6.706  1.00 20.00     0.011 C 
HETATM   10  C6  UNL     1     -36.116  14.118  -6.949  1.00 20.00     0.012 C 
HETATM   11  C7  UNL     1     -33.820  14.451  -7.907  1.00 20.00     0.012 C 
ENDBRANCH   3   9
TORSDOF 1
ENDMDL
MODEL 9
REMARK VINA RESULT:      -3.3     10.880     11.486
REMARK  1 active torsions:
REMARK  status: ('A' for Active; 'I' for Inactive)
REMARK    1  A    between atoms: C3_3  and  C8_8 
ROOT
HETATM    1  C1  UNL     1     -31.492   8.582   2.809  1.00 20.00     0.284 C 
HETATM    2  C2  UNL     1     -32.869   6.210   2.503  1.00 20.00     0.110 C 
HETATM    3  C3  UNL     1     -32.722   6.750   3.933  1.00 20.00     0.233 C 
HETATM    4  C4  UNL     1     -32.669   8.919   1.888  1.00 20.00     0.071 C 
HETATM    5  C5  UNL     1     -32.189   9.675   0.651  1.00 20.00     0.023 C 
HETATM    6  N9  UNL     1     -31.903   7.962   4.066  1.00 20.00     0.090 N 
HETATM    7  S10 UNL     1     -33.565   7.420   1.338  1.00 20.00    -0.161 SA
HETATM    8  H27 UNL     1     -31.055   7.733   4.610  1.00 20.00     0.316 HD
ENDROOT
BRANCH   3   9
HETATM    9  C8  UNL     1     -34.081   6.954   4.615  1.00 20.00     0.011 C 
HETATM   10  C6  UNL     1     -34.956   5.717   4.439  1.00 20.00     0.012 C 
HETATM   11  C7  UNL     1     -33.891   7.277   6.093  1.00 20.00     0.012 C 
ENDBRANCH   3   9
TORSDOF 1
ENDMDL
