MODEL 1
REMARK VINA RESULT:      -5.9      0.000      0.000
REMARK  2 active torsions:
REMARK  status: ('A' for Active; 'I' for Inactive)
REMARK    1  A    between atoms: C1_1  and  C7_7 
REMARK    2  A    between atoms: C2_2  and  C8_8 
ROOT
HETATM    1  C3  UNL     1     -33.849   4.944   3.429  1.00 20.00     0.035 C 
HETATM    2  C4  UNL     1     -33.811   7.036   4.812  1.00 20.00     0.035 C 
HETATM    3  C5  UNL     1     -34.496   4.250   4.620  1.00 20.00     0.168 C 
HETATM    4  C6  UNL     1     -34.462   6.226   5.928  1.00 20.00     0.168 C 
HETATM    5  C7  UNL     1     -34.155   6.437   3.454  1.00 20.00     0.012 C 
HETATM    6  O9  UNL     1     -34.080   4.853   5.846  1.00 20.00    -0.391 OA
ENDROOT
BRANCH   5   7
HETATM    7  C1  UNL     1     -33.298   7.116   2.405  1.00 20.00    -0.025 C 
HETATM    8  C2  UNL     1     -32.348   8.020   2.687  1.00 20.00    -0.020 C 
BRANCH   8   9
HETATM    9  C8  UNL     1     -31.518   8.693   1.648  1.00 20.00     0.112 C 
HETATM   10 BR10 UNL     1     -32.603  10.053   0.779  1.00 20.00    -0.092 Br
ENDBRANCH   8   9
ENDBRANCH   5   7
TORSDOF 2
ENDMDL
MODEL 2
REMARK VINA RESULT:      -4.4     11.346     11.929
REMARK  2 active torsions:
REMARK  status: ('A' for Active; 'I' for Inactive)
REMARK    1  A    between atoms: C1_1  and  C7_7 
REMARK    2  A    between atoms: C2_2  and  C8_8 
ROOT
HETATM    1  C3  UNL     1     -34.997  14.172  -4.298  1.00 20.00     0.035 C 
HETATM    2  C4  UNL     1     -36.947  15.710  -3.944  1.00 20.00     0.035 C 
HETATM    3  C5  UNL     1     -35.866  13.410  -5.291  1.00 20.00     0.168 C 
HETATM    4  C6  UNL     1     -37.708  14.864  -4.958  1.00 20.00     0.168 C 
HETATM    5  C7  UNL     1     -35.447  15.625  -4.204  1.00 20.00     0.012 C 
HETATM    6  O9  UNL     1     -37.246  13.513  -4.940  1.00 20.00    -0.391 OA
ENDROOT
BRANCH   5   7
HETATM    7  C1  UNL     1     -34.726  16.272  -3.039  1.00 20.00    -0.025 C 
HETATM    8  C2  UNL     1     -35.342  16.718  -1.934  1.00 20.00    -0.020 C 
BRANCH   8   9
HETATM    9  C8  UNL     1     -34.627  17.366  -0.798  1.00 20.00     0.112 C 
HETATM   10 BR10 UNL     1     -32.924  18.044  -1.448  1.00 20.00    -0.092 Br
ENDBRANCH   8   9
ENDBRANCH   5   7
TORSDOF 2
ENDMDL
MODEL 3
REMARK VINA RESULT:      -4.1     11.406     11.992
REMARK  2 active torsions:
REMARK  status: ('A' for Active; 'I' for Inactive)
REMARK    1  A    between atoms: C1_1  and  C7_7 
REMARK    2  A    between atoms: C2_2  and  C8_8 
ROOT
HETATM    1  C3  UNL     1     -35.189  16.952  -1.119  1.00 20.00     0.035 C 
HETATM    2  C4  UNL     1     -32.872  17.892  -1.310  1.00 20.00     0.035 C 
HETATM    3  C5  UNL     1     -35.414  17.924   0.032  1.00 20.00     0.168 C 
HETATM    4  C6  UNL     1     -33.225  18.813  -0.149  1.00 20.00     0.168 C 
HETATM    5  C7  UNL     1     -34.130  17.494  -2.072  1.00 20.00     0.012 C 
HETATM    6  O9  UNL     1     -34.188  18.201   0.709  1.00 20.00    -0.391 OA
ENDROOT
BRANCH   5   7
HETATM    7  C1  UNL     1     -33.765  16.397  -3.052  1.00 20.00    -0.025 C 
HETATM    8  C2  UNL     1     -34.633  15.477  -3.500  1.00 20.00    -0.020 C 
BRANCH   8   9
HETATM    9  C8  UNL     1     -34.263  14.394  -4.454  1.00 20.00     0.112 C 
HETATM   10 BR10 UNL     1     -35.895  13.647  -5.201  1.00 20.00    -0.092 Br
ENDBRANCH   8   9
ENDBRANCH   5   7
TORSDOF 2
ENDMDL
MODEL 4
REMARK VINA RESULT:      -4.1     11.559     12.366
REMARK  2 active torsions:
REMARK  status: ('A' for Active; 'I' for Inactive)
REMARK    1  A    between atoms: C1_1  and  C7_7 
REMARK    2  A    between atoms: C2_2  and  C8_8 
ROOT
HETATM    1  C3  UNL     1     -33.651  15.469  -5.763  1.00 20.00     0.035 C 
HETATM    2  C4  UNL     1     -35.310  14.025  -4.557  1.00 20.00     0.035 C 
HETATM    3  C5  UNL     1     -34.013  14.708  -7.031  1.00 20.00     0.168 C 
HETATM    4  C6  UNL     1     -35.581  13.343  -5.892  1.00 20.00     0.168 C 
HETATM    5  C7  UNL     1     -34.816  15.450  -4.781  1.00 20.00     0.012 C 
HETATM    6  O9  UNL     1     -34.420  13.374  -6.723  1.00 20.00    -0.391 OA
ENDROOT
BRANCH   5   7
HETATM    7  C1  UNL     1     -34.330  15.998  -3.455  1.00 20.00    -0.025 C 
HETATM    8  C2  UNL     1     -35.141  16.504  -2.513  1.00 20.00    -0.020 C 
BRANCH   8   9
HETATM    9  C8  UNL     1     -34.653  17.054  -1.217  1.00 20.00     0.112 C 
HETATM   10 BR10 UNL     1     -32.992  18.012  -1.539  1.00 20.00    -0.092 Br
ENDBRANCH   8   9
ENDBRANCH   5   7
TORSDOF 2
ENDMDL
MODEL 5
REMARK VINA RESULT:      -4.0     11.647     11.946
REMARK  2 active torsions:
REMARK  status: ('A' for Active; 'I' for Inactive)
REMARK    1  A    between atoms: C1_1  and  C7_7 
REMARK    2  A    between atoms: C2_2  and  C8_8 
ROOT
HETATM    1  C3  UNL     1     -33.369  15.129  -4.140  1.00 20.00     0.035 C 
HETATM    2  C4  UNL     1     -35.767  15.553  -3.542  1.00 20.00     0.035 C 
HETATM    3  C5  UNL     1     -33.878  14.208  -5.241  1.00 20.00     0.168 C 
HETATM    4  C6  UNL     1     -36.144  14.610  -4.677  1.00 20.00     0.168 C 
HETATM    5  C7  UNL     1     -34.411  16.192  -3.813  1.00 20.00     0.012 C 
HETATM    6  O9  UNL     1     -35.130  13.625  -4.877  1.00 20.00    -0.391 OA
ENDROOT
BRANCH   5   7
HETATM    7  C1  UNL     1     -33.970  16.921  -2.560  1.00 20.00    -0.025 C 
HETATM    8  C2  UNL     1     -34.750  17.096  -1.484  1.00 20.00    -0.020 C 
BRANCH   8   9
HETATM    9  C8  UNL     1     -34.313  17.826  -0.260  1.00 20.00     0.112 C 
HETATM   10 BR10 UNL     1     -32.551  18.578  -0.588  1.00 20.00    -0.092 Br
ENDBRANCH   8   9
ENDBRANCH   5   7
TORSDOF 2
ENDMDL
MODEL 6
REMARK VINA RESULT:      -4.0     11.838     12.525
REMARK  2 active torsions:
REMARK  status: ('A' for Active; 'I' for Inactive)
REMARK    1  A    between atoms: C1_1  and  C7_7 
REMARK    2  A    between atoms: C2_2  and  C8_8 
ROOT
HETATM    1  C3  UNL     1     -34.951  15.030  -3.931  1.00 20.00     0.035 C 
HETATM    2  C4  UNL     1     -33.333  16.580  -5.057  1.00 20.00     0.035 C 
HETATM    3  C5  UNL     1     -35.018  14.257  -5.241  1.00 20.00     0.168 C 
HETATM    4  C6  UNL     1     -33.488  15.721  -6.306  1.00 20.00     0.168 C 
HETATM    5  C7  UNL     1     -33.615  15.754  -3.808  1.00 20.00     0.012 C 
HETATM    6  O9  UNL     1     -34.783  15.123  -6.353  1.00 20.00    -0.391 OA
ENDROOT
BRANCH   5   7
HETATM    7  C1  UNL     1     -33.691  16.695  -2.623  1.00 20.00    -0.025 C 
HETATM    8  C2  UNL     1     -34.724  16.738  -1.768  1.00 20.00    -0.020 C 
BRANCH   8   9
HETATM    9  C8  UNL     1     -34.797  17.676  -0.612  1.00 20.00     0.112 C 
HETATM   10 BR10 UNL     1     -33.087  18.587  -0.450  1.00 20.00    -0.092 Br
ENDBRANCH   8   9
ENDBRANCH   5   7
TORSDOF 2
ENDMDL
MODEL 7
REMARK VINA RESULT:      -3.9     11.686     12.161
REMARK  2 active torsions:
REMARK  status: ('A' for Active; 'I' for Inactive)
REMARK    1  A    between atoms: C1_1  and  C7_7 
REMARK    2  A    between atoms: C2_2  and  C8_8 
ROOT
HETATM    1  C3  UNL     1     -33.194  17.885  -2.165  1.00 20.00     0.035 C 
HETATM    2  C4  UNL     1     -35.375  17.036  -1.264  1.00 20.00     0.035 C 
HETATM    3  C5  UNL     1     -32.981  18.565  -0.820  1.00 20.00     0.168 C 
HETATM    4  C6  UNL     1     -35.041  17.762   0.033  1.00 20.00     0.168 C 
HETATM    5  C7  UNL     1     -34.097  16.668  -2.008  1.00 20.00     0.012 C 
HETATM    6  O9  UNL     1     -34.232  18.910  -0.222  1.00 20.00    -0.391 OA
ENDROOT
BRANCH   5   7
HETATM    7  C1  UNL     1     -34.477  16.175  -3.390  1.00 20.00    -0.025 C 
HETATM    8  C2  UNL     1     -33.905  15.122  -3.991  1.00 20.00    -0.020 C 
BRANCH   8   9
HETATM    9  C8  UNL     1     -34.275  14.652  -5.356  1.00 20.00     0.112 C 
HETATM   10 BR10 UNL     1     -35.921  13.624  -5.228  1.00 20.00    -0.092 Br
ENDBRANCH   8   9
ENDBRANCH   5   7
TORSDOF 2
ENDMDL
MODEL 8
REMARK VINA RESULT:      -3.9     11.946     12.316
REMARK  2 active torsions:
REMARK  status: ('A' for Active; 'I' for Inactive)
REMARK    1  A    between atoms: C1_1  and  C7_7 
REMARK    2  A    between atoms: C2_2  and  C8_8 
ROOT
HETATM    1  C3  UNL     1     -33.816  18.418   0.944  1.00 20.00     0.035 C 
HETATM    2  C4  UNL     1     -31.322  18.594   0.750  1.00 20.00     0.035 C 
HETATM    3  C5  UNL     1     -33.672  18.920   2.375  1.00 20.00     0.168 C 
HETATM    4  C6  UNL     1     -31.315  19.087   2.192  1.00 20.00     0.168 C 
HETATM    5  C7  UNL     1     -32.656  18.913   0.088  1.00 20.00     0.012 C 
HETATM    6  O9  UNL     1     -32.410  18.535   2.922  1.00 20.00    -0.391 OA
ENDROOT
BRANCH   5   7
HETATM    7  C1  UNL     1     -32.709  18.195  -1.246  1.00 20.00    -0.025 C 
HETATM    8  C2  UNL     1     -33.688  17.350  -1.601  1.00 20.00    -0.020 C 
BRANCH   8   9
HETATM    9  C8  UNL     1     -33.725  16.637  -2.909  1.00 20.00     0.112 C 
HETATM   10 BR10 UNL     1     -35.569  16.152  -3.294  1.00 20.00    -0.092 Br
ENDBRANCH   8   9
ENDBRANCH   5   7
TORSDOF 2
ENDMDL
MODEL 9
REMARK VINA RESULT:      -3.8      3.425      5.126
REMARK  2 active torsions:
REMARK  status: ('A' for Active; 'I' for Inactive)
REMARK    1  A    between atoms: C1_1  and  C7_7 
REMARK    2  A    between atoms: C2_2  and  C8_8 
ROOT
HETATM    1  C3  UNL     1     -31.787   7.767   1.368  1.00 20.00     0.035 C 
HETATM    2  C4  UNL     1     -33.367   9.494   2.269  1.00 20.00     0.035 C 
HETATM    3  C5  UNL     1     -31.303   8.823   0.383  1.00 20.00     0.168 C 
HETATM    4  C6  UNL     1     -32.796  10.455   1.234  1.00 20.00     0.168 C 
HETATM    5  C7  UNL     1     -32.338   8.428   2.626  1.00 20.00     0.012 C 
HETATM    6  O9  UNL     1     -32.348   9.748   0.077  1.00 20.00    -0.391 OA
ENDROOT
BRANCH   5   7
HETATM    7  C1  UNL     1     -33.025   7.365   3.460  1.00 20.00    -0.025 C 
HETATM    8  C2  UNL     1     -33.505   6.218   2.959  1.00 20.00    -0.020 C 
BRANCH   8   9
HETATM    9  C8  UNL     1     -34.191   5.183   3.784  1.00 20.00     0.112 C 
HETATM   10 BR10 UNL     1     -34.462   5.900   5.571  1.00 20.00    -0.092 Br
ENDBRANCH   8   9
ENDBRANCH   5   7
TORSDOF 2
ENDMDL
