MODEL 1
REMARK VINA RESULT:      -5.5      0.000      0.000
REMARK  2 active torsions:
REMARK  status: ('A' for Active; 'I' for Inactive)
REMARK    1  A    between atoms: C1_1  and  C6_6 
REMARK    2  A    between atoms: C2_2  and  C7_7 
ROOT
HETATM    1  C3  UNL     1     -33.879   5.275   3.608  1.00 20.00     0.037 C 
HETATM    2  C4  UNL     1     -34.714   4.640   4.697  1.00 20.00     0.168 C 
HETATM    3  C5  UNL     1     -33.965   6.704   5.474  1.00 20.00     0.176 C 
HETATM    4  C6  UNL     1     -33.984   6.747   3.952  1.00 20.00     0.034 C 
HETATM    5  O8  UNL     1     -34.533   5.446   5.868  1.00 20.00    -0.390 OA
ENDROOT
BRANCH   4   6
HETATM    6  C1  UNL     1     -32.903   7.581   3.357  1.00 20.00    -0.023 C 
HETATM    7  C2  UNL     1     -32.868   7.948   2.068  1.00 20.00    -0.015 C 
BRANCH   7   8
HETATM    8  C7  UNL     1     -31.787   8.794   1.478  1.00 20.00     0.141 C 
HETATM    9 CL9  UNL     1     -32.487  10.271   0.782  1.00 20.00    -0.126 Cl
ENDBRANCH   7   8
ENDBRANCH   4   6
TORSDOF 2
ENDMDL
MODEL 2
REMARK VINA RESULT:      -5.5      0.844      1.473
REMARK  2 active torsions:
REMARK  status: ('A' for Active; 'I' for Inactive)
REMARK    1  A    between atoms: C1_1  and  C6_6 
REMARK    2  A    between atoms: C2_2  and  C7_7 
ROOT
HETATM    1  C3  UNL     1     -33.570   7.434   4.943  1.00 20.00     0.037 C 
HETATM    2  C4  UNL     1     -34.210   6.409   5.853  1.00 20.00     0.168 C 
HETATM    3  C5  UNL     1     -34.493   5.697   3.653  1.00 20.00     0.176 C 
HETATM    4  C6  UNL     1     -33.277   6.612   3.705  1.00 20.00     0.034 C 
HETATM    5  O8  UNL     1     -34.942   5.515   5.004  1.00 20.00    -0.390 OA
ENDROOT
BRANCH   4   6
HETATM    6  C1  UNL     1     -33.081   7.428   2.475  1.00 20.00    -0.023 C 
HETATM    7  C2  UNL     1     -31.999   8.185   2.245  1.00 20.00    -0.015 C 
BRANCH   7   8
HETATM    8  C7  UNL     1     -31.803   8.994   1.005  1.00 20.00     0.141 C 
HETATM    9 CL9  UNL     1     -32.694  10.525   1.134  1.00 20.00    -0.126 Cl
ENDBRANCH   7   8
ENDBRANCH   4   6
TORSDOF 2
ENDMDL
MODEL 3
REMARK VINA RESULT:      -4.3      3.335      4.800
REMARK  2 active torsions:
REMARK  status: ('A' for Active; 'I' for Inactive)
REMARK    1  A    between atoms: C1_1  and  C6_6 
REMARK    2  A    between atoms: C2_2  and  C7_7 
ROOT
HETATM    1  C3  UNL     1     -33.299   8.208   1.714  1.00 20.00     0.037 C 
HETATM    2  C4  UNL     1     -32.205   9.197   1.378  1.00 20.00     0.168 C 
HETATM    3  C5  UNL     1     -31.664   8.186   3.406  1.00 20.00     0.176 C 
HETATM    4  C6  UNL     1     -32.576   7.243   2.632  1.00 20.00     0.034 C 
HETATM    5  O8  UNL     1     -31.377   9.298   2.543  1.00 20.00    -0.390 OA
ENDROOT
BRANCH   4   6
HETATM    6  C1  UNL     1     -33.485   6.439   3.495  1.00 20.00    -0.023 C 
HETATM    7  C2  UNL     1     -33.571   5.102   3.445  1.00 20.00    -0.015 C 
BRANCH   7   8
HETATM    8  C7  UNL     1     -34.477   4.299   4.320  1.00 20.00     0.141 C 
HETATM    9 CL9  UNL     1     -34.682   5.110   5.887  1.00 20.00    -0.126 Cl
ENDBRANCH   7   8
ENDBRANCH   4   6
TORSDOF 2
ENDMDL
MODEL 4
REMARK VINA RESULT:      -4.1      3.390      4.971
REMARK  2 active torsions:
REMARK  status: ('A' for Active; 'I' for Inactive)
REMARK    1  A    between atoms: C1_1  and  C6_6 
REMARK    2  A    between atoms: C2_2  and  C7_7 
ROOT
HETATM    1  C3  UNL     1     -32.921   8.244   0.641  1.00 20.00     0.037 C 
HETATM    2  C4  UNL     1     -32.729   9.511  -0.163  1.00 20.00     0.168 C 
HETATM    3  C5  UNL     1     -32.294  10.002   2.072  1.00 20.00     0.176 C 
HETATM    4  C6  UNL     1     -32.059   8.513   1.858  1.00 20.00     0.034 C 
HETATM    5  O8  UNL     1     -32.578  10.574   0.787  1.00 20.00    -0.390 OA
ENDROOT
BRANCH   4   6
HETATM    6  C1  UNL     1     -32.405   7.671   3.036  1.00 20.00    -0.023 C 
HETATM    7  C2  UNL     1     -33.645   7.240   3.308  1.00 20.00    -0.015 C 
BRANCH   7   8
HETATM    8  C7  UNL     1     -33.984   6.387   4.486  1.00 20.00     0.141 C 
HETATM    9 CL9  UNL     1     -33.755   7.308   5.987  1.00 20.00    -0.126 Cl
ENDBRANCH   7   8
ENDBRANCH   4   6
TORSDOF 2
ENDMDL
MODEL 5
REMARK VINA RESULT:      -4.0     11.294     11.838
REMARK  2 active torsions:
REMARK  status: ('A' for Active; 'I' for Inactive)
REMARK    1  A    between atoms: C1_1  and  C6_6 
REMARK    2  A    between atoms: C2_2  and  C7_7 
ROOT
HETATM    1  C3  UNL     1     -34.062  14.675  -5.924  1.00 20.00     0.037 C 
HETATM    2  C4  UNL     1     -34.457  13.586  -6.896  1.00 20.00     0.168 C 
HETATM    3  C5  UNL     1     -35.863  13.443  -5.044  1.00 20.00     0.176 C 
HETATM    4  C6  UNL     1     -35.343  14.871  -5.138  1.00 20.00     0.034 C 
HETATM    5  O8  UNL     1     -35.389  12.744  -6.205  1.00 20.00    -0.390 OA
ENDROOT
BRANCH   4   6
HETATM    6  C1  UNL     1     -35.143  15.530  -3.818  1.00 20.00    -0.023 C 
HETATM    7  C2  UNL     1     -34.024  16.183  -3.471  1.00 20.00    -0.015 C 
BRANCH   7   8
HETATM    8  C7  UNL     1     -33.832  16.851  -2.150  1.00 20.00     0.141 C 
HETATM    9 CL9  UNL     1     -35.362  16.858  -1.247  1.00 20.00    -0.126 Cl
ENDBRANCH   7   8
ENDBRANCH   4   6
TORSDOF 2
ENDMDL
MODEL 6
REMARK VINA RESULT:      -3.9     11.238     11.640
REMARK  2 active torsions:
REMARK  status: ('A' for Active; 'I' for Inactive)
REMARK    1  A    between atoms: C1_1  and  C6_6 
REMARK    2  A    between atoms: C2_2  and  C7_7 
ROOT
HETATM    1  C3  UNL     1     -35.932  14.828  -4.448  1.00 20.00     0.037 C 
HETATM    2  C4  UNL     1     -35.786  13.609  -5.331  1.00 20.00     0.168 C 
HETATM    3  C5  UNL     1     -33.657  14.459  -4.918  1.00 20.00     0.176 C 
HETATM    4  C6  UNL     1     -34.572  14.896  -3.783  1.00 20.00     0.034 C 
HETATM    5  O8  UNL     1     -34.419  13.581  -5.760  1.00 20.00    -0.390 OA
ENDROOT
BRANCH   4   6
HETATM    6  C1  UNL     1     -34.244  16.237  -3.223  1.00 20.00    -0.023 C 
HETATM    7  C2  UNL     1     -34.641  16.659  -2.014  1.00 20.00    -0.015 C 
BRANCH   7   8
HETATM    8  C7  UNL     1     -34.300  18.000  -1.453  1.00 20.00     0.141 C 
HETATM    9 CL9  UNL     1     -32.550  18.109  -1.165  1.00 20.00    -0.126 Cl
ENDBRANCH   7   8
ENDBRANCH   4   6
TORSDOF 2
ENDMDL
MODEL 7
REMARK VINA RESULT:      -3.7     11.491     12.095
REMARK  2 active torsions:
REMARK  status: ('A' for Active; 'I' for Inactive)
REMARK    1  A    between atoms: C1_1  and  C6_6 
REMARK    2  A    between atoms: C2_2  and  C7_7 
ROOT
HETATM    1  C3  UNL     1     -34.651  14.763  -4.033  1.00 20.00     0.037 C 
HETATM    2  C4  UNL     1     -34.098  14.490  -5.414  1.00 20.00     0.168 C 
HETATM    3  C5  UNL     1     -33.489  16.656  -4.809  1.00 20.00     0.176 C 
HETATM    4  C6  UNL     1     -33.724  15.854  -3.536  1.00 20.00     0.034 C 
HETATM    5  O8  UNL     1     -33.612  15.744  -5.911  1.00 20.00    -0.390 OA
ENDROOT
BRANCH   4   6
HETATM    6  C1  UNL     1     -34.286  16.654  -2.413  1.00 20.00    -0.023 C 
HETATM    7  C2  UNL     1     -33.541  17.388  -1.573  1.00 20.00    -0.015 C 
BRANCH   7   8
HETATM    8  C7  UNL     1     -34.111  18.196  -0.454  1.00 20.00     0.141 C 
HETATM    9 CL9  UNL     1     -35.548  17.388   0.207  1.00 20.00    -0.126 Cl
ENDBRANCH   7   8
ENDBRANCH   4   6
TORSDOF 2
ENDMDL
MODEL 8
REMARK VINA RESULT:      -3.7     11.274     11.672
REMARK  2 active torsions:
REMARK  status: ('A' for Active; 'I' for Inactive)
REMARK    1  A    between atoms: C1_1  and  C6_6 
REMARK    2  A    between atoms: C2_2  and  C7_7 
ROOT
HETATM    1  C3  UNL     1     -35.170  16.940  -1.107  1.00 20.00     0.037 C 
HETATM    2  C4  UNL     1     -34.923  18.012  -0.069  1.00 20.00     0.168 C 
HETATM    3  C5  UNL     1     -33.002  17.815  -1.372  1.00 20.00     0.176 C 
HETATM    4  C6  UNL     1     -34.187  17.327  -2.194  1.00 20.00     0.034 C 
HETATM    5  O8  UNL     1     -33.527  18.330  -0.139  1.00 20.00    -0.390 OA
ENDROOT
BRANCH   4   6
HETATM    6  C1  UNL     1     -33.857  16.215  -3.129  1.00 20.00    -0.023 C 
HETATM    7  C2  UNL     1     -34.775  15.414  -3.689  1.00 20.00    -0.015 C 
BRANCH   7   8
HETATM    8  C7  UNL     1     -34.440  14.308  -4.635  1.00 20.00     0.141 C 
HETATM    9 CL9  UNL     1     -35.912  13.409  -5.060  1.00 20.00    -0.126 Cl
ENDBRANCH   7   8
ENDBRANCH   4   6
TORSDOF 2
ENDMDL
MODEL 9
REMARK VINA RESULT:      -3.5     11.464     11.984
REMARK  2 active torsions:
REMARK  status: ('A' for Active; 'I' for Inactive)
REMARK    1  A    between atoms: C1_1  and  C6_6 
REMARK    2  A    between atoms: C2_2  and  C7_7 
ROOT
HETATM    1  C3  UNL     1     -34.091  18.218   0.366  1.00 20.00     0.037 C 
HETATM    2  C4  UNL     1     -33.341  19.026   1.401  1.00 20.00     0.168 C 
HETATM    3  C5  UNL     1     -31.820  18.358  -0.232  1.00 20.00     0.176 C 
HETATM    4  C6  UNL     1     -33.209  18.381  -0.856  1.00 20.00     0.034 C 
HETATM    5  O8  UNL     1     -31.947  18.875   1.101  1.00 20.00    -0.390 OA
ENDROOT
BRANCH   4   6
HETATM    6  C1  UNL     1     -33.423  17.336  -1.895  1.00 20.00    -0.023 C 
HETATM    7  C2  UNL     1     -34.618  16.797  -2.177  1.00 20.00    -0.015 C 
BRANCH   7   8
HETATM    8  C7  UNL     1     -34.829  15.757  -3.227  1.00 20.00     0.141 C 
HETATM    9 CL9  UNL     1     -33.298  15.421  -4.062  1.00 20.00    -0.126 Cl
ENDBRANCH   7   8
ENDBRANCH   4   6
TORSDOF 2
ENDMDL
