MODEL 1
REMARK VINA RESULT:      -5.2      0.000      0.000
REMARK  4 active torsions:
REMARK  status: ('A' for Active; 'I' for Inactive)
REMARK    1  A    between atoms: C4_4  and  C5_5 
REMARK    2  A    between atoms: C5_5  and  C6_6 
REMARK    3  A    between atoms: C6_6  and  C7_7 
REMARK    4  A    between atoms: C7_7  and  O9_9 
ROOT
HETATM    1  C1  UNL     1     -33.206   5.755   2.947  1.00 20.00     0.066 C 
HETATM    2  C6  UNL     1     -33.439   7.138   3.418  1.00 20.00     0.121 C 
HETATM    3  N8  UNL     1     -33.025   4.670   2.577  1.00 20.00    -0.197 NA
ENDROOT
BRANCH   2   4
HETATM    4  C5  UNL     1     -32.147   7.971   3.291  1.00 20.00     0.021 C 
BRANCH   4   5
HETATM    5  C4  UNL     1     -31.807   8.324   1.837  1.00 20.00    -0.003 C 
HETATM    6  C2  UNL     1     -32.515   9.594   1.395  1.00 20.00     0.005 C 
ENDBRANCH   4   5
ENDBRANCH   2   4
BRANCH   2   7
HETATM    7  C7  UNL     1     -33.955   7.155   4.875  1.00 20.00     0.131 C 
HETATM    8  C3  UNL     1     -34.497   5.809   5.346  1.00 20.00     0.040 C 
BRANCH   7   9
HETATM    9  O9  UNL     1     -32.915   7.578   5.754  1.00 20.00    -0.395 OA
HETATM   10  H22 UNL     1     -32.365   6.797   5.926  1.00 20.00     0.210 HD
ENDBRANCH   7   9
ENDBRANCH   2   7
TORSDOF 4
ENDMDL
MODEL 2
REMARK VINA RESULT:      -5.2      1.964      3.985
REMARK  4 active torsions:
REMARK  status: ('A' for Active; 'I' for Inactive)
REMARK    1  A    between atoms: C4_4  and  C5_5 
REMARK    2  A    between atoms: C5_5  and  C6_6 
REMARK    3  A    between atoms: C6_6  and  C7_7 
REMARK    4  A    between atoms: C7_7  and  O9_9 
ROOT
HETATM    1  C1  UNL     1     -33.536   7.448   5.001  1.00 20.00     0.066 C 
HETATM    2  C6  UNL     1     -33.498   7.407   3.523  1.00 20.00     0.121 C 
HETATM    3  N8  UNL     1     -33.566   7.482   6.161  1.00 20.00    -0.197 NA
ENDROOT
BRANCH   2   4
HETATM    4  C5  UNL     1     -33.988   6.036   3.013  1.00 20.00     0.021 C 
BRANCH   4   5
HETATM    5  C4  UNL     1     -34.910   5.325   4.011  1.00 20.00    -0.003 C 
HETATM    6  C2  UNL     1     -34.290   4.032   4.517  1.00 20.00     0.005 C 
ENDBRANCH   4   5
ENDBRANCH   2   4
BRANCH   2   7
HETATM    7  C7  UNL     1     -32.080   7.710   2.989  1.00 20.00     0.131 C 
HETATM    8  C3  UNL     1     -32.072   8.604   1.753  1.00 20.00     0.040 C 
BRANCH   7   9
HETATM    9  O9  UNL     1     -31.294   8.316   4.013  1.00 20.00    -0.395 OA
HETATM   10  H22 UNL     1     -31.199   7.653   4.716  1.00 20.00     0.210 HD
ENDBRANCH   7   9
ENDBRANCH   2   7
TORSDOF 4
ENDMDL
MODEL 3
REMARK VINA RESULT:      -4.9      2.080      2.519
REMARK  4 active torsions:
REMARK  status: ('A' for Active; 'I' for Inactive)
REMARK    1  A    between atoms: C4_4  and  C5_5 
REMARK    2  A    between atoms: C5_5  and  C6_6 
REMARK    3  A    between atoms: C6_6  and  C7_7 
REMARK    4  A    between atoms: C7_7  and  O9_9 
ROOT
HETATM    1  C1  UNL     1     -33.332   7.274   4.880  1.00 20.00     0.066 C 
HETATM    2  C6  UNL     1     -32.897   7.060   3.483  1.00 20.00     0.121 C 
HETATM    3  N8  UNL     1     -33.672   7.440   5.977  1.00 20.00    -0.197 NA
ENDROOT
BRANCH   2   4
HETATM    4  C5  UNL     1     -32.919   8.393   2.706  1.00 20.00     0.021 C 
BRANCH   4   5
HETATM    5  C4  UNL     1     -31.834   8.469   1.624  1.00 20.00    -0.003 C 
HETATM    6  C2  UNL     1     -32.161   9.530   0.585  1.00 20.00     0.005 C 
ENDBRANCH   4   5
ENDBRANCH   2   4
BRANCH   2   7
HETATM    7  C7  UNL     1     -33.776   6.005   2.776  1.00 20.00     0.131 C 
HETATM    8  C3  UNL     1     -33.085   4.656   2.595  1.00 20.00     0.040 C 
BRANCH   7   9
HETATM    9  O9  UNL     1     -34.990   5.818   3.501  1.00 20.00    -0.395 OA
HETATM   10  H22 UNL     1     -34.974   6.455   4.233  1.00 20.00     0.210 HD
ENDBRANCH   7   9
ENDBRANCH   2   7
TORSDOF 4
ENDMDL
MODEL 4
REMARK VINA RESULT:      -4.7      1.842      3.282
REMARK  4 active torsions:
REMARK  status: ('A' for Active; 'I' for Inactive)
REMARK    1  A    between atoms: C4_4  and  C5_5 
REMARK    2  A    between atoms: C5_5  and  C6_6 
REMARK    3  A    between atoms: C6_6  and  C7_7 
REMARK    4  A    between atoms: C7_7  and  O9_9 
ROOT
HETATM    1  C1  UNL     1     -32.284   7.987   2.329  1.00 20.00     0.066 C 
HETATM    2  C6  UNL     1     -32.710   7.131   3.458  1.00 20.00     0.121 C 
HETATM    3  N8  UNL     1     -31.948   8.658   1.444  1.00 20.00    -0.197 NA
ENDROOT
BRANCH   2   4
HETATM    4  C5  UNL     1     -33.894   6.238   3.035  1.00 20.00     0.021 C 
BRANCH   4   5
HETATM    5  C4  UNL     1     -33.560   4.742   3.090  1.00 20.00    -0.003 C 
HETATM    6  C2  UNL     1     -34.221   4.069   4.282  1.00 20.00     0.005 C 
ENDBRANCH   4   5
ENDBRANCH   2   4
BRANCH   2   7
HETATM    7  C7  UNL     1     -33.084   7.979   4.695  1.00 20.00     0.131 C 
HETATM    8  C3  UNL     1     -33.751   7.174   5.807  1.00 20.00     0.040 C 
BRANCH   7   9
HETATM    9  O9  UNL     1     -31.922   8.624   5.212  1.00 20.00    -0.395 OA
HETATM   10  H22 UNL     1     -32.232   9.409   5.689  1.00 20.00     0.210 HD
ENDBRANCH   7   9
ENDBRANCH   2   7
TORSDOF 4
ENDMDL
MODEL 5
REMARK VINA RESULT:      -4.3     10.881     11.489
REMARK  4 active torsions:
REMARK  status: ('A' for Active; 'I' for Inactive)
REMARK    1  A    between atoms: C4_4  and  C5_5 
REMARK    2  A    between atoms: C5_5  and  C6_6 
REMARK    3  A    between atoms: C6_6  and  C7_7 
REMARK    4  A    between atoms: C7_7  and  O9_9 
ROOT
HETATM    1  C1  UNL     1     -33.988  14.282  -4.425  1.00 20.00     0.066 C 
HETATM    2  C6  UNL     1     -35.264  15.006  -4.615  1.00 20.00     0.121 C 
HETATM    3  N8  UNL     1     -32.987  13.714  -4.279  1.00 20.00    -0.197 NA
ENDROOT
BRANCH   2   4
HETATM    4  C5  UNL     1     -35.666  15.730  -3.313  1.00 20.00     0.021 C 
BRANCH   4   5
HETATM    5  C4  UNL     1     -34.497  16.481  -2.664  1.00 20.00    -0.003 C 
HETATM    6  C2  UNL     1     -34.884  17.041  -1.304  1.00 20.00     0.005 C 
ENDBRANCH   4   5
ENDBRANCH   2   4
BRANCH   2   7
HETATM    7  C7  UNL     1     -36.388  14.053  -5.076  1.00 20.00     0.131 C 
HETATM    8  C3  UNL     1     -36.917  14.365  -6.474  1.00 20.00     0.040 C 
BRANCH   7   9
HETATM    9  O9  UNL     1     -35.928  12.703  -5.038  1.00 20.00    -0.395 OA
HETATM   10  H22 UNL     1     -36.600  12.170  -5.490  1.00 20.00     0.210 HD
ENDBRANCH   7   9
ENDBRANCH   2   7
TORSDOF 4
ENDMDL
MODEL 6
REMARK VINA RESULT:      -4.2      2.144      3.578
REMARK  4 active torsions:
REMARK  status: ('A' for Active; 'I' for Inactive)
REMARK    1  A    between atoms: C4_4  and  C5_5 
REMARK    2  A    between atoms: C5_5  and  C6_6 
REMARK    3  A    between atoms: C6_6  and  C7_7 
REMARK    4  A    between atoms: C7_7  and  O9_9 
ROOT
HETATM    1  C1  UNL     1     -32.515   8.175   2.172  1.00 20.00     0.066 C 
HETATM    2  C6  UNL     1     -33.436   7.513   3.122  1.00 20.00     0.121 C 
HETATM    3  N8  UNL     1     -31.794   8.696   1.426  1.00 20.00    -0.197 NA
ENDROOT
BRANCH   2   4
HETATM    4  C5  UNL     1     -32.736   7.293   4.479  1.00 20.00     0.021 C 
BRANCH   4   5
HETATM    5  C4  UNL     1     -33.677   7.495   5.673  1.00 20.00    -0.003 C 
HETATM    6  C2  UNL     1     -34.334   6.188   6.090  1.00 20.00     0.005 C 
ENDBRANCH   4   5
ENDBRANCH   2   4
BRANCH   2   7
HETATM    7  C7  UNL     1     -33.959   6.174   2.556  1.00 20.00     0.131 C 
HETATM    8  C3  UNL     1     -33.015   4.999   2.799  1.00 20.00     0.040 C 
BRANCH   7   9
HETATM    9  O9  UNL     1     -35.236   5.875   3.116  1.00 20.00    -0.395 OA
HETATM   10  H22 UNL     1     -35.325   6.426   3.909  1.00 20.00     0.210 HD
ENDBRANCH   7   9
ENDBRANCH   2   7
TORSDOF 4
ENDMDL
MODEL 7
REMARK VINA RESULT:      -4.2     11.227     11.840
REMARK  4 active torsions:
REMARK  status: ('A' for Active; 'I' for Inactive)
REMARK    1  A    between atoms: C4_4  and  C5_5 
REMARK    2  A    between atoms: C5_5  and  C6_6 
REMARK    3  A    between atoms: C6_6  and  C7_7 
REMARK    4  A    between atoms: C7_7  and  O9_9 
ROOT
HETATM    1  C1  UNL     1     -35.795  13.957  -4.951  1.00 20.00     0.066 C 
HETATM    2  C6  UNL     1     -35.638  15.373  -4.549  1.00 20.00     0.121 C 
HETATM    3  N8  UNL     1     -35.919  12.848  -5.268  1.00 20.00    -0.197 NA
ENDROOT
BRANCH   2   4
HETATM    4  C5  UNL     1     -34.541  15.503  -3.472  1.00 20.00     0.021 C 
BRANCH   4   5
HETATM    5  C4  UNL     1     -34.930  16.464  -2.341  1.00 20.00    -0.003 C 
HETATM    6  C2  UNL     1     -33.717  17.206  -1.803  1.00 20.00     0.005 C 
ENDBRANCH   4   5
ENDBRANCH   2   4
BRANCH   2   7
HETATM    7  C7  UNL     1     -36.972  15.964  -4.041  1.00 20.00     0.131 C 
HETATM    8  C3  UNL     1     -37.519  17.081  -4.926  1.00 20.00     0.040 C 
BRANCH   7   9
HETATM    9  O9  UNL     1     -37.949  14.932  -3.927  1.00 20.00    -0.395 OA
HETATM   10  H22 UNL     1     -38.351  15.029  -3.050  1.00 20.00     0.210 HD
ENDBRANCH   7   9
ENDBRANCH   2   7
TORSDOF 4
ENDMDL
MODEL 8
REMARK VINA RESULT:      -4.2     11.112     11.624
REMARK  4 active torsions:
REMARK  status: ('A' for Active; 'I' for Inactive)
REMARK    1  A    between atoms: C4_4  and  C5_5 
REMARK    2  A    between atoms: C5_5  and  C6_6 
REMARK    3  A    between atoms: C6_6  and  C7_7 
REMARK    4  A    between atoms: C7_7  and  O9_9 
ROOT
HETATM    1  C1  UNL     1     -36.062  14.123  -4.783  1.00 20.00     0.066 C 
HETATM    2  C6  UNL     1     -34.835  14.667  -4.160  1.00 20.00     0.121 C 
HETATM    3  N8  UNL     1     -37.024  13.694  -5.271  1.00 20.00    -0.197 NA
ENDROOT
BRANCH   2   4
HETATM    4  C5  UNL     1     -35.028  16.158  -3.812  1.00 20.00     0.021 C 
BRANCH   4   5
HETATM    5  C4  UNL     1     -34.880  16.442  -2.313  1.00 20.00    -0.003 C 
HETATM    6  C2  UNL     1     -33.566  17.145  -2.009  1.00 20.00     0.005 C 
ENDBRANCH   4   5
ENDBRANCH   2   4
BRANCH   2   7
HETATM    7  C7  UNL     1     -33.608  14.479  -5.080  1.00 20.00     0.131 C 
HETATM    8  C3  UNL     1     -33.008  15.792  -5.573  1.00 20.00     0.040 C 
BRANCH   7   9
HETATM    9  O9  UNL     1     -32.603  13.727  -4.401  1.00 20.00    -0.395 OA
HETATM   10  H22 UNL     1     -32.297  13.050  -5.025  1.00 20.00     0.210 HD
ENDBRANCH   7   9
ENDBRANCH   2   7
TORSDOF 4
ENDMDL
MODEL 9
REMARK VINA RESULT:      -4.0      1.729      3.781
REMARK  4 active torsions:
REMARK  status: ('A' for Active; 'I' for Inactive)
REMARK    1  A    between atoms: C4_4  and  C5_5 
REMARK    2  A    between atoms: C5_5  and  C6_6 
REMARK    3  A    between atoms: C6_6  and  C7_7 
REMARK    4  A    between atoms: C7_7  and  O9_9 
ROOT
HETATM    1  C1  UNL     1     -33.006   5.623   2.876  1.00 20.00     0.066 C 
HETATM    2  C6  UNL     1     -32.971   6.881   3.654  1.00 20.00     0.121 C 
HETATM    3  N8  UNL     1     -33.032   4.637   2.266  1.00 20.00    -0.197 NA
ENDROOT
BRANCH   2   4
HETATM    4  C5  UNL     1     -34.289   7.063   4.436  1.00 20.00     0.021 C 
BRANCH   4   5
HETATM    5  C4  UNL     1     -34.238   6.448   5.840  1.00 20.00    -0.003 C 
HETATM    6  C2  UNL     1     -34.641   4.982   5.818  1.00 20.00     0.005 C 
ENDBRANCH   4   5
ENDBRANCH   2   4
BRANCH   2   7
HETATM    7  C7  UNL     1     -32.709   8.100   2.741  1.00 20.00     0.131 C 
HETATM    8  C3  UNL     1     -31.305   8.681   2.889  1.00 20.00     0.040 C 
BRANCH   7   9
HETATM    9  O9  UNL     1     -32.929   7.742   1.378  1.00 20.00    -0.395 OA
HETATM   10  H22 UNL     1     -33.713   8.234   1.087  1.00 20.00     0.210 HD
ENDBRANCH   7   9
ENDBRANCH   2   7
TORSDOF 4
ENDMDL
