MODEL 1
REMARK VINA RESULT:      -5.2      0.000      0.000
REMARK  1 active torsions:
REMARK  status: ('A' for Active; 'I' for Inactive)
REMARK    1  A    between atoms: C7_7  and  N12_12 
ROOT
HETATM    1  C1  UNL     1     -33.990   6.386   5.412  1.00 20.00     0.134 C 
HETATM    2  C2  UNL     1     -33.263   7.712   5.379  1.00 20.00     0.106 C 
HETATM    3  C4  UNL     1     -32.450   7.863   4.107  1.00 20.00     0.243 C 
HETATM    4  C5  UNL     1     -34.812   6.048   4.171  1.00 20.00     0.082 C 
HETATM    5  C8  UNL     1     -33.944   6.183   2.904  1.00 20.00     0.195 C 
HETATM    6  C9  UNL     1     -35.478   4.679   4.292  1.00 20.00     0.020 C 
HETATM    7  C11 UNL     1     -32.877   5.096   2.752  1.00 20.00     0.041 C 
HETATM    8  N12 UNL     1     -33.326   7.579   2.911  1.00 20.00    -0.061 N 
HETATM    9  O13 UNL     1     -33.978   5.680   6.419  1.00 20.00    -0.297 OA
HETATM   10  H33 UNL     1     -34.115   8.240   2.962  1.00 20.00     0.280 HD
ENDROOT
BRANCH   8  11
HETATM   11  C7  UNL     1     -32.629   7.935   1.615  1.00 20.00     0.193 A 
HETATM   12  C3  UNL     1     -31.442   8.854   1.692  1.00 20.00     0.040 A 
HETATM   13  C6  UNL     1     -32.745   9.355   1.129  1.00 20.00     0.014 A 
HETATM   14  C10 UNL     1     -32.872   9.639  -0.327  1.00 20.00     0.012 C 
ENDBRANCH   8  11
TORSDOF 1
ENDMDL
MODEL 2
REMARK VINA RESULT:      -4.9     10.978     11.836
REMARK  1 active torsions:
REMARK  status: ('A' for Active; 'I' for Inactive)
REMARK    1  A    between atoms: C7_7  and  N12_12 
ROOT
HETATM    1  C1  UNL     1     -34.487  14.128  -5.302  1.00 20.00     0.134 C 
HETATM    2  C2  UNL     1     -33.330  14.452  -4.385  1.00 20.00     0.106 C 
HETATM    3  C4  UNL     1     -33.487  15.827  -3.764  1.00 20.00     0.243 C 
HETATM    4  C5  UNL     1     -35.880  14.326  -4.711  1.00 20.00     0.082 C 
HETATM    5  C8  UNL     1     -36.010  15.743  -4.117  1.00 20.00     0.195 C 
HETATM    6  C9  UNL     1     -36.975  14.003  -5.725  1.00 20.00     0.020 C 
HETATM    7  C11 UNL     1     -36.066  16.861  -5.162  1.00 20.00     0.041 C 
HETATM    8  N12 UNL     1     -34.856  15.946  -3.139  1.00 20.00    -0.061 N 
HETATM    9  O13 UNL     1     -34.298  13.654  -6.421  1.00 20.00    -0.297 OA
HETATM   10  H33 UNL     1     -34.931  15.184  -2.449  1.00 20.00     0.280 HD
ENDROOT
BRANCH   8  11
HETATM   11  C7  UNL     1     -34.982  17.207  -2.312  1.00 20.00     0.193 A 
HETATM   12  C3  UNL     1     -33.918  17.476  -1.285  1.00 20.00     0.040 A 
HETATM   13  C6  UNL     1     -35.294  17.052  -0.848  1.00 20.00     0.014 A 
HETATM   14  C10 UNL     1     -36.196  18.022  -0.168  1.00 20.00     0.012 C 
ENDBRANCH   8  11
TORSDOF 1
ENDMDL
MODEL 3
REMARK VINA RESULT:      -4.6     10.926     11.907
REMARK  1 active torsions:
REMARK  status: ('A' for Active; 'I' for Inactive)
REMARK    1  A    between atoms: C7_7  and  N12_12 
ROOT
HETATM    1  C1  UNL     1     -34.474  18.296   0.073  1.00 20.00     0.134 C 
HETATM    2  C2  UNL     1     -35.668  17.421  -0.240  1.00 20.00     0.106 C 
HETATM    3  C4  UNL     1     -35.785  17.162  -1.730  1.00 20.00     0.243 C 
HETATM    4  C5  UNL     1     -33.146  17.849  -0.530  1.00 20.00     0.082 C 
HETATM    5  C8  UNL     1     -33.298  17.625  -2.048  1.00 20.00     0.195 C 
HETATM    6  C9  UNL     1     -32.015  18.814  -0.181  1.00 20.00     0.020 C 
HETATM    7  C11 UNL     1     -33.474  18.911  -2.859  1.00 20.00     0.041 C 
HETATM    8  N12 UNL     1     -34.463  16.663  -2.261  1.00 20.00    -0.061 N 
HETATM    9  O13 UNL     1     -34.572  19.254   0.838  1.00 20.00    -0.297 OA
HETATM   10  H33 UNL     1     -34.233  15.813  -1.724  1.00 20.00     0.280 HD
ENDROOT
BRANCH   8  11
HETATM   11  C7  UNL     1     -34.587  16.174  -3.689  1.00 20.00     0.193 A 
HETATM   12  C3  UNL     1     -34.622  14.689  -3.917  1.00 20.00     0.040 A 
HETATM   13  C6  UNL     1     -33.397  15.479  -4.293  1.00 20.00     0.014 A 
HETATM   14  C10 UNL     1     -33.054  15.691  -5.726  1.00 20.00     0.012 C 
ENDBRANCH   8  11
TORSDOF 1
ENDMDL
MODEL 4
REMARK VINA RESULT:      -4.5     11.368     12.453
REMARK  1 active torsions:
REMARK  status: ('A' for Active; 'I' for Inactive)
REMARK    1  A    between atoms: C7_7  and  N12_12 
ROOT
HETATM    1  C1  UNL     1     -35.384  13.593  -6.259  1.00 20.00     0.134 C 
HETATM    2  C2  UNL     1     -36.435  13.802  -5.191  1.00 20.00     0.106 C 
HETATM    3  C4  UNL     1     -35.950  14.765  -4.123  1.00 20.00     0.243 C 
HETATM    4  C5  UNL     1     -34.791  14.860  -6.866  1.00 20.00     0.082 C 
HETATM    5  C8  UNL     1     -34.283  15.798  -5.752  1.00 20.00     0.195 C 
HETATM    6  C9  UNL     1     -33.721  14.539  -7.907  1.00 20.00     0.020 C 
HETATM    7  C11 UNL     1     -33.025  15.301  -5.035  1.00 20.00     0.041 C 
HETATM    8  N12 UNL     1     -35.433  16.025  -4.775  1.00 20.00    -0.061 N 
HETATM    9  O13 UNL     1     -35.103  12.464  -6.659  1.00 20.00    -0.297 OA
HETATM   10  H33 UNL     1     -36.211  16.406  -5.334  1.00 20.00     0.280 HD
ENDROOT
BRANCH   8  11
HETATM   11  C7  UNL     1     -35.150  17.104  -3.752  1.00 20.00     0.193 A 
HETATM   12  C3  UNL     1     -35.054  16.690  -2.310  1.00 20.00     0.040 A 
HETATM   13  C6  UNL     1     -36.253  17.461  -2.793  1.00 20.00     0.014 A 
HETATM   14  C10 UNL     1     -36.451  18.876  -2.373  1.00 20.00     0.012 C 
ENDBRANCH   8  11
TORSDOF 1
ENDMDL
MODEL 5
REMARK VINA RESULT:      -4.5     11.212     12.736
REMARK  1 active torsions:
REMARK  status: ('A' for Active; 'I' for Inactive)
REMARK    1  A    between atoms: C7_7  and  N12_12 
ROOT
HETATM    1  C1  UNL     1     -35.746  16.156  -6.492  1.00 20.00     0.134 C 
HETATM    2  C2  UNL     1     -36.088  17.343  -5.620  1.00 20.00     0.106 C 
HETATM    3  C4  UNL     1     -35.684  17.102  -4.178  1.00 20.00     0.243 C 
HETATM    4  C5  UNL     1     -34.313  15.643  -6.385  1.00 20.00     0.082 C 
HETATM    5  C8  UNL     1     -33.949  15.382  -4.909  1.00 20.00     0.195 C 
HETATM    6  C9  UNL     1     -34.080  14.428  -7.279  1.00 20.00     0.020 C 
HETATM    7  C11 UNL     1     -34.652  14.170  -4.292  1.00 20.00     0.041 C 
HETATM    8  N12 UNL     1     -34.241  16.658  -4.125  1.00 20.00    -0.061 N 
HETATM    9  O13 UNL     1     -36.560  15.702  -7.294  1.00 20.00    -0.297 OA
HETATM   10  H33 UNL     1     -33.689  17.403  -4.577  1.00 20.00     0.280 HD
ENDROOT
BRANCH   8  11
HETATM   11  C7  UNL     1     -33.722  16.624  -2.703  1.00 20.00     0.193 A 
HETATM   12  C3  UNL     1     -34.705  16.885  -1.596  1.00 20.00     0.040 A 
HETATM   13  C6  UNL     1     -33.674  17.924  -1.948  1.00 20.00     0.014 A 
HETATM   14  C10 UNL     1     -32.548  18.207  -1.016  1.00 20.00     0.012 C 
ENDBRANCH   8  11
TORSDOF 1
ENDMDL
MODEL 6
REMARK VINA RESULT:      -4.2     10.913     12.502
REMARK  1 active torsions:
REMARK  status: ('A' for Active; 'I' for Inactive)
REMARK    1  A    between atoms: C7_7  and  N12_12 
ROOT
HETATM    1  C1  UNL     1     -33.966  16.170  -5.384  1.00 20.00     0.134 C 
HETATM    2  C2  UNL     1     -33.463  17.594  -5.442  1.00 20.00     0.106 C 
HETATM    3  C4  UNL     1     -33.998  18.415  -4.284  1.00 20.00     0.243 C 
HETATM    4  C5  UNL     1     -33.782  15.453  -4.050  1.00 20.00     0.082 C 
HETATM    5  C8  UNL     1     -34.365  16.304  -2.903  1.00 20.00     0.195 C 
HETATM    6  C9  UNL     1     -34.351  14.036  -4.087  1.00 20.00     0.020 C 
HETATM    7  C11 UNL     1     -35.894  16.381  -2.890  1.00 20.00     0.041 C 
HETATM    8  N12 UNL     1     -33.734  17.691  -2.987  1.00 20.00    -0.061 N 
HETATM    9  O13 UNL     1     -34.414  15.613  -6.385  1.00 20.00    -0.297 OA
HETATM   10  H33 UNL     1     -32.715  17.544  -2.935  1.00 20.00     0.280 HD
ENDROOT
BRANCH   8  11
HETATM   11  C7  UNL     1     -34.041  18.565  -1.789  1.00 20.00     0.193 A 
HETATM   12  C3  UNL     1     -32.878  19.157  -1.042  1.00 20.00     0.040 A 
HETATM   13  C6  UNL     1     -33.676  18.037  -0.429  1.00 20.00     0.014 A 
HETATM   14  C10 UNL     1     -34.561  18.301   0.739  1.00 20.00     0.012 C 
ENDBRANCH   8  11
TORSDOF 1
ENDMDL
MODEL 7
REMARK VINA RESULT:      -4.1     11.578     12.664
REMARK  1 active torsions:
REMARK  status: ('A' for Active; 'I' for Inactive)
REMARK    1  A    between atoms: C7_7  and  N12_12 
ROOT
HETATM    1  C1  UNL     1     -36.149  15.365  -6.346  1.00 20.00     0.134 C 
HETATM    2  C2  UNL     1     -34.751  15.938  -6.281  1.00 20.00     0.106 C 
HETATM    3  C4  UNL     1     -34.640  16.997  -5.201  1.00 20.00     0.243 C 
HETATM    4  C5  UNL     1     -36.734  14.886  -5.021  1.00 20.00     0.082 C 
HETATM    5  C8  UNL     1     -36.630  15.999  -3.959  1.00 20.00     0.195 C 
HETATM    6  C9  UNL     1     -38.157  14.357  -5.191  1.00 20.00     0.020 C 
HETATM    7  C11 UNL     1     -37.575  17.181  -4.190  1.00 20.00     0.041 C 
HETATM    8  N12 UNL     1     -35.173  16.449  -3.899  1.00 20.00    -0.061 N 
HETATM    9  O13 UNL     1     -36.728  15.224  -7.423  1.00 20.00    -0.297 OA
HETATM   10  H33 UNL     1     -34.622  15.604  -3.689  1.00 20.00     0.280 HD
ENDROOT
BRANCH   8  11
HETATM   11  C7  UNL     1     -34.878  17.379  -2.742  1.00 20.00     0.193 A 
HETATM   12  C3  UNL     1     -33.644  17.107  -1.926  1.00 20.00     0.040 A 
HETATM   13  C6  UNL     1     -35.005  16.822  -1.350  1.00 20.00     0.014 A 
HETATM   14  C10 UNL     1     -35.545  17.669  -0.251  1.00 20.00     0.012 C 
ENDBRANCH   8  11
TORSDOF 1
ENDMDL
MODEL 8
REMARK VINA RESULT:      -3.8     11.207     12.513
REMARK  1 active torsions:
REMARK  status: ('A' for Active; 'I' for Inactive)
REMARK    1  A    between atoms: C7_7  and  N12_12 
ROOT
HETATM    1  C1  UNL     1     -34.424  16.568  -2.411  1.00 20.00     0.134 C 
HETATM    2  C2  UNL     1     -35.665  17.048  -1.692  1.00 20.00     0.106 C 
HETATM    3  C4  UNL     1     -36.741  17.472  -2.674  1.00 20.00     0.243 C 
HETATM    4  C5  UNL     1     -34.649  15.516  -3.494  1.00 20.00     0.082 C 
HETATM    5  C8  UNL     1     -35.726  15.996  -4.488  1.00 20.00     0.195 C 
HETATM    6  C9  UNL     1     -33.341  15.123  -4.178  1.00 20.00     0.020 C 
HETATM    7  C11 UNL     1     -35.277  17.142  -5.398  1.00 20.00     0.041 C 
HETATM    8  N12 UNL     1     -36.966  16.372  -3.683  1.00 20.00    -0.061 N 
HETATM    9  O13 UNL     1     -33.305  16.948  -2.071  1.00 20.00    -0.297 OA
HETATM   10  H33 UNL     1     -37.224  15.531  -3.146  1.00 20.00     0.280 HD
ENDROOT
BRANCH   8  11
HETATM   11  C7  UNL     1     -38.182  16.647  -4.543  1.00 20.00     0.193 A 
HETATM   12  C3  UNL     1     -39.415  15.826  -4.289  1.00 20.00     0.040 A 
HETATM   13  C6  UNL     1     -38.593  15.585  -5.527  1.00 20.00     0.014 A 
HETATM   14  C10 UNL     1     -39.124  15.970  -6.864  1.00 20.00     0.012 C 
ENDBRANCH   8  11
TORSDOF 1
ENDMDL
MODEL 9
REMARK VINA RESULT:      -3.8     11.488     13.058
REMARK  1 active torsions:
REMARK  status: ('A' for Active; 'I' for Inactive)
REMARK    1  A    between atoms: C7_7  and  N12_12 
ROOT
HETATM    1  C1  UNL     1     -33.401  18.580  -2.956  1.00 20.00     0.134 C 
HETATM    2  C2  UNL     1     -33.406  19.163  -4.352  1.00 20.00     0.106 C 
HETATM    3  C4  UNL     1     -33.729  18.104  -5.389  1.00 20.00     0.243 C 
HETATM    4  C5  UNL     1     -34.633  17.768  -2.570  1.00 20.00     0.082 C 
HETATM    5  C8  UNL     1     -34.911  16.684  -3.632  1.00 20.00     0.195 C 
HETATM    6  C9  UNL     1     -34.515  17.200  -1.158  1.00 20.00     0.020 C 
HETATM    7  C11 UNL     1     -33.898  15.537  -3.641  1.00 20.00     0.041 C 
HETATM    8  N12 UNL     1     -34.989  17.374  -4.991  1.00 20.00    -0.061 N 
HETATM    9  O13 UNL     1     -32.491  18.830  -2.167  1.00 20.00    -0.297 OA
HETATM   10  H33 UNL     1     -35.727  18.089  -4.905  1.00 20.00     0.280 HD
ENDROOT
BRANCH   8  11
HETATM   11  C7  UNL     1     -35.480  16.467  -6.099  1.00 20.00     0.193 A 
HETATM   12  C3  UNL     1     -36.681  16.915  -6.885  1.00 20.00     0.040 A 
HETATM   13  C6  UNL     1     -36.805  15.781  -5.902  1.00 20.00     0.014 A 
HETATM   14  C10 UNL     1     -37.005  14.388  -6.388  1.00 20.00     0.012 C 
ENDBRANCH   8  11
TORSDOF 1
ENDMDL
