MODEL 1
REMARK VINA RESULT:      -4.6      0.000      0.000
REMARK  2 active torsions:
REMARK  status: ('A' for Active; 'I' for Inactive)
REMARK    1  A    between atoms: C5_5  and  C11_11 
REMARK    2  A    between atoms: C6_6  and  C10_10 
ROOT
HETATM    1  C1  UNL     1     -33.521  17.570  -3.069  1.00 20.00     0.131 C 
HETATM    2  C2  UNL     1     -32.926  18.328  -1.903  1.00 20.00     0.079 C 
HETATM    3  C3  UNL     1     -33.999  18.654  -0.873  1.00 20.00     0.012 C 
HETATM    4  C4  UNL     1     -35.401  16.716  -1.665  1.00 20.00     0.017 C 
HETATM    5  C5  UNL     1     -34.348  16.340  -2.713  1.00 20.00     0.059 C 
HETATM    6  C6  UNL     1     -34.772  17.400  -0.442  1.00 20.00    -0.014 C 
HETATM    7  O12 UNL     1     -33.264  17.889  -4.229  1.00 20.00    -0.298 OA
ENDROOT
BRANCH   5   8
HETATM    8  C11 UNL     1     -35.008  15.727  -3.945  1.00 20.00    -0.011 C 
HETATM    9  C8  UNL     1     -34.532  14.290  -4.151  1.00 20.00     0.010 C 
HETATM   10  C9  UNL     1     -36.529  15.776  -3.820  1.00 20.00     0.010 C 
ENDBRANCH   5   8
BRANCH   6  11
HETATM   11  C10 UNL     1     -35.845  17.758   0.585  1.00 20.00     0.000 C 
HETATM   12  C7  UNL     1     -35.251  18.364   1.815  1.00 20.00     0.005 C 
ENDBRANCH   6  11
TORSDOF 2
ENDMDL
MODEL 2
REMARK VINA RESULT:      -4.6      1.642      4.831
REMARK  2 active torsions:
REMARK  status: ('A' for Active; 'I' for Inactive)
REMARK    1  A    between atoms: C5_5  and  C11_11 
REMARK    2  A    between atoms: C6_6  and  C10_10 
ROOT
HETATM    1  C1  UNL     1     -36.353  17.021  -2.749  1.00 20.00     0.131 C 
HETATM    2  C2  UNL     1     -36.721  15.963  -3.766  1.00 20.00     0.079 C 
HETATM    3  C3  UNL     1     -35.510  15.587  -4.608  1.00 20.00     0.012 C 
HETATM    4  C4  UNL     1     -33.953  16.329  -2.770  1.00 20.00     0.017 C 
HETATM    5  C5  UNL     1     -35.138  16.717  -1.879  1.00 20.00     0.059 C 
HETATM    6  C6  UNL     1     -34.312  15.188  -3.734  1.00 20.00    -0.014 C 
HETATM    7  O12 UNL     1     -37.058  18.016  -2.587  1.00 20.00    -0.298 OA
ENDROOT
BRANCH   5   8
HETATM    8  C11 UNL     1     -34.775  17.898  -0.983  1.00 20.00    -0.011 C 
HETATM    9  C8  UNL     1     -35.332  17.696   0.425  1.00 20.00     0.010 C 
HETATM   10  C9  UNL     1     -33.261  18.093  -0.938  1.00 20.00     0.010 C 
ENDBRANCH   5   8
BRANCH   6  11
HETATM   11  C10 UNL     1     -33.111  14.822  -4.605  1.00 20.00     0.000 C 
HETATM   12  C7  UNL     1     -33.029  15.684  -5.822  1.00 20.00     0.005 C 
ENDBRANCH   6  11
TORSDOF 2
ENDMDL
MODEL 3
REMARK VINA RESULT:      -4.5      1.285      1.656
REMARK  2 active torsions:
REMARK  status: ('A' for Active; 'I' for Inactive)
REMARK    1  A    between atoms: C5_5  and  C11_11 
REMARK    2  A    between atoms: C6_6  and  C10_10 
ROOT
HETATM    1  C1  UNL     1     -33.188  18.188  -1.419  1.00 20.00     0.131 C 
HETATM    2  C2  UNL     1     -32.876  18.635  -0.007  1.00 20.00     0.079 C 
HETATM    3  C3  UNL     1     -34.160  18.933   0.755  1.00 20.00     0.012 C 
HETATM    4  C4  UNL     1     -35.459  17.390  -0.755  1.00 20.00     0.017 C 
HETATM    5  C5  UNL     1     -34.194  17.050  -1.551  1.00 20.00     0.059 C 
HETATM    6  C6  UNL     1     -35.138  17.751   0.703  1.00 20.00    -0.014 C 
HETATM    7  O12 UNL     1     -32.587  18.662  -2.381  1.00 20.00    -0.298 OA
ENDROOT
BRANCH   5   8
HETATM    8  C11 UNL     1     -34.536  16.765  -3.010  1.00 20.00    -0.011 C 
HETATM    9  C8  UNL     1     -33.674  15.626  -3.552  1.00 20.00     0.010 C 
HETATM   10  C9  UNL     1     -36.019  16.433  -3.161  1.00 20.00     0.010 C 
ENDBRANCH   5   8
BRANCH   6  11
HETATM   11  C10 UNL     1     -36.418  18.079   1.470  1.00 20.00     0.000 C 
HETATM   12  C7  UNL     1     -37.491  18.584   0.562  1.00 20.00     0.005 C 
ENDBRANCH   6  11
TORSDOF 2
ENDMDL
MODEL 4
REMARK VINA RESULT:      -4.3      1.841      2.907
REMARK  2 active torsions:
REMARK  status: ('A' for Active; 'I' for Inactive)
REMARK    1  A    between atoms: C5_5  and  C11_11 
REMARK    2  A    between atoms: C6_6  and  C10_10 
ROOT
HETATM    1  C1  UNL     1     -35.973  15.900  -3.801  1.00 20.00     0.131 C 
HETATM    2  C2  UNL     1     -36.580  16.905  -2.846  1.00 20.00     0.079 C 
HETATM    3  C3  UNL     1     -35.638  17.171  -1.681  1.00 20.00     0.012 C 
HETATM    4  C4  UNL     1     -33.656  16.481  -3.075  1.00 20.00     0.017 C 
HETATM    5  C5  UNL     1     -34.559  16.205  -4.282  1.00 20.00     0.059 C 
HETATM    6  C6  UNL     1     -34.237  17.572  -2.163  1.00 20.00    -0.014 C 
HETATM    7  O12 UNL     1     -36.632  14.950  -4.223  1.00 20.00    -0.298 OA
ENDROOT
BRANCH   5   8
HETATM    8  C11 UNL     1     -33.994  15.071  -5.131  1.00 20.00    -0.011 C 
HETATM    9  C8  UNL     1     -33.456  15.607  -6.456  1.00 20.00     0.010 C 
HETATM   10  C9  UNL     1     -32.900  14.324  -4.371  1.00 20.00     0.010 C 
ENDBRANCH   5   8
BRANCH   6  11
HETATM   11  C10 UNL     1     -33.312  17.827  -0.973  1.00 20.00     0.000 C 
HETATM   12  C7  UNL     1     -34.078  18.232   0.243  1.00 20.00     0.005 C 
ENDBRANCH   6  11
TORSDOF 2
ENDMDL
MODEL 5
REMARK VINA RESULT:      -4.3     11.184     12.128
REMARK  2 active torsions:
REMARK  status: ('A' for Active; 'I' for Inactive)
REMARK    1  A    between atoms: C5_5  and  C11_11 
REMARK    2  A    between atoms: C6_6  and  C10_10 
ROOT
HETATM    1  C1  UNL     1     -33.265   7.185   5.095  1.00 20.00     0.131 C 
HETATM    2  C2  UNL     1     -32.537   8.509   5.003  1.00 20.00     0.079 C 
HETATM    3  C3  UNL     1     -31.698   8.571   3.733  1.00 20.00     0.012 C 
HETATM    4  C4  UNL     1     -33.194   6.877   2.618  1.00 20.00     0.017 C 
HETATM    5  C5  UNL     1     -34.075   6.783   3.868  1.00 20.00     0.059 C 
HETATM    6  C6  UNL     1     -32.535   8.258   2.485  1.00 20.00    -0.014 C 
HETATM    7  O12 UNL     1     -33.265   6.534   6.138  1.00 20.00    -0.298 OA
ENDROOT
BRANCH   5   8
HETATM    8  C11 UNL     1     -34.659   5.381   4.012  1.00 20.00    -0.011 C 
HETATM    9  C8  UNL     1     -33.738   4.346   3.368  1.00 20.00     0.010 C 
HETATM   10  C9  UNL     1     -34.897   5.045   5.483  1.00 20.00     0.010 C 
ENDBRANCH   5   8
BRANCH   6  11
HETATM   11  C10 UNL     1     -31.667   8.321   1.229  1.00 20.00     0.000 C 
HETATM   12  C7  UNL     1     -32.087   9.434   0.325  1.00 20.00     0.005 C 
ENDBRANCH   6  11
TORSDOF 2
ENDMDL
MODEL 6
REMARK VINA RESULT:      -4.3      2.194      3.607
REMARK  2 active torsions:
REMARK  status: ('A' for Active; 'I' for Inactive)
REMARK    1  A    between atoms: C5_5  and  C11_11 
REMARK    2  A    between atoms: C6_6  and  C10_10 
ROOT
HETATM    1  C1  UNL     1     -34.661  14.422  -5.338  1.00 20.00     0.131 C 
HETATM    2  C2  UNL     1     -33.482  14.429  -4.391  1.00 20.00     0.079 C 
HETATM    3  C3  UNL     1     -33.445  15.724  -3.592  1.00 20.00     0.012 C 
HETATM    4  C4  UNL     1     -35.925  16.037  -3.913  1.00 20.00     0.017 C 
HETATM    5  C5  UNL     1     -36.018  14.736  -4.718  1.00 20.00     0.059 C 
HETATM    6  C6  UNL     1     -34.782  15.995  -2.888  1.00 20.00    -0.014 C 
HETATM    7  O12 UNL     1     -34.526  14.090  -6.515  1.00 20.00    -0.298 OA
ENDROOT
BRANCH   5   8
HETATM    8  C11 UNL     1     -37.114  14.832  -5.775  1.00 20.00    -0.011 C 
HETATM    9  C8  UNL     1     -38.481  14.538  -5.161  1.00 20.00     0.010 C 
HETATM   10  C9  UNL     1     -37.107  16.211  -6.432  1.00 20.00     0.010 C 
ENDBRANCH   5   8
BRANCH   6  11
HETATM   11  C10 UNL     1     -34.718  17.302  -2.100  1.00 20.00     0.000 C 
HETATM   12  C7  UNL     1     -33.333  17.591  -1.623  1.00 20.00     0.005 C 
ENDBRANCH   6  11
TORSDOF 2
ENDMDL
MODEL 7
REMARK VINA RESULT:      -4.3      1.950      4.853
REMARK  2 active torsions:
REMARK  status: ('A' for Active; 'I' for Inactive)
REMARK    1  A    between atoms: C5_5  and  C11_11 
REMARK    2  A    between atoms: C6_6  and  C10_10 
ROOT
HETATM    1  C1  UNL     1     -33.946  14.801  -4.651  1.00 20.00     0.131 C 
HETATM    2  C2  UNL     1     -34.520  14.131  -5.881  1.00 20.00     0.079 C 
HETATM    3  C3  UNL     1     -35.982  13.767  -5.659  1.00 20.00     0.012 C 
HETATM    4  C4  UNL     1     -36.204  15.569  -3.911  1.00 20.00     0.017 C 
HETATM    5  C5  UNL     1     -34.740  15.980  -4.102  1.00 20.00     0.059 C 
HETATM    6  C6  UNL     1     -36.804  14.978  -5.195  1.00 20.00    -0.014 C 
HETATM    7  O12 UNL     1     -32.857  14.457  -4.194  1.00 20.00    -0.298 OA
ENDROOT
BRANCH   5   8
HETATM    8  C11 UNL     1     -34.150  16.498  -2.793  1.00 20.00    -0.011 C 
HETATM    9  C8  UNL     1     -33.405  17.812  -3.021  1.00 20.00     0.010 C 
HETATM   10  C9  UNL     1     -35.245  16.677  -1.744  1.00 20.00     0.010 C 
ENDBRANCH   5   8
BRANCH   6  11
HETATM   11  C10 UNL     1     -38.263  14.582  -4.975  1.00 20.00     0.000 C 
HETATM   12  C7  UNL     1     -39.067  15.719  -4.435  1.00 20.00     0.005 C 
ENDBRANCH   6  11
TORSDOF 2
ENDMDL
MODEL 8
REMARK VINA RESULT:      -4.2      2.859      4.264
REMARK  2 active torsions:
REMARK  status: ('A' for Active; 'I' for Inactive)
REMARK    1  A    between atoms: C5_5  and  C11_11 
REMARK    2  A    between atoms: C6_6  and  C10_10 
ROOT
HETATM    1  C1  UNL     1     -35.153  18.174   0.985  1.00 20.00     0.131 C 
HETATM    2  C2  UNL     1     -34.683  18.797   2.282  1.00 20.00     0.079 C 
HETATM    3  C3  UNL     1     -33.187  18.586   2.465  1.00 20.00     0.012 C 
HETATM    4  C4  UNL     1     -32.877  18.351  -0.025  1.00 20.00     0.017 C 
HETATM    5  C5  UNL     1     -34.375  18.567  -0.265  1.00 20.00     0.059 C 
HETATM    6  C6  UNL     1     -32.391  19.068   1.244  1.00 20.00    -0.014 C 
HETATM    7  O12 UNL     1     -36.161  17.468   0.951  1.00 20.00    -0.298 OA
ENDROOT
BRANCH   5   8
HETATM    8  C11 UNL     1     -34.842  17.787  -1.490  1.00 20.00    -0.011 C 
HETATM    9  C8  UNL     1     -35.453  18.728  -2.526  1.00 20.00     0.010 C 
HETATM   10  C9  UNL     1     -33.686  16.997  -2.099  1.00 20.00     0.010 C 
ENDBRANCH   5   8
BRANCH   6  11
HETATM   11  C10 UNL     1     -30.895  18.839   1.453  1.00 20.00     0.000 C 
HETATM   12  C7  UNL     1     -30.490  19.099   2.867  1.00 20.00     0.005 C 
ENDBRANCH   6  11
TORSDOF 2
ENDMDL
MODEL 9
REMARK VINA RESULT:      -4.2      2.006      3.123
REMARK  2 active torsions:
REMARK  status: ('A' for Active; 'I' for Inactive)
REMARK    1  A    between atoms: C5_5  and  C11_11 
REMARK    2  A    between atoms: C6_6  and  C10_10 
ROOT
HETATM    1  C1  UNL     1     -34.491  16.908  -6.121  1.00 20.00     0.131 C 
HETATM    2  C2  UNL     1     -33.735  18.072  -5.517  1.00 20.00     0.079 C 
HETATM    3  C3  UNL     1     -33.987  18.153  -4.018  1.00 20.00     0.012 C 
HETATM    4  C4  UNL     1     -34.537  15.696  -3.938  1.00 20.00     0.017 C 
HETATM    5  C5  UNL     1     -34.288  15.557  -5.444  1.00 20.00     0.059 C 
HETATM    6  C6  UNL     1     -33.693  16.819  -3.319  1.00 20.00    -0.014 C 
HETATM    7  O12 UNL     1     -35.150  17.047  -7.150  1.00 20.00    -0.298 OA
ENDROOT
BRANCH   5   8
HETATM    8  C11 UNL     1     -35.190  14.484  -6.044  1.00 20.00    -0.011 C 
HETATM    9  C8  UNL     1     -34.419  13.634  -7.052  1.00 20.00     0.010 C 
HETATM   10  C9  UNL     1     -35.784  13.604  -4.945  1.00 20.00     0.010 C 
ENDBRANCH   5   8
BRANCH   6  11
HETATM   11  C10 UNL     1     -33.960  16.929  -1.819  1.00 20.00     0.000 C 
HETATM   12  C7  UNL     1     -35.420  16.858  -1.513  1.00 20.00     0.005 C 
ENDBRANCH   6  11
TORSDOF 2
ENDMDL
