MODEL 1
REMARK VINA RESULT:      -5.9      0.000      0.000
REMARK  4 active torsions:
REMARK  status: ('A' for Active; 'I' for Inactive)
REMARK    1  A    between atoms: C1_1  and  C10_10 
REMARK    2  A    between atoms: C5_5  and  C8_8 
REMARK    3  A    between atoms: C8_8  and  C10_10 
REMARK    4  A    between atoms: C9_9  and  C10_10 
ROOT
HETATM    1  C10 UNL     1     -33.617   7.167   3.545  1.00 20.00     0.055 C 
ENDROOT
BRANCH   1   2
HETATM    2  C1  UNL     1     -33.738   6.994   5.058  1.00 20.00     0.127 C 
HETATM    3  C6  UNL     1     -34.584   5.848   5.546  1.00 20.00     0.091 C 
HETATM    4  O11 UNL     1     -33.176   7.751   5.849  1.00 20.00    -0.298 OA
ENDBRANCH   1   2
BRANCH   1   5
HETATM    5  C8  UNL     1     -32.152   7.432   3.162  1.00 20.00     0.016 C 
BRANCH   5   6
HETATM    6  C5  UNL     1     -31.973   8.714   2.375  1.00 20.00    -0.014 C 
HETATM    7  C3  UNL     1     -33.252   9.328   1.748  1.00 20.00     0.005 C 
HETATM    8  C2  UNL     1     -32.378   9.731   0.541  1.00 20.00     0.001 C 
HETATM    9  C4  UNL     1     -31.438   8.570   0.926  1.00 20.00     0.005 C 
ENDBRANCH   5   6
ENDBRANCH   1   5
BRANCH   1  10
HETATM   10  C9  UNL     1     -34.140   5.909   2.831  1.00 20.00     0.007 C 
HETATM   11  C7  UNL     1     -33.006   4.931   2.532  1.00 20.00     0.006 C 
ENDBRANCH   1  10
TORSDOF 4
ENDMDL
MODEL 2
REMARK VINA RESULT:      -5.3      1.537      2.150
REMARK  4 active torsions:
REMARK  status: ('A' for Active; 'I' for Inactive)
REMARK    1  A    between atoms: C1_1  and  C10_10 
REMARK    2  A    between atoms: C5_5  and  C8_8 
REMARK    3  A    between atoms: C8_8  and  C10_10 
REMARK    4  A    between atoms: C9_9  and  C10_10 
ROOT
HETATM    1  C10 UNL     1     -33.180   6.425   3.718  1.00 20.00     0.055 C 
ENDROOT
BRANCH   1   2
HETATM    2  C1  UNL     1     -34.448   5.585   3.852  1.00 20.00     0.127 C 
HETATM    3  C6  UNL     1     -34.284   4.189   4.395  1.00 20.00     0.091 C 
HETATM    4  O11 UNL     1     -35.556   6.017   3.533  1.00 20.00    -0.298 OA
ENDBRANCH   1   2
BRANCH   1   5
HETATM    5  C8  UNL     1     -33.009   6.890   2.262  1.00 20.00     0.016 C 
BRANCH   5   6
HETATM    6  C5  UNL     1     -32.480   8.306   2.155  1.00 20.00    -0.014 C 
HETATM    7  C3  UNL     1     -33.413   9.346   1.482  1.00 20.00     0.005 C 
HETATM    8  C2  UNL     1     -32.145   9.971   0.862  1.00 20.00     0.001 C 
HETATM    9  C4  UNL     1     -31.479   8.587   1.004  1.00 20.00     0.005 C 
ENDBRANCH   5   6
ENDBRANCH   1   5
BRANCH   1  10
HETATM   10  C9  UNL     1     -33.252   7.636   4.664  1.00 20.00     0.007 C 
HETATM   11  C7  UNL     1     -33.771   7.232   6.041  1.00 20.00     0.006 C 
ENDBRANCH   1  10
TORSDOF 4
ENDMDL
MODEL 3
REMARK VINA RESULT:      -4.8      2.052      4.625
REMARK  4 active torsions:
REMARK  status: ('A' for Active; 'I' for Inactive)
REMARK    1  A    between atoms: C1_1  and  C10_10 
REMARK    2  A    between atoms: C5_5  and  C8_8 
REMARK    3  A    between atoms: C8_8  and  C10_10 
REMARK    4  A    between atoms: C9_9  and  C10_10 
ROOT
HETATM    1  C10 UNL     1     -32.536   8.097   2.711  1.00 20.00     0.055 C 
ENDROOT
BRANCH   1   2
HETATM    2  C1  UNL     1     -32.178   8.844   1.427  1.00 20.00     0.127 C 
HETATM    3  C6  UNL     1     -32.944  10.109   1.140  1.00 20.00     0.091 C 
HETATM    4  O11 UNL     1     -31.307   8.439   0.656  1.00 20.00    -0.298 OA
ENDBRANCH   1   2
BRANCH   1   5
HETATM    5  C8  UNL     1     -32.840   6.624   2.394  1.00 20.00     0.016 C 
BRANCH   5   6
HETATM    6  C5  UNL     1     -34.051   6.100   3.137  1.00 20.00    -0.014 C 
HETATM    7  C3  UNL     1     -34.214   6.558   4.610  1.00 20.00     0.005 C 
HETATM    8  C2  UNL     1     -34.757   5.146   4.912  1.00 20.00     0.001 C 
HETATM    9  C4  UNL     1     -33.955   4.654   3.689  1.00 20.00     0.005 C 
ENDBRANCH   5   6
ENDBRANCH   1   5
BRANCH   1  10
HETATM   10  C9  UNL     1     -31.379   8.203   3.718  1.00 20.00     0.007 C 
HETATM   11  C7  UNL     1     -31.818   8.922   4.992  1.00 20.00     0.006 C 
ENDBRANCH   1  10
TORSDOF 4
ENDMDL
MODEL 4
REMARK VINA RESULT:      -4.5      1.370      3.964
REMARK  4 active torsions:
REMARK  status: ('A' for Active; 'I' for Inactive)
REMARK    1  A    between atoms: C1_1  and  C10_10 
REMARK    2  A    between atoms: C5_5  and  C8_8 
REMARK    3  A    between atoms: C8_8  and  C10_10 
REMARK    4  A    between atoms: C9_9  and  C10_10 
ROOT
HETATM    1  C10 UNL     1     -32.476   7.370   2.813  1.00 20.00     0.055 C 
ENDROOT
BRANCH   1   2
HETATM    2  C1  UNL     1     -32.040   8.069   4.100  1.00 20.00     0.127 C 
HETATM    3  C6  UNL     1     -32.956   7.937   5.288  1.00 20.00     0.091 C 
HETATM    4  O11 UNL     1     -30.994   8.713   4.171  1.00 20.00    -0.298 OA
ENDBRANCH   1   2
BRANCH   1   5
HETATM    5  C8  UNL     1     -34.006   7.218   2.790  1.00 20.00     0.016 C 
BRANCH   5   6
HETATM    6  C5  UNL     1     -34.460   5.794   3.033  1.00 20.00    -0.014 C 
HETATM    7  C3  UNL     1     -34.937   5.453   4.469  1.00 20.00     0.005 C 
HETATM    8  C2  UNL     1     -34.275   4.072   4.282  1.00 20.00     0.001 C 
HETATM    9  C4  UNL     1     -33.344   4.738   3.248  1.00 20.00     0.005 C 
ENDBRANCH   5   6
ENDBRANCH   1   5
BRANCH   1  10
HETATM   10  C9  UNL     1     -31.997   8.173   1.593  1.00 20.00     0.007 C 
HETATM   11  C7  UNL     1     -32.785   9.472   1.441  1.00 20.00     0.006 C 
ENDBRANCH   1  10
TORSDOF 4
ENDMDL
MODEL 5
REMARK VINA RESULT:      -4.4     10.362     11.201
REMARK  4 active torsions:
REMARK  status: ('A' for Active; 'I' for Inactive)
REMARK    1  A    between atoms: C1_1  and  C10_10 
REMARK    2  A    between atoms: C5_5  and  C8_8 
REMARK    3  A    between atoms: C8_8  and  C10_10 
REMARK    4  A    between atoms: C9_9  and  C10_10 
ROOT
HETATM    1  C10 UNL     1     -35.295  15.078  -4.589  1.00 20.00     0.055 C 
ENDROOT
BRANCH   1   2
HETATM    2  C1  UNL     1     -36.335  14.031  -4.983  1.00 20.00     0.127 C 
HETATM    3  C6  UNL     1     -37.765  14.495  -5.079  1.00 20.00     0.091 C 
HETATM    4  O11 UNL     1     -36.029  12.860  -5.212  1.00 20.00    -0.298 OA
ENDBRANCH   1   2
BRANCH   1   5
HETATM    5  C8  UNL     1     -35.862  15.994  -3.492  1.00 20.00     0.016 C 
BRANCH   5   6
HETATM    6  C5  UNL     1     -34.847  16.321  -2.416  1.00 20.00    -0.014 C 
HETATM    7  C3  UNL     1     -35.396  16.964  -1.116  1.00 20.00     0.005 C 
HETATM    8  C2  UNL     1     -34.109  17.815  -1.081  1.00 20.00     0.001 C 
HETATM    9  C4  UNL     1     -34.025  17.622  -2.610  1.00 20.00     0.005 C 
ENDBRANCH   5   6
ENDBRANCH   1   5
BRANCH   1  10
HETATM   10  C9  UNL     1     -34.013  14.385  -4.101  1.00 20.00     0.007 C 
HETATM   11  C7  UNL     1     -32.794  14.856  -4.890  1.00 20.00     0.006 C 
ENDBRANCH   1  10
TORSDOF 4
ENDMDL
MODEL 6
REMARK VINA RESULT:      -4.4     10.379     11.142
REMARK  4 active torsions:
REMARK  status: ('A' for Active; 'I' for Inactive)
REMARK    1  A    between atoms: C1_1  and  C10_10 
REMARK    2  A    between atoms: C5_5  and  C8_8 
REMARK    3  A    between atoms: C8_8  and  C10_10 
REMARK    4  A    between atoms: C9_9  and  C10_10 
ROOT
HETATM    1  C10 UNL     1     -34.778  14.557  -3.948  1.00 20.00     0.055 C 
ENDROOT
BRANCH   1   2
HETATM    2  C1  UNL     1     -33.373  14.545  -4.548  1.00 20.00     0.127 C 
HETATM    3  C6  UNL     1     -33.053  15.621  -5.552  1.00 20.00     0.091 C 
HETATM    4  O11 UNL     1     -32.536  13.698  -4.235  1.00 20.00    -0.298 OA
ENDBRANCH   1   2
BRANCH   1   5
HETATM    5  C8  UNL     1     -35.132  15.975  -3.470  1.00 20.00     0.016 C 
BRANCH   5   6
HETATM    6  C5  UNL     1     -34.495  16.323  -2.140  1.00 20.00    -0.014 C 
HETATM    7  C3  UNL     1     -35.372  17.119  -1.138  1.00 20.00     0.005 C 
HETATM    8  C2  UNL     1     -34.089  17.874  -0.730  1.00 20.00     0.001 C 
HETATM    9  C4  UNL     1     -33.532  17.538  -2.129  1.00 20.00     0.005 C 
ENDBRANCH   5   6
ENDBRANCH   1   5
BRANCH   1  10
HETATM   10  C9  UNL     1     -35.797  14.072  -4.992  1.00 20.00     0.007 C 
HETATM   11  C7  UNL     1     -37.167  14.705  -4.764  1.00 20.00     0.006 C 
ENDBRANCH   1  10
TORSDOF 4
ENDMDL
MODEL 7
REMARK VINA RESULT:      -4.3     10.443     11.448
REMARK  4 active torsions:
REMARK  status: ('A' for Active; 'I' for Inactive)
REMARK    1  A    between atoms: C1_1  and  C10_10 
REMARK    2  A    between atoms: C5_5  and  C8_8 
REMARK    3  A    between atoms: C8_8  and  C10_10 
REMARK    4  A    between atoms: C9_9  and  C10_10 
ROOT
HETATM    1  C10 UNL     1     -35.097  15.667  -4.148  1.00 20.00     0.055 C 
ENDROOT
BRANCH   1   2
HETATM    2  C1  UNL     1     -34.974  14.172  -4.436  1.00 20.00     0.127 C 
HETATM    3  C6  UNL     1     -36.063  13.549  -5.269  1.00 20.00     0.091 C 
HETATM    4  O11 UNL     1     -34.034  13.500  -4.011  1.00 20.00    -0.298 OA
ENDBRANCH   1   2
BRANCH   1   5
HETATM    5  C8  UNL     1     -33.904  16.139  -3.300  1.00 20.00     0.016 C 
BRANCH   5   6
HETATM    6  C5  UNL     1     -34.254  17.293  -2.383  1.00 20.00    -0.014 C 
HETATM    7  C3  UNL     1     -33.181  17.701  -1.340  1.00 20.00     0.005 C 
HETATM    8  C2  UNL     1     -34.343  17.977  -0.363  1.00 20.00     0.001 C 
HETATM    9  C4  UNL     1     -35.176  16.967  -1.178  1.00 20.00     0.005 C 
ENDBRANCH   5   6
ENDBRANCH   1   5
BRANCH   1  10
HETATM   10  C9  UNL     1     -35.160  16.451  -5.469  1.00 20.00     0.007 C 
HETATM   11  C7  UNL     1     -33.776  16.587  -6.099  1.00 20.00     0.006 C 
ENDBRANCH   1  10
TORSDOF 4
ENDMDL
MODEL 8
REMARK VINA RESULT:      -4.3      1.336      4.250
REMARK  4 active torsions:
REMARK  status: ('A' for Active; 'I' for Inactive)
REMARK    1  A    between atoms: C1_1  and  C10_10 
REMARK    2  A    between atoms: C5_5  and  C8_8 
REMARK    3  A    between atoms: C8_8  and  C10_10 
REMARK    4  A    between atoms: C9_9  and  C10_10 
ROOT
HETATM    1  C10 UNL     1     -32.883   6.761   3.153  1.00 20.00     0.055 C 
ENDROOT
BRANCH   1   2
HETATM    2  C1  UNL     1     -32.003   7.983   2.896  1.00 20.00     0.127 C 
HETATM    3  C6  UNL     1     -32.116   8.629   1.540  1.00 20.00     0.091 C 
HETATM    4  O11 UNL     1     -31.232   8.425   3.748  1.00 20.00    -0.298 OA
ENDBRANCH   1   2
BRANCH   1   5
HETATM    5  C8  UNL     1     -34.325   7.207   3.451  1.00 20.00     0.016 C 
BRANCH   5   6
HETATM    6  C5  UNL     1     -34.926   6.492   4.644  1.00 20.00    -0.014 C 
HETATM    7  C3  UNL     1     -34.043   6.400   5.916  1.00 20.00     0.005 C 
HETATM    8  C2  UNL     1     -34.633   4.990   6.133  1.00 20.00     0.001 C 
HETATM    9  C4  UNL     1     -34.891   4.941   4.613  1.00 20.00     0.005 C 
ENDBRANCH   5   6
ENDBRANCH   1   5
BRANCH   1  10
HETATM   10  C9  UNL     1     -32.851   5.827   1.932  1.00 20.00     0.007 C 
HETATM   11  C7  UNL     1     -32.782   4.363   2.358  1.00 20.00     0.006 C 
ENDBRANCH   1  10
TORSDOF 4
ENDMDL
MODEL 9
REMARK VINA RESULT:      -4.3     10.663     11.911
REMARK  4 active torsions:
REMARK  status: ('A' for Active; 'I' for Inactive)
REMARK    1  A    between atoms: C1_1  and  C10_10 
REMARK    2  A    between atoms: C5_5  and  C8_8 
REMARK    3  A    between atoms: C8_8  and  C10_10 
REMARK    4  A    between atoms: C9_9  and  C10_10 
ROOT
HETATM    1  C10 UNL     1     -35.272  15.089  -5.633  1.00 20.00     0.055 C 
ENDROOT
BRANCH   1   2
HETATM    2  C1  UNL     1     -35.446  13.614  -5.989  1.00 20.00     0.127 C 
HETATM    3  C6  UNL     1     -34.996  13.188  -7.362  1.00 20.00     0.091 C 
HETATM    4  O11 UNL     1     -35.933  12.804  -5.200  1.00 20.00    -0.298 OA
ENDBRANCH   1   2
BRANCH   1   5
HETATM    5  C8  UNL     1     -34.019  15.274  -4.760  1.00 20.00     0.016 C 
BRANCH   5   6
HETATM    6  C5  UNL     1     -34.350  15.506  -3.300  1.00 20.00    -0.014 C 
HETATM    7  C3  UNL     1     -35.707  16.192  -2.996  1.00 20.00     0.005 C 
HETATM    8  C2  UNL     1     -34.993  16.924  -1.840  1.00 20.00     0.001 C 
HETATM    9  C4  UNL     1     -33.678  16.729  -2.623  1.00 20.00     0.005 C 
ENDBRANCH   5   6
ENDBRANCH   1   5
BRANCH   1  10
HETATM   10  C9  UNL     1     -35.160  15.928  -6.917  1.00 20.00     0.007 C 
HETATM   11  C7  UNL     1     -34.097  17.014  -6.778  1.00 20.00     0.006 C 
ENDBRANCH   1  10
TORSDOF 4
ENDMDL
