MODEL 1
REMARK VINA RESULT:      -5.1      0.000      0.000
REMARK  3 active torsions:
REMARK  status: ('A' for Active; 'I' for Inactive)
REMARK    1  A    between atoms: C2_2  and  C11_11 
REMARK    2  A    between atoms: C3_3  and  C9_9 
REMARK    3  A    between atoms: C9_9  and  C11_11 
ROOT
HETATM    1  C1  UNL     1     -35.150  16.731  -2.059  1.00 20.00    -0.111 C 
HETATM    2  C2  UNL     1     -35.757  16.222  -2.962  1.00 20.00    -0.106 C 
HETATM    3  C10 UNL     1     -34.409  17.352  -0.962  1.00 20.00     0.112 C 
ENDROOT
BRANCH   2   4
HETATM    4  C11 UNL     1     -36.496  15.588  -4.054  1.00 20.00     0.114 C 
BRANCH   4   5
HETATM    5  C9  UNL     1     -35.546  15.147  -5.168  1.00 20.00     0.058 C 
HETATM    6  C7  UNL     1     -36.257  15.134  -6.524  1.00 20.00     0.021 C 
HETATM    7  C5  UNL     1     -35.314  14.818  -7.686  1.00 20.00     0.001 C 
HETATM    8  C4  UNL     1     -34.094  15.731  -7.687  1.00 20.00     0.000 C 
HETATM    9  C6  UNL     1     -33.354  15.677  -6.356  1.00 20.00     0.001 C 
HETATM   10  C8  UNL     1     -34.277  16.002  -5.181  1.00 20.00     0.021 C 
BRANCH   5  11
HETATM   11  C3  UNL     1     -35.196  13.717  -4.761  1.00 20.00     0.182 C 
HETATM   12  O12 UNL     1     -34.154  13.595  -4.059  1.00 20.00    -0.647 OA
HETATM   13  O13 UNL     1     -35.997  12.835  -5.181  1.00 20.00    -0.647 OA
ENDBRANCH   5  11
ENDBRANCH   4   5
ENDBRANCH   2   4
TORSDOF 3
ENDMDL
MODEL 2
REMARK VINA RESULT:      -5.0      1.459      1.874
REMARK  3 active torsions:
REMARK  status: ('A' for Active; 'I' for Inactive)
REMARK    1  A    between atoms: C2_2  and  C11_11 
REMARK    2  A    between atoms: C3_3  and  C9_9 
REMARK    3  A    between atoms: C9_9  and  C11_11 
ROOT
HETATM    1  C1  UNL     1     -33.674  16.688  -2.811  1.00 20.00    -0.111 C 
HETATM    2  C2  UNL     1     -34.004  15.667  -3.350  1.00 20.00    -0.106 C 
HETATM    3  C10 UNL     1     -33.271  17.931  -2.155  1.00 20.00     0.112 C 
ENDROOT
BRANCH   2   4
HETATM    4  C11 UNL     1     -34.414  14.419  -3.994  1.00 20.00     0.114 C 
BRANCH   4   5
HETATM    5  C9  UNL     1     -35.114  14.698  -5.325  1.00 20.00     0.058 C 
HETATM    6  C7  UNL     1     -36.030  15.920  -5.220  1.00 20.00     0.021 C 
HETATM    7  C5  UNL     1     -36.656  16.310  -6.560  1.00 20.00     0.001 C 
HETATM    8  C4  UNL     1     -35.602  16.476  -7.648  1.00 20.00     0.000 C 
HETATM    9  C6  UNL     1     -34.745  15.224  -7.792  1.00 20.00     0.001 C 
HETATM   10  C8  UNL     1     -34.099  14.824  -6.465  1.00 20.00     0.021 C 
BRANCH   5  11
HETATM   11  C3  UNL     1     -35.958  13.442  -5.527  1.00 20.00     0.182 C 
HETATM   12  O12 UNL     1     -37.119  13.487  -5.036  1.00 20.00    -0.647 OA
HETATM   13  O13 UNL     1     -35.383  12.514  -6.165  1.00 20.00    -0.647 OA
ENDBRANCH   5  11
ENDBRANCH   4   5
ENDBRANCH   2   4
TORSDOF 3
ENDMDL
MODEL 3
REMARK VINA RESULT:      -5.0      1.726      2.534
REMARK  3 active torsions:
REMARK  status: ('A' for Active; 'I' for Inactive)
REMARK    1  A    between atoms: C2_2  and  C11_11 
REMARK    2  A    between atoms: C3_3  and  C9_9 
REMARK    3  A    between atoms: C9_9  and  C11_11 
ROOT
HETATM    1  C1  UNL     1     -33.677  16.340  -2.978  1.00 20.00    -0.111 C 
HETATM    2  C2  UNL     1     -33.650  15.512  -3.847  1.00 20.00    -0.106 C 
HETATM    3  C10 UNL     1     -33.708  17.348  -1.920  1.00 20.00     0.112 C 
ENDROOT
BRANCH   2   4
HETATM    4  C11 UNL     1     -33.633  14.504  -4.908  1.00 20.00     0.114 C 
BRANCH   4   5
HETATM    5  C9  UNL     1     -34.913  14.570  -5.742  1.00 20.00     0.058 C 
HETATM    6  C7  UNL     1     -36.124  14.103  -4.929  1.00 20.00     0.021 C 
HETATM    7  C5  UNL     1     -37.444  14.269  -5.684  1.00 20.00     0.001 C 
HETATM    8  C4  UNL     1     -37.620  15.689  -6.209  1.00 20.00     0.000 C 
HETATM    9  C6  UNL     1     -36.441  16.114  -7.076  1.00 20.00     0.001 C 
HETATM   10  C8  UNL     1     -35.111  15.967  -6.336  1.00 20.00     0.021 C 
BRANCH   5  11
HETATM   11  C3  UNL     1     -34.633  13.572  -6.863  1.00 20.00     0.182 C 
HETATM   12  O12 UNL     1     -34.017  14.039  -7.860  1.00 20.00    -0.647 OA
HETATM   13  O13 UNL     1     -35.055  12.401  -6.647  1.00 20.00    -0.647 OA
ENDBRANCH   5  11
ENDBRANCH   4   5
ENDBRANCH   2   4
TORSDOF 3
ENDMDL
MODEL 4
REMARK VINA RESULT:      -4.9      1.136      1.282
REMARK  3 active torsions:
REMARK  status: ('A' for Active; 'I' for Inactive)
REMARK    1  A    between atoms: C2_2  and  C11_11 
REMARK    2  A    between atoms: C3_3  and  C9_9 
REMARK    3  A    between atoms: C9_9  and  C11_11 
ROOT
HETATM    1  C1  UNL     1     -34.062  16.894  -2.317  1.00 20.00    -0.111 C 
HETATM    2  C2  UNL     1     -34.916  16.223  -2.829  1.00 20.00    -0.106 C 
HETATM    3  C10 UNL     1     -33.021  17.710  -1.694  1.00 20.00     0.112 C 
ENDROOT
BRANCH   2   4
HETATM    4  C11 UNL     1     -35.965  15.406  -3.440  1.00 20.00     0.114 C 
BRANCH   4   5
HETATM    5  C9  UNL     1     -35.667  15.156  -4.919  1.00 20.00     0.058 C 
HETATM    6  C7  UNL     1     -36.265  16.259  -5.795  1.00 20.00     0.021 C 
HETATM    7  C5  UNL     1     -35.887  16.115  -7.271  1.00 20.00     0.001 C 
HETATM    8  C4  UNL     1     -34.380  15.990  -7.458  1.00 20.00     0.000 C 
HETATM    9  C6  UNL     1     -33.809  14.840  -6.636  1.00 20.00     0.001 C 
HETATM   10  C8  UNL     1     -34.165  14.971  -5.155  1.00 20.00     0.021 C 
BRANCH   5  11
HETATM   11  C3  UNL     1     -36.393  13.839  -5.187  1.00 20.00     0.182 C 
HETATM   12  O12 UNL     1     -35.660  12.811  -5.198  1.00 20.00    -0.647 OA
HETATM   13  O13 UNL     1     -37.639  13.948  -5.363  1.00 20.00    -0.647 OA
ENDBRANCH   5  11
ENDBRANCH   4   5
ENDBRANCH   2   4
TORSDOF 3
ENDMDL
MODEL 5
REMARK VINA RESULT:      -4.8      2.060      3.099
REMARK  3 active torsions:
REMARK  status: ('A' for Active; 'I' for Inactive)
REMARK    1  A    between atoms: C2_2  and  C11_11 
REMARK    2  A    between atoms: C3_3  and  C9_9 
REMARK    3  A    between atoms: C9_9  and  C11_11 
ROOT
HETATM    1  C1  UNL     1     -35.000  17.249  -0.794  1.00 20.00    -0.111 C 
HETATM    2  C2  UNL     1     -34.322  17.061  -1.768  1.00 20.00    -0.106 C 
HETATM    3  C10 UNL     1     -35.824  17.476   0.392  1.00 20.00     0.112 C 
ENDROOT
BRANCH   2   4
HETATM    4  C11 UNL     1     -33.510  16.829  -2.962  1.00 20.00     0.114 C 
BRANCH   4   5
HETATM    5  C9  UNL     1     -34.333  16.147  -4.056  1.00 20.00     0.058 C 
HETATM    6  C7  UNL     1     -34.457  14.644  -3.794  1.00 20.00     0.021 C 
HETATM    7  C5  UNL     1     -35.375  13.942  -4.797  1.00 20.00     0.001 C 
HETATM    8  C4  UNL     1     -36.736  14.622  -4.888  1.00 20.00     0.000 C 
HETATM    9  C6  UNL     1     -36.599  16.103  -5.222  1.00 20.00     0.001 C 
HETATM   10  C8  UNL     1     -35.694  16.827  -4.225  1.00 20.00     0.021 C 
BRANCH   5  11
HETATM   11  C3  UNL     1     -33.486  16.381  -5.305  1.00 20.00     0.182 C 
HETATM   12  O12 UNL     1     -33.830  17.366  -6.014  1.00 20.00    -0.647 OA
HETATM   13  O13 UNL     1     -32.544  15.555  -5.468  1.00 20.00    -0.647 OA
ENDBRANCH   5  11
ENDBRANCH   4   5
ENDBRANCH   2   4
TORSDOF 3
ENDMDL
MODEL 6
REMARK VINA RESULT:      -4.6      1.318      1.956
REMARK  3 active torsions:
REMARK  status: ('A' for Active; 'I' for Inactive)
REMARK    1  A    between atoms: C2_2  and  C11_11 
REMARK    2  A    between atoms: C3_3  and  C9_9 
REMARK    3  A    between atoms: C9_9  and  C11_11 
ROOT
HETATM    1  C1  UNL     1     -34.997  17.027  -1.392  1.00 20.00    -0.111 C 
HETATM    2  C2  UNL     1     -34.284  16.624  -2.271  1.00 20.00    -0.106 C 
HETATM    3  C10 UNL     1     -35.866  17.517  -0.324  1.00 20.00     0.112 C 
ENDROOT
BRANCH   2   4
HETATM    4  C11 UNL     1     -33.405  16.145  -3.339  1.00 20.00     0.114 C 
BRANCH   4   5
HETATM    5  C9  UNL     1     -34.191  15.923  -4.631  1.00 20.00     0.058 C 
HETATM    6  C7  UNL     1     -35.130  17.099  -4.913  1.00 20.00     0.021 C 
HETATM    7  C5  UNL     1     -35.846  16.977  -6.260  1.00 20.00     0.001 C 
HETATM    8  C4  UNL     1     -34.865  16.741  -7.401  1.00 20.00     0.000 C 
HETATM    9  C6  UNL     1     -33.987  15.522  -7.141  1.00 20.00     0.001 C 
HETATM   10  C8  UNL     1     -33.252  15.630  -5.804  1.00 20.00     0.021 C 
BRANCH   5  11
HETATM   11  C3  UNL     1     -35.014  14.677  -4.311  1.00 20.00     0.182 C 
HETATM   12  O12 UNL     1     -36.264  14.852  -4.268  1.00 20.00    -0.647 OA
HETATM   13  O13 UNL     1     -34.337  13.626  -4.130  1.00 20.00    -0.647 OA
ENDBRANCH   5  11
ENDBRANCH   4   5
ENDBRANCH   2   4
TORSDOF 3
ENDMDL
MODEL 7
REMARK VINA RESULT:      -4.6      1.912      2.710
REMARK  3 active torsions:
REMARK  status: ('A' for Active; 'I' for Inactive)
REMARK    1  A    between atoms: C2_2  and  C11_11 
REMARK    2  A    between atoms: C3_3  and  C9_9 
REMARK    3  A    between atoms: C9_9  and  C11_11 
ROOT
HETATM    1  C1  UNL     1     -34.696  16.756  -2.008  1.00 20.00    -0.111 C 
HETATM    2  C2  UNL     1     -34.139  16.477  -3.035  1.00 20.00    -0.106 C 
HETATM    3  C10 UNL     1     -35.374  17.099  -0.759  1.00 20.00     0.112 C 
ENDROOT
BRANCH   2   4
HETATM    4  C11 UNL     1     -33.450  16.128  -4.277  1.00 20.00     0.114 C 
BRANCH   4   5
HETATM    5  C9  UNL     1     -34.407  15.451  -5.259  1.00 20.00     0.058 C 
HETATM    6  C7  UNL     1     -33.683  15.057  -6.549  1.00 20.00     0.021 C 
HETATM    7  C5  UNL     1     -34.573  14.267  -7.511  1.00 20.00     0.001 C 
HETATM    8  C4  UNL     1     -35.218  13.068  -6.826  1.00 20.00     0.000 C 
HETATM    9  C6  UNL     1     -35.996  13.485  -5.584  1.00 20.00     0.001 C 
HETATM   10  C8  UNL     1     -35.122  14.267  -4.603  1.00 20.00     0.021 C 
BRANCH   5  11
HETATM   11  C3  UNL     1     -35.416  16.558  -5.557  1.00 20.00     0.182 C 
HETATM   12  O12 UNL     1     -36.569  16.381  -5.074  1.00 20.00    -0.647 OA
HETATM   13  O13 UNL     1     -34.967  17.513  -6.251  1.00 20.00    -0.647 OA
ENDBRANCH   5  11
ENDBRANCH   4   5
ENDBRANCH   2   4
TORSDOF 3
ENDMDL
MODEL 8
REMARK VINA RESULT:      -4.5      2.116      3.312
REMARK  3 active torsions:
REMARK  status: ('A' for Active; 'I' for Inactive)
REMARK    1  A    between atoms: C2_2  and  C11_11 
REMARK    2  A    between atoms: C3_3  and  C9_9 
REMARK    3  A    between atoms: C9_9  and  C11_11 
ROOT
HETATM    1  C1  UNL     1     -38.584  15.717  -5.055  1.00 20.00    -0.111 C 
HETATM    2  C2  UNL     1     -37.831  15.120  -5.775  1.00 20.00    -0.106 C 
HETATM    3  C10 UNL     1     -39.501  16.443  -4.177  1.00 20.00     0.112 C 
ENDROOT
BRANCH   2   4
HETATM    4  C11 UNL     1     -36.924  14.391  -6.662  1.00 20.00     0.114 C 
BRANCH   4   5
HETATM    5  C9  UNL     1     -35.486  14.462  -6.147  1.00 20.00     0.058 C 
HETATM    6  C7  UNL     1     -34.891  15.855  -6.366  1.00 20.00     0.021 C 
HETATM    7  C5  UNL     1     -33.496  16.007  -5.756  1.00 20.00     0.001 C 
HETATM    8  C4  UNL     1     -33.476  15.600  -4.287  1.00 20.00     0.000 C 
HETATM    9  C6  UNL     1     -34.002  14.183  -4.093  1.00 20.00     0.001 C 
HETATM   10  C8  UNL     1     -35.401  14.012  -4.686  1.00 20.00     0.021 C 
BRANCH   5  11
HETATM   11  C3  UNL     1     -34.764  13.452  -7.036  1.00 20.00     0.182 C 
HETATM   12  O12 UNL     1     -34.011  13.950  -7.918  1.00 20.00    -0.647 OA
HETATM   13  O13 UNL     1     -35.014  12.241  -6.774  1.00 20.00    -0.647 OA
ENDBRANCH   5  11
ENDBRANCH   4   5
ENDBRANCH   2   4
TORSDOF 3
ENDMDL
MODEL 9
REMARK VINA RESULT:      -4.5      2.778      5.389
REMARK  3 active torsions:
REMARK  status: ('A' for Active; 'I' for Inactive)
REMARK    1  A    between atoms: C2_2  and  C11_11 
REMARK    2  A    between atoms: C3_3  and  C9_9 
REMARK    3  A    between atoms: C9_9  and  C11_11 
ROOT
HETATM    1  C1  UNL     1     -35.276  14.594  -4.510  1.00 20.00    -0.111 C 
HETATM    2  C2  UNL     1     -34.420  15.285  -4.028  1.00 20.00    -0.106 C 
HETATM    3  C10 UNL     1     -36.318  13.755  -5.098  1.00 20.00     0.112 C 
ENDROOT
BRANCH   2   4
HETATM    4  C11 UNL     1     -33.386  16.128  -3.427  1.00 20.00     0.114 C 
BRANCH   4   5
HETATM    5  C9  UNL     1     -34.005  17.160  -2.485  1.00 20.00     0.058 C 
HETATM    6  C7  UNL     1     -35.212  16.578  -1.747  1.00 20.00     0.021 C 
HETATM    7  C5  UNL     1     -35.789  17.536  -0.703  1.00 20.00     0.001 C 
HETATM    8  C4  UNL     1     -34.716  18.034   0.258  1.00 20.00     0.000 C 
HETATM    9  C6  UNL     1     -33.553  18.679  -0.487  1.00 20.00     0.001 C 
HETATM   10  C8  UNL     1     -32.954  17.733  -1.529  1.00 20.00     0.021 C 
BRANCH   5  11
HETATM   11  C3  UNL     1     -34.470  18.252  -3.446  1.00 20.00     0.182 C 
HETATM   12  O12 UNL     1     -35.720  18.335  -3.604  1.00 20.00    -0.647 OA
HETATM   13  O13 UNL     1     -33.541  18.935  -3.962  1.00 20.00    -0.647 OA
ENDBRANCH   5  11
ENDBRANCH   4   5
ENDBRANCH   2   4
TORSDOF 3
ENDMDL
