MODEL 1
REMARK VINA RESULT:      -7.1      0.000      0.000
REMARK  3 active torsions:
REMARK  status: ('A' for Active; 'I' for Inactive)
REMARK    1  A    between atoms: C7_7  and  C9_9 
REMARK    2  A    between atoms: C8_8  and  C10_10 
REMARK    3  A    between atoms: C9_9  and  C10_10 
ROOT
HETATM    1  C1  UNL     1     -33.988   6.751   5.356  1.00 20.00     0.131 C 
HETATM    2  C2  UNL     1     -34.398   5.346   5.716  1.00 20.00     0.079 C 
HETATM    3  C3  UNL     1     -34.814   4.782   4.363  1.00 20.00     0.008 C 
HETATM    4  C4  UNL     1     -33.925   5.505   3.360  1.00 20.00     0.013 C 
HETATM    5  C7  UNL     1     -33.903   6.952   3.857  1.00 20.00     0.055 C 
HETATM    6  O11 UNL     1     -33.751   7.621   6.186  1.00 20.00    -0.298 OA
ENDROOT
BRANCH   5   7
HETATM    7  C9  UNL     1     -32.660   7.706   3.429  1.00 20.00     0.012 C 
BRANCH   7   8
HETATM    8  C10 UNL     1     -32.484   7.689   1.910  1.00 20.00     0.005 C 
BRANCH   8   9
HETATM    9  C8  UNL     1     -32.001   9.032   1.386  1.00 20.00    -0.014 A 
HETATM   10  C5  UNL     1     -32.480   9.542   0.055  1.00 20.00     0.005 A 
HETATM   11  C6  UNL     1     -32.942  10.202   1.323  1.00 20.00     0.005 A 
ENDBRANCH   8   9
ENDBRANCH   7   8
ENDBRANCH   5   7
TORSDOF 3
ENDMDL
MODEL 2
REMARK VINA RESULT:      -6.5      1.461      1.879
REMARK  3 active torsions:
REMARK  status: ('A' for Active; 'I' for Inactive)
REMARK    1  A    between atoms: C7_7  and  C9_9 
REMARK    2  A    between atoms: C8_8  and  C10_10 
REMARK    3  A    between atoms: C9_9  and  C10_10 
ROOT
HETATM    1  C1  UNL     1     -34.096   6.063   3.430  1.00 20.00     0.131 C 
HETATM    2  C2  UNL     1     -34.987   5.550   4.533  1.00 20.00     0.079 C 
HETATM    3  C3  UNL     1     -34.283   6.073   5.779  1.00 20.00     0.008 C 
HETATM    4  C4  UNL     1     -33.634   7.376   5.329  1.00 20.00     0.013 C 
HETATM    5  C7  UNL     1     -33.070   7.053   3.944  1.00 20.00     0.055 C 
HETATM    6  O11 UNL     1     -34.198   5.716   2.260  1.00 20.00    -0.298 OA
ENDROOT
BRANCH   5   7
HETATM    7  C9  UNL     1     -32.934   8.277   3.061  1.00 20.00     0.012 C 
BRANCH   7   8
HETATM    8  C10 UNL     1     -31.922   8.052   1.936  1.00 20.00     0.005 C 
BRANCH   8   9
HETATM    9  C8  UNL     1     -31.854   9.244   0.996  1.00 20.00    -0.014 A 
HETATM   10  C5  UNL     1     -32.872   9.404  -0.100  1.00 20.00     0.005 A 
HETATM   11  C6  UNL     1     -32.885  10.335   1.080  1.00 20.00     0.005 A 
ENDBRANCH   8   9
ENDBRANCH   7   8
ENDBRANCH   5   7
TORSDOF 3
ENDMDL
MODEL 3
REMARK VINA RESULT:      -5.1      1.931      5.011
REMARK  3 active torsions:
REMARK  status: ('A' for Active; 'I' for Inactive)
REMARK    1  A    between atoms: C7_7  and  C9_9 
REMARK    2  A    between atoms: C8_8  and  C10_10 
REMARK    3  A    between atoms: C9_9  and  C10_10 
ROOT
HETATM    1  C1  UNL     1     -32.650  10.142   1.167  1.00 20.00     0.131 C 
HETATM    2  C2  UNL     1     -33.355   9.951  -0.153  1.00 20.00     0.079 C 
HETATM    3  C3  UNL     1     -32.611   8.758  -0.740  1.00 20.00     0.008 C 
HETATM    4  C4  UNL     1     -32.188   7.940   0.474  1.00 20.00     0.013 C 
HETATM    5  C7  UNL     1     -31.721   8.988   1.486  1.00 20.00     0.055 C 
HETATM    6  O11 UNL     1     -32.817  11.117   1.888  1.00 20.00    -0.298 OA
ENDROOT
BRANCH   5   7
HETATM    7  C9  UNL     1     -31.835   8.516   2.921  1.00 20.00     0.012 C 
BRANCH   7   8
HETATM    8  C10 UNL     1     -32.598   7.195   3.023  1.00 20.00     0.005 C 
BRANCH   8   9
HETATM    9  C8  UNL     1     -33.811   7.316   3.931  1.00 20.00    -0.014 A 
HETATM   10  C5  UNL     1     -34.362   6.101   4.626  1.00 20.00     0.005 A 
HETATM   11  C6  UNL     1     -33.660   7.167   5.419  1.00 20.00     0.005 A 
ENDBRANCH   8   9
ENDBRANCH   7   8
ENDBRANCH   5   7
TORSDOF 3
ENDMDL
MODEL 4
REMARK VINA RESULT:      -4.9      1.531      4.946
REMARK  3 active torsions:
REMARK  status: ('A' for Active; 'I' for Inactive)
REMARK    1  A    between atoms: C7_7  and  C9_9 
REMARK    2  A    between atoms: C8_8  and  C10_10 
REMARK    3  A    between atoms: C9_9  and  C10_10 
ROOT
HETATM    1  C1  UNL     1     -32.134   9.568   2.162  1.00 20.00     0.131 C 
HETATM    2  C2  UNL     1     -32.667  10.356   0.992  1.00 20.00     0.079 C 
HETATM    3  C3  UNL     1     -32.856   9.270  -0.061  1.00 20.00     0.008 C 
HETATM    4  C4  UNL     1     -33.193   8.019   0.740  1.00 20.00     0.013 C 
HETATM    5  C7  UNL     1     -32.240   8.073   1.936  1.00 20.00     0.055 C 
HETATM    6  O11 UNL     1     -31.673  10.085   3.172  1.00 20.00    -0.298 OA
ENDROOT
BRANCH   5   7
HETATM    7  C9  UNL     1     -32.764   7.326   3.145  1.00 20.00     0.012 C 
BRANCH   7   8
HETATM    8  C10 UNL     1     -33.607   6.117   2.740  1.00 20.00     0.005 C 
BRANCH   8   9
HETATM    9  C8  UNL     1     -34.707   5.835   3.750  1.00 20.00    -0.014 A 
HETATM   10  C5  UNL     1     -34.626   4.627   4.642  1.00 20.00     0.005 A 
HETATM   11  C6  UNL     1     -34.445   6.002   5.221  1.00 20.00     0.005 A 
ENDBRANCH   8   9
ENDBRANCH   7   8
ENDBRANCH   5   7
TORSDOF 3
ENDMDL
MODEL 5
REMARK VINA RESULT:      -4.7     10.833     12.009
REMARK  3 active torsions:
REMARK  status: ('A' for Active; 'I' for Inactive)
REMARK    1  A    between atoms: C7_7  and  C9_9 
REMARK    2  A    between atoms: C8_8  and  C10_10 
REMARK    3  A    between atoms: C9_9  and  C10_10 
ROOT
HETATM    1  C1  UNL     1     -35.209  13.672  -5.849  1.00 20.00     0.131 C 
HETATM    2  C2  UNL     1     -34.593  13.474  -7.211  1.00 20.00     0.079 C 
HETATM    3  C3  UNL     1     -34.057  14.866  -7.522  1.00 20.00     0.008 C 
HETATM    4  C4  UNL     1     -33.691  15.445  -6.161  1.00 20.00     0.013 C 
HETATM    5  C7  UNL     1     -34.843  15.016  -5.251  1.00 20.00     0.055 C 
HETATM    6  O11 UNL     1     -35.917  12.839  -5.299  1.00 20.00    -0.298 OA
ENDROOT
BRANCH   5   7
HETATM    7  C9  UNL     1     -34.444  14.926  -3.792  1.00 20.00     0.012 C 
BRANCH   7   8
HETATM    8  C10 UNL     1     -34.841  16.184  -3.019  1.00 20.00     0.005 C 
BRANCH   8   9
HETATM    9  C8  UNL     1     -33.655  16.793  -2.291  1.00 20.00    -0.014 A 
HETATM   10  C5  UNL     1     -33.343  18.258  -2.441  1.00 20.00     0.005 A 
HETATM   11  C6  UNL     1     -33.875  17.732  -1.137  1.00 20.00     0.005 A 
ENDBRANCH   8   9
ENDBRANCH   7   8
ENDBRANCH   5   7
TORSDOF 3
ENDMDL
MODEL 6
REMARK VINA RESULT:      -4.7      2.104      5.032
REMARK  3 active torsions:
REMARK  status: ('A' for Active; 'I' for Inactive)
REMARK    1  A    between atoms: C7_7  and  C9_9 
REMARK    2  A    between atoms: C8_8  and  C10_10 
REMARK    3  A    between atoms: C9_9  and  C10_10 
ROOT
HETATM    1  C1  UNL     1     -32.754   8.421   1.299  1.00 20.00     0.131 C 
HETATM    2  C2  UNL     1     -31.328   8.864   1.508  1.00 20.00     0.079 C 
HETATM    3  C3  UNL     1     -31.157   8.684   3.012  1.00 20.00     0.008 C 
HETATM    4  C4  UNL     1     -32.067   7.512   3.359  1.00 20.00     0.013 C 
HETATM    5  C7  UNL     1     -33.332   7.764   2.536  1.00 20.00     0.055 C 
HETATM    6  O11 UNL     1     -33.364   8.577   0.249  1.00 20.00    -0.298 OA
ENDROOT
BRANCH   5   7
HETATM    7  C9  UNL     1     -34.102   6.496   2.230  1.00 20.00     0.012 C 
BRANCH   7   8
HETATM    8  C10 UNL     1     -33.817   5.400   3.257  1.00 20.00     0.005 C 
BRANCH   8   9
HETATM    9  C8  UNL     1     -34.813   5.434   4.404  1.00 20.00    -0.014 A 
HETATM   10  C5  UNL     1     -34.554   4.641   5.657  1.00 20.00     0.005 A 
HETATM   11  C6  UNL     1     -34.469   6.142   5.685  1.00 20.00     0.005 A 
ENDBRANCH   8   9
ENDBRANCH   7   8
ENDBRANCH   5   7
TORSDOF 3
ENDMDL
MODEL 7
REMARK VINA RESULT:      -4.5     10.641     11.415
REMARK  3 active torsions:
REMARK  status: ('A' for Active; 'I' for Inactive)
REMARK    1  A    between atoms: C7_7  and  C9_9 
REMARK    2  A    between atoms: C8_8  and  C10_10 
REMARK    3  A    between atoms: C9_9  and  C10_10 
ROOT
HETATM    1  C1  UNL     1     -34.687  14.178  -4.343  1.00 20.00     0.131 C 
HETATM    2  C2  UNL     1     -35.696  13.617  -5.314  1.00 20.00     0.079 C 
HETATM    3  C3  UNL     1     -36.952  14.399  -4.951  1.00 20.00     0.008 C 
HETATM    4  C4  UNL     1     -36.435  15.750  -4.472  1.00 20.00     0.013 C 
HETATM    5  C7  UNL     1     -35.213  15.400  -3.619  1.00 20.00     0.055 C 
HETATM    6  O11 UNL     1     -33.575  13.695  -4.168  1.00 20.00    -0.298 OA
ENDROOT
BRANCH   5   7
HETATM    7  C9  UNL     1     -34.202  16.526  -3.544  1.00 20.00     0.012 C 
BRANCH   7   8
HETATM    8  C10 UNL     1     -33.936  16.951  -2.100  1.00 20.00     0.005 C 
BRANCH   8   9
HETATM    9  C8  UNL     1     -35.192  16.859  -1.248  1.00 20.00    -0.014 A 
HETATM   10  C5  UNL     1     -35.298  17.642   0.032  1.00 20.00     0.005 A 
HETATM   11  C6  UNL     1     -36.132  18.028  -1.157  1.00 20.00     0.005 A 
ENDBRANCH   8   9
ENDBRANCH   7   8
ENDBRANCH   5   7
TORSDOF 3
ENDMDL
MODEL 8
REMARK VINA RESULT:      -4.5     10.799     11.469
REMARK  3 active torsions:
REMARK  status: ('A' for Active; 'I' for Inactive)
REMARK    1  A    between atoms: C7_7  and  C9_9 
REMARK    2  A    between atoms: C8_8  and  C10_10 
REMARK    3  A    between atoms: C9_9  and  C10_10 
ROOT
HETATM    1  C1  UNL     1     -33.177  18.226  -0.941  1.00 20.00     0.131 C 
HETATM    2  C2  UNL     1     -33.652  18.379   0.482  1.00 20.00     0.079 C 
HETATM    3  C3  UNL     1     -35.149  18.133   0.345  1.00 20.00     0.008 C 
HETATM    4  C4  UNL     1     -35.268  17.151  -0.814  1.00 20.00     0.013 C 
HETATM    5  C7  UNL     1     -34.258  17.663  -1.842  1.00 20.00     0.055 C 
HETATM    6  O11 UNL     1     -32.049  18.522  -1.314  1.00 20.00    -0.298 OA
ENDROOT
BRANCH   5   7
HETATM    7  C9  UNL     1     -33.751  16.576  -2.767  1.00 20.00     0.012 C 
BRANCH   7   8
HETATM    8  C10 UNL     1     -34.901  15.840  -3.457  1.00 20.00     0.005 C 
BRANCH   8   9
HETATM    9  C8  UNL     1     -34.441  14.526  -4.066  1.00 20.00    -0.014 A 
HETATM   10  C5  UNL     1     -35.378  13.718  -4.922  1.00 20.00     0.005 A 
HETATM   11  C6  UNL     1     -34.204  14.419  -5.546  1.00 20.00     0.005 A 
ENDBRANCH   8   9
ENDBRANCH   7   8
ENDBRANCH   5   7
TORSDOF 3
ENDMDL
MODEL 9
REMARK VINA RESULT:      -4.5     10.962     11.728
REMARK  3 active torsions:
REMARK  status: ('A' for Active; 'I' for Inactive)
REMARK    1  A    between atoms: C7_7  and  C9_9 
REMARK    2  A    between atoms: C8_8  and  C10_10 
REMARK    3  A    between atoms: C9_9  and  C10_10 
ROOT
HETATM    1  C1  UNL     1     -35.282  13.744  -6.021  1.00 20.00     0.131 C 
HETATM    2  C2  UNL     1     -36.627  14.110  -6.596  1.00 20.00     0.079 C 
HETATM    3  C3  UNL     1     -37.429  14.435  -5.342  1.00 20.00     0.008 C 
HETATM    4  C4  UNL     1     -36.400  14.989  -4.365  1.00 20.00     0.013 C 
HETATM    5  C7  UNL     1     -35.185  14.076  -4.545  1.00 20.00     0.055 C 
HETATM    6  O11 UNL     1     -34.380  13.238  -6.677  1.00 20.00    -0.298 OA
ENDROOT
BRANCH   5   7
HETATM    7  C9  UNL     1     -33.879  14.749  -4.174  1.00 20.00     0.012 C 
BRANCH   7   8
HETATM    8  C10 UNL     1     -34.068  16.243  -3.910  1.00 20.00     0.005 C 
BRANCH   8   9
HETATM    9  C8  UNL     1     -33.700  16.612  -2.482  1.00 20.00    -0.014 A 
HETATM   10  C5  UNL     1     -33.823  18.036  -2.012  1.00 20.00     0.005 A 
HETATM   11  C6  UNL     1     -34.771  16.989  -1.498  1.00 20.00     0.005 A 
ENDBRANCH   8   9
ENDBRANCH   7   8
ENDBRANCH   5   7
TORSDOF 3
ENDMDL
