MODEL 1
REMARK VINA RESULT:      -5.8      0.000      0.000
REMARK  4 active torsions:
REMARK  status: ('A' for Active; 'I' for Inactive)
REMARK    1  A    between atoms: C1_1  and  C5_5 
REMARK    2  A    between atoms: C1_1  and  C8_8 
REMARK    3  A    between atoms: C5_5  and  C6_6 
REMARK    4  A    between atoms: C6_6  and  C7_7 
ROOT
HETATM    1  C1  UNL     1     -33.183   5.933   3.275  1.00 20.00     0.134 C 
HETATM    2  O9  UNL     1     -32.863   4.982   2.557  1.00 20.00    -0.297 OA
ENDROOT
BRANCH   1   3
HETATM    3  C5  UNL     1     -32.468   7.276   3.159  1.00 20.00     0.084 C 
BRANCH   3   4
HETATM    4  C6  UNL     1     -32.957   8.122   1.985  1.00 20.00     0.078 C 
BRANCH   4   5
HETATM    5  C7  UNL     1     -31.915   9.117   1.506  1.00 20.00     0.353 C 
HETATM    6  F10 UNL     1     -32.537  10.142   0.871  1.00 20.00    -0.214 F 
HETATM    7  F11 UNL     1     -31.104   8.530   0.591  1.00 20.00    -0.214 F 
ENDBRANCH   4   5
ENDBRANCH   3   4
ENDBRANCH   1   3
BRANCH   1   8
HETATM    8  C8  UNL     1     -34.312   5.802   4.319  1.00 20.00     0.009 C 
HETATM    9  C2  UNL     1     -35.650   6.140   3.648  1.00 20.00     0.022 C 
HETATM   10  C3  UNL     1     -34.063   6.736   5.510  1.00 20.00     0.022 C 
HETATM   11  C4  UNL     1     -34.367   4.355   4.838  1.00 20.00     0.022 C 
ENDBRANCH   1   8
TORSDOF 4
ENDMDL
MODEL 2
REMARK VINA RESULT:      -5.8      0.023      1.305
REMARK  4 active torsions:
REMARK  status: ('A' for Active; 'I' for Inactive)
REMARK    1  A    between atoms: C1_1  and  C5_5 
REMARK    2  A    between atoms: C1_1  and  C8_8 
REMARK    3  A    between atoms: C5_5  and  C6_6 
REMARK    4  A    between atoms: C6_6  and  C7_7 
ROOT
HETATM    1  C1  UNL     1     -33.176   5.934   3.268  1.00 20.00     0.134 C 
HETATM    2  O9  UNL     1     -32.846   4.989   2.546  1.00 20.00    -0.297 OA
ENDROOT
BRANCH   1   3
HETATM    3  C5  UNL     1     -32.471   7.283   3.157  1.00 20.00     0.084 C 
BRANCH   3   4
HETATM    4  C6  UNL     1     -32.957   8.125   1.979  1.00 20.00     0.078 C 
BRANCH   4   5
HETATM    5  C7  UNL     1     -31.914   9.117   1.498  1.00 20.00     0.353 C 
HETATM    6  F10 UNL     1     -32.533  10.132   0.844  1.00 20.00    -0.214 F 
HETATM    7  F11 UNL     1     -31.092   8.521   0.598  1.00 20.00    -0.214 F 
ENDBRANCH   4   5
ENDBRANCH   3   4
ENDBRANCH   1   3
BRANCH   1   8
HETATM    8  C8  UNL     1     -34.305   5.790   4.310  1.00 20.00     0.009 C 
HETATM    9  C2  UNL     1     -34.043   6.768   5.463  1.00 20.00     0.022 C 
HETATM   10  C3  UNL     1     -34.378   4.352   4.837  1.00 20.00     0.022 C 
HETATM   11  C4  UNL     1     -35.653   6.140   3.658  1.00 20.00     0.022 C 
ENDBRANCH   1   8
TORSDOF 4
ENDMDL
MODEL 3
REMARK VINA RESULT:      -5.8      1.380      1.650
REMARK  4 active torsions:
REMARK  status: ('A' for Active; 'I' for Inactive)
REMARK    1  A    between atoms: C1_1  and  C5_5 
REMARK    2  A    between atoms: C1_1  and  C8_8 
REMARK    3  A    between atoms: C5_5  and  C6_6 
REMARK    4  A    between atoms: C6_6  and  C7_7 
ROOT
HETATM    1  C1  UNL     1     -33.319   6.858   4.146  1.00 20.00     0.134 C 
HETATM    2  O9  UNL     1     -33.017   7.590   5.093  1.00 20.00    -0.297 OA
ENDROOT
BRANCH   1   3
HETATM    3  C5  UNL     1     -32.696   7.067   2.768  1.00 20.00     0.084 C 
BRANCH   3   4
HETATM    4  C6  UNL     1     -32.011   8.422   2.613  1.00 20.00     0.078 C 
BRANCH   4   5
HETATM    5  C7  UNL     1     -32.236   9.040   1.244  1.00 20.00     0.353 C 
HETATM    6  F10 UNL     1     -31.160   8.784   0.458  1.00 20.00    -0.214 F 
HETATM    7  F11 UNL     1     -32.323  10.388   1.356  1.00 20.00    -0.214 F 
ENDBRANCH   4   5
ENDBRANCH   3   4
ENDBRANCH   1   3
BRANCH   1   8
HETATM    8  C8  UNL     1     -34.336   5.710   4.314  1.00 20.00     0.009 C 
HETATM    9  C2  UNL     1     -35.644   6.099   3.611  1.00 20.00     0.022 C 
HETATM   10  C3  UNL     1     -34.595   5.426   5.799  1.00 20.00     0.022 C 
HETATM   11  C4  UNL     1     -33.782   4.432   3.662  1.00 20.00     0.022 C 
ENDBRANCH   1   8
TORSDOF 4
ENDMDL
MODEL 4
REMARK VINA RESULT:      -5.8      0.052      1.305
REMARK  4 active torsions:
REMARK  status: ('A' for Active; 'I' for Inactive)
REMARK    1  A    between atoms: C1_1  and  C5_5 
REMARK    2  A    between atoms: C1_1  and  C8_8 
REMARK    3  A    between atoms: C5_5  and  C6_6 
REMARK    4  A    between atoms: C6_6  and  C7_7 
ROOT
HETATM    1  C1  UNL     1     -33.176   5.925   3.273  1.00 20.00     0.134 C 
HETATM    2  O9  UNL     1     -32.829   4.982   2.556  1.00 20.00    -0.297 OA
ENDROOT
BRANCH   1   3
HETATM    3  C5  UNL     1     -32.473   7.276   3.178  1.00 20.00     0.084 C 
BRANCH   3   4
HETATM    4  C6  UNL     1     -32.947   8.123   1.999  1.00 20.00     0.078 C 
BRANCH   4   5
HETATM    5  C7  UNL     1     -31.901   9.123   1.539  1.00 20.00     0.353 C 
HETATM    6  F10 UNL     1     -32.524  10.196   0.987  1.00 20.00    -0.214 F 
HETATM    7  F11 UNL     1     -31.138   8.574   0.562  1.00 20.00    -0.214 F 
ENDBRANCH   4   5
ENDBRANCH   3   4
ENDBRANCH   1   3
BRANCH   1   8
HETATM    8  C8  UNL     1     -34.324   5.776   4.292  1.00 20.00     0.009 C 
HETATM    9  C2  UNL     1     -34.357   4.326   4.795  1.00 20.00     0.022 C 
HETATM   10  C3  UNL     1     -35.669   6.148   3.655  1.00 20.00     0.022 C 
HETATM   11  C4  UNL     1     -34.075   6.711   5.488  1.00 20.00     0.022 C 
ENDBRANCH   1   8
TORSDOF 4
ENDMDL
MODEL 5
REMARK VINA RESULT:      -5.8      1.380      1.935
REMARK  4 active torsions:
REMARK  status: ('A' for Active; 'I' for Inactive)
REMARK    1  A    between atoms: C1_1  and  C5_5 
REMARK    2  A    between atoms: C1_1  and  C8_8 
REMARK    3  A    between atoms: C5_5  and  C6_6 
REMARK    4  A    between atoms: C6_6  and  C7_7 
ROOT
HETATM    1  C1  UNL     1     -33.307   6.853   4.127  1.00 20.00     0.134 C 
HETATM    2  O9  UNL     1     -33.027   7.590   5.076  1.00 20.00    -0.297 OA
ENDROOT
BRANCH   1   3
HETATM    3  C5  UNL     1     -32.652   7.053   2.763  1.00 20.00     0.084 C 
BRANCH   3   4
HETATM    4  C6  UNL     1     -31.979   8.415   2.609  1.00 20.00     0.078 C 
BRANCH   4   5
HETATM    5  C7  UNL     1     -32.233   9.044   1.251  1.00 20.00     0.353 C 
HETATM    6  F10 UNL     1     -31.163   8.819   0.448  1.00 20.00    -0.214 F 
HETATM    7  F11 UNL     1     -32.345  10.389   1.380  1.00 20.00    -0.214 F 
ENDBRANCH   4   5
ENDBRANCH   3   4
ENDBRANCH   1   3
BRANCH   1   8
HETATM    8  C8  UNL     1     -34.330   5.708   4.278  1.00 20.00     0.009 C 
HETATM    9  C2  UNL     1     -33.755   4.441   3.631  1.00 20.00     0.022 C 
HETATM   10  C3  UNL     1     -35.665   6.082   3.621  1.00 20.00     0.022 C 
HETATM   11  C4  UNL     1     -34.580   5.435   5.771  1.00 20.00     0.022 C 
ENDBRANCH   1   8
TORSDOF 4
ENDMDL
MODEL 6
REMARK VINA RESULT:      -5.0      3.208      5.023
REMARK  4 active torsions:
REMARK  status: ('A' for Active; 'I' for Inactive)
REMARK    1  A    between atoms: C1_1  and  C5_5 
REMARK    2  A    between atoms: C1_1  and  C8_8 
REMARK    3  A    between atoms: C5_5  and  C6_6 
REMARK    4  A    between atoms: C6_6  and  C7_7 
ROOT
HETATM    1  C1  UNL     1     -32.291   8.201   2.512  1.00 20.00     0.134 C 
HETATM    2  O9  UNL     1     -31.431   8.421   3.370  1.00 20.00    -0.297 OA
ENDROOT
BRANCH   1   3
HETATM    3  C5  UNL     1     -33.361   7.137   2.734  1.00 20.00     0.084 C 
BRANCH   3   4
HETATM    4  C6  UNL     1     -33.773   6.988   4.196  1.00 20.00     0.078 C 
BRANCH   4   5
HETATM    5  C7  UNL     1     -34.582   5.729   4.453  1.00 20.00     0.353 C 
HETATM    6  F10 UNL     1     -35.793   5.847   3.854  1.00 20.00    -0.214 F 
HETATM    7  F11 UNL     1     -34.817   5.595   5.781  1.00 20.00    -0.214 F 
ENDBRANCH   4   5
ENDBRANCH   3   4
ENDBRANCH   1   3
BRANCH   1   8
HETATM    8  C8  UNL     1     -32.315   8.987   1.184  1.00 20.00     0.009 C 
HETATM    9  C2  UNL     1     -30.972   8.790   0.467  1.00 20.00     0.022 C 
HETATM   10  C3  UNL     1     -32.569  10.478   1.439  1.00 20.00     0.022 C 
HETATM   11  C4  UNL     1     -33.441   8.446   0.287  1.00 20.00     0.022 C 
ENDBRANCH   1   8
TORSDOF 4
ENDMDL
MODEL 7
REMARK VINA RESULT:      -5.0      3.209      5.061
REMARK  4 active torsions:
REMARK  status: ('A' for Active; 'I' for Inactive)
REMARK    1  A    between atoms: C1_1  and  C5_5 
REMARK    2  A    between atoms: C1_1  and  C8_8 
REMARK    3  A    between atoms: C5_5  and  C6_6 
REMARK    4  A    between atoms: C6_6  and  C7_7 
ROOT
HETATM    1  C1  UNL     1     -32.302   8.198   2.513  1.00 20.00     0.134 C 
HETATM    2  O9  UNL     1     -31.472   8.460   3.388  1.00 20.00    -0.297 OA
ENDROOT
BRANCH   1   3
HETATM    3  C5  UNL     1     -33.331   7.091   2.719  1.00 20.00     0.084 C 
BRANCH   3   4
HETATM    4  C6  UNL     1     -33.781   6.945   4.171  1.00 20.00     0.078 C 
BRANCH   4   5
HETATM    5  C7  UNL     1     -34.612   5.696   4.405  1.00 20.00     0.353 C 
HETATM    6  F10 UNL     1     -35.824   5.850   3.815  1.00 20.00    -0.214 F 
HETATM    7  F11 UNL     1     -34.843   5.539   5.732  1.00 20.00    -0.214 F 
ENDBRANCH   4   5
ENDBRANCH   3   4
ENDBRANCH   1   3
BRANCH   1   8
HETATM    8  C8  UNL     1     -32.330   8.973   1.179  1.00 20.00     0.009 C 
HETATM    9  C2  UNL     1     -32.542  10.464   1.475  1.00 20.00     0.022 C 
HETATM   10  C3  UNL     1     -33.445   8.447   0.267  1.00 20.00     0.022 C 
HETATM   11  C4  UNL     1     -30.984   8.797   0.454  1.00 20.00     0.022 C 
ENDBRANCH   1   8
TORSDOF 4
ENDMDL
MODEL 8
REMARK VINA RESULT:      -4.7      3.063      4.939
REMARK  4 active torsions:
REMARK  status: ('A' for Active; 'I' for Inactive)
REMARK    1  A    between atoms: C1_1  and  C5_5 
REMARK    2  A    between atoms: C1_1  and  C8_8 
REMARK    3  A    between atoms: C5_5  and  C6_6 
REMARK    4  A    between atoms: C6_6  and  C7_7 
ROOT
HETATM    1  C1  UNL     1     -32.378   8.283   2.458  1.00 20.00     0.134 C 
HETATM    2  O9  UNL     1     -31.421   8.261   3.236  1.00 20.00    -0.297 OA
ENDROOT
BRANCH   1   3
HETATM    3  C5  UNL     1     -33.664   7.527   2.779  1.00 20.00     0.084 C 
BRANCH   3   4
HETATM    4  C6  UNL     1     -33.499   6.500   3.896  1.00 20.00     0.078 C 
BRANCH   4   5
HETATM    5  C7  UNL     1     -34.057   6.983   5.223  1.00 20.00     0.353 C 
HETATM    6  F10 UNL     1     -33.096   7.674   5.886  1.00 20.00    -0.214 F 
HETATM    7  F11 UNL     1     -34.376   5.919   6.003  1.00 20.00    -0.214 F 
ENDBRANCH   4   5
ENDBRANCH   3   4
ENDBRANCH   1   3
BRANCH   1   8
HETATM    8  C8  UNL     1     -32.313   9.071   1.132  1.00 20.00     0.009 C 
HETATM    9  C2  UNL     1     -30.964   8.793   0.456  1.00 20.00     0.022 C 
HETATM   10  C3  UNL     1     -32.483  10.574   1.384  1.00 20.00     0.022 C 
HETATM   11  C4  UNL     1     -33.443   8.602   0.200  1.00 20.00     0.022 C 
ENDBRANCH   1   8
TORSDOF 4
ENDMDL
MODEL 9
REMARK VINA RESULT:      -4.5      3.141      4.752
REMARK  4 active torsions:
REMARK  status: ('A' for Active; 'I' for Inactive)
REMARK    1  A    between atoms: C1_1  and  C5_5 
REMARK    2  A    between atoms: C1_1  and  C8_8 
REMARK    3  A    between atoms: C5_5  and  C6_6 
REMARK    4  A    between atoms: C6_6  and  C7_7 
ROOT
HETATM    1  C1  UNL     1     -33.013   6.846   2.908  1.00 20.00     0.134 C 
HETATM    2  O9  UNL     1     -32.740   5.773   2.362  1.00 20.00    -0.297 OA
ENDROOT
BRANCH   1   3
HETATM    3  C5  UNL     1     -34.064   6.915   4.012  1.00 20.00     0.084 C 
BRANCH   3   4
HETATM    4  C6  UNL     1     -35.068   5.767   3.964  1.00 20.00     0.078 C 
BRANCH   4   5
HETATM    5  C7  UNL     1     -34.818   4.724   5.038  1.00 20.00     0.353 C 
HETATM    6  F10 UNL     1     -34.176   5.305   6.083  1.00 20.00    -0.214 F 
HETATM    7  F11 UNL     1     -33.990   3.761   4.561  1.00 20.00    -0.214 F 
ENDBRANCH   4   5
ENDBRANCH   3   4
ENDBRANCH   1   3
BRANCH   1   8
HETATM    8  C8  UNL     1     -32.309   8.155   2.494  1.00 20.00     0.009 C 
HETATM    9  C2  UNL     1     -31.283   8.529   3.573  1.00 20.00     0.022 C 
HETATM   10  C3  UNL     1     -33.328   9.287   2.314  1.00 20.00     0.022 C 
HETATM   11  C4  UNL     1     -31.573   7.945   1.160  1.00 20.00     0.022 C 
ENDBRANCH   1   8
TORSDOF 4
ENDMDL
