MODEL 1
REMARK VINA RESULT:      -5.8      0.000      0.000
REMARK  4 active torsions:
REMARK  status: ('A' for Active; 'I' for Inactive)
REMARK    1  A    between atoms: C1_1  and  C6_6 
REMARK    2  A    between atoms: C4_4  and  C6_6 
REMARK    3  A    between atoms: C5_5  and  C6_6 
REMARK    4  A    between atoms: C5_5  and  C7_7 
ROOT
HETATM    1  C6  UNL     1     -33.724   7.059   3.676  1.00 20.00     0.063 C 
ENDROOT
BRANCH   1   2
HETATM    2  C1  UNL     1     -33.881   6.818   5.175  1.00 20.00     0.127 C 
HETATM    3  C2  UNL     1     -34.638   5.582   5.587  1.00 20.00     0.091 C 
HETATM    4  O8  UNL     1     -33.415   7.590   6.013  1.00 20.00    -0.298 OA
ENDBRANCH   1   2
BRANCH   1   5
HETATM    5  C4  UNL     1     -34.169   5.810   2.897  1.00 20.00     0.008 C 
HETATM    6  C3  UNL     1     -33.008   4.889   2.541  1.00 20.00     0.006 C 
ENDBRANCH   1   5
BRANCH   1   7
HETATM    7  C5  UNL     1     -32.263   7.405   3.341  1.00 20.00     0.129 C 
BRANCH   7   8
HETATM    8  C7  UNL     1     -32.123   8.532   2.334  1.00 20.00     0.388 C 
HETATM    9  F9  UNL     1     -33.319   8.943   1.867  1.00 20.00    -0.171 F 
HETATM   10  F10 UNL     1     -31.368   8.157   1.280  1.00 20.00    -0.171 F 
HETATM   11  F11 UNL     1     -31.522   9.600   2.906  1.00 20.00    -0.171 F 
ENDBRANCH   7   8
ENDBRANCH   1   7
TORSDOF 4
ENDMDL
MODEL 2
REMARK VINA RESULT:      -5.8      0.017      1.140
REMARK  4 active torsions:
REMARK  status: ('A' for Active; 'I' for Inactive)
REMARK    1  A    between atoms: C1_1  and  C6_6 
REMARK    2  A    between atoms: C4_4  and  C6_6 
REMARK    3  A    between atoms: C5_5  and  C6_6 
REMARK    4  A    between atoms: C5_5  and  C7_7 
ROOT
HETATM    1  C6  UNL     1     -33.716   7.050   3.670  1.00 20.00     0.063 C 
ENDROOT
BRANCH   1   2
HETATM    2  C1  UNL     1     -33.880   6.816   5.170  1.00 20.00     0.127 C 
HETATM    3  C2  UNL     1     -34.643   5.584   5.584  1.00 20.00     0.091 C 
HETATM    4  O8  UNL     1     -33.414   7.588   6.007  1.00 20.00    -0.298 OA
ENDBRANCH   1   2
BRANCH   1   5
HETATM    5  C4  UNL     1     -34.159   5.798   2.895  1.00 20.00     0.008 C 
HETATM    6  C3  UNL     1     -32.997   4.876   2.546  1.00 20.00     0.006 C 
ENDBRANCH   1   5
BRANCH   1   7
HETATM    7  C5  UNL     1     -32.254   7.394   3.340  1.00 20.00     0.129 C 
BRANCH   7   8
HETATM    8  C7  UNL     1     -32.109   8.529   2.343  1.00 20.00     0.388 C 
HETATM    9  F9  UNL     1     -31.371   8.169   1.273  1.00 20.00    -0.171 F 
HETATM   10  F10 UNL     1     -31.530   9.609   2.908  1.00 20.00    -0.171 F 
HETATM   11  F11 UNL     1     -33.324   8.910   1.888  1.00 20.00    -0.171 F 
ENDBRANCH   7   8
ENDBRANCH   1   7
TORSDOF 4
ENDMDL
MODEL 3
REMARK VINA RESULT:      -5.6      1.779      2.382
REMARK  4 active torsions:
REMARK  status: ('A' for Active; 'I' for Inactive)
REMARK    1  A    between atoms: C1_1  and  C6_6 
REMARK    2  A    between atoms: C4_4  and  C6_6 
REMARK    3  A    between atoms: C5_5  and  C6_6 
REMARK    4  A    between atoms: C5_5  and  C7_7 
ROOT
HETATM    1  C6  UNL     1     -33.093   6.583   3.585  1.00 20.00     0.063 C 
ENDROOT
BRANCH   1   2
HETATM    2  C1  UNL     1     -33.413   5.121   3.283  1.00 20.00     0.127 C 
HETATM    3  C2  UNL     1     -34.354   4.423   4.230  1.00 20.00     0.091 C 
HETATM    4  O8  UNL     1     -32.932   4.534   2.314  1.00 20.00    -0.298 OA
ENDBRANCH   1   2
BRANCH   1   5
HETATM    5  C4  UNL     1     -34.136   7.154   4.561  1.00 20.00     0.008 C 
HETATM    6  C3  UNL     1     -33.558   7.447   5.940  1.00 20.00     0.006 C 
ENDBRANCH   1   5
BRANCH   1   7
HETATM    7  C5  UNL     1     -33.071   7.405   2.285  1.00 20.00     0.129 C 
BRANCH   7   8
HETATM    8  C7  UNL     1     -31.925   8.397   2.215  1.00 20.00     0.388 C 
HETATM    9  F9  UNL     1     -32.360   9.673   2.207  1.00 20.00    -0.171 F 
HETATM   10  F10 UNL     1     -31.175   8.203   1.109  1.00 20.00    -0.171 F 
HETATM   11  F11 UNL     1     -31.114   8.251   3.288  1.00 20.00    -0.171 F 
ENDBRANCH   7   8
ENDBRANCH   1   7
TORSDOF 4
ENDMDL
MODEL 4
REMARK VINA RESULT:      -5.6      1.774      2.512
REMARK  4 active torsions:
REMARK  status: ('A' for Active; 'I' for Inactive)
REMARK    1  A    between atoms: C1_1  and  C6_6 
REMARK    2  A    between atoms: C4_4  and  C6_6 
REMARK    3  A    between atoms: C5_5  and  C6_6 
REMARK    4  A    between atoms: C5_5  and  C7_7 
ROOT
HETATM    1  C6  UNL     1     -33.093   6.595   3.571  1.00 20.00     0.063 C 
ENDROOT
BRANCH   1   2
HETATM    2  C1  UNL     1     -33.426   5.132   3.293  1.00 20.00     0.127 C 
HETATM    3  C2  UNL     1     -34.407   4.470   4.225  1.00 20.00     0.091 C 
HETATM    4  O8  UNL     1     -32.923   4.515   2.354  1.00 20.00    -0.298 OA
ENDBRANCH   1   2
BRANCH   1   5
HETATM    5  C4  UNL     1     -34.122   7.187   4.551  1.00 20.00     0.008 C 
HETATM    6  C3  UNL     1     -33.539   7.446   5.935  1.00 20.00     0.006 C 
ENDBRANCH   1   5
BRANCH   1   7
HETATM    7  C5  UNL     1     -33.081   7.399   2.260  1.00 20.00     0.129 C 
BRANCH   7   8
HETATM    8  C7  UNL     1     -31.944   8.400   2.174  1.00 20.00     0.388 C 
HETATM    9  F9  UNL     1     -31.194   8.220   1.068  1.00 20.00    -0.171 F 
HETATM   10  F10 UNL     1     -31.132   8.315   3.250  1.00 20.00    -0.171 F 
HETATM   11  F11 UNL     1     -32.432   9.661   2.132  1.00 20.00    -0.171 F 
ENDBRANCH   7   8
ENDBRANCH   1   7
TORSDOF 4
ENDMDL
MODEL 5
REMARK VINA RESULT:      -5.1      3.094      4.004
REMARK  4 active torsions:
REMARK  status: ('A' for Active; 'I' for Inactive)
REMARK    1  A    between atoms: C1_1  and  C6_6 
REMARK    2  A    between atoms: C4_4  and  C6_6 
REMARK    3  A    between atoms: C5_5  and  C6_6 
REMARK    4  A    between atoms: C5_5  and  C7_7 
ROOT
HETATM    1  C6  UNL     1     -32.790   6.769   3.644  1.00 20.00     0.063 C 
ENDROOT
BRANCH   1   2
HETATM    2  C1  UNL     1     -32.034   7.977   3.096  1.00 20.00     0.127 C 
HETATM    3  C2  UNL     1     -32.412   8.445   1.715  1.00 20.00     0.091 C 
HETATM    4  O8  UNL     1     -31.157   8.548   3.745  1.00 20.00    -0.298 OA
ENDBRANCH   1   2
BRANCH   1   5
HETATM    5  C4  UNL     1     -33.513   6.042   2.497  1.00 20.00     0.008 C 
HETATM    6  C3  UNL     1     -33.085   4.587   2.356  1.00 20.00     0.006 C 
ENDBRANCH   1   5
BRANCH   1   7
HETATM    7  C5  UNL     1     -33.799   7.212   4.717  1.00 20.00     0.129 C 
BRANCH   7   8
HETATM    8  C7  UNL     1     -34.496   6.054   5.407  1.00 20.00     0.388 C 
HETATM    9  F9  UNL     1     -33.665   5.010   5.605  1.00 20.00    -0.171 F 
HETATM   10  F10 UNL     1     -35.553   5.619   4.691  1.00 20.00    -0.171 F 
HETATM   11  F11 UNL     1     -34.956   6.441   6.619  1.00 20.00    -0.171 F 
ENDBRANCH   7   8
ENDBRANCH   1   7
TORSDOF 4
ENDMDL
MODEL 6
REMARK VINA RESULT:      -4.8      2.668      3.933
REMARK  4 active torsions:
REMARK  status: ('A' for Active; 'I' for Inactive)
REMARK    1  A    between atoms: C1_1  and  C6_6 
REMARK    2  A    between atoms: C4_4  and  C6_6 
REMARK    3  A    between atoms: C5_5  and  C6_6 
REMARK    4  A    between atoms: C5_5  and  C7_7 
ROOT
HETATM    1  C6  UNL     1     -33.079   7.300   3.575  1.00 20.00     0.063 C 
ENDROOT
BRANCH   1   2
HETATM    2  C1  UNL     1     -32.063   8.224   2.908  1.00 20.00     0.127 C 
HETATM    3  C2  UNL     1     -32.433   8.776   1.556  1.00 20.00     0.091 C 
HETATM    4  O8  UNL     1     -30.991   8.511   3.442  1.00 20.00    -0.298 OA
ENDBRANCH   1   2
BRANCH   1   5
HETATM    5  C4  UNL     1     -33.270   7.709   5.045  1.00 20.00     0.008 C 
HETATM    6  C3  UNL     1     -34.107   6.709   5.833  1.00 20.00     0.006 C 
ENDBRANCH   1   5
BRANCH   1   7
HETATM    7  C5  UNL     1     -32.611   5.837   3.483  1.00 20.00     0.129 C 
BRANCH   7   8
HETATM    8  C7  UNL     1     -33.616   4.921   2.810  1.00 20.00     0.388 C 
HETATM    9  F9  UNL     1     -34.242   4.120   3.696  1.00 20.00    -0.171 F 
HETATM   10  F10 UNL     1     -33.023   4.139   1.883  1.00 20.00    -0.171 F 
HETATM   11  F11 UNL     1     -34.566   5.650   2.181  1.00 20.00    -0.171 F 
ENDBRANCH   7   8
ENDBRANCH   1   7
TORSDOF 4
ENDMDL
MODEL 7
REMARK VINA RESULT:      -4.8      3.349      4.495
REMARK  4 active torsions:
REMARK  status: ('A' for Active; 'I' for Inactive)
REMARK    1  A    between atoms: C1_1  and  C6_6 
REMARK    2  A    between atoms: C4_4  and  C6_6 
REMARK    3  A    between atoms: C5_5  and  C6_6 
REMARK    4  A    between atoms: C5_5  and  C7_7 
ROOT
HETATM    1  C6  UNL     1     -33.478   7.063   3.790  1.00 20.00     0.063 C 
ENDROOT
BRANCH   1   2
HETATM    2  C1  UNL     1     -32.721   7.799   2.688  1.00 20.00     0.127 C 
HETATM    3  C2  UNL     1     -31.388   8.395   3.062  1.00 20.00     0.091 C 
HETATM    4  O8  UNL     1     -33.168   7.904   1.546  1.00 20.00    -0.298 OA
ENDBRANCH   1   2
BRANCH   1   5
HETATM    5  C4  UNL     1     -32.976   7.529   5.168  1.00 20.00     0.008 C 
HETATM    6  C3  UNL     1     -34.054   7.467   6.242  1.00 20.00     0.006 C 
ENDBRANCH   1   5
BRANCH   1   7
HETATM    7  C5  UNL     1     -33.296   5.543   3.641  1.00 20.00     0.129 C 
BRANCH   7   8
HETATM    8  C7  UNL     1     -34.400   4.734   4.295  1.00 20.00     0.388 C 
HETATM    9  F9  UNL     1     -35.608   5.313   4.144  1.00 20.00    -0.171 F 
HETATM   10  F10 UNL     1     -34.174   4.573   5.616  1.00 20.00    -0.171 F 
HETATM   11  F11 UNL     1     -34.469   3.502   3.740  1.00 20.00    -0.171 F 
ENDBRANCH   7   8
ENDBRANCH   1   7
TORSDOF 4
ENDMDL
MODEL 8
REMARK VINA RESULT:      -4.7      1.711      2.363
REMARK  4 active torsions:
REMARK  status: ('A' for Active; 'I' for Inactive)
REMARK    1  A    between atoms: C1_1  and  C6_6 
REMARK    2  A    between atoms: C4_4  and  C6_6 
REMARK    3  A    between atoms: C5_5  and  C6_6 
REMARK    4  A    between atoms: C5_5  and  C7_7 
ROOT
HETATM    1  C6  UNL     1     -33.057   7.689   2.801  1.00 20.00     0.063 C 
ENDROOT
BRANCH   1   2
HETATM    2  C1  UNL     1     -32.376   7.985   4.134  1.00 20.00     0.127 C 
HETATM    3  C2  UNL     1     -33.160   7.668   5.382  1.00 20.00     0.091 C 
HETATM    4  O8  UNL     1     -31.241   8.457   4.197  1.00 20.00    -0.298 OA
ENDBRANCH   1   2
BRANCH   1   5
HETATM    5  C4  UNL     1     -33.425   6.197   2.723  1.00 20.00     0.008 C 
HETATM    6  C3  UNL     1     -34.779   5.888   3.349  1.00 20.00     0.006 C 
ENDBRANCH   1   5
BRANCH   1   7
HETATM    7  C5  UNL     1     -32.135   8.073   1.632  1.00 20.00     0.129 C 
BRANCH   7   8
HETATM    8  C7  UNL     1     -32.614   9.286   0.856  1.00 20.00     0.388 C 
HETATM    9  F9  UNL     1     -31.588  10.053   0.432  1.00 20.00    -0.171 F 
HETATM   10  F10 UNL     1     -33.431  10.056   1.604  1.00 20.00    -0.171 F 
HETATM   11  F11 UNL     1     -33.308   8.898  -0.238  1.00 20.00    -0.171 F 
ENDBRANCH   7   8
ENDBRANCH   1   7
TORSDOF 4
ENDMDL
MODEL 9
REMARK VINA RESULT:      -4.6      3.158      4.204
REMARK  4 active torsions:
REMARK  status: ('A' for Active; 'I' for Inactive)
REMARK    1  A    between atoms: C1_1  and  C6_6 
REMARK    2  A    between atoms: C4_4  and  C6_6 
REMARK    3  A    between atoms: C5_5  and  C6_6 
REMARK    4  A    between atoms: C5_5  and  C7_7 
ROOT
HETATM    1  C6  UNL     1     -33.413   7.197   3.521  1.00 20.00     0.063 C 
ENDROOT
BRANCH   1   2
HETATM    2  C1  UNL     1     -33.729   5.997   2.632  1.00 20.00     0.127 C 
HETATM    3  C2  UNL     1     -32.827   4.798   2.766  1.00 20.00     0.091 C 
HETATM    4  O8  UNL     1     -34.674   5.999   1.843  1.00 20.00    -0.298 OA
ENDBRANCH   1   2
BRANCH   1   5
HETATM    5  C4  UNL     1     -32.143   7.902   3.013  1.00 20.00     0.008 C 
HETATM    6  C3  UNL     1     -32.369   8.666   1.715  1.00 20.00     0.006 C 
ENDBRANCH   1   5
BRANCH   1   7
HETATM    7  C5  UNL     1     -33.228   6.747   4.980  1.00 20.00     0.129 C 
BRANCH   7   8
HETATM    8  C7  UNL     1     -34.444   6.047   5.557  1.00 20.00     0.388 C 
HETATM    9  F9  UNL     1     -35.476   6.031   4.689  1.00 20.00    -0.171 F 
HETATM   10  F10 UNL     1     -34.861   6.644   6.693  1.00 20.00    -0.171 F 
HETATM   11  F11 UNL     1     -34.146   4.763   5.857  1.00 20.00    -0.171 F 
ENDBRANCH   7   8
ENDBRANCH   1   7
TORSDOF 4
ENDMDL
