MODEL 1
REMARK VINA RESULT:      -6.1      0.000      0.000
REMARK  4 active torsions:
REMARK  status: ('A' for Active; 'I' for Inactive)
REMARK    1  A    between atoms: C1_1  and  C8_8 
REMARK    2  A    between atoms: C1_1  and  C10_10 
REMARK    3  A    between atoms: C5_5  and  C9_9 
REMARK    4  A    between atoms: C9_9  and  C10_10 
ROOT
HETATM    1  C7  UNL     1     -31.700   8.369   4.259  1.00 20.00     0.018 C 
HETATM    2  C10 UNL     1     -32.578   7.328   3.570  1.00 20.00     0.051 C 
ENDROOT
BRANCH   2   3
HETATM    3  C1  UNL     1     -33.721   6.956   4.515  1.00 20.00     0.130 C 
HETATM    4  O11 UNL     1     -33.827   7.460   5.632  1.00 20.00    -0.298 OA
BRANCH   3   5
HETATM    5  C8  UNL     1     -34.734   5.956   3.978  1.00 20.00     0.074 C 
HETATM    6  C6  UNL     1     -34.607   4.590   4.625  1.00 20.00     0.013 C 
ENDBRANCH   3   5
ENDBRANCH   2   3
BRANCH   2   7
HETATM    7  C9  UNL     1     -33.099   7.858   2.227  1.00 20.00     0.016 C 
BRANCH   7   8
HETATM    8  C5  UNL     1     -32.248   9.017   1.731  1.00 20.00    -0.014 C 
HETATM    9  C3  UNL     1     -33.023  10.254   1.209  1.00 20.00     0.005 C 
HETATM   10  C2  UNL     1     -32.873   9.680  -0.213  1.00 20.00     0.001 C 
HETATM   11  C4  UNL     1     -31.667   8.872   0.302  1.00 20.00     0.005 C 
ENDBRANCH   7   8
ENDBRANCH   2   7
TORSDOF 4
ENDMDL
MODEL 2
REMARK VINA RESULT:      -6.0      1.392      1.457
REMARK  4 active torsions:
REMARK  status: ('A' for Active; 'I' for Inactive)
REMARK    1  A    between atoms: C1_1  and  C8_8 
REMARK    2  A    between atoms: C1_1  and  C10_10 
REMARK    3  A    between atoms: C5_5  and  C9_9 
REMARK    4  A    between atoms: C9_9  and  C10_10 
ROOT
HETATM    1  C7  UNL     1     -32.930   7.664   4.682  1.00 20.00     0.018 C 
HETATM    2  C10 UNL     1     -32.752   7.058   3.292  1.00 20.00     0.051 C 
ENDROOT
BRANCH   2   3
HETATM    3  C1  UNL     1     -33.461   5.704   3.260  1.00 20.00     0.130 C 
HETATM    4  O11 UNL     1     -33.003   4.747   2.637  1.00 20.00    -0.298 OA
BRANCH   3   5
HETATM    5  C8  UNL     1     -34.744   5.602   4.072  1.00 20.00     0.074 C 
HETATM    6  C6  UNL     1     -34.643   4.595   5.202  1.00 20.00     0.013 C 
ENDBRANCH   3   5
ENDBRANCH   2   3
BRANCH   2   7
HETATM    7  C9  UNL     1     -33.289   8.007   2.212  1.00 20.00     0.016 C 
BRANCH   7   8
HETATM    8  C5  UNL     1     -32.242   9.039   1.823  1.00 20.00    -0.014 C 
HETATM    9  C3  UNL     1     -32.784  10.408   1.339  1.00 20.00     0.005 C 
HETATM   10  C2  UNL     1     -32.650   9.890  -0.106  1.00 20.00     0.001 C 
HETATM   11  C4  UNL     1     -31.615   8.875   0.415  1.00 20.00     0.005 C 
ENDBRANCH   7   8
ENDBRANCH   2   7
TORSDOF 4
ENDMDL
MODEL 3
REMARK VINA RESULT:      -5.9      1.835      4.862
REMARK  4 active torsions:
REMARK  status: ('A' for Active; 'I' for Inactive)
REMARK    1  A    between atoms: C1_1  and  C8_8 
REMARK    2  A    between atoms: C1_1  and  C10_10 
REMARK    3  A    between atoms: C5_5  and  C9_9 
REMARK    4  A    between atoms: C9_9  and  C10_10 
ROOT
HETATM    1  C7  UNL     1     -31.106   8.284   3.743  1.00 20.00     0.018 C 
HETATM    2  C10 UNL     1     -32.403   8.329   2.939  1.00 20.00     0.051 C 
ENDROOT
BRANCH   2   3
HETATM    3  C1  UNL     1     -32.071   8.763   1.511  1.00 20.00     0.130 C 
HETATM    4  O11 UNL     1     -31.169   8.230   0.865  1.00 20.00    -0.298 OA
BRANCH   3   5
HETATM    5  C8  UNL     1     -32.943   9.864   0.928  1.00 20.00     0.074 C 
HETATM    6  C6  UNL     1     -33.305   9.617  -0.525  1.00 20.00     0.013 C 
ENDBRANCH   3   5
ENDBRANCH   2   3
BRANCH   2   7
HETATM    7  C9  UNL     1     -33.111   6.968   2.970  1.00 20.00     0.016 C 
BRANCH   7   8
HETATM    8  C5  UNL     1     -34.319   7.003   3.894  1.00 20.00    -0.014 C 
HETATM    9  C3  UNL     1     -34.041   6.704   5.389  1.00 20.00     0.005 C 
HETATM   10  C2  UNL     1     -34.432   5.239   5.114  1.00 20.00     0.001 C 
HETATM   11  C4  UNL     1     -35.218   5.740   3.887  1.00 20.00     0.005 C 
ENDBRANCH   7   8
ENDBRANCH   2   7
TORSDOF 4
ENDMDL
MODEL 4
REMARK VINA RESULT:      -5.6      1.586      4.837
REMARK  4 active torsions:
REMARK  status: ('A' for Active; 'I' for Inactive)
REMARK    1  A    between atoms: C1_1  and  C8_8 
REMARK    2  A    between atoms: C1_1  and  C10_10 
REMARK    3  A    between atoms: C5_5  and  C9_9 
REMARK    4  A    between atoms: C9_9  and  C10_10 
ROOT
HETATM    1  C7  UNL     1     -32.874   7.830   4.797  1.00 20.00     0.018 C 
HETATM    2  C10 UNL     1     -33.073   7.458   3.331  1.00 20.00     0.051 C 
ENDROOT
BRANCH   2   3
HETATM    3  C1  UNL     1     -32.135   8.318   2.482  1.00 20.00     0.130 C 
HETATM    4  O11 UNL     1     -30.981   8.559   2.835  1.00 20.00    -0.298 OA
BRANCH   3   5
HETATM    5  C8  UNL     1     -32.702   8.824   1.164  1.00 20.00     0.074 C 
HETATM    6  C6  UNL     1     -32.640  10.335   1.042  1.00 20.00     0.013 C 
ENDBRANCH   3   5
ENDBRANCH   2   3
BRANCH   2   7
HETATM    7  C9  UNL     1     -32.827   5.960   3.110  1.00 20.00     0.016 C 
BRANCH   7   8
HETATM    8  C5  UNL     1     -34.121   5.170   3.239  1.00 20.00    -0.014 C 
HETATM    9  C3  UNL     1     -35.223   5.810   4.120  1.00 20.00     0.005 C 
HETATM   10  C2  UNL     1     -34.712   4.950   5.292  1.00 20.00     0.001 C 
HETATM   11  C4  UNL     1     -34.103   3.994   4.248  1.00 20.00     0.005 C 
ENDBRANCH   7   8
ENDBRANCH   2   7
TORSDOF 4
ENDMDL
MODEL 5
REMARK VINA RESULT:      -5.4      0.984      1.404
REMARK  4 active torsions:
REMARK  status: ('A' for Active; 'I' for Inactive)
REMARK    1  A    between atoms: C1_1  and  C8_8 
REMARK    2  A    between atoms: C1_1  and  C10_10 
REMARK    3  A    between atoms: C5_5  and  C9_9 
REMARK    4  A    between atoms: C9_9  and  C10_10 
ROOT
HETATM    1  C7  UNL     1     -33.706   5.886   2.286  1.00 20.00     0.018 C 
HETATM    2  C10 UNL     1     -33.403   7.176   3.042  1.00 20.00     0.051 C 
ENDROOT
BRANCH   2   3
HETATM    3  C1  UNL     1     -33.756   6.968   4.516  1.00 20.00     0.130 C 
HETATM    4  O11 UNL     1     -33.181   7.584   5.412  1.00 20.00    -0.298 OA
BRANCH   3   5
HETATM    5  C8  UNL     1     -34.879   5.983   4.801  1.00 20.00     0.074 C 
HETATM    6  C6  UNL     1     -34.463   4.880   5.755  1.00 20.00     0.013 C 
ENDBRANCH   3   5
ENDBRANCH   2   3
BRANCH   2   7
HETATM    7  C9  UNL     1     -31.934   7.582   2.860  1.00 20.00     0.016 C 
BRANCH   7   8
HETATM    8  C5  UNL     1     -31.823   8.940   2.183  1.00 20.00    -0.014 C 
HETATM    9  C3  UNL     1     -33.141   9.527   1.617  1.00 20.00     0.005 C 
HETATM   10  C2  UNL     1     -32.753   8.936   0.248  1.00 20.00     0.001 C 
HETATM   11  C4  UNL     1     -31.289   8.933   0.729  1.00 20.00     0.005 C 
ENDBRANCH   7   8
ENDBRANCH   2   7
TORSDOF 4
ENDMDL
MODEL 6
REMARK VINA RESULT:      -5.3      1.687      2.624
REMARK  4 active torsions:
REMARK  status: ('A' for Active; 'I' for Inactive)
REMARK    1  A    between atoms: C1_1  and  C8_8 
REMARK    2  A    between atoms: C1_1  and  C10_10 
REMARK    3  A    between atoms: C5_5  and  C9_9 
REMARK    4  A    between atoms: C9_9  and  C10_10 
ROOT
HETATM    1  C7  UNL     1     -32.981   4.820   2.520  1.00 20.00     0.018 C 
HETATM    2  C10 UNL     1     -34.127   5.626   3.125  1.00 20.00     0.051 C 
ENDROOT
BRANCH   2   3
HETATM    3  C1  UNL     1     -34.423   5.075   4.520  1.00 20.00     0.130 C 
HETATM    4  O11 UNL     1     -34.303   3.879   4.783  1.00 20.00    -0.298 OA
BRANCH   3   5
HETATM    5  C8  UNL     1     -34.838   6.097   5.568  1.00 20.00     0.074 C 
HETATM    6  C6  UNL     1     -33.680   6.959   6.036  1.00 20.00     0.013 C 
ENDBRANCH   3   5
ENDBRANCH   2   3
BRANCH   2   7
HETATM    7  C9  UNL     1     -33.780   7.120   3.165  1.00 20.00     0.016 C 
BRANCH   7   8
HETATM    8  C5  UNL     1     -32.415   7.381   2.546  1.00 20.00    -0.014 C 
HETATM    9  C3  UNL     1     -31.520   8.411   3.282  1.00 20.00     0.005 C 
HETATM   10  C2  UNL     1     -32.044   9.482   2.306  1.00 20.00     0.001 C 
HETATM   11  C4  UNL     1     -32.391   8.341   1.330  1.00 20.00     0.005 C 
ENDBRANCH   7   8
ENDBRANCH   2   7
TORSDOF 4
ENDMDL
MODEL 7
REMARK VINA RESULT:      -4.9      1.420      2.004
REMARK  4 active torsions:
REMARK  status: ('A' for Active; 'I' for Inactive)
REMARK    1  A    between atoms: C1_1  and  C8_8 
REMARK    2  A    between atoms: C1_1  and  C10_10 
REMARK    3  A    between atoms: C5_5  and  C9_9 
REMARK    4  A    between atoms: C9_9  and  C10_10 
ROOT
HETATM    1  C7  UNL     1     -33.711   7.357   5.889  1.00 20.00     0.018 C 
HETATM    2  C10 UNL     1     -33.674   6.773   4.480  1.00 20.00     0.051 C 
ENDROOT
BRANCH   2   3
HETATM    3  C1  UNL     1     -34.830   5.781   4.337  1.00 20.00     0.130 C 
HETATM    4  O11 UNL     1     -35.835   6.049   3.681  1.00 20.00    -0.298 OA
BRANCH   3   5
HETATM    5  C8  UNL     1     -34.645   4.437   5.025  1.00 20.00     0.074 C 
HETATM    6  C6  UNL     1     -33.726   3.507   4.255  1.00 20.00     0.013 C 
ENDBRANCH   3   5
ENDBRANCH   2   3
BRANCH   2   7
HETATM    7  C9  UNL     1     -33.747   7.886   3.426  1.00 20.00     0.016 C 
BRANCH   7   8
HETATM    8  C5  UNL     1     -32.607   7.767   2.426  1.00 20.00    -0.014 C 
HETATM    9  C3  UNL     1     -31.460   8.797   2.577  1.00 20.00     0.005 C 
HETATM   10  C2  UNL     1     -32.162   9.655   1.506  1.00 20.00     0.001 C 
HETATM   11  C4  UNL     1     -32.866   8.373   1.024  1.00 20.00     0.005 C 
ENDBRANCH   7   8
ENDBRANCH   2   7
TORSDOF 4
ENDMDL
MODEL 8
REMARK VINA RESULT:      -4.5     10.228     11.512
REMARK  4 active torsions:
REMARK  status: ('A' for Active; 'I' for Inactive)
REMARK    1  A    between atoms: C1_1  and  C8_8 
REMARK    2  A    between atoms: C1_1  and  C10_10 
REMARK    3  A    between atoms: C5_5  and  C9_9 
REMARK    4  A    between atoms: C9_9  and  C10_10 
ROOT
HETATM    1  C7  UNL     1     -37.076  14.485  -5.050  1.00 20.00     0.018 C 
HETATM    2  C10 UNL     1     -35.817  13.624  -4.995  1.00 20.00     0.051 C 
ENDROOT
BRANCH   2   3
HETATM    3  C1  UNL     1     -35.369  13.331  -6.427  1.00 20.00     0.130 C 
HETATM    4  O11 UNL     1     -35.089  12.191  -6.798  1.00 20.00    -0.298 OA
BRANCH   3   5
HETATM    5  C8  UNL     1     -35.323  14.524  -7.370  1.00 20.00     0.074 C 
HETATM    6  C6  UNL     1     -33.922  14.821  -7.870  1.00 20.00     0.013 C 
ENDBRANCH   3   5
ENDBRANCH   2   3
BRANCH   2   7
HETATM    7  C9  UNL     1     -34.716  14.320  -4.185  1.00 20.00     0.016 C 
BRANCH   7   8
HETATM    8  C5  UNL     1     -35.027  15.797  -3.997  1.00 20.00    -0.014 C 
HETATM    9  C3  UNL     1     -33.844  16.774  -4.214  1.00 20.00     0.005 C 
HETATM   10  C2  UNL     1     -33.609  16.743  -2.691  1.00 20.00     0.001 C 
HETATM   11  C4  UNL     1     -35.076  16.301  -2.532  1.00 20.00     0.005 C 
ENDBRANCH   7   8
ENDBRANCH   2   7
TORSDOF 4
ENDMDL
MODEL 9
REMARK VINA RESULT:      -4.5     10.370     11.256
REMARK  4 active torsions:
REMARK  status: ('A' for Active; 'I' for Inactive)
REMARK    1  A    between atoms: C1_1  and  C8_8 
REMARK    2  A    between atoms: C1_1  and  C10_10 
REMARK    3  A    between atoms: C5_5  and  C9_9 
REMARK    4  A    between atoms: C9_9  and  C10_10 
ROOT
HETATM    1  C7  UNL     1     -36.521  16.022  -4.862  1.00 20.00     0.018 C 
HETATM    2  C10 UNL     1     -35.739  14.918  -4.156  1.00 20.00     0.051 C 
ENDROOT
BRANCH   2   3
HETATM    3  C1  UNL     1     -35.355  13.860  -5.191  1.00 20.00     0.130 C 
HETATM    4  O11 UNL     1     -35.930  12.774  -5.251  1.00 20.00    -0.298 OA
BRANCH   3   5
HETATM    5  C8  UNL     1     -34.247  14.244  -6.160  1.00 20.00     0.074 C 
HETATM    6  C6  UNL     1     -34.466  13.683  -7.552  1.00 20.00     0.013 C 
ENDBRANCH   3   5
ENDBRANCH   2   3
BRANCH   2   7
HETATM    7  C9  UNL     1     -34.506  15.492  -3.445  1.00 20.00     0.016 C 
BRANCH   7   8
HETATM    8  C5  UNL     1     -34.786  16.888  -2.910  1.00 20.00    -0.014 C 
HETATM    9  C3  UNL     1     -33.639  17.919  -3.069  1.00 20.00     0.005 C 
HETATM   10  C2  UNL     1     -33.204  17.576  -1.632  1.00 20.00     0.001 C 
HETATM   11  C4  UNL     1     -34.638  17.073  -1.379  1.00 20.00     0.005 C 
ENDBRANCH   7   8
ENDBRANCH   2   7
TORSDOF 4
ENDMDL
