MODEL 1
REMARK VINA RESULT:      -4.6      0.000      0.000
REMARK  2 active torsions:
REMARK  status: ('A' for Active; 'I' for Inactive)
REMARK    1  A    between atoms: C4_4  and  C5_5 
REMARK    2  A    between atoms: C5_5  and  C6_6 
ROOT
HETATM    1  C1  UNL     1     -33.241   7.332   4.617  1.00 20.00     0.038 A 
HETATM    2  C2  UNL     1     -34.220   5.498   3.577  1.00 20.00     0.074 A 
HETATM    3  C3  UNL     1     -34.113   6.213   4.750  1.00 20.00     0.041 A 
HETATM    4  C4  UNL     1     -32.714   7.429   3.347  1.00 20.00    -0.015 A 
HETATM    5  S7  UNL     1     -33.271   6.176   2.323  1.00 20.00    -0.105 SA
HETATM    6 CL8  UNL     1     -34.918   5.830   6.208  1.00 20.00    -0.084 Cl
ENDROOT
BRANCH   4   7
HETATM    7  C5  UNL     1     -31.776   8.442   2.816  1.00 20.00     0.061 C 
BRANCH   7   8
HETATM    8  C6  UNL     1     -31.984   8.795   1.336  1.00 20.00     0.119 C 
HETATM    9 CL9  UNL     1     -32.746  10.392   1.144  1.00 20.00    -0.130 Cl
ENDBRANCH   7   8
ENDBRANCH   4   7
TORSDOF 2
ENDMDL
MODEL 2
REMARK VINA RESULT:      -4.5      1.550      1.870
REMARK  2 active torsions:
REMARK  status: ('A' for Active; 'I' for Inactive)
REMARK    1  A    between atoms: C4_4  and  C5_5 
REMARK    2  A    between atoms: C5_5  and  C6_6 
ROOT
HETATM    1  C1  UNL     1     -33.443   6.813   2.711  1.00 20.00     0.038 A 
HETATM    2  C2  UNL     1     -33.265   7.270   4.983  1.00 20.00     0.074 A 
HETATM    3  C3  UNL     1     -33.894   6.503   4.027  1.00 20.00     0.041 A 
HETATM    4  C4  UNL     1     -32.486   7.805   2.713  1.00 20.00    -0.015 A 
HETATM    5  S7  UNL     1     -32.136   8.358   4.295  1.00 20.00    -0.105 SA
HETATM    6 CL8  UNL     1     -35.079   5.314   4.347  1.00 20.00    -0.084 Cl
ENDROOT
BRANCH   4   7
HETATM    7  C5  UNL     1     -31.779   8.402   1.559  1.00 20.00     0.061 C 
BRANCH   7   8
HETATM    8  C6  UNL     1     -32.396   9.707   1.034  1.00 20.00     0.119 C 
HETATM    9 CL9  UNL     1     -33.209   9.464  -0.532  1.00 20.00    -0.130 Cl
ENDBRANCH   7   8
ENDBRANCH   4   7
TORSDOF 2
ENDMDL
MODEL 3
REMARK VINA RESULT:      -4.1      1.936      4.690
REMARK  2 active torsions:
REMARK  status: ('A' for Active; 'I' for Inactive)
REMARK    1  A    between atoms: C4_4  and  C5_5 
REMARK    2  A    between atoms: C5_5  and  C6_6 
ROOT
HETATM    1  C1  UNL     1     -33.431   7.071   2.541  1.00 20.00     0.038 A 
HETATM    2  C2  UNL     1     -31.995   8.275   3.916  1.00 20.00     0.074 A 
HETATM    3  C3  UNL     1     -32.300   7.933   2.617  1.00 20.00     0.041 A 
HETATM    4  C4  UNL     1     -33.948   6.786   3.787  1.00 20.00    -0.015 A 
HETATM    5  S7  UNL     1     -33.071   7.556   5.039  1.00 20.00    -0.105 SA
HETATM    6 CL8  UNL     1     -31.442   8.464   1.237  1.00 20.00    -0.084 Cl
ENDROOT
BRANCH   4   7
HETATM    7  C5  UNL     1     -35.109   5.935   4.127  1.00 20.00     0.061 C 
BRANCH   7   8
HETATM    8  C6  UNL     1     -34.785   4.746   5.046  1.00 20.00     0.119 C 
HETATM    9 CL9  UNL     1     -33.800   3.521   4.209  1.00 20.00    -0.130 Cl
ENDBRANCH   7   8
ENDBRANCH   4   7
TORSDOF 2
ENDMDL
MODEL 4
REMARK VINA RESULT:      -3.9      1.320      4.740
REMARK  2 active torsions:
REMARK  status: ('A' for Active; 'I' for Inactive)
REMARK    1  A    between atoms: C4_4  and  C5_5 
REMARK    2  A    between atoms: C5_5  and  C6_6 
ROOT
HETATM    1  C1  UNL     1     -33.246   7.709   1.594  1.00 20.00     0.038 A 
HETATM    2  C2  UNL     1     -31.802   9.110   2.758  1.00 20.00     0.074 A 
HETATM    3  C3  UNL     1     -32.530   8.941   1.601  1.00 20.00     0.041 A 
HETATM    4  C4  UNL     1     -33.038   6.984   2.747  1.00 20.00    -0.015 A 
HETATM    5  S7  UNL     1     -31.983   7.786   3.830  1.00 20.00    -0.105 SA
HETATM    6 CL8  UNL     1     -32.588  10.058   0.308  1.00 20.00    -0.084 Cl
ENDROOT
BRANCH   4   7
HETATM    7  C5  UNL     1     -33.597   5.665   3.116  1.00 20.00     0.061 C 
BRANCH   7   8
HETATM    8  C6  UNL     1     -34.846   5.725   4.009  1.00 20.00     0.119 C 
HETATM    9 CL9  UNL     1     -34.548   4.989   5.603  1.00 20.00    -0.130 Cl
ENDBRANCH   7   8
ENDBRANCH   4   7
TORSDOF 2
ENDMDL
MODEL 5
REMARK VINA RESULT:      -3.5     11.062     11.713
REMARK  2 active torsions:
REMARK  status: ('A' for Active; 'I' for Inactive)
REMARK    1  A    between atoms: C4_4  and  C5_5 
REMARK    2  A    between atoms: C5_5  and  C6_6 
ROOT
HETATM    1  C1  UNL     1     -34.594  14.988  -3.856  1.00 20.00     0.038 A 
HETATM    2  C2  UNL     1     -36.162  16.566  -3.180  1.00 20.00     0.074 A 
HETATM    3  C3  UNL     1     -34.855  16.144  -3.065  1.00 20.00     0.041 A 
HETATM    4  C4  UNL     1     -35.712  14.571  -4.546  1.00 20.00    -0.015 A 
HETATM    5  S7  UNL     1     -37.068  15.570  -4.239  1.00 20.00    -0.105 SA
HETATM    6 CL8  UNL     1     -33.665  16.895  -2.096  1.00 20.00    -0.084 Cl
ENDROOT
BRANCH   4   7
HETATM    7  C5  UNL     1     -35.849  13.419  -5.464  1.00 20.00     0.061 C 
BRANCH   7   8
HETATM    8  C6  UNL     1     -35.861  13.786  -6.956  1.00 20.00     0.119 C 
HETATM    9 CL9  UNL     1     -34.224  13.738  -7.655  1.00 20.00    -0.130 Cl
ENDBRANCH   7   8
ENDBRANCH   4   7
TORSDOF 2
ENDMDL
MODEL 6
REMARK VINA RESULT:      -3.5     11.231     11.623
REMARK  2 active torsions:
REMARK  status: ('A' for Active; 'I' for Inactive)
REMARK    1  A    between atoms: C4_4  and  C5_5 
REMARK    2  A    between atoms: C5_5  and  C6_6 
ROOT
HETATM    1  C1  UNL     1     -33.355  17.264  -1.922  1.00 20.00     0.038 A 
HETATM    2  C2  UNL     1     -35.542  16.982  -1.186  1.00 20.00     0.074 A 
HETATM    3  C3  UNL     1     -34.622  16.658  -2.160  1.00 20.00     0.041 A 
HETATM    4  C4  UNL     1     -33.354  18.027  -0.774  1.00 20.00    -0.015 A 
HETATM    5  S7  UNL     1     -34.876  18.013   0.009  1.00 20.00    -0.105 SA
HETATM    6 CL8  UNL     1     -34.934  15.653  -3.506  1.00 20.00    -0.084 Cl
ENDROOT
BRANCH   4   7
HETATM    7  C5  UNL     1     -32.242  18.809  -0.191  1.00 20.00     0.061 C 
BRANCH   7   8
HETATM    8  C6  UNL     1     -32.241  18.877   1.343  1.00 20.00     0.119 C 
HETATM    9 CL9  UNL     1     -30.601  18.679   2.007  1.00 20.00    -0.130 Cl
ENDBRANCH   7   8
ENDBRANCH   4   7
TORSDOF 2
ENDMDL
MODEL 7
REMARK VINA RESULT:      -3.5     11.073     11.275
REMARK  2 active torsions:
REMARK  status: ('A' for Active; 'I' for Inactive)
REMARK    1  A    between atoms: C4_4  and  C5_5 
REMARK    2  A    between atoms: C5_5  and  C6_6 
ROOT
HETATM    1  C1  UNL     1     -35.133  16.997  -1.080  1.00 20.00     0.038 A 
HETATM    2  C2  UNL     1     -33.821  18.466   0.156  1.00 20.00     0.074 A 
HETATM    3  C3  UNL     1     -35.017  17.783   0.103  1.00 20.00     0.041 A 
HETATM    4  C4  UNL     1     -34.020  17.109  -1.886  1.00 20.00    -0.015 A 
HETATM    5  S7  UNL     1     -32.844  18.157  -1.217  1.00 20.00    -0.105 SA
HETATM    6 CL8  UNL     1     -36.238  17.851   1.297  1.00 20.00    -0.084 Cl
ENDROOT
BRANCH   4   7
HETATM    7  C5  UNL     1     -33.758  16.457  -3.187  1.00 20.00     0.061 C 
BRANCH   7   8
HETATM    8  C6  UNL     1     -34.940  15.652  -3.751  1.00 20.00     0.119 C 
HETATM    9 CL9  UNL     1     -34.482  13.965  -4.089  1.00 20.00    -0.130 Cl
ENDBRANCH   7   8
ENDBRANCH   4   7
TORSDOF 2
ENDMDL
MODEL 8
REMARK VINA RESULT:      -3.4     11.135     11.566
REMARK  2 active torsions:
REMARK  status: ('A' for Active; 'I' for Inactive)
REMARK    1  A    between atoms: C4_4  and  C5_5 
REMARK    2  A    between atoms: C5_5  and  C6_6 
ROOT
HETATM    1  C1  UNL     1     -34.894  15.078  -3.640  1.00 20.00     0.038 A 
HETATM    2  C2  UNL     1     -34.250  15.221  -5.869  1.00 20.00     0.074 A 
HETATM    3  C3  UNL     1     -35.025  14.542  -4.953  1.00 20.00     0.041 A 
HETATM    4  C4  UNL     1     -34.024  16.146  -3.601  1.00 20.00    -0.015 A 
HETATM    5  S7  UNL     1     -33.370  16.499  -5.143  1.00 20.00    -0.105 SA
HETATM    6 CL8  UNL     1     -36.033  13.211  -5.319  1.00 20.00    -0.084 Cl
ENDROOT
BRANCH   4   7
HETATM    7  C5  UNL     1     -33.624  16.964  -2.435  1.00 20.00     0.061 C 
BRANCH   7   8
HETATM    8  C6  UNL     1     -34.685  17.066  -1.329  1.00 20.00     0.119 C 
HETATM    9 CL9  UNL     1     -34.112  18.050   0.040  1.00 20.00    -0.130 Cl
ENDBRANCH   7   8
ENDBRANCH   4   7
TORSDOF 2
ENDMDL
MODEL 9
REMARK VINA RESULT:      -3.4     11.337     12.011
REMARK  2 active torsions:
REMARK  status: ('A' for Active; 'I' for Inactive)
REMARK    1  A    between atoms: C4_4  and  C5_5 
REMARK    2  A    between atoms: C5_5  and  C6_6 
ROOT
HETATM    1  C1  UNL     1     -34.853  14.654  -4.675  1.00 20.00     0.038 A 
HETATM    2  C2  UNL     1     -33.591  15.677  -6.338  1.00 20.00     0.074 A 
HETATM    3  C3  UNL     1     -34.341  14.571  -6.002  1.00 20.00     0.041 A 
HETATM    4  C4  UNL     1     -34.473  15.820  -4.047  1.00 20.00    -0.015 A 
HETATM    5  S7  UNL     1     -33.505  16.808  -5.055  1.00 20.00    -0.105 SA
HETATM    6 CL8  UNL     1     -34.641  13.241  -7.033  1.00 20.00    -0.084 Cl
ENDROOT
BRANCH   4   7
HETATM    7  C5  UNL     1     -34.797  16.273  -2.676  1.00 20.00     0.061 C 
BRANCH   7   8
HETATM    8  C6  UNL     1     -33.676  17.060  -1.980  1.00 20.00     0.119 C 
HETATM    9 CL9  UNL     1     -34.230  17.768  -0.443  1.00 20.00    -0.130 Cl
ENDBRANCH   7   8
ENDBRANCH   4   7
TORSDOF 2
ENDMDL
