MODEL 1
REMARK VINA RESULT:      -7.2      0.000      0.000
REMARK  3 active torsions:
REMARK  status: ('A' for Active; 'I' for Inactive)
REMARK    1  A    between atoms: C8_8  and  C10_10 
REMARK    2  A    between atoms: C9_9  and  C11_11 
REMARK    3  A    between atoms: C10_10  and  C11_11 
ROOT
HETATM    1  C1  UNL     1     -33.756   5.429   3.452  1.00 20.00     0.131 C 
HETATM    2  C2  UNL     1     -34.846   5.059   4.434  1.00 20.00     0.079 C 
HETATM    3  C3  UNL     1     -34.495   5.550   5.831  1.00 20.00     0.007 C 
HETATM    4  C4  UNL     1     -34.156   7.039   5.836  1.00 20.00     0.001 C 
HETATM    5  C5  UNL     1     -33.010   7.343   4.873  1.00 20.00     0.012 C 
HETATM    6  C8  UNL     1     -33.333   6.895   3.445  1.00 20.00     0.055 C 
HETATM    7  O12 UNL     1     -33.316   4.604   2.652  1.00 20.00    -0.298 OA
ENDROOT
BRANCH   6   8
HETATM    8  C10 UNL     1     -32.143   7.136   2.521  1.00 20.00     0.012 C 
BRANCH   8   9
HETATM    9  C11 UNL     1     -31.819   8.623   2.411  1.00 20.00     0.005 C 
BRANCH   9  10
HETATM   10  C9  UNL     1     -32.849   9.350   1.562  1.00 20.00    -0.014 A 
HETATM   11  C6  UNL     1     -32.506  10.664   0.913  1.00 20.00     0.005 A 
HETATM   12  C7  UNL     1     -32.681   9.431   0.070  1.00 20.00     0.005 A 
ENDBRANCH   9  10
ENDBRANCH   8   9
ENDBRANCH   6   8
TORSDOF 3
ENDMDL
MODEL 2
REMARK VINA RESULT:      -6.6      1.530      2.191
REMARK  3 active torsions:
REMARK  status: ('A' for Active; 'I' for Inactive)
REMARK    1  A    between atoms: C8_8  and  C10_10 
REMARK    2  A    between atoms: C9_9  and  C11_11 
REMARK    3  A    between atoms: C10_10  and  C11_11 
ROOT
HETATM    1  C1  UNL     1     -33.750   6.986   5.083  1.00 20.00     0.131 C 
HETATM    2  C2  UNL     1     -34.190   5.717   5.780  1.00 20.00     0.079 C 
HETATM    3  C3  UNL     1     -34.887   4.784   4.800  1.00 20.00     0.007 C 
HETATM    4  C4  UNL     1     -34.033   4.528   3.561  1.00 20.00     0.001 C 
HETATM    5  C5  UNL     1     -33.671   5.840   2.865  1.00 20.00     0.012 C 
HETATM    6  C8  UNL     1     -32.936   6.799   3.807  1.00 20.00     0.055 C 
HETATM    7  O12 UNL     1     -33.965   8.090   5.582  1.00 20.00    -0.298 OA
ENDROOT
BRANCH   6   8
HETATM    8  C10 UNL     1     -32.660   8.129   3.113  1.00 20.00     0.012 C 
BRANCH   8   9
HETATM    9  C11 UNL     1     -32.076   7.916   1.719  1.00 20.00     0.005 C 
BRANCH   9  10
HETATM   10  C9  UNL     1     -31.936   9.233   0.972  1.00 20.00    -0.014 A 
HETATM   11  C6  UNL     1     -32.896   9.585  -0.131  1.00 20.00     0.005 A 
HETATM   12  C7  UNL     1     -32.945  10.330   1.174  1.00 20.00     0.005 A 
ENDBRANCH   9  10
ENDBRANCH   8   9
ENDBRANCH   6   8
TORSDOF 3
ENDMDL
MODEL 3
REMARK VINA RESULT:      -4.9      1.655      5.171
REMARK  3 active torsions:
REMARK  status: ('A' for Active; 'I' for Inactive)
REMARK    1  A    between atoms: C8_8  and  C10_10 
REMARK    2  A    between atoms: C9_9  and  C11_11 
REMARK    3  A    between atoms: C10_10  and  C11_11 
ROOT
HETATM    1  C1  UNL     1     -32.169   9.076   2.607  1.00 20.00     0.131 C 
HETATM    2  C2  UNL     1     -32.389  10.430   1.967  1.00 20.00     0.079 C 
HETATM    3  C3  UNL     1     -32.306  10.325   0.451  1.00 20.00     0.007 C 
HETATM    4  C4  UNL     1     -33.236   9.242  -0.090  1.00 20.00     0.001 C 
HETATM    5  C5  UNL     1     -32.927   7.886   0.546  1.00 20.00     0.012 C 
HETATM    6  C8  UNL     1     -33.032   7.938   2.073  1.00 20.00     0.055 C 
HETATM    7  O12 UNL     1     -31.403   8.943   3.560  1.00 20.00    -0.298 OA
ENDROOT
BRANCH   6   8
HETATM    8  C10 UNL     1     -32.640   6.596   2.685  1.00 20.00     0.012 C 
BRANCH   8   9
HETATM    9  C11 UNL     1     -33.871   5.752   3.005  1.00 20.00     0.005 C 
BRANCH   9  10
HETATM   10  C9  UNL     1     -34.619   6.300   4.209  1.00 20.00    -0.014 A 
HETATM   11  C6  UNL     1     -34.596   5.558   5.518  1.00 20.00     0.005 A 
HETATM   12  C7  UNL     1     -33.860   6.862   5.380  1.00 20.00     0.005 A 
ENDBRANCH   9  10
ENDBRANCH   8   9
ENDBRANCH   6   8
TORSDOF 3
ENDMDL
MODEL 4
REMARK VINA RESULT:      -4.9     10.936     11.634
REMARK  3 active torsions:
REMARK  status: ('A' for Active; 'I' for Inactive)
REMARK    1  A    between atoms: C8_8  and  C10_10 
REMARK    2  A    between atoms: C9_9  and  C11_11 
REMARK    3  A    between atoms: C10_10  and  C11_11 
ROOT
HETATM    1  C1  UNL     1     -33.171  18.227  -1.247  1.00 20.00     0.131 C 
HETATM    2  C2  UNL     1     -33.305  18.667   0.194  1.00 20.00     0.079 C 
HETATM    3  C3  UNL     1     -34.771  18.756   0.592  1.00 20.00     0.007 C 
HETATM    4  C4  UNL     1     -35.519  17.461   0.283  1.00 20.00     0.001 C 
HETATM    5  C5  UNL     1     -35.400  17.100  -1.197  1.00 20.00     0.012 C 
HETATM    6  C8  UNL     1     -33.939  16.966  -1.635  1.00 20.00     0.055 C 
HETATM    7  O12 UNL     1     -32.412  18.810  -2.020  1.00 20.00    -0.298 OA
ENDROOT
BRANCH   6   8
HETATM    8  C10 UNL     1     -33.847  16.687  -3.132  1.00 20.00     0.012 C 
BRANCH   8   9
HETATM    9  C11 UNL     1     -35.045  15.875  -3.618  1.00 20.00     0.005 C 
BRANCH   9  10
HETATM   10  C9  UNL     1     -34.613  14.515  -4.142  1.00 20.00    -0.014 A 
HETATM   11  C6  UNL     1     -35.565  13.678  -4.953  1.00 20.00     0.005 A 
HETATM   12  C7  UNL     1     -34.371  14.312  -5.613  1.00 20.00     0.005 A 
ENDBRANCH   9  10
ENDBRANCH   8   9
ENDBRANCH   6   8
TORSDOF 3
ENDMDL
MODEL 5
REMARK VINA RESULT:      -4.7     10.804     11.786
REMARK  3 active torsions:
REMARK  status: ('A' for Active; 'I' for Inactive)
REMARK    1  A    between atoms: C8_8  and  C10_10 
REMARK    2  A    between atoms: C9_9  and  C11_11 
REMARK    3  A    between atoms: C10_10  and  C11_11 
ROOT
HETATM    1  C1  UNL     1     -34.947  14.137  -4.806  1.00 20.00     0.131 C 
HETATM    2  C2  UNL     1     -36.233  13.509  -5.297  1.00 20.00     0.079 C 
HETATM    3  C3  UNL     1     -37.367  14.523  -5.269  1.00 20.00     0.007 C 
HETATM    4  C4  UNL     1     -36.997  15.804  -6.013  1.00 20.00     0.001 C 
HETATM    5  C5  UNL     1     -35.726  16.426  -5.434  1.00 20.00     0.012 C 
HETATM    6  C8  UNL     1     -34.547  15.449  -5.473  1.00 20.00     0.055 C 
HETATM    7  O12 UNL     1     -34.234  13.562  -3.985  1.00 20.00    -0.298 OA
ENDROOT
BRANCH   6   8
HETATM    8  C10 UNL     1     -33.315  16.065  -4.817  1.00 20.00     0.012 C 
BRANCH   8   9
HETATM    9  C11 UNL     1     -33.700  17.196  -3.867  1.00 20.00     0.005 C 
BRANCH   9  10
HETATM   10  C9  UNL     1     -33.766  16.711  -2.428  1.00 20.00    -0.014 A 
HETATM   11  C6  UNL     1     -33.984  17.689  -1.307  1.00 20.00     0.005 A 
HETATM   12  C7  UNL     1     -35.072  16.722  -1.683  1.00 20.00     0.005 A 
ENDBRANCH   9  10
ENDBRANCH   8   9
ENDBRANCH   6   8
TORSDOF 3
ENDMDL
MODEL 6
REMARK VINA RESULT:      -4.7     10.729     12.177
REMARK  3 active torsions:
REMARK  status: ('A' for Active; 'I' for Inactive)
REMARK    1  A    between atoms: C8_8  and  C10_10 
REMARK    2  A    between atoms: C9_9  and  C11_11 
REMARK    3  A    between atoms: C10_10  and  C11_11 
ROOT
HETATM    1  C1  UNL     1     -34.835  13.808  -5.726  1.00 20.00     0.131 C 
HETATM    2  C2  UNL     1     -34.446  13.640  -7.179  1.00 20.00     0.079 C 
HETATM    3  C3  UNL     1     -34.557  14.965  -7.918  1.00 20.00     0.007 C 
HETATM    4  C4  UNL     1     -33.782  16.073  -7.208  1.00 20.00     0.001 C 
HETATM    5  C5  UNL     1     -34.259  16.238  -5.766  1.00 20.00     0.012 C 
HETATM    6  C8  UNL     1     -34.134  14.933  -4.973  1.00 20.00     0.055 C 
HETATM    7  O12 UNL     1     -35.603  13.016  -5.180  1.00 20.00    -0.298 OA
ENDROOT
BRANCH   6   8
HETATM    8  C10 UNL     1     -34.692  15.104  -3.563  1.00 20.00     0.012 C 
BRANCH   8   9
HETATM    9  C11 UNL     1     -34.734  16.575  -3.158  1.00 20.00     0.005 C 
BRANCH   9  10
HETATM   10  C9  UNL     1     -33.802  16.851  -1.989  1.00 20.00    -0.014 A 
HETATM   11  C6  UNL     1     -33.068  18.162  -1.898  1.00 20.00     0.005 A 
HETATM   12  C7  UNL     1     -34.183  17.856  -0.937  1.00 20.00     0.005 A 
ENDBRANCH   9  10
ENDBRANCH   8   9
ENDBRANCH   6   8
TORSDOF 3
ENDMDL
MODEL 7
REMARK VINA RESULT:      -4.6     10.965     11.594
REMARK  3 active torsions:
REMARK  status: ('A' for Active; 'I' for Inactive)
REMARK    1  A    between atoms: C8_8  and  C10_10 
REMARK    2  A    between atoms: C9_9  and  C11_11 
REMARK    3  A    between atoms: C10_10  and  C11_11 
ROOT
HETATM    1  C1  UNL     1     -36.012  15.203  -4.139  1.00 20.00     0.131 C 
HETATM    2  C2  UNL     1     -35.542  14.030  -4.971  1.00 20.00     0.079 C 
HETATM    3  C3  UNL     1     -34.165  14.307  -5.556  1.00 20.00     0.007 C 
HETATM    4  C4  UNL     1     -33.168  14.722  -4.476  1.00 20.00     0.001 C 
HETATM    5  C5  UNL     1     -33.666  15.948  -3.712  1.00 20.00     0.012 C 
HETATM    6  C8  UNL     1     -35.038  15.702  -3.076  1.00 20.00     0.055 C 
HETATM    7  O12 UNL     1     -37.150  15.654  -4.265  1.00 20.00    -0.298 OA
ENDROOT
BRANCH   6   8
HETATM    8  C10 UNL     1     -35.548  16.964  -2.389  1.00 20.00     0.012 C 
BRANCH   8   9
HETATM    9  C11 UNL     1     -34.946  17.120  -0.996  1.00 20.00     0.005 C 
BRANCH   9  10
HETATM   10  C9  UNL     1     -34.062  18.353  -0.911  1.00 20.00    -0.014 A 
HETATM   11  C6  UNL     1     -33.220  18.601   0.311  1.00 20.00     0.005 A 
HETATM   12  C7  UNL     1     -32.566  18.221  -0.989  1.00 20.00     0.005 A 
ENDBRANCH   9  10
ENDBRANCH   8   9
ENDBRANCH   6   8
TORSDOF 3
ENDMDL
MODEL 8
REMARK VINA RESULT:      -4.6     10.929     11.992
REMARK  3 active torsions:
REMARK  status: ('A' for Active; 'I' for Inactive)
REMARK    1  A    between atoms: C8_8  and  C10_10 
REMARK    2  A    between atoms: C9_9  and  C11_11 
REMARK    3  A    between atoms: C10_10  and  C11_11 
ROOT
HETATM    1  C1  UNL     1     -33.654  15.300  -5.831  1.00 20.00     0.131 C 
HETATM    2  C2  UNL     1     -34.060  14.809  -7.204  1.00 20.00     0.079 C 
HETATM    3  C3  UNL     1     -34.711  13.437  -7.111  1.00 20.00     0.007 C 
HETATM    4  C4  UNL     1     -35.856  13.424  -6.101  1.00 20.00     0.001 C 
HETATM    5  C5  UNL     1     -35.374  13.869  -4.720  1.00 20.00     0.012 C 
HETATM    6  C8  UNL     1     -34.740  15.263  -4.761  1.00 20.00     0.055 C 
HETATM    7  O12 UNL     1     -32.539  15.782  -5.634  1.00 20.00    -0.298 OA
ENDROOT
BRANCH   6   8
HETATM    8  C10 UNL     1     -34.196  15.648  -3.389  1.00 20.00     0.012 C 
BRANCH   8   9
HETATM    9  C11 UNL     1     -35.231  16.423  -2.579  1.00 20.00     0.005 C 
BRANCH   9  10
HETATM   10  C9  UNL     1     -34.616  17.018  -1.323  1.00 20.00    -0.014 A 
HETATM   11  C6  UNL     1     -34.794  18.479  -1.010  1.00 20.00     0.005 A 
HETATM   12  C7  UNL     1     -35.494  17.441  -0.177  1.00 20.00     0.005 A 
ENDBRANCH   9  10
ENDBRANCH   8   9
ENDBRANCH   6   8
TORSDOF 3
ENDMDL
MODEL 9
REMARK VINA RESULT:      -4.5     10.655     11.504
REMARK  3 active torsions:
REMARK  status: ('A' for Active; 'I' for Inactive)
REMARK    1  A    between atoms: C8_8  and  C10_10 
REMARK    2  A    between atoms: C9_9  and  C11_11 
REMARK    3  A    between atoms: C10_10  and  C11_11 
ROOT
HETATM    1  C1  UNL     1     -34.860  17.960   0.605  1.00 20.00     0.131 C 
HETATM    2  C2  UNL     1     -34.294  18.882   1.662  1.00 20.00     0.079 C 
HETATM    3  C3  UNL     1     -32.774  18.806   1.680  1.00 20.00     0.007 C 
HETATM    4  C4  UNL     1     -32.182  19.040   0.292  1.00 20.00     0.001 C 
HETATM    5  C5  UNL     1     -32.743  18.041  -0.719  1.00 20.00     0.012 C 
HETATM    6  C8  UNL     1     -34.271  18.107  -0.795  1.00 20.00     0.055 C 
HETATM    7  O12 UNL     1     -35.801  17.208   0.857  1.00 20.00    -0.298 OA
ENDROOT
BRANCH   6   8
HETATM    8  C10 UNL     1     -34.810  17.045  -1.749  1.00 20.00     0.012 C 
BRANCH   8   9
HETATM    9  C11 UNL     1     -33.713  16.522  -2.673  1.00 20.00     0.005 C 
BRANCH   9  10
HETATM   10  C9  UNL     1     -34.300  15.898  -3.928  1.00 20.00    -0.014 A 
HETATM   11  C6  UNL     1     -33.419  15.137  -4.880  1.00 20.00     0.005 A 
HETATM   12  C7  UNL     1     -34.430  14.404  -4.042  1.00 20.00     0.005 A 
ENDBRANCH   9  10
ENDBRANCH   8   9
ENDBRANCH   6   8
TORSDOF 3
ENDMDL
