MODEL 1
REMARK VINA RESULT:      -4.8      0.000      0.000
REMARK  3 active torsions:
REMARK  status: ('A' for Active; 'I' for Inactive)
REMARK    1  A    between atoms: C2_2  and  C10_10 
REMARK    2  A    between atoms: C3_3  and  C8_8 
REMARK    3  A    between atoms: C8_8  and  C10_10 
ROOT
HETATM    1  C4  UNL     1     -34.474  15.987  -7.342  1.00 20.00     0.001 C 
HETATM    2  C5  UNL     1     -35.919  16.297  -6.990  1.00 20.00     0.001 C 
HETATM    3  C6  UNL     1     -34.148  14.718  -6.554  1.00 20.00     0.021 C 
HETATM    4  C7  UNL     1     -35.988  15.957  -5.507  1.00 20.00     0.021 C 
HETATM    5  C8  UNL     1     -35.132  14.687  -5.368  1.00 20.00     0.055 C 
ENDROOT
BRANCH   5   6
HETATM    6  C3  UNL     1     -36.009  13.466  -5.488  1.00 20.00     0.182 C 
HETATM    7  O11 UNL     1     -37.164  13.581  -4.991  1.00 20.00    -0.647 OA
HETATM    8  O12 UNL     1     -35.472  12.484  -6.072  1.00 20.00    -0.647 OA
ENDBRANCH   5   6
BRANCH   5   9
HETATM    9  C10 UNL     1     -34.416  14.634  -4.021  1.00 20.00     0.022 C 
HETATM   10  C9  UNL     1     -32.908  14.440  -4.214  1.00 20.00     0.015 C 
BRANCH   9  11
HETATM   11  C2  UNL     1     -34.675  15.894  -3.231  1.00 20.00    -0.031 C 
HETATM   12  C1  UNL     1     -33.713  16.660  -2.703  1.00 20.00     0.007 C 
ENDBRANCH   9  11
ENDBRANCH   5   9
TORSDOF 3
ENDMDL
MODEL 2
REMARK VINA RESULT:      -4.5      0.975      1.268
REMARK  3 active torsions:
REMARK  status: ('A' for Active; 'I' for Inactive)
REMARK    1  A    between atoms: C2_2  and  C10_10 
REMARK    2  A    between atoms: C3_3  and  C8_8 
REMARK    3  A    between atoms: C8_8  and  C10_10 
ROOT
HETATM    1  C4  UNL     1     -36.221  17.004  -6.260  1.00 20.00     0.001 C 
HETATM    2  C5  UNL     1     -37.425  16.183  -5.831  1.00 20.00     0.001 C 
HETATM    3  C6  UNL     1     -35.040  16.040  -6.162  1.00 20.00     0.021 C 
HETATM    4  C7  UNL     1     -36.873  15.343  -4.688  1.00 20.00     0.021 C 
HETATM    5  C8  UNL     1     -35.459  14.953  -5.151  1.00 20.00     0.055 C 
ENDROOT
BRANCH   5   6
HETATM    6  C3  UNL     1     -35.501  13.619  -5.852  1.00 20.00     0.182 C 
HETATM    7  O11 UNL     1     -35.914  12.654  -5.151  1.00 20.00    -0.647 OA
HETATM    8  O12 UNL     1     -35.117  13.641  -7.055  1.00 20.00    -0.647 OA
ENDBRANCH   5   6
BRANCH   5   9
HETATM    9  C10 UNL     1     -34.490  14.849  -3.976  1.00 20.00     0.022 C 
HETATM   10  C9  UNL     1     -33.038  14.833  -4.469  1.00 20.00     0.015 C 
BRANCH   9  11
HETATM   11  C2  UNL     1     -34.694  15.994  -3.015  1.00 20.00    -0.031 C 
HETATM   12  C1  UNL     1     -33.705  16.761  -2.540  1.00 20.00     0.007 C 
ENDBRANCH   9  11
ENDBRANCH   5   9
TORSDOF 3
ENDMDL
MODEL 3
REMARK VINA RESULT:      -4.3      1.715      2.306
REMARK  3 active torsions:
REMARK  status: ('A' for Active; 'I' for Inactive)
REMARK    1  A    between atoms: C2_2  and  C10_10 
REMARK    2  A    between atoms: C3_3  and  C8_8 
REMARK    3  A    between atoms: C8_8  and  C10_10 
ROOT
HETATM    1  C4  UNL     1     -33.877  17.032  -6.276  1.00 20.00     0.001 C 
HETATM    2  C5  UNL     1     -35.103  16.193  -6.593  1.00 20.00     0.001 C 
HETATM    3  C6  UNL     1     -33.261  16.366  -5.047  1.00 20.00     0.021 C 
HETATM    4  C7  UNL     1     -35.655  15.863  -5.214  1.00 20.00     0.021 C 
HETATM    5  C8  UNL     1     -34.406  15.598  -4.357  1.00 20.00     0.055 C 
ENDROOT
BRANCH   5   6
HETATM    6  C3  UNL     1     -34.085  14.125  -4.366  1.00 20.00     0.182 C 
HETATM    7  O11 UNL     1     -32.859  13.840  -4.270  1.00 20.00    -0.647 OA
HETATM    8  O12 UNL     1     -35.088  13.365  -4.468  1.00 20.00    -0.647 OA
ENDBRANCH   5   6
BRANCH   5   9
HETATM    9  C10 UNL     1     -34.611  16.037  -2.910  1.00 20.00     0.022 C 
HETATM   10  C9  UNL     1     -33.545  17.058  -2.495  1.00 20.00     0.015 C 
BRANCH   9  11
HETATM   11  C2  UNL     1     -35.987  16.628  -2.723  1.00 20.00    -0.031 C 
HETATM   12  C1  UNL     1     -36.248  17.703  -1.969  1.00 20.00     0.007 C 
ENDBRANCH   9  11
ENDBRANCH   5   9
TORSDOF 3
ENDMDL
MODEL 4
REMARK VINA RESULT:      -4.3      1.372      2.262
REMARK  3 active torsions:
REMARK  status: ('A' for Active; 'I' for Inactive)
REMARK    1  A    between atoms: C2_2  and  C10_10 
REMARK    2  A    between atoms: C3_3  and  C8_8 
REMARK    3  A    between atoms: C8_8  and  C10_10 
ROOT
HETATM    1  C4  UNL     1     -33.259  15.095  -5.250  1.00 20.00     0.001 C 
HETATM    2  C5  UNL     1     -34.048  15.174  -6.545  1.00 20.00     0.001 C 
HETATM    3  C6  UNL     1     -34.274  14.633  -4.206  1.00 20.00     0.021 C 
HETATM    4  C7  UNL     1     -35.389  15.735  -6.093  1.00 20.00     0.021 C 
HETATM    5  C8  UNL     1     -35.660  15.036  -4.750  1.00 20.00     0.055 C 
ENDROOT
BRANCH   5   6
HETATM    6  C3  UNL     1     -36.479  13.791  -4.980  1.00 20.00     0.182 C 
HETATM    7  O11 UNL     1     -37.730  13.953  -4.940  1.00 20.00    -0.647 OA
HETATM    8  O12 UNL     1     -35.804  12.743  -5.182  1.00 20.00    -0.647 OA
ENDBRANCH   5   6
BRANCH   5   9
HETATM    9  C10 UNL     1     -36.421  15.942  -3.786  1.00 20.00     0.022 C 
HETATM   10  C9  UNL     1     -35.568  16.265  -2.555  1.00 20.00     0.015 C 
BRANCH   9  11
HETATM   11  C2  UNL     1     -36.836  17.220  -4.473  1.00 20.00    -0.031 C 
HETATM   12  C1  UNL     1     -36.734  18.436  -3.923  1.00 20.00     0.007 C 
ENDBRANCH   9  11
ENDBRANCH   5   9
TORSDOF 3
ENDMDL
MODEL 5
REMARK VINA RESULT:      -4.2      2.015      2.823
REMARK  3 active torsions:
REMARK  status: ('A' for Active; 'I' for Inactive)
REMARK    1  A    between atoms: C2_2  and  C10_10 
REMARK    2  A    between atoms: C3_3  and  C8_8 
REMARK    3  A    between atoms: C8_8  and  C10_10 
ROOT
HETATM    1  C4  UNL     1     -36.030  17.220  -5.606  1.00 20.00     0.001 C 
HETATM    2  C5  UNL     1     -36.502  15.787  -5.432  1.00 20.00     0.001 C 
HETATM    3  C6  UNL     1     -34.608  17.229  -5.047  1.00 20.00     0.021 C 
HETATM    4  C7  UNL     1     -35.924  15.400  -4.078  1.00 20.00     0.021 C 
HETATM    5  C8  UNL     1     -34.528  16.045  -4.062  1.00 20.00     0.055 C 
ENDROOT
BRANCH   5   6
HETATM    6  C3  UNL     1     -33.504  15.057  -4.562  1.00 20.00     0.182 C 
HETATM    7  O11 UNL     1     -33.691  13.861  -4.206  1.00 20.00    -0.647 OA
HETATM    8  O12 UNL     1     -32.590  15.557  -5.274  1.00 20.00    -0.647 OA
ENDBRANCH   5   6
BRANCH   5   9
HETATM    9  C10 UNL     1     -34.126  16.485  -2.657  1.00 20.00     0.022 C 
HETATM   10  C9  UNL     1     -33.351  17.807  -2.702  1.00 20.00     0.015 C 
BRANCH   9  11
HETATM   11  C2  UNL     1     -35.343  16.633  -1.777  1.00 20.00    -0.031 C 
HETATM   12  C1  UNL     1     -35.356  17.305  -0.620  1.00 20.00     0.007 C 
ENDBRANCH   9  11
ENDBRANCH   5   9
TORSDOF 3
ENDMDL
MODEL 6
REMARK VINA RESULT:      -4.2      0.786      3.412
REMARK  3 active torsions:
REMARK  status: ('A' for Active; 'I' for Inactive)
REMARK    1  A    between atoms: C2_2  and  C10_10 
REMARK    2  A    between atoms: C3_3  and  C8_8 
REMARK    3  A    between atoms: C8_8  and  C10_10 
ROOT
HETATM    1  C4  UNL     1     -34.539  15.914  -3.428  1.00 20.00     0.001 C 
HETATM    2  C5  UNL     1     -33.657  14.743  -3.825  1.00 20.00     0.001 C 
HETATM    3  C6  UNL     1     -35.817  15.730  -4.246  1.00 20.00     0.021 C 
HETATM    4  C7  UNL     1     -33.915  14.614  -5.320  1.00 20.00     0.021 C 
HETATM    5  C8  UNL     1     -35.422  14.879  -5.470  1.00 20.00     0.055 C 
ENDROOT
BRANCH   5   6
HETATM    6  C3  UNL     1     -36.176  13.574  -5.426  1.00 20.00     0.182 C 
HETATM    7  O11 UNL     1     -35.540  12.569  -5.850  1.00 20.00    -0.647 OA
HETATM    8  O12 UNL     1     -37.350  13.657  -4.971  1.00 20.00    -0.647 OA
ENDBRANCH   5   6
BRANCH   5   9
HETATM    9  C10 UNL     1     -35.743  15.577  -6.790  1.00 20.00     0.022 C 
HETATM   10  C9  UNL     1     -36.538  16.864  -6.545  1.00 20.00     0.015 C 
BRANCH   9  11
HETATM   11  C2  UNL     1     -34.476  15.891  -7.547  1.00 20.00    -0.031 C 
HETATM   12  C1  UNL     1     -34.102  17.125  -7.904  1.00 20.00     0.007 C 
ENDBRANCH   9  11
ENDBRANCH   5   9
TORSDOF 3
ENDMDL
MODEL 7
REMARK VINA RESULT:      -4.1      1.875      3.424
REMARK  3 active torsions:
REMARK  status: ('A' for Active; 'I' for Inactive)
REMARK    1  A    between atoms: C2_2  and  C10_10 
REMARK    2  A    between atoms: C3_3  and  C8_8 
REMARK    3  A    between atoms: C8_8  and  C10_10 
ROOT
HETATM    1  C4  UNL     1     -36.211  16.609  -3.305  1.00 20.00     0.001 C 
HETATM    2  C5  UNL     1     -35.121  16.359  -2.278  1.00 20.00     0.001 C 
HETATM    3  C6  UNL     1     -35.769  15.821  -4.537  1.00 20.00     0.021 C 
HETATM    4  C7  UNL     1     -33.851  16.384  -3.117  1.00 20.00     0.021 C 
HETATM    5  C8  UNL     1     -34.240  15.663  -4.418  1.00 20.00     0.055 C 
ENDROOT
BRANCH   5   6
HETATM    6  C3  UNL     1     -33.905  14.197  -4.307  1.00 20.00     0.182 C 
HETATM    7  O11 UNL     1     -32.675  13.931  -4.211  1.00 20.00    -0.647 OA
HETATM    8  O12 UNL     1     -34.902  13.423  -4.326  1.00 20.00    -0.647 OA
ENDBRANCH   5   6
BRANCH   5   9
HETATM    9  C10 UNL     1     -33.501  16.236  -5.624  1.00 20.00     0.022 C 
HETATM   10  C9  UNL     1     -34.050  15.646  -6.928  1.00 20.00     0.015 C 
BRANCH   9  11
HETATM   11  C2  UNL     1     -33.616  17.740  -5.652  1.00 20.00    -0.031 C 
HETATM   12  C1  UNL     1     -34.127  18.436  -6.675  1.00 20.00     0.007 C 
ENDBRANCH   9  11
ENDBRANCH   5   9
TORSDOF 3
ENDMDL
MODEL 8
REMARK VINA RESULT:      -4.1      1.047      3.279
REMARK  3 active torsions:
REMARK  status: ('A' for Active; 'I' for Inactive)
REMARK    1  A    between atoms: C2_2  and  C10_10 
REMARK    2  A    between atoms: C3_3  and  C8_8 
REMARK    3  A    between atoms: C8_8  and  C10_10 
ROOT
HETATM    1  C4  UNL     1     -34.795  15.710  -3.554  1.00 20.00     0.001 C 
HETATM    2  C5  UNL     1     -33.542  14.907  -3.856  1.00 20.00     0.001 C 
HETATM    3  C6  UNL     1     -35.785  15.308  -4.646  1.00 20.00     0.021 C 
HETATM    4  C7  UNL     1     -33.472  14.946  -5.377  1.00 20.00     0.021 C 
HETATM    5  C8  UNL     1     -34.934  14.802  -5.829  1.00 20.00     0.055 C 
ENDROOT
BRANCH   5   6
HETATM    6  C3  UNL     1     -35.251  13.349  -6.076  1.00 20.00     0.182 C 
HETATM    7  O11 UNL     1     -36.023  12.814  -5.232  1.00 20.00    -0.647 OA
HETATM    8  O12 UNL     1     -34.700  12.853  -7.098  1.00 20.00    -0.647 OA
ENDBRANCH   5   6
BRANCH   5   9
HETATM    9  C10 UNL     1     -35.207  15.579  -7.114  1.00 20.00     0.022 C 
HETATM   10  C9  UNL     1     -36.495  16.402  -6.989  1.00 20.00     0.015 C 
BRANCH   9  11
HETATM   11  C2  UNL     1     -34.047  16.487  -7.442  1.00 20.00    -0.031 C 
HETATM   12  C1  UNL     1     -34.120  17.823  -7.457  1.00 20.00     0.007 C 
ENDBRANCH   9  11
ENDBRANCH   5   9
TORSDOF 3
ENDMDL
MODEL 9
REMARK VINA RESULT:      -4.1      2.224      3.061
REMARK  3 active torsions:
REMARK  status: ('A' for Active; 'I' for Inactive)
REMARK    1  A    between atoms: C2_2  and  C10_10 
REMARK    2  A    between atoms: C3_3  and  C8_8 
REMARK    3  A    between atoms: C8_8  and  C10_10 
ROOT
HETATM    1  C4  UNL     1     -36.588  15.036  -5.213  1.00 20.00     0.001 C 
HETATM    2  C5  UNL     1     -35.773  13.764  -5.060  1.00 20.00     0.001 C 
HETATM    3  C6  UNL     1     -35.553  16.161  -5.218  1.00 20.00     0.021 C 
HETATM    4  C7  UNL     1     -34.688  14.172  -4.072  1.00 20.00     0.021 C 
HETATM    5  C8  UNL     1     -34.314  15.604  -4.488  1.00 20.00     0.055 C 
ENDROOT
BRANCH   5   6
HETATM    6  C3  UNL     1     -33.152  15.569  -5.448  1.00 20.00     0.182 C 
HETATM    7  O11 UNL     1     -33.364  16.108  -6.571  1.00 20.00    -0.647 OA
HETATM    8  O12 UNL     1     -32.115  15.003  -5.004  1.00 20.00    -0.647 OA
ENDBRANCH   5   6
BRANCH   5   9
HETATM    9  C10 UNL     1     -33.918  16.456  -3.285  1.00 20.00     0.022 C 
HETATM   10  C9  UNL     1     -33.635  17.901  -3.711  1.00 20.00     0.015 C 
BRANCH   9  11
HETATM   11  C2  UNL     1     -35.005  16.434  -2.237  1.00 20.00    -0.031 C 
HETATM   12  C1  UNL     1     -34.959  17.125  -1.092  1.00 20.00     0.007 C 
ENDBRANCH   9  11
ENDBRANCH   5   9
TORSDOF 3
ENDMDL
