MODEL 1
REMARK VINA RESULT:      -5.6      0.000      0.000
REMARK  4 active torsions:
REMARK  status: ('A' for Active; 'I' for Inactive)
REMARK    1  A    between atoms: C1_1  and  C10_10 
REMARK    2  A    between atoms: C5_5  and  C9_9 
REMARK    3  A    between atoms: C9_9  and  C10_10 
REMARK    4  A    between atoms: C10_10  and  C11_11 
ROOT
HETATM    1  C10 UNL     1     -33.674   7.066   3.620  1.00 20.00     0.058 C 
ENDROOT
BRANCH   1   2
HETATM    2  C1  UNL     1     -33.909   5.903   2.650  1.00 20.00     0.127 C 
HETATM    3  C6  UNL     1     -32.896   4.786   2.670  1.00 20.00     0.091 C 
HETATM    4  O12 UNL     1     -34.883   5.856   1.898  1.00 20.00    -0.298 OA
ENDBRANCH   1   2
BRANCH   1   5
HETATM    5  C9  UNL     1     -32.464   7.913   3.186  1.00 20.00     0.017 C 
BRANCH   5   6
HETATM    6  C5  UNL     1     -32.664   8.466   1.791  1.00 20.00    -0.014 C 
HETATM    7  C3  UNL     1     -31.389   8.655   0.928  1.00 20.00     0.005 C 
HETATM    8  C2  UNL     1     -32.047   9.933   0.368  1.00 20.00     0.001 C 
HETATM    9  C4  UNL     1     -32.864  10.000   1.674  1.00 20.00     0.005 C 
ENDBRANCH   5   6
ENDBRANCH   1   5
BRANCH   1  10
HETATM   10  C11 UNL     1     -33.578   6.517   5.067  1.00 20.00    -0.012 C 
HETATM   11  C7  UNL     1     -34.697   5.535   5.427  1.00 20.00     0.010 C 
HETATM   12  C8  UNL     1     -33.536   7.653   6.093  1.00 20.00     0.010 C 
ENDBRANCH   1  10
TORSDOF 4
ENDMDL
MODEL 2
REMARK VINA RESULT:      -5.2     10.104     11.130
REMARK  4 active torsions:
REMARK  status: ('A' for Active; 'I' for Inactive)
REMARK    1  A    between atoms: C1_1  and  C10_10 
REMARK    2  A    between atoms: C5_5  and  C9_9 
REMARK    3  A    between atoms: C9_9  and  C10_10 
REMARK    4  A    between atoms: C10_10  and  C11_11 
ROOT
HETATM    1  C10 UNL     1     -34.822  14.552  -4.091  1.00 20.00     0.058 C 
ENDROOT
BRANCH   1   2
HETATM    2  C1  UNL     1     -35.961  13.862  -4.848  1.00 20.00     0.127 C 
HETATM    3  C6  UNL     1     -37.236  14.649  -5.024  1.00 20.00     0.091 C 
HETATM    4  O12 UNL     1     -35.852  12.727  -5.315  1.00 20.00    -0.298 OA
ENDBRANCH   1   2
BRANCH   1   5
HETATM    5  C9  UNL     1     -35.235  15.964  -3.636  1.00 20.00     0.017 C 
BRANCH   5   6
HETATM    6  C5  UNL     1     -34.760  16.235  -2.223  1.00 20.00    -0.014 C 
HETATM    7  C3  UNL     1     -35.585  17.257  -1.397  1.00 20.00     0.005 C 
HETATM    8  C2  UNL     1     -34.249  17.732  -0.790  1.00 20.00     0.001 C 
HETATM    9  C4  UNL     1     -33.562  17.208  -2.067  1.00 20.00     0.005 C 
ENDBRANCH   5   6
ENDBRANCH   1   5
BRANCH   1  10
HETATM   10  C11 UNL     1     -33.535  14.516  -4.956  1.00 20.00    -0.012 C 
HETATM   11  C7  UNL     1     -32.291  14.059  -4.187  1.00 20.00     0.010 C 
HETATM   12  C8  UNL     1     -33.267  15.873  -5.615  1.00 20.00     0.010 C 
ENDBRANCH   1  10
TORSDOF 4
ENDMDL
MODEL 3
REMARK VINA RESULT:      -5.2      1.439      2.496
REMARK  4 active torsions:
REMARK  status: ('A' for Active; 'I' for Inactive)
REMARK    1  A    between atoms: C1_1  and  C10_10 
REMARK    2  A    between atoms: C5_5  and  C9_9 
REMARK    3  A    between atoms: C9_9  and  C10_10 
REMARK    4  A    between atoms: C10_10  and  C11_11 
ROOT
HETATM    1  C10 UNL     1     -32.759   6.830   3.877  1.00 20.00     0.058 C 
ENDROOT
BRANCH   1   2
HETATM    2  C1  UNL     1     -33.591   7.109   5.133  1.00 20.00     0.127 C 
HETATM    3  C6  UNL     1     -34.197   5.914   5.827  1.00 20.00     0.091 C 
HETATM    4  O12 UNL     1     -33.753   8.245   5.580  1.00 20.00    -0.298 OA
ENDBRANCH   1   2
BRANCH   1   5
HETATM    5  C9  UNL     1     -32.072   8.111   3.371  1.00 20.00     0.017 C 
BRANCH   5   6
HETATM    6  C5  UNL     1     -32.551   8.467   1.979  1.00 20.00    -0.014 C 
HETATM    7  C3  UNL     1     -31.465   8.576   0.878  1.00 20.00     0.005 C 
HETATM    8  C2  UNL     1     -32.280   9.748   0.293  1.00 20.00     0.001 C 
HETATM    9  C4  UNL     1     -32.851   9.965   1.709  1.00 20.00     0.005 C 
ENDBRANCH   5   6
ENDBRANCH   1   5
BRANCH   1  10
HETATM   10  C11 UNL     1     -33.648   6.126   2.818  1.00 20.00    -0.012 C 
HETATM   11  C7  UNL     1     -35.134   6.095   3.187  1.00 20.00     0.010 C 
HETATM   12  C8  UNL     1     -33.155   4.705   2.533  1.00 20.00     0.010 C 
ENDBRANCH   1  10
TORSDOF 4
ENDMDL
MODEL 4
REMARK VINA RESULT:      -5.0     10.629     11.699
REMARK  4 active torsions:
REMARK  status: ('A' for Active; 'I' for Inactive)
REMARK    1  A    between atoms: C1_1  and  C10_10 
REMARK    2  A    between atoms: C5_5  and  C9_9 
REMARK    3  A    between atoms: C9_9  and  C10_10 
REMARK    4  A    between atoms: C10_10  and  C11_11 
ROOT
HETATM    1  C10 UNL     1     -35.177  14.962  -4.588  1.00 20.00     0.058 C 
ENDROOT
BRANCH   1   2
HETATM    2  C1  UNL     1     -36.228  13.925  -4.994  1.00 20.00     0.127 C 
HETATM    3  C6  UNL     1     -37.655  14.405  -5.088  1.00 20.00     0.091 C 
HETATM    4  O12 UNL     1     -35.939  12.756  -5.253  1.00 20.00    -0.298 OA
ENDBRANCH   1   2
BRANCH   1   5
HETATM    5  C9  UNL     1     -35.755  15.975  -3.584  1.00 20.00     0.017 C 
BRANCH   5   6
HETATM    6  C5  UNL     1     -34.799  16.198  -2.431  1.00 20.00    -0.014 C 
HETATM    7  C3  UNL     1     -35.334  17.026  -1.234  1.00 20.00     0.005 C 
HETATM    8  C2  UNL     1     -33.921  17.635  -1.118  1.00 20.00     0.001 C 
HETATM    9  C4  UNL     1     -33.737  17.315  -2.615  1.00 20.00     0.005 C 
ENDBRANCH   5   6
ENDBRANCH   1   5
BRANCH   1  10
HETATM   10  C11 UNL     1     -34.573  15.607  -5.863  1.00 20.00    -0.012 C 
HETATM   11  C7  UNL     1     -33.044  15.695  -5.843  1.00 20.00     0.010 C 
HETATM   12  C8  UNL     1     -35.168  16.995  -6.121  1.00 20.00     0.010 C 
ENDBRANCH   1  10
TORSDOF 4
ENDMDL
MODEL 5
REMARK VINA RESULT:      -4.8     10.627     12.058
REMARK  4 active torsions:
REMARK  status: ('A' for Active; 'I' for Inactive)
REMARK    1  A    between atoms: C1_1  and  C10_10 
REMARK    2  A    between atoms: C5_5  and  C9_9 
REMARK    3  A    between atoms: C9_9  and  C10_10 
REMARK    4  A    between atoms: C10_10  and  C11_11 
ROOT
HETATM    1  C10 UNL     1     -35.007  14.988  -5.510  1.00 20.00     0.058 C 
ENDROOT
BRANCH   1   2
HETATM    2  C1  UNL     1     -35.440  13.588  -5.957  1.00 20.00     0.127 C 
HETATM    3  C6  UNL     1     -35.172  13.221  -7.395  1.00 20.00     0.091 C 
HETATM    4  O12 UNL     1     -35.965  12.782  -5.189  1.00 20.00    -0.298 OA
ENDBRANCH   1   2
BRANCH   1   5
HETATM    5  C9  UNL     1     -35.765  15.426  -4.244  1.00 20.00     0.017 C 
BRANCH   5   6
HETATM    6  C5  UNL     1     -34.806  15.667  -3.097  1.00 20.00    -0.014 C 
HETATM    7  C3  UNL     1     -35.258  16.680  -2.014  1.00 20.00     0.005 C 
HETATM    8  C2  UNL     1     -33.786  17.133  -1.928  1.00 20.00     0.001 C 
HETATM    9  C4  UNL     1     -33.619  16.628  -3.374  1.00 20.00     0.005 C 
ENDBRANCH   5   6
ENDBRANCH   1   5
BRANCH   1  10
HETATM   10  C11 UNL     1     -35.142  15.972  -6.702  1.00 20.00    -0.012 C 
HETATM   11  C7  UNL     1     -33.828  16.661  -7.082  1.00 20.00     0.010 C 
HETATM   12  C8  UNL     1     -36.222  17.026  -6.435  1.00 20.00     0.010 C 
ENDBRANCH   1  10
TORSDOF 4
ENDMDL
MODEL 6
REMARK VINA RESULT:      -4.6      1.558      2.805
REMARK  4 active torsions:
REMARK  status: ('A' for Active; 'I' for Inactive)
REMARK    1  A    between atoms: C1_1  and  C10_10 
REMARK    2  A    between atoms: C5_5  and  C9_9 
REMARK    3  A    between atoms: C9_9  and  C10_10 
REMARK    4  A    between atoms: C10_10  and  C11_11 
ROOT
HETATM    1  C10 UNL     1     -33.304   6.855   3.848  1.00 20.00     0.058 C 
ENDROOT
BRANCH   1   2
HETATM    2  C1  UNL     1     -33.738   6.830   5.317  1.00 20.00     0.127 C 
HETATM    3  C6  UNL     1     -34.552   5.641   5.764  1.00 20.00     0.091 C 
HETATM    4  O12 UNL     1     -33.432   7.718   6.113  1.00 20.00    -0.298 OA
ENDBRANCH   1   2
BRANCH   1   5
HETATM    5  C9  UNL     1     -33.632   8.211   3.196  1.00 20.00     0.017 C 
BRANCH   5   6
HETATM    6  C5  UNL     1     -32.425   8.767   2.470  1.00 20.00    -0.014 C 
HETATM    7  C3  UNL     1     -32.694   9.885   1.430  1.00 20.00     0.005 C 
HETATM    8  C2  UNL     1     -31.576   9.256   0.574  1.00 20.00     0.001 C 
HETATM    9  C4  UNL     1     -31.873   7.924   1.291  1.00 20.00     0.005 C 
ENDBRANCH   5   6
ENDBRANCH   1   5
BRANCH   1  10
HETATM   10  C11 UNL     1     -33.911   5.633   3.111  1.00 20.00    -0.012 C 
HETATM   11  C7  UNL     1     -32.862   4.648   2.587  1.00 20.00     0.010 C 
HETATM   12  C8  UNL     1     -34.828   6.072   1.965  1.00 20.00     0.010 C 
ENDBRANCH   1  10
TORSDOF 4
ENDMDL
MODEL 7
REMARK VINA RESULT:      -4.5      1.875      4.864
REMARK  4 active torsions:
REMARK  status: ('A' for Active; 'I' for Inactive)
REMARK    1  A    between atoms: C1_1  and  C10_10 
REMARK    2  A    between atoms: C5_5  and  C9_9 
REMARK    3  A    between atoms: C9_9  and  C10_10 
REMARK    4  A    between atoms: C10_10  and  C11_11 
ROOT
HETATM    1  C10 UNL     1     -32.881   8.339   2.434  1.00 20.00     0.058 C 
ENDROOT
BRANCH   1   2
HETATM    2  C1  UNL     1     -31.835   8.311   3.552  1.00 20.00     0.127 C 
HETATM    3  C6  UNL     1     -32.347   8.433   4.965  1.00 20.00     0.091 C 
HETATM    4  O12 UNL     1     -30.631   8.177   3.328  1.00 20.00    -0.298 OA
ENDBRANCH   1   2
BRANCH   1   5
HETATM    5  C9  UNL     1     -33.330   6.915   2.058  1.00 20.00     0.017 C 
BRANCH   5   6
HETATM    6  C5  UNL     1     -33.422   6.036   3.287  1.00 20.00    -0.014 C 
HETATM    7  C3  UNL     1     -33.424   4.504   3.048  1.00 20.00     0.005 C 
HETATM    8  C2  UNL     1     -34.428   4.397   4.214  1.00 20.00     0.001 C 
HETATM    9  C4  UNL     1     -34.833   5.853   3.906  1.00 20.00     0.005 C 
ENDBRANCH   5   6
ENDBRANCH   1   5
BRANCH   1  10
HETATM   10  C11 UNL     1     -32.337   9.168   1.241  1.00 20.00    -0.012 C 
HETATM   11  C7  UNL     1     -32.528  10.679   1.405  1.00 20.00     0.010 C 
HETATM   12  C8  UNL     1     -32.952   8.708  -0.084  1.00 20.00     0.010 C 
ENDBRANCH   1  10
TORSDOF 4
ENDMDL
MODEL 8
REMARK VINA RESULT:      -4.3      1.813      4.882
REMARK  4 active torsions:
REMARK  status: ('A' for Active; 'I' for Inactive)
REMARK    1  A    between atoms: C1_1  and  C10_10 
REMARK    2  A    between atoms: C5_5  and  C9_9 
REMARK    3  A    between atoms: C9_9  and  C10_10 
REMARK    4  A    between atoms: C10_10  and  C11_11 
ROOT
HETATM    1  C10 UNL     1     -32.874   7.936   2.735  1.00 20.00     0.058 C 
ENDROOT
BRANCH   1   2
HETATM    2  C1  UNL     1     -31.706   8.283   3.663  1.00 20.00     0.127 C 
HETATM    3  C6  UNL     1     -32.058   8.820   5.028  1.00 20.00     0.091 C 
HETATM    4  O12 UNL     1     -30.530   8.121   3.334  1.00 20.00    -0.298 OA
ENDBRANCH   1   2
BRANCH   1   5
HETATM    5  C9  UNL     1     -33.000   6.413   2.547  1.00 20.00     0.017 C 
BRANCH   5   6
HETATM    6  C5  UNL     1     -34.180   5.868   3.325  1.00 20.00    -0.014 C 
HETATM    7  C3  UNL     1     -34.328   6.351   4.791  1.00 20.00     0.005 C 
HETATM    8  C2  UNL     1     -34.822   4.929   5.131  1.00 20.00     0.001 C 
HETATM    9  C4  UNL     1     -34.030   4.437   3.903  1.00 20.00     0.005 C 
ENDBRANCH   5   6
ENDBRANCH   1   5
BRANCH   1  10
HETATM   10  C11 UNL     1     -32.732   8.729   1.410  1.00 20.00    -0.012 C 
HETATM   11  C7  UNL     1     -31.437   8.427   0.650  1.00 20.00     0.010 C 
HETATM   12  C8  UNL     1     -32.853  10.237   1.647  1.00 20.00     0.010 C 
ENDBRANCH   1  10
TORSDOF 4
ENDMDL
MODEL 9
REMARK VINA RESULT:      -4.3     10.866     12.064
REMARK  4 active torsions:
REMARK  status: ('A' for Active; 'I' for Inactive)
REMARK    1  A    between atoms: C1_1  and  C10_10 
REMARK    2  A    between atoms: C5_5  and  C9_9 
REMARK    3  A    between atoms: C9_9  and  C10_10 
REMARK    4  A    between atoms: C10_10  and  C11_11 
ROOT
HETATM    1  C10 UNL     1     -35.820  14.800  -5.360  1.00 20.00     0.058 C 
ENDROOT
BRANCH   1   2
HETATM    2  C1  UNL     1     -37.350  14.792  -5.278  1.00 20.00     0.127 C 
HETATM    3  C6  UNL     1     -38.054  16.088  -5.592  1.00 20.00     0.091 C 
HETATM    4  O12 UNL     1     -37.992  13.781  -4.989  1.00 20.00    -0.298 OA
ENDBRANCH   1   2
BRANCH   1   5
HETATM    5  C9  UNL     1     -35.239  16.096  -4.766  1.00 20.00     0.017 C 
BRANCH   5   6
HETATM    6  C5  UNL     1     -35.006  15.949  -3.277  1.00 20.00    -0.014 C 
HETATM    7  C3  UNL     1     -35.839  16.870  -2.348  1.00 20.00     0.005 C 
HETATM    8  C2  UNL     1     -34.591  16.966  -1.446  1.00 20.00     0.001 C 
HETATM    9  C4  UNL     1     -33.749  16.649  -2.698  1.00 20.00     0.005 C 
ENDBRANCH   5   6
ENDBRANCH   1   5
BRANCH   1  10
HETATM   10  C11 UNL     1     -35.384  14.521  -6.822  1.00 20.00    -0.012 C 
HETATM   11  C7  UNL     1     -35.128  13.040  -7.116  1.00 20.00     0.010 C 
HETATM   12  C8  UNL     1     -34.149  15.345  -7.202  1.00 20.00     0.010 C 
ENDBRANCH   1  10
TORSDOF 4
ENDMDL
