MODEL 1
REMARK VINA RESULT:      -5.1      0.000      0.000
REMARK  4 active torsions:
REMARK  status: ('A' for Active; 'I' for Inactive)
REMARK    1  A    between atoms: C1_1  and  C7_7 
REMARK    2  A    between atoms: C6_6  and  C8_8 
REMARK    3  A    between atoms: C6_6  and  O10_10 
REMARK    4  A    between atoms: C7_7  and  C8_8 
ROOT
HETATM    1  C3  UNL     1     -33.529   7.448   5.920  1.00 20.00     0.018 C 
HETATM    2  C7  UNL     1     -33.887   7.087   4.476  1.00 20.00     0.056 C 
ENDROOT
BRANCH   2   3
HETATM    3  C1  UNL     1     -34.846   5.894   4.446  1.00 20.00     0.127 C 
HETATM    4  C2  UNL     1     -34.541   4.744   5.374  1.00 20.00     0.091 C 
HETATM    5  O9  UNL     1     -35.814   5.846   3.686  1.00 20.00    -0.298 OA
ENDBRANCH   2   3
BRANCH   2   6
HETATM    6  C8  UNL     1     -32.662   6.833   3.564  1.00 20.00     0.016 C 
HETATM    7  C4  UNL     1     -33.053   6.010   2.328  1.00 20.00     0.013 C 
BRANCH   6   8
HETATM    8  C6  UNL     1     -31.944   8.125   3.144  1.00 20.00     0.172 C 
BRANCH   8   9
HETATM    9  O10 UNL     1     -31.990   8.259   1.728  1.00 20.00    -0.396 OA
HETATM   10  C5  UNL     1     -32.353   9.577   1.343  1.00 20.00     0.201 C 
ENDBRANCH   8   9
ENDBRANCH   6   8
ENDBRANCH   2   6
TORSDOF 4
ENDMDL
MODEL 2
REMARK VINA RESULT:      -4.9      0.947      2.032
REMARK  4 active torsions:
REMARK  status: ('A' for Active; 'I' for Inactive)
REMARK    1  A    between atoms: C1_1  and  C7_7 
REMARK    2  A    between atoms: C6_6  and  C8_8 
REMARK    3  A    between atoms: C6_6  and  O10_10 
REMARK    4  A    between atoms: C7_7  and  C8_8 
ROOT
HETATM    1  C3  UNL     1     -33.295   5.426   2.347  1.00 20.00     0.018 C 
HETATM    2  C7  UNL     1     -33.047   6.367   3.529  1.00 20.00     0.056 C 
ENDROOT
BRANCH   2   3
HETATM    3  C1  UNL     1     -34.234   6.333   4.496  1.00 20.00     0.127 C 
HETATM    4  C2  UNL     1     -34.023   6.935   5.863  1.00 20.00     0.091 C 
HETATM    5  O9  UNL     1     -35.312   5.819   4.198  1.00 20.00    -0.298 OA
ENDBRANCH   2   3
BRANCH   2   6
HETATM    6  C8  UNL     1     -32.708   7.821   3.123  1.00 20.00     0.016 C 
HETATM    7  C4  UNL     1     -31.351   8.255   3.698  1.00 20.00     0.013 C 
BRANCH   6   8
HETATM    8  C6  UNL     1     -32.745   8.047   1.604  1.00 20.00     0.172 C 
BRANCH   8   9
HETATM    9  O10 UNL     1     -31.909   9.147   1.263  1.00 20.00    -0.396 OA
HETATM   10  C5  UNL     1     -32.671  10.264   0.828  1.00 20.00     0.201 C 
ENDBRANCH   8   9
ENDBRANCH   6   8
ENDBRANCH   2   6
TORSDOF 4
ENDMDL
MODEL 3
REMARK VINA RESULT:      -4.7      1.122      4.317
REMARK  4 active torsions:
REMARK  status: ('A' for Active; 'I' for Inactive)
REMARK    1  A    between atoms: C1_1  and  C7_7 
REMARK    2  A    between atoms: C6_6  and  C8_8 
REMARK    3  A    between atoms: C6_6  and  O10_10 
REMARK    4  A    between atoms: C7_7  and  C8_8 
ROOT
HETATM    1  C3  UNL     1     -31.673   8.360   4.019  1.00 20.00     0.018 C 
HETATM    2  C7  UNL     1     -32.112   7.680   2.720  1.00 20.00     0.056 C 
ENDROOT
BRANCH   2   3
HETATM    3  C1  UNL     1     -32.297   8.718   1.610  1.00 20.00     0.127 C 
HETATM    4  C2  UNL     1     -31.373   8.623   0.421  1.00 20.00     0.091 C 
HETATM    5  O9  UNL     1     -33.139   9.613   1.679  1.00 20.00    -0.298 OA
ENDBRANCH   2   3
BRANCH   2   6
HETATM    6  C8  UNL     1     -33.373   6.794   2.862  1.00 20.00     0.016 C 
HETATM    7  C4  UNL     1     -33.067   5.332   2.502  1.00 20.00     0.013 C 
BRANCH   6   8
HETATM    8  C6  UNL     1     -34.019   6.881   4.253  1.00 20.00     0.172 C 
BRANCH   8   9
HETATM    9  O10 UNL     1     -34.916   5.792   4.434  1.00 20.00    -0.396 OA
HETATM   10  C5  UNL     1     -34.645   5.089   5.638  1.00 20.00     0.201 C 
ENDBRANCH   8   9
ENDBRANCH   6   8
ENDBRANCH   2   6
TORSDOF 4
ENDMDL
MODEL 4
REMARK VINA RESULT:      -4.5      1.488      2.146
REMARK  4 active torsions:
REMARK  status: ('A' for Active; 'I' for Inactive)
REMARK    1  A    between atoms: C1_1  and  C7_7 
REMARK    2  A    between atoms: C6_6  and  C8_8 
REMARK    3  A    between atoms: C6_6  and  O10_10 
REMARK    4  A    between atoms: C7_7  and  C8_8 
ROOT
HETATM    1  C3  UNL     1     -35.811   6.140   3.607  1.00 20.00     0.018 C 
HETATM    2  C7  UNL     1     -34.352   6.280   3.164  1.00 20.00     0.056 C 
ENDROOT
BRANCH   2   3
HETATM    3  C1  UNL     1     -33.614   4.949   3.327  1.00 20.00     0.127 C 
HETATM    4  C2  UNL     1     -34.105   4.020   4.410  1.00 20.00     0.091 C 
HETATM    5  O9  UNL     1     -32.644   4.644   2.632  1.00 20.00    -0.298 OA
ENDBRANCH   2   3
BRANCH   2   6
HETATM    6  C8  UNL     1     -33.584   7.427   3.865  1.00 20.00     0.016 C 
HETATM    7  C4  UNL     1     -33.587   7.244   5.390  1.00 20.00     0.013 C 
BRANCH   6   8
HETATM    8  C6  UNL     1     -32.148   7.596   3.347  1.00 20.00     0.172 C 
BRANCH   8   9
HETATM    9  O10 UNL     1     -32.173   7.896   1.956  1.00 20.00    -0.396 OA
HETATM   10  C5  UNL     1     -32.365   9.284   1.726  1.00 20.00     0.201 C 
ENDBRANCH   8   9
ENDBRANCH   6   8
ENDBRANCH   2   6
TORSDOF 4
ENDMDL
MODEL 5
REMARK VINA RESULT:      -4.3      1.424      2.041
REMARK  4 active torsions:
REMARK  status: ('A' for Active; 'I' for Inactive)
REMARK    1  A    between atoms: C1_1  and  C7_7 
REMARK    2  A    between atoms: C6_6  and  C8_8 
REMARK    3  A    between atoms: C6_6  and  O10_10 
REMARK    4  A    between atoms: C7_7  and  C8_8 
ROOT
HETATM    1  C3  UNL     1     -35.782   6.273   3.440  1.00 20.00     0.018 C 
HETATM    2  C7  UNL     1     -34.572   5.514   3.992  1.00 20.00     0.056 C 
ENDROOT
BRANCH   2   3
HETATM    3  C1  UNL     1     -34.416   5.777   5.492  1.00 20.00     0.127 C 
HETATM    4  C2  UNL     1     -33.835   7.108   5.899  1.00 20.00     0.091 C 
HETATM    5  O9  UNL     1     -34.724   4.941   6.342  1.00 20.00    -0.298 OA
ENDBRANCH   2   3
BRANCH   2   6
HETATM    6  C8  UNL     1     -33.248   5.798   3.242  1.00 20.00     0.016 C 
HETATM    7  C4  UNL     1     -32.843   4.605   2.363  1.00 20.00     0.013 C 
BRANCH   6   8
HETATM    8  C6  UNL     1     -33.291   7.088   2.410  1.00 20.00     0.172 C 
BRANCH   8   9
HETATM    9  O10 UNL     1     -32.132   7.869   2.677  1.00 20.00    -0.396 OA
HETATM   10  C5  UNL     1     -31.799   8.699   1.574  1.00 20.00     0.201 C 
ENDBRANCH   8   9
ENDBRANCH   6   8
ENDBRANCH   2   6
TORSDOF 4
ENDMDL
MODEL 6
REMARK VINA RESULT:      -4.1     11.029     12.066
REMARK  4 active torsions:
REMARK  status: ('A' for Active; 'I' for Inactive)
REMARK    1  A    between atoms: C1_1  and  C7_7 
REMARK    2  A    between atoms: C6_6  and  C8_8 
REMARK    3  A    between atoms: C6_6  and  O10_10 
REMARK    4  A    between atoms: C7_7  and  C8_8 
ROOT
HETATM    1  C3  UNL     1     -34.711  16.129  -2.963  1.00 20.00     0.018 C 
HETATM    2  C7  UNL     1     -34.700  14.847  -3.800  1.00 20.00     0.056 C 
ENDROOT
BRANCH   2   3
HETATM    3  C1  UNL     1     -33.340  14.665  -4.478  1.00 20.00     0.127 C 
HETATM    4  C2  UNL     1     -32.949  15.685  -5.518  1.00 20.00     0.091 C 
HETATM    5  O9  UNL     1     -32.596  13.719  -4.218  1.00 20.00    -0.298 OA
ENDBRANCH   2   3
BRANCH   2   6
HETATM    6  C8  UNL     1     -35.849  14.754  -4.833  1.00 20.00     0.016 C 
HETATM    7  C4  UNL     1     -35.936  13.345  -5.438  1.00 20.00     0.013 C 
BRANCH   6   8
HETATM    8  C6  UNL     1     -37.210  15.179  -4.262  1.00 20.00     0.172 C 
BRANCH   8   9
HETATM    9  O10 UNL     1     -38.217  14.275  -4.701  1.00 20.00    -0.396 OA
HETATM   10  C5  UNL     1     -39.274  14.954  -5.362  1.00 20.00     0.201 C 
ENDBRANCH   8   9
ENDBRANCH   6   8
ENDBRANCH   2   6
TORSDOF 4
ENDMDL
MODEL 7
REMARK VINA RESULT:      -4.1      1.311      4.534
REMARK  4 active torsions:
REMARK  status: ('A' for Active; 'I' for Inactive)
REMARK    1  A    between atoms: C1_1  and  C7_7 
REMARK    2  A    between atoms: C6_6  and  C8_8 
REMARK    3  A    between atoms: C6_6  and  O10_10 
REMARK    4  A    between atoms: C7_7  and  C8_8 
ROOT
HETATM    1  C3  UNL     1     -33.763   6.202   2.146  1.00 20.00     0.018 C 
HETATM    2  C7  UNL     1     -33.550   7.247   3.244  1.00 20.00     0.056 C 
ENDROOT
BRANCH   2   3
HETATM    3  C1  UNL     1     -32.239   8.003   3.015  1.00 20.00     0.127 C 
HETATM    4  C2  UNL     1     -32.139   8.841   1.764  1.00 20.00     0.091 C 
HETATM    5  O9  UNL     1     -31.288   7.923   3.793  1.00 20.00    -0.298 OA
ENDBRANCH   2   3
BRANCH   2   6
HETATM    6  C8  UNL     1     -33.615   6.678   4.682  1.00 20.00     0.016 C 
HETATM    7  C4  UNL     1     -33.544   7.802   5.726  1.00 20.00     0.013 C 
BRANCH   6   8
HETATM    8  C6  UNL     1     -34.847   5.794   4.927  1.00 20.00     0.172 C 
BRANCH   8   9
HETATM    9  O10 UNL     1     -34.436   4.526   5.425  1.00 20.00    -0.396 OA
HETATM   10  C5  UNL     1     -33.968   3.684   4.382  1.00 20.00     0.201 C 
ENDBRANCH   8   9
ENDBRANCH   6   8
ENDBRANCH   2   6
TORSDOF 4
ENDMDL
MODEL 8
REMARK VINA RESULT:      -4.0     11.161     11.813
REMARK  4 active torsions:
REMARK  status: ('A' for Active; 'I' for Inactive)
REMARK    1  A    between atoms: C1_1  and  C7_7 
REMARK    2  A    between atoms: C6_6  and  C8_8 
REMARK    3  A    between atoms: C6_6  and  O10_10 
REMARK    4  A    between atoms: C7_7  and  C8_8 
ROOT
HETATM    1  C3  UNL     1     -36.830  15.438  -4.835  1.00 20.00     0.018 C 
HETATM    2  C7  UNL     1     -35.421  14.937  -5.164  1.00 20.00     0.056 C 
ENDROOT
BRANCH   2   3
HETATM    3  C1  UNL     1     -35.487  13.564  -5.838  1.00 20.00     0.127 C 
HETATM    4  C2  UNL     1     -35.034  13.482  -7.275  1.00 20.00     0.091 C 
HETATM    5  O9  UNL     1     -35.912  12.565  -5.258  1.00 20.00    -0.298 OA
ENDBRANCH   2   3
BRANCH   2   6
HETATM    6  C8  UNL     1     -34.459  14.909  -3.951  1.00 20.00     0.016 C 
HETATM    7  C4  UNL     1     -32.993  14.906  -4.408  1.00 20.00     0.013 C 
BRANCH   6   8
HETATM    8  C6  UNL     1     -34.709  16.053  -2.957  1.00 20.00     0.172 C 
BRANCH   8   9
HETATM    9  O10 UNL     1     -33.475  16.681  -2.630  1.00 20.00    -0.396 OA
HETATM   10  C5  UNL     1     -33.596  17.493  -1.470  1.00 20.00     0.201 C 
ENDBRANCH   8   9
ENDBRANCH   6   8
ENDBRANCH   2   6
TORSDOF 4
ENDMDL
MODEL 9
REMARK VINA RESULT:      -4.0     11.008     12.134
REMARK  4 active torsions:
REMARK  status: ('A' for Active; 'I' for Inactive)
REMARK    1  A    between atoms: C1_1  and  C7_7 
REMARK    2  A    between atoms: C6_6  and  C8_8 
REMARK    3  A    between atoms: C6_6  and  O10_10 
REMARK    4  A    between atoms: C7_7  and  C8_8 
ROOT
HETATM    1  C3  UNL     1     -33.224  14.344  -4.489  1.00 20.00     0.018 C 
HETATM    2  C7  UNL     1     -34.624  14.612  -3.930  1.00 20.00     0.056 C 
ENDROOT
BRANCH   2   3
HETATM    3  C1  UNL     1     -35.684  13.922  -4.793  1.00 20.00     0.127 C 
HETATM    4  C2  UNL     1     -36.996  14.644  -4.977  1.00 20.00     0.091 C 
HETATM    5  O9  UNL     1     -35.500  12.816  -5.302  1.00 20.00    -0.298 OA
ENDBRANCH   2   3
BRANCH   2   6
HETATM    6  C8  UNL     1     -34.956  16.113  -3.744  1.00 20.00     0.016 C 
HETATM    7  C4  UNL     1     -34.886  16.516  -2.264  1.00 20.00     0.013 C 
BRANCH   6   8
HETATM    8  C6  UNL     1     -34.072  17.037  -4.595  1.00 20.00     0.172 C 
BRANCH   8   9
HETATM    9  O10 UNL     1     -34.750  17.371  -5.801  1.00 20.00    -0.396 OA
HETATM   10  C5  UNL     1     -33.989  17.006  -6.943  1.00 20.00     0.201 C 
ENDBRANCH   8   9
ENDBRANCH   6   8
ENDBRANCH   2   6
TORSDOF 4
ENDMDL
