MODEL 1
REMARK VINA RESULT:      -5.6      0.000      0.000
REMARK  4 active torsions:
REMARK  status: ('A' for Active; 'I' for Inactive)
REMARK    1  A    between atoms: C1_1  and  C6_6 
REMARK    2  A    between atoms: C4_4  and  C6_6 
REMARK    3  A    between atoms: C5_5  and  C6_6 
REMARK    4  A    between atoms: C5_5  and  C7_7 
ROOT
HETATM    1  C6  UNL     1     -33.679   7.148   3.651  1.00 20.00     0.059 C 
ENDROOT
BRANCH   1   2
HETATM    2  C1  UNL     1     -33.866   6.862   5.139  1.00 20.00     0.127 C 
HETATM    3  C2  UNL     1     -34.652   5.627   5.498  1.00 20.00     0.091 C 
HETATM    4  O8  UNL     1     -33.398   7.594   6.010  1.00 20.00    -0.298 OA
ENDBRANCH   1   2
BRANCH   1   5
HETATM    5  C4  UNL     1     -34.116   5.926   2.828  1.00 20.00     0.008 C 
HETATM    6  C3  UNL     1     -32.977   4.951   2.560  1.00 20.00     0.006 C 
ENDBRANCH   1   5
BRANCH   1   7
HETATM    7  C5  UNL     1     -32.207   7.495   3.353  1.00 20.00     0.083 C 
BRANCH   7   8
HETATM    8  C7  UNL     1     -32.038   8.617   2.340  1.00 20.00     0.353 C 
HETATM    9  F9  UNL     1     -33.243   9.063   1.913  1.00 20.00    -0.214 F 
HETATM   10  F10 UNL     1     -31.369   8.168   1.253  1.00 20.00    -0.214 F 
ENDBRANCH   7   8
ENDBRANCH   1   7
TORSDOF 4
ENDMDL
MODEL 2
REMARK VINA RESULT:      -5.3      1.909      2.611
REMARK  4 active torsions:
REMARK  status: ('A' for Active; 'I' for Inactive)
REMARK    1  A    between atoms: C1_1  and  C6_6 
REMARK    2  A    between atoms: C4_4  and  C6_6 
REMARK    3  A    between atoms: C5_5  and  C6_6 
REMARK    4  A    between atoms: C5_5  and  C7_7 
ROOT
HETATM    1  C6  UNL     1     -33.112   6.534   3.655  1.00 20.00     0.059 C 
ENDROOT
BRANCH   1   2
HETATM    2  C1  UNL     1     -33.431   5.081   3.313  1.00 20.00     0.127 C 
HETATM    3  C2  UNL     1     -34.351   4.348   4.256  1.00 20.00     0.091 C 
HETATM    4  O8  UNL     1     -32.970   4.527   2.315  1.00 20.00    -0.298 OA
ENDBRANCH   1   2
BRANCH   1   5
HETATM    5  C4  UNL     1     -34.170   7.083   4.626  1.00 20.00     0.008 C 
HETATM    6  C3  UNL     1     -33.594   7.447   5.988  1.00 20.00     0.006 C 
ENDBRANCH   1   5
BRANCH   1   7
HETATM    7  C5  UNL     1     -33.066   7.388   2.374  1.00 20.00     0.083 C 
BRANCH   7   8
HETATM    8  C7  UNL     1     -31.953   8.426   2.373  1.00 20.00     0.353 C 
HETATM    9  F9  UNL     1     -31.245   8.371   1.221  1.00 20.00    -0.214 F 
HETATM   10  F10 UNL     1     -31.088   8.184   3.387  1.00 20.00    -0.214 F 
ENDBRANCH   7   8
ENDBRANCH   1   7
TORSDOF 4
ENDMDL
MODEL 3
REMARK VINA RESULT:      -5.2      1.955      2.632
REMARK  4 active torsions:
REMARK  status: ('A' for Active; 'I' for Inactive)
REMARK    1  A    between atoms: C1_1  and  C6_6 
REMARK    2  A    between atoms: C4_4  and  C6_6 
REMARK    3  A    between atoms: C5_5  and  C6_6 
REMARK    4  A    between atoms: C5_5  and  C7_7 
ROOT
HETATM    1  C6  UNL     1     -33.103   6.528   3.688  1.00 20.00     0.059 C 
ENDROOT
BRANCH   1   2
HETATM    2  C1  UNL     1     -33.437   5.083   3.323  1.00 20.00     0.127 C 
HETATM    3  C2  UNL     1     -34.358   4.343   4.259  1.00 20.00     0.091 C 
HETATM    4  O8  UNL     1     -32.985   4.542   2.314  1.00 20.00    -0.298 OA
ENDBRANCH   1   2
BRANCH   1   5
HETATM    5  C4  UNL     1     -34.175   7.085   4.639  1.00 20.00     0.008 C 
HETATM    6  C3  UNL     1     -33.624   7.434   6.015  1.00 20.00     0.006 C 
ENDBRANCH   1   5
BRANCH   1   7
HETATM    7  C5  UNL     1     -33.013   7.394   2.417  1.00 20.00     0.083 C 
BRANCH   7   8
HETATM    8  C7  UNL     1     -31.779   8.282   2.371  1.00 20.00     0.353 C 
HETATM    9  F9  UNL     1     -31.184   8.340   3.585  1.00 20.00    -0.214 F 
HETATM   10  F10 UNL     1     -32.126   9.547   2.034  1.00 20.00    -0.214 F 
ENDBRANCH   7   8
ENDBRANCH   1   7
TORSDOF 4
ENDMDL
MODEL 4
REMARK VINA RESULT:      -5.2      2.450      3.768
REMARK  4 active torsions:
REMARK  status: ('A' for Active; 'I' for Inactive)
REMARK    1  A    between atoms: C1_1  and  C6_6 
REMARK    2  A    between atoms: C4_4  and  C6_6 
REMARK    3  A    between atoms: C5_5  and  C6_6 
REMARK    4  A    between atoms: C5_5  and  C7_7 
ROOT
HETATM    1  C6  UNL     1     -33.683   7.376   3.751  1.00 20.00     0.059 C 
ENDROOT
BRANCH   1   2
HETATM    2  C1  UNL     1     -32.416   7.904   3.082  1.00 20.00     0.127 C 
HETATM    3  C2  UNL     1     -32.527   8.288   1.628  1.00 20.00     0.091 C 
HETATM    4  O8  UNL     1     -31.353   8.020   3.691  1.00 20.00    -0.298 OA
ENDBRANCH   1   2
BRANCH   1   5
HETATM    5  C4  UNL     1     -33.404   7.091   5.236  1.00 20.00     0.008 C 
HETATM    6  C3  UNL     1     -34.535   6.332   5.917  1.00 20.00     0.006 C 
ENDBRANCH   1   5
BRANCH   1   7
HETATM    7  C5  UNL     1     -34.169   6.097   3.043  1.00 20.00     0.083 C 
BRANCH   7   8
HETATM    8  C7  UNL     1     -33.241   4.906   3.231  1.00 20.00     0.353 C 
HETATM    9  F9  UNL     1     -32.817   4.434   2.035  1.00 20.00    -0.214 F 
HETATM   10  F10 UNL     1     -33.897   3.896   3.851  1.00 20.00    -0.214 F 
ENDBRANCH   7   8
ENDBRANCH   1   7
TORSDOF 4
ENDMDL
MODEL 5
REMARK VINA RESULT:      -5.1      2.603      3.639
REMARK  4 active torsions:
REMARK  status: ('A' for Active; 'I' for Inactive)
REMARK    1  A    between atoms: C1_1  and  C6_6 
REMARK    2  A    between atoms: C4_4  and  C6_6 
REMARK    3  A    between atoms: C5_5  and  C6_6 
REMARK    4  A    between atoms: C5_5  and  C7_7 
ROOT
HETATM    1  C6  UNL     1     -32.919   6.752   3.541  1.00 20.00     0.059 C 
ENDROOT
BRANCH   1   2
HETATM    2  C1  UNL     1     -32.114   7.958   3.064  1.00 20.00     0.127 C 
HETATM    3  C2  UNL     1     -32.445   8.496   1.695  1.00 20.00     0.091 C 
HETATM    4  O8  UNL     1     -31.239   8.477   3.756  1.00 20.00    -0.298 OA
ENDBRANCH   1   2
BRANCH   1   5
HETATM    5  C4  UNL     1     -33.308   5.877   2.337  1.00 20.00     0.008 C 
HETATM    6  C3  UNL     1     -33.092   4.391   2.589  1.00 20.00     0.006 C 
ENDBRANCH   1   5
BRANCH   1   7
HETATM    7  C5  UNL     1     -34.180   7.214   4.296  1.00 20.00     0.083 C 
BRANCH   7   8
HETATM    8  C7  UNL     1     -34.148   6.898   5.784  1.00 20.00     0.353 C 
HETATM    9  F9  UNL     1     -33.010   7.364   6.350  1.00 20.00    -0.214 F 
HETATM   10  F10 UNL     1     -34.172   5.558   5.978  1.00 20.00    -0.214 F 
ENDBRANCH   7   8
ENDBRANCH   1   7
TORSDOF 4
ENDMDL
MODEL 6
REMARK VINA RESULT:      -5.1      0.747      1.022
REMARK  4 active torsions:
REMARK  status: ('A' for Active; 'I' for Inactive)
REMARK    1  A    between atoms: C1_1  and  C6_6 
REMARK    2  A    between atoms: C4_4  and  C6_6 
REMARK    3  A    between atoms: C5_5  and  C6_6 
REMARK    4  A    between atoms: C5_5  and  C7_7 
ROOT
HETATM    1  C6  UNL     1     -33.684   7.049   3.471  1.00 20.00     0.059 C 
ENDROOT
BRANCH   1   2
HETATM    2  C1  UNL     1     -33.551   7.074   4.992  1.00 20.00     0.127 C 
HETATM    3  C2  UNL     1     -34.493   6.191   5.770  1.00 20.00     0.091 C 
HETATM    4  O8  UNL     1     -32.715   7.774   5.564  1.00 20.00    -0.298 OA
ENDBRANCH   1   2
BRANCH   1   5
HETATM    5  C4  UNL     1     -34.208   5.676   3.018  1.00 20.00     0.008 C 
HETATM    6  C3  UNL     1     -33.092   4.691   2.698  1.00 20.00     0.006 C 
ENDBRANCH   1   5
BRANCH   1   7
HETATM    7  C5  UNL     1     -32.324   7.347   2.810  1.00 20.00     0.083 C 
BRANCH   7   8
HETATM    8  C7  UNL     1     -32.321   8.614   1.968  1.00 20.00     0.353 C 
HETATM    9  F9  UNL     1     -31.629   8.426   0.820  1.00 20.00    -0.214 F 
HETATM   10  F10 UNL     1     -31.715   9.621   2.641  1.00 20.00    -0.214 F 
ENDBRANCH   7   8
ENDBRANCH   1   7
TORSDOF 4
ENDMDL
MODEL 7
REMARK VINA RESULT:      -5.0      2.695      3.504
REMARK  4 active torsions:
REMARK  status: ('A' for Active; 'I' for Inactive)
REMARK    1  A    between atoms: C1_1  and  C6_6 
REMARK    2  A    between atoms: C4_4  and  C6_6 
REMARK    3  A    between atoms: C5_5  and  C6_6 
REMARK    4  A    between atoms: C5_5  and  C7_7 
ROOT
HETATM    1  C6  UNL     1     -33.680   6.589   3.059  1.00 20.00     0.059 C 
ENDROOT
BRANCH   1   2
HETATM    2  C1  UNL     1     -33.554   5.075   3.215  1.00 20.00     0.127 C 
HETATM    3  C2  UNL     1     -34.419   4.428   4.265  1.00 20.00     0.091 C 
HETATM    4  O8  UNL     1     -32.790   4.407   2.519  1.00 20.00    -0.298 OA
ENDBRANCH   1   2
BRANCH   1   5
HETATM    5  C4  UNL     1     -32.285   7.210   2.876  1.00 20.00     0.008 C 
HETATM    6  C3  UNL     1     -32.303   8.469   2.019  1.00 20.00     0.006 C 
ENDBRANCH   1   5
BRANCH   1   7
HETATM    7  C5  UNL     1     -34.380   7.197   4.289  1.00 20.00     0.083 C 
BRANCH   7   8
HETATM    8  C7  UNL     1     -33.560   7.097   5.567  1.00 20.00     0.353 C 
HETATM    9  F9  UNL     1     -34.367   6.951   6.644  1.00 20.00    -0.214 F 
HETATM   10  F10 UNL     1     -32.845   8.232   5.754  1.00 20.00    -0.214 F 
ENDBRANCH   7   8
ENDBRANCH   1   7
TORSDOF 4
ENDMDL
MODEL 8
REMARK VINA RESULT:      -4.8      2.964      3.847
REMARK  4 active torsions:
REMARK  status: ('A' for Active; 'I' for Inactive)
REMARK    1  A    between atoms: C1_1  and  C6_6 
REMARK    2  A    between atoms: C4_4  and  C6_6 
REMARK    3  A    between atoms: C5_5  and  C6_6 
REMARK    4  A    between atoms: C5_5  and  C7_7 
ROOT
HETATM    1  C6  UNL     1     -33.362   7.423   3.548  1.00 20.00     0.059 C 
ENDROOT
BRANCH   1   2
HETATM    2  C1  UNL     1     -33.962   6.124   3.015  1.00 20.00     0.127 C 
HETATM    3  C2  UNL     1     -32.997   5.007   2.709  1.00 20.00     0.091 C 
HETATM    4  O8  UNL     1     -35.173   5.984   2.843  1.00 20.00    -0.298 OA
ENDBRANCH   1   2
BRANCH   1   5
HETATM    5  C4  UNL     1     -32.053   7.734   2.805  1.00 20.00     0.008 C 
HETATM    6  C3  UNL     1     -32.251   8.666   1.617  1.00 20.00     0.006 C 
ENDBRANCH   1   5
BRANCH   1   7
HETATM    7  C5  UNL     1     -33.105   7.311   5.063  1.00 20.00     0.083 C 
BRANCH   7   8
HETATM    8  C7  UNL     1     -34.267   6.704   5.835  1.00 20.00     0.353 C 
HETATM    9  F9  UNL     1     -34.443   7.342   7.016  1.00 20.00    -0.214 F 
HETATM   10  F10 UNL     1     -34.013   5.404   6.116  1.00 20.00    -0.214 F 
ENDBRANCH   7   8
ENDBRANCH   1   7
TORSDOF 4
ENDMDL
MODEL 9
REMARK VINA RESULT:      -4.7      2.562      3.883
REMARK  4 active torsions:
REMARK  status: ('A' for Active; 'I' for Inactive)
REMARK    1  A    between atoms: C1_1  and  C6_6 
REMARK    2  A    between atoms: C4_4  and  C6_6 
REMARK    3  A    between atoms: C5_5  and  C6_6 
REMARK    4  A    between atoms: C5_5  and  C7_7 
ROOT
HETATM    1  C6  UNL     1     -33.131   7.375   3.550  1.00 20.00     0.059 C 
ENDROOT
BRANCH   1   2
HETATM    2  C1  UNL     1     -32.116   8.200   2.763  1.00 20.00     0.127 C 
HETATM    3  C2  UNL     1     -32.567   8.739   1.429  1.00 20.00     0.091 C 
HETATM    4  O8  UNL     1     -30.984   8.425   3.190  1.00 20.00    -0.298 OA
ENDBRANCH   1   2
BRANCH   1   5
HETATM    5  C4  UNL     1     -32.964   7.643   5.055  1.00 20.00     0.008 C 
HETATM    6  C3  UNL     1     -34.035   6.966   5.901  1.00 20.00     0.006 C 
ENDBRANCH   1   5
BRANCH   1   7
HETATM    7  C5  UNL     1     -32.947   5.874   3.251  1.00 20.00     0.083 C 
BRANCH   7   8
HETATM    8  C7  UNL     1     -34.259   5.121   3.087  1.00 20.00     0.353 C 
HETATM    9  F9  UNL     1     -35.313   5.963   3.197  1.00 20.00    -0.214 F 
HETATM   10  F10 UNL     1     -34.387   4.189   4.061  1.00 20.00    -0.214 F 
ENDBRANCH   7   8
ENDBRANCH   1   7
TORSDOF 4
ENDMDL
