MODEL 1
REMARK VINA RESULT:      -6.1      0.000      0.000
REMARK  3 active torsions:
REMARK  status: ('A' for Active; 'I' for Inactive)
REMARK    1  A    between atoms: C4_4  and  C6_6 
REMARK    2  A    between atoms: C5_5  and  O8_8 
REMARK    3  A    between atoms: C6_6  and  C7_7 
ROOT
HETATM    1  C1  UNL     1     -34.381   6.010   5.715  1.00 20.00     0.003 C 
HETATM    2  C2  UNL     1     -34.004   7.281   4.953  1.00 20.00     0.007 C 
HETATM    3  C3  UNL     1     -34.202   4.852   4.734  1.00 20.00     0.032 C 
HETATM    4  C4  UNL     1     -33.230   6.791   3.732  1.00 20.00     0.023 C 
HETATM    5  C5  UNL     1     -33.967   5.502   3.376  1.00 20.00     0.122 C 
ENDROOT
BRANCH   4   6
HETATM    6  C6  UNL     1     -33.199   7.801   2.596  1.00 20.00     0.124 C 
BRANCH   6   7
HETATM    7  C7  UNL     1     -31.840   8.429   2.457  1.00 20.00     0.388 C 
HETATM    8  F9  UNL     1     -31.020   8.083   3.473  1.00 20.00    -0.171 F 
HETATM    9  F10 UNL     1     -31.961   9.775   2.471  1.00 20.00    -0.171 F 
HETATM   10  F11 UNL     1     -31.241   8.084   1.299  1.00 20.00    -0.171 F 
ENDBRANCH   6   7
ENDBRANCH   4   6
BRANCH   5  11
HETATM   11  O8  UNL     1     -33.182   4.679   2.535  1.00 20.00    -0.395 OA
HETATM   12  H22 UNL     1     -32.469   4.308   3.083  1.00 20.00     0.210 HD
ENDBRANCH   5  11
TORSDOF 3
ENDMDL
MODEL 2
REMARK VINA RESULT:      -6.1      0.018      1.141
REMARK  3 active torsions:
REMARK  status: ('A' for Active; 'I' for Inactive)
REMARK    1  A    between atoms: C4_4  and  C6_6 
REMARK    2  A    between atoms: C5_5  and  O8_8 
REMARK    3  A    between atoms: C6_6  and  C7_7 
ROOT
HETATM    1  C1  UNL     1     -34.386   6.007   5.710  1.00 20.00     0.003 C 
HETATM    2  C2  UNL     1     -34.009   7.275   4.943  1.00 20.00     0.007 C 
HETATM    3  C3  UNL     1     -34.208   4.845   4.734  1.00 20.00     0.032 C 
HETATM    4  C4  UNL     1     -33.235   6.780   3.724  1.00 20.00     0.023 C 
HETATM    5  C5  UNL     1     -33.973   5.490   3.373  1.00 20.00     0.122 C 
ENDROOT
BRANCH   4   6
HETATM    6  C6  UNL     1     -33.205   7.785   2.585  1.00 20.00     0.124 C 
BRANCH   6   7
HETATM    7  C7  UNL     1     -31.857   8.443   2.470  1.00 20.00     0.388 C 
HETATM    8  F9  UNL     1     -31.954   9.790   2.467  1.00 20.00    -0.171 F 
HETATM    9  F10 UNL     1     -31.271   8.073   1.310  1.00 20.00    -0.171 F 
HETATM   10  F11 UNL     1     -31.034   8.084   3.476  1.00 20.00    -0.171 F 
ENDBRANCH   6   7
ENDBRANCH   4   6
BRANCH   5  11
HETATM   11  O8  UNL     1     -33.189   4.664   2.535  1.00 20.00    -0.395 OA
HETATM   12  H22 UNL     1     -33.795   4.241   1.902  1.00 20.00     0.210 HD
ENDBRANCH   5  11
TORSDOF 3
ENDMDL
MODEL 3
REMARK VINA RESULT:      -5.8      1.716      2.367
REMARK  3 active torsions:
REMARK  status: ('A' for Active; 'I' for Inactive)
REMARK    1  A    between atoms: C4_4  and  C6_6 
REMARK    2  A    between atoms: C5_5  and  O8_8 
REMARK    3  A    between atoms: C6_6  and  C7_7 
ROOT
HETATM    1  C1  UNL     1     -34.371   5.002   3.735  1.00 20.00     0.003 C 
HETATM    2  C2  UNL     1     -33.351   5.766   2.889  1.00 20.00     0.007 C 
HETATM    3  C3  UNL     1     -34.523   5.787   5.037  1.00 20.00     0.032 C 
HETATM    4  C4  UNL     1     -33.275   7.151   3.524  1.00 20.00     0.023 C 
HETATM    5  C5  UNL     1     -33.417   6.835   5.012  1.00 20.00     0.122 C 
ENDROOT
BRANCH   4   6
HETATM    6  C6  UNL     1     -31.992   7.895   3.187  1.00 20.00     0.124 C 
BRANCH   6   7
HETATM    7  C7  UNL     1     -32.122   8.655   1.896  1.00 20.00     0.388 C 
HETATM    8  F9  UNL     1     -33.289   8.387   1.271  1.00 20.00    -0.171 F 
HETATM    9  F10 UNL     1     -31.121   8.300   1.060  1.00 20.00    -0.171 F 
HETATM   10  F11 UNL     1     -32.044   9.988   2.085  1.00 20.00    -0.171 F 
ENDBRANCH   6   7
ENDBRANCH   4   6
BRANCH   5  11
HETATM   11  O8  UNL     1     -33.777   7.988   5.747  1.00 20.00    -0.395 OA
HETATM   12  H22 UNL     1     -34.317   7.690   6.500  1.00 20.00     0.210 HD
ENDBRANCH   5  11
TORSDOF 3
ENDMDL
MODEL 4
REMARK VINA RESULT:      -5.1      3.347      4.547
REMARK  3 active torsions:
REMARK  status: ('A' for Active; 'I' for Inactive)
REMARK    1  A    between atoms: C4_4  and  C6_6 
REMARK    2  A    between atoms: C5_5  and  O8_8 
REMARK    3  A    between atoms: C6_6  and  C7_7 
ROOT
HETATM    1  C1  UNL     1     -31.783   8.045   2.355  1.00 20.00     0.003 C 
HETATM    2  C2  UNL     1     -32.934   7.045   2.236  1.00 20.00     0.007 C 
HETATM    3  C3  UNL     1     -31.724   8.460   3.824  1.00 20.00     0.032 C 
HETATM    4  C4  UNL     1     -33.214   6.599   3.668  1.00 20.00     0.023 C 
HETATM    5  C5  UNL     1     -32.984   7.884   4.460  1.00 20.00     0.122 C 
ENDROOT
BRANCH   4   6
HETATM    6  C6  UNL     1     -34.608   6.019   3.854  1.00 20.00     0.124 C 
BRANCH   6   7
HETATM    7  C7  UNL     1     -34.568   4.739   4.643  1.00 20.00     0.388 C 
HETATM    8  F9  UNL     1     -33.645   3.880   4.161  1.00 20.00    -0.171 F 
HETATM    9  F10 UNL     1     -35.772   4.128   4.571  1.00 20.00    -0.171 F 
HETATM   10  F11 UNL     1     -34.298   4.959   5.946  1.00 20.00    -0.171 F 
ENDBRANCH   6   7
ENDBRANCH   4   6
BRANCH   5  11
HETATM   11  O8  UNL     1     -32.794   7.611   5.835  1.00 20.00    -0.395 OA
HETATM   12  H22 UNL     1     -32.084   8.199   6.147  1.00 20.00     0.210 HD
ENDBRANCH   5  11
TORSDOF 3
ENDMDL
MODEL 5
REMARK VINA RESULT:      -4.7     11.038     11.477
REMARK  3 active torsions:
REMARK  status: ('A' for Active; 'I' for Inactive)
REMARK    1  A    between atoms: C4_4  and  C6_6 
REMARK    2  A    between atoms: C5_5  and  O8_8 
REMARK    3  A    between atoms: C6_6  and  C7_7 
ROOT
HETATM    1  C1  UNL     1     -34.346  17.650  -0.861  1.00 20.00     0.003 C 
HETATM    2  C2  UNL     1     -33.422  17.133  -1.965  1.00 20.00     0.007 C 
HETATM    3  C3  UNL     1     -35.772  17.338  -1.314  1.00 20.00     0.032 C 
HETATM    4  C4  UNL     1     -34.288  16.183  -2.787  1.00 20.00     0.023 C 
HETATM    5  C5  UNL     1     -35.647  16.877  -2.761  1.00 20.00     0.122 C 
ENDROOT
BRANCH   4   6
HETATM    6  C6  UNL     1     -33.756  15.953  -4.193  1.00 20.00     0.124 C 
BRANCH   6   7
HETATM    7  C7  UNL     1     -33.577  14.487  -4.478  1.00 20.00     0.388 C 
HETATM    8  F9  UNL     1     -32.351  14.051  -4.117  1.00 20.00    -0.171 F 
HETATM    9  F10 UNL     1     -33.715  14.265  -5.805  1.00 20.00    -0.171 F 
HETATM   10  F11 UNL     1     -34.495  13.733  -3.840  1.00 20.00    -0.171 F 
ENDBRANCH   6   7
ENDBRANCH   4   6
BRANCH   5  11
HETATM   11  O8  UNL     1     -36.685  15.983  -3.113  1.00 20.00    -0.395 OA
HETATM   12  H22 UNL     1     -36.287  15.098  -3.186  1.00 20.00     0.210 HD
ENDBRANCH   5  11
TORSDOF 3
ENDMDL
MODEL 6
REMARK VINA RESULT:      -4.7      3.202      4.484
REMARK  3 active torsions:
REMARK  status: ('A' for Active; 'I' for Inactive)
REMARK    1  A    between atoms: C4_4  and  C6_6 
REMARK    2  A    between atoms: C5_5  and  O8_8 
REMARK    3  A    between atoms: C6_6  and  C7_7 
ROOT
HETATM    1  C1  UNL     1     -32.581   7.605   1.491  1.00 20.00     0.003 C 
HETATM    2  C2  UNL     1     -33.558   6.874   2.413  1.00 20.00     0.007 C 
HETATM    3  C3  UNL     1     -31.704   8.470   2.395  1.00 20.00     0.032 C 
HETATM    4  C4  UNL     1     -32.952   7.002   3.808  1.00 20.00     0.023 C 
HETATM    5  C5  UNL     1     -32.351   8.406   3.773  1.00 20.00     0.122 C 
ENDROOT
BRANCH   4   6
HETATM    6  C6  UNL     1     -33.967   6.809   4.923  1.00 20.00     0.124 C 
BRANCH   6   7
HETATM    7  C7  UNL     1     -34.691   5.498   4.784  1.00 20.00     0.388 C 
HETATM    8  F9  UNL     1     -35.825   5.624   4.062  1.00 20.00    -0.171 F 
HETATM    9  F10 UNL     1     -35.035   5.040   6.009  1.00 20.00    -0.171 F 
HETATM   10  F11 UNL     1     -33.923   4.558   4.197  1.00 20.00    -0.171 F 
ENDBRANCH   6   7
ENDBRANCH   4   6
BRANCH   5  11
HETATM   11  O8  UNL     1     -31.398   8.580   4.804  1.00 20.00    -0.395 OA
HETATM   12  H22 UNL     1     -30.952   9.429   4.640  1.00 20.00     0.210 HD
ENDBRANCH   5  11
TORSDOF 3
ENDMDL
MODEL 7
REMARK VINA RESULT:      -4.6      3.032      4.203
REMARK  3 active torsions:
REMARK  status: ('A' for Active; 'I' for Inactive)
REMARK    1  A    between atoms: C4_4  and  C6_6 
REMARK    2  A    between atoms: C5_5  and  O8_8 
REMARK    3  A    between atoms: C6_6  and  C7_7 
ROOT
HETATM    1  C1  UNL     1     -31.904   8.700   2.916  1.00 20.00     0.003 C 
HETATM    2  C2  UNL     1     -32.274   8.197   4.312  1.00 20.00     0.007 C 
HETATM    3  C3  UNL     1     -32.441   7.663   1.930  1.00 20.00     0.032 C 
HETATM    4  C4  UNL     1     -33.353   7.145   4.077  1.00 20.00     0.023 C 
HETATM    5  C5  UNL     1     -32.883   6.481   2.784  1.00 20.00     0.122 C 
ENDROOT
BRANCH   4   6
HETATM    6  C6  UNL     1     -33.503   6.170   5.234  1.00 20.00     0.124 C 
BRANCH   6   7
HETATM    7  C7  UNL     1     -34.719   5.301   5.065  1.00 20.00     0.388 C 
HETATM    8  F9  UNL     1     -35.659   5.894   4.299  1.00 20.00    -0.171 F 
HETATM    9  F10 UNL     1     -35.271   5.057   6.274  1.00 20.00    -0.171 F 
HETATM   10  F11 UNL     1     -34.413   4.111   4.508  1.00 20.00    -0.171 F 
ENDBRANCH   6   7
ENDBRANCH   4   6
BRANCH   5  11
HETATM   11  O8  UNL     1     -33.933   5.759   2.169  1.00 20.00    -0.395 OA
HETATM   12  H22 UNL     1     -34.656   6.390   2.006  1.00 20.00     0.210 HD
ENDBRANCH   5  11
TORSDOF 3
ENDMDL
MODEL 8
REMARK VINA RESULT:      -4.5      2.709      3.533
REMARK  3 active torsions:
REMARK  status: ('A' for Active; 'I' for Inactive)
REMARK    1  A    between atoms: C4_4  and  C6_6 
REMARK    2  A    between atoms: C5_5  and  O8_8 
REMARK    3  A    between atoms: C6_6  and  C7_7 
ROOT
HETATM    1  C1  UNL     1     -33.731   7.275   5.965  1.00 20.00     0.003 C 
HETATM    2  C2  UNL     1     -34.398   6.279   5.016  1.00 20.00     0.007 C 
HETATM    3  C3  UNL     1     -32.766   8.100   5.114  1.00 20.00     0.032 C 
HETATM    4  C4  UNL     1     -34.129   6.830   3.618  1.00 20.00     0.023 C 
HETATM    5  C5  UNL     1     -32.721   7.402   3.760  1.00 20.00     0.122 C 
ENDROOT
BRANCH   4   6
HETATM    6  C6  UNL     1     -34.245   5.777   2.527  1.00 20.00     0.124 C 
BRANCH   6   7
HETATM    7  C7  UNL     1     -33.350   4.601   2.802  1.00 20.00     0.388 C 
HETATM    8  F9  UNL     1     -32.123   4.988   3.214  1.00 20.00    -0.171 F 
HETATM    9  F10 UNL     1     -33.192   3.879   1.671  1.00 20.00    -0.171 F 
HETATM   10  F11 UNL     1     -33.868   3.782   3.741  1.00 20.00    -0.171 F 
ENDBRANCH   6   7
ENDBRANCH   4   6
BRANCH   5  11
HETATM   11  O8  UNL     1     -32.431   8.311   2.716  1.00 20.00    -0.395 OA
HETATM   12  H22 UNL     1     -32.556   7.833   1.877  1.00 20.00     0.210 HD
ENDBRANCH   5  11
TORSDOF 3
ENDMDL
MODEL 9
REMARK VINA RESULT:      -4.3     11.056     11.473
REMARK  3 active torsions:
REMARK  status: ('A' for Active; 'I' for Inactive)
REMARK    1  A    between atoms: C4_4  and  C6_6 
REMARK    2  A    between atoms: C5_5  and  O8_8 
REMARK    3  A    between atoms: C6_6  and  C7_7 
ROOT
HETATM    1  C1  UNL     1     -36.564  14.514  -4.835  1.00 20.00     0.003 C 
HETATM    2  C2  UNL     1     -36.008  15.730  -4.093  1.00 20.00     0.007 C 
HETATM    3  C3  UNL     1     -35.363  13.632  -5.176  1.00 20.00     0.032 C 
HETATM    4  C4  UNL     1     -34.604  15.316  -3.660  1.00 20.00     0.023 C 
HETATM    5  C5  UNL     1     -34.135  14.471  -4.843  1.00 20.00     0.122 C 
ENDROOT
BRANCH   4   6
HETATM    6  C6  UNL     1     -33.694  16.499  -3.367  1.00 20.00     0.124 C 
BRANCH   6   7
HETATM    7  C7  UNL     1     -34.039  17.143  -2.053  1.00 20.00     0.388 C 
HETATM    8  F9  UNL     1     -34.906  16.394  -1.337  1.00 20.00    -0.171 F 
HETATM    9  F10 UNL     1     -34.624  18.341  -2.278  1.00 20.00    -0.171 F 
HETATM   10  F11 UNL     1     -32.945  17.359  -1.294  1.00 20.00    -0.171 F 
ENDBRANCH   6   7
ENDBRANCH   4   6
BRANCH   5  11
HETATM   11  O8  UNL     1     -33.032  13.660  -4.486  1.00 20.00    -0.395 OA
HETATM   12  H22 UNL     1     -32.232  14.103  -4.820  1.00 20.00     0.210 HD
ENDBRANCH   5  11
TORSDOF 3
ENDMDL
