MODEL 1
REMARK VINA RESULT:      -4.7      0.000      0.000
REMARK  3 active torsions:
REMARK  status: ('A' for Active; 'I' for Inactive)
REMARK    1  A    between atoms: C1_1  and  C7_7 
REMARK    2  A    between atoms: C7_7  and  C8_8 
REMARK    3  A    between atoms: C7_7  and  C9_9 
ROOT
HETATM    1  C7  UNL     1     -33.144   6.570   3.840  1.00 20.00     0.061 C 
ENDROOT
BRANCH   1   2
HETATM    2  C1  UNL     1     -33.673   5.690   2.700  1.00 20.00     0.128 C 
HETATM    3  C2  UNL     1     -32.864   4.465   2.352  1.00 20.00     0.091 C 
HETATM    4  O10 UNL     1     -34.696   5.968   2.075  1.00 20.00    -0.298 OA
ENDBRANCH   1   2
BRANCH   1   5
HETATM    5  C8  UNL     1     -34.174   6.656   5.002  1.00 20.00    -0.011 C 
HETATM    6  C3  UNL     1     -33.662   7.521   6.161  1.00 20.00     0.010 C 
HETATM    7  C4  UNL     1     -34.639   5.299   5.541  1.00 20.00     0.010 C 
ENDBRANCH   1   5
BRANCH   1   8
HETATM    8  C9  UNL     1     -32.677   7.939   3.268  1.00 20.00    -0.011 C 
HETATM    9  C5  UNL     1     -31.280   8.336   3.755  1.00 20.00     0.010 C 
HETATM   10  C6  UNL     1     -32.668   7.922   1.732  1.00 20.00     0.010 C 
ENDBRANCH   1   8
TORSDOF 3
ENDMDL
MODEL 2
REMARK VINA RESULT:      -4.6     11.141     12.597
REMARK  3 active torsions:
REMARK  status: ('A' for Active; 'I' for Inactive)
REMARK    1  A    between atoms: C1_1  and  C7_7 
REMARK    2  A    between atoms: C7_7  and  C8_8 
REMARK    3  A    between atoms: C7_7  and  C9_9 
ROOT
HETATM    1  C7  UNL     1     -34.965  14.907  -5.369  1.00 20.00     0.061 C 
ENDROOT
BRANCH   1   2
HETATM    2  C1  UNL     1     -36.082  13.859  -5.471  1.00 20.00     0.128 C 
HETATM    3  C2  UNL     1     -37.445  14.355  -5.885  1.00 20.00     0.091 C 
HETATM    4  O10 UNL     1     -35.895  12.671  -5.211  1.00 20.00    -0.298 OA
ENDBRANCH   1   2
BRANCH   1   5
HETATM    5  C8  UNL     1     -34.064  14.887  -6.636  1.00 20.00    -0.011 C 
HETATM    6  C3  UNL     1     -34.017  16.255  -7.329  1.00 20.00     0.010 C 
HETATM    7  C4  UNL     1     -34.430  13.807  -7.659  1.00 20.00     0.010 C 
ENDBRANCH   1   5
BRANCH   1   8
HETATM    8  C9  UNL     1     -34.210  14.733  -4.019  1.00 20.00    -0.011 C 
HETATM    9  C5  UNL     1     -32.750  14.311  -4.210  1.00 20.00     0.010 C 
HETATM   10  C6  UNL     1     -34.237  16.033  -3.200  1.00 20.00     0.010 C 
ENDBRANCH   1   8
TORSDOF 3
ENDMDL
MODEL 3
REMARK VINA RESULT:      -4.5      0.756      3.046
REMARK  3 active torsions:
REMARK  status: ('A' for Active; 'I' for Inactive)
REMARK    1  A    between atoms: C1_1  and  C7_7 
REMARK    2  A    between atoms: C7_7  and  C8_8 
REMARK    3  A    between atoms: C7_7  and  C9_9 
ROOT
HETATM    1  C7  UNL     1     -33.640   7.153   3.895  1.00 20.00     0.061 C 
ENDROOT
BRANCH   1   2
HETATM    2  C1  UNL     1     -34.346   5.975   3.212  1.00 20.00     0.128 C 
HETATM    3  C2  UNL     1     -33.468   4.878   2.663  1.00 20.00     0.091 C 
HETATM    4  O10 UNL     1     -35.570   5.923   3.091  1.00 20.00    -0.298 OA
ENDBRANCH   1   2
BRANCH   1   5
HETATM    5  C8  UNL     1     -32.358   7.563   3.116  1.00 20.00    -0.011 C 
HETATM    6  C3  UNL     1     -31.373   8.342   3.998  1.00 20.00     0.010 C 
HETATM    7  C4  UNL     1     -32.622   8.347   1.827  1.00 20.00     0.010 C 
ENDBRANCH   1   5
BRANCH   1   8
HETATM    8  C9  UNL     1     -33.421   6.827   5.401  1.00 20.00    -0.011 C 
HETATM    9  C5  UNL     1     -33.685   8.032   6.310  1.00 20.00     0.010 C 
HETATM   10  C6  UNL     1     -34.328   5.672   5.853  1.00 20.00     0.010 C 
ENDBRANCH   1   8
TORSDOF 3
ENDMDL
MODEL 4
REMARK VINA RESULT:      -4.3      1.578      3.623
REMARK  3 active torsions:
REMARK  status: ('A' for Active; 'I' for Inactive)
REMARK    1  A    between atoms: C1_1  and  C7_7 
REMARK    2  A    between atoms: C7_7  and  C8_8 
REMARK    3  A    between atoms: C7_7  and  C9_9 
ROOT
HETATM    1  C7  UNL     1     -32.841   6.606   3.708  1.00 20.00     0.061 C 
ENDROOT
BRANCH   1   2
HETATM    2  C1  UNL     1     -32.144   7.917   3.324  1.00 20.00     0.128 C 
HETATM    3  C2  UNL     1     -32.558   8.554   2.020  1.00 20.00     0.091 C 
HETATM    4  O10 UNL     1     -31.270   8.428   4.024  1.00 20.00    -0.298 OA
ENDBRANCH   1   2
BRANCH   1   5
HETATM    5  C8  UNL     1     -33.294   5.824   2.443  1.00 20.00    -0.011 C 
HETATM    6  C3  UNL     1     -34.787   6.018   2.150  1.00 20.00     0.010 C 
HETATM    7  C4  UNL     1     -32.967   4.327   2.471  1.00 20.00     0.010 C 
ENDBRANCH   1   5
BRANCH   1   8
HETATM    8  C9  UNL     1     -33.967   6.899   4.742  1.00 20.00    -0.011 C 
HETATM    9  C5  UNL     1     -34.630   5.622   5.269  1.00 20.00     0.010 C 
HETATM   10  C6  UNL     1     -33.424   7.694   5.940  1.00 20.00     0.010 C 
ENDBRANCH   1   8
TORSDOF 3
ENDMDL
MODEL 5
REMARK VINA RESULT:      -4.2     11.353     12.516
REMARK  3 active torsions:
REMARK  status: ('A' for Active; 'I' for Inactive)
REMARK    1  A    between atoms: C1_1  and  C7_7 
REMARK    2  A    between atoms: C7_7  and  C8_8 
REMARK    3  A    between atoms: C7_7  and  C9_9 
ROOT
HETATM    1  C7  UNL     1     -35.584  15.037  -5.409  1.00 20.00     0.061 C 
ENDROOT
BRANCH   1   2
HETATM    2  C1  UNL     1     -35.597  13.587  -5.909  1.00 20.00     0.128 C 
HETATM    3  C2  UNL     1     -35.274  13.365  -7.366  1.00 20.00     0.091 C 
HETATM    4  O10 UNL     1     -35.876  12.640  -5.174  1.00 20.00    -0.298 OA
ENDBRANCH   1   2
BRANCH   1   5
HETATM    5  C8  UNL     1     -34.135  15.502  -5.084  1.00 20.00    -0.011 C 
HETATM    6  C3  UNL     1     -33.430  16.087  -6.314  1.00 20.00     0.010 C 
HETATM    7  C4  UNL     1     -33.250  14.425  -4.449  1.00 20.00     0.010 C 
ENDBRANCH   1   5
BRANCH   1   8
HETATM    8  C9  UNL     1     -36.605  15.197  -4.246  1.00 20.00    -0.011 C 
HETATM    9  C5  UNL     1     -36.267  16.370  -3.321  1.00 20.00     0.010 C 
HETATM   10  C6  UNL     1     -38.029  15.400  -4.786  1.00 20.00     0.010 C 
ENDBRANCH   1   8
TORSDOF 3
ENDMDL
MODEL 6
REMARK VINA RESULT:      -4.2     11.344     12.555
REMARK  3 active torsions:
REMARK  status: ('A' for Active; 'I' for Inactive)
REMARK    1  A    between atoms: C1_1  and  C7_7 
REMARK    2  A    between atoms: C7_7  and  C8_8 
REMARK    3  A    between atoms: C7_7  and  C9_9 
ROOT
HETATM    1  C7  UNL     1     -35.059  15.811  -4.259  1.00 20.00     0.061 C 
ENDROOT
BRANCH   1   2
HETATM    2  C1  UNL     1     -34.984  14.289  -4.439  1.00 20.00     0.128 C 
HETATM    3  C2  UNL     1     -36.103  13.637  -5.213  1.00 20.00     0.091 C 
HETATM    4  O10 UNL     1     -34.070  13.614  -3.964  1.00 20.00    -0.298 OA
ENDBRANCH   1   2
BRANCH   1   5
HETATM    5  C8  UNL     1     -34.420  16.548  -5.471  1.00 20.00    -0.011 C 
HETATM    6  C3  UNL     1     -35.481  17.077  -6.445  1.00 20.00     0.010 C 
HETATM    7  C4  UNL     1     -33.383  15.725  -6.240  1.00 20.00     0.010 C 
ENDBRANCH   1   5
BRANCH   1   8
HETATM    8  C9  UNL     1     -34.479  16.200  -2.869  1.00 20.00    -0.011 C 
HETATM    9  C5  UNL     1     -33.421  17.305  -2.960  1.00 20.00     0.010 C 
HETATM   10  C6  UNL     1     -35.591  16.671  -1.919  1.00 20.00     0.010 C 
ENDBRANCH   1   8
TORSDOF 3
ENDMDL
MODEL 7
REMARK VINA RESULT:      -4.0     11.320     12.238
REMARK  3 active torsions:
REMARK  status: ('A' for Active; 'I' for Inactive)
REMARK    1  A    between atoms: C1_1  and  C7_7 
REMARK    2  A    between atoms: C7_7  and  C8_8 
REMARK    3  A    between atoms: C7_7  and  C9_9 
ROOT
HETATM    1  C7  UNL     1     -35.575  14.799  -4.255  1.00 20.00     0.061 C 
ENDROOT
BRANCH   1   2
HETATM    2  C1  UNL     1     -35.630  13.808  -5.425  1.00 20.00     0.128 C 
HETATM    3  C2  UNL     1     -35.385  14.367  -6.805  1.00 20.00     0.091 C 
HETATM    4  O10 UNL     1     -35.882  12.614  -5.265  1.00 20.00    -0.298 OA
ENDBRANCH   1   2
BRANCH   1   5
HETATM    5  C8  UNL     1     -36.806  15.749  -4.271  1.00 20.00    -0.011 C 
HETATM    6  C3  UNL     1     -38.111  14.995  -4.558  1.00 20.00     0.010 C 
HETATM    7  C4  UNL     1     -36.679  16.937  -5.230  1.00 20.00     0.010 C 
ENDBRANCH   1   5
BRANCH   1   8
HETATM    8  C9  UNL     1     -34.191  15.510  -4.240  1.00 20.00    -0.011 C 
HETATM    9  C5  UNL     1     -33.982  16.366  -2.987  1.00 20.00     0.010 C 
HETATM   10  C6  UNL     1     -33.045  14.490  -4.328  1.00 20.00     0.010 C 
ENDBRANCH   1   8
TORSDOF 3
ENDMDL
MODEL 8
REMARK VINA RESULT:      -4.0      1.447      3.002
REMARK  3 active torsions:
REMARK  status: ('A' for Active; 'I' for Inactive)
REMARK    1  A    between atoms: C1_1  and  C7_7 
REMARK    2  A    between atoms: C7_7  and  C8_8 
REMARK    3  A    between atoms: C7_7  and  C9_9 
ROOT
HETATM    1  C7  UNL     1     -33.798   6.955   3.762  1.00 20.00     0.061 C 
ENDROOT
BRANCH   1   2
HETATM    2  C1  UNL     1     -32.574   7.708   3.225  1.00 20.00     0.128 C 
HETATM    3  C2  UNL     1     -32.758   8.480   1.941  1.00 20.00     0.091 C 
HETATM    4  O10 UNL     1     -31.481   7.677   3.790  1.00 20.00    -0.298 OA
ENDBRANCH   1   2
BRANCH   1   5
HETATM    5  C8  UNL     1     -33.625   6.615   5.270  1.00 20.00    -0.011 C 
HETATM    6  C3  UNL     1     -34.578   5.500   5.720  1.00 20.00     0.010 C 
HETATM    7  C4  UNL     1     -33.758   7.815   6.212  1.00 20.00     0.010 C 
ENDBRANCH   1   5
BRANCH   1   8
HETATM    8  C9  UNL     1     -34.108   5.740   2.842  1.00 20.00    -0.011 C 
HETATM    9  C5  UNL     1     -34.688   6.159   1.488  1.00 20.00     0.010 C 
HETATM   10  C6  UNL     1     -32.845   4.902   2.590  1.00 20.00     0.010 C 
ENDBRANCH   1   8
TORSDOF 3
ENDMDL
MODEL 9
REMARK VINA RESULT:      -4.0     11.453     12.632
REMARK  3 active torsions:
REMARK  status: ('A' for Active; 'I' for Inactive)
REMARK    1  A    between atoms: C1_1  and  C7_7 
REMARK    2  A    between atoms: C7_7  and  C8_8 
REMARK    3  A    between atoms: C7_7  and  C9_9 
ROOT
HETATM    1  C7  UNL     1     -34.163  16.046  -3.467  1.00 20.00     0.061 C 
ENDROOT
BRANCH   1   2
HETATM    2  C1  UNL     1     -33.408  16.574  -4.694  1.00 20.00     0.128 C 
HETATM    3  C2  UNL     1     -33.644  18.015  -5.071  1.00 20.00     0.091 C 
HETATM    4  O10 UNL     1     -32.658  15.862  -5.361  1.00 20.00    -0.298 OA
ENDBRANCH   1   2
BRANCH   1   5
HETATM    5  C8  UNL     1     -35.454  15.289  -3.890  1.00 20.00    -0.011 C 
HETATM    6  C3  UNL     1     -35.143  13.915  -4.497  1.00 20.00     0.010 C 
HETATM    7  C4  UNL     1     -36.368  16.073  -4.837  1.00 20.00     0.010 C 
ENDBRANCH   1   5
BRANCH   1   8
HETATM    8  C9  UNL     1     -34.378  17.203  -2.450  1.00 20.00    -0.011 C 
HETATM    9  C5  UNL     1     -35.439  16.871  -1.395  1.00 20.00     0.010 C 
HETATM   10  C6  UNL     1     -33.068  17.554  -1.726  1.00 20.00     0.010 C 
ENDBRANCH   1   8
TORSDOF 3
ENDMDL
