MODEL 1
REMARK VINA RESULT:      -6.3      0.000      0.000
REMARK  4 active torsions:
REMARK  status: ('A' for Active; 'I' for Inactive)
REMARK    1  A    between atoms: C6_6  and  C9_9 
REMARK    2  A    between atoms: C7_7  and  C10_10 
REMARK    3  A    between atoms: C8_8  and  O11_11 
REMARK    4  A    between atoms: C9_9  and  C10_10 
ROOT
HETATM    1  C1  UNL     1     -34.193   5.655   5.781  1.00 20.00     0.003 C 
HETATM    2  C2  UNL     1     -34.050   7.151   5.494  1.00 20.00     0.007 C 
HETATM    3  C5  UNL     1     -34.581   4.999   4.455  1.00 20.00     0.032 C 
HETATM    4  C7  UNL     1     -33.853   7.252   3.982  1.00 20.00     0.014 C 
HETATM    5  C8  UNL     1     -34.781   6.147   3.472  1.00 20.00     0.122 C 
ENDROOT
BRANCH   4   6
HETATM    6  C10 UNL     1     -32.388   7.070   3.579  1.00 20.00     0.007 C 
BRANCH   6   7
HETATM    7  C9  UNL     1     -31.818   8.340   2.951  1.00 20.00     0.005 C 
BRANCH   7   8
HETATM    8  C6  UNL     1     -32.573   8.725   1.689  1.00 20.00    -0.014 A 
HETATM    9  C3  UNL     1     -32.604  10.156   1.231  1.00 20.00     0.005 A 
HETATM   10  C4  UNL     1     -31.823   9.135   0.453  1.00 20.00     0.005 A 
ENDBRANCH   7   8
ENDBRANCH   6   7
ENDBRANCH   4   6
BRANCH   5  11
HETATM   11  O11 UNL     1     -34.498   5.739   2.149  1.00 20.00    -0.395 OA
HETATM   12  H29 UNL     1     -33.887   6.397   1.779  1.00 20.00     0.210 HD
ENDBRANCH   5  11
TORSDOF 4
ENDMDL
MODEL 2
REMARK VINA RESULT:      -6.2      1.002      1.291
REMARK  4 active torsions:
REMARK  status: ('A' for Active; 'I' for Inactive)
REMARK    1  A    between atoms: C6_6  and  C9_9 
REMARK    2  A    between atoms: C7_7  and  C10_10 
REMARK    3  A    between atoms: C8_8  and  O11_11 
REMARK    4  A    between atoms: C9_9  and  C10_10 
ROOT
HETATM    1  C1  UNL     1     -33.974   6.973   5.910  1.00 20.00     0.003 C 
HETATM    2  C2  UNL     1     -34.423   7.517   4.553  1.00 20.00     0.007 C 
HETATM    3  C5  UNL     1     -34.120   5.453   5.834  1.00 20.00     0.032 C 
HETATM    4  C7  UNL     1     -34.325   6.332   3.593  1.00 20.00     0.014 C 
HETATM    5  C8  UNL     1     -34.774   5.171   4.485  1.00 20.00     0.122 C 
ENDROOT
BRANCH   4   6
HETATM    6  C10 UNL     1     -32.915   6.168   3.024  1.00 20.00     0.007 C 
BRANCH   6   7
HETATM    7  C9  UNL     1     -32.211   7.516   2.875  1.00 20.00     0.005 C 
BRANCH   7   8
HETATM    8  C6  UNL     1     -32.567   8.189   1.559  1.00 20.00    -0.014 A 
HETATM    9  C3  UNL     1     -32.523   9.687   1.437  1.00 20.00     0.005 A 
HETATM   10  C4  UNL     1     -31.498   8.844   0.731  1.00 20.00     0.005 A 
ENDBRANCH   7   8
ENDBRANCH   6   7
ENDBRANCH   4   6
BRANCH   5  11
HETATM   11  O11 UNL     1     -34.396   3.902   3.992  1.00 20.00    -0.395 OA
HETATM   12  H29 UNL     1     -33.460   3.966   3.745  1.00 20.00     0.210 HD
ENDBRANCH   5  11
TORSDOF 4
ENDMDL
MODEL 3
REMARK VINA RESULT:      -5.5      1.630      2.270
REMARK  4 active torsions:
REMARK  status: ('A' for Active; 'I' for Inactive)
REMARK    1  A    between atoms: C6_6  and  C9_9 
REMARK    2  A    between atoms: C7_7  and  C10_10 
REMARK    3  A    between atoms: C8_8  and  O11_11 
REMARK    4  A    between atoms: C9_9  and  C10_10 
ROOT
HETATM    1  C1  UNL     1     -34.977   5.888   3.615  1.00 20.00     0.003 C 
HETATM    2  C2  UNL     1     -33.674   5.642   2.853  1.00 20.00     0.007 C 
HETATM    3  C5  UNL     1     -34.604   6.710   4.850  1.00 20.00     0.032 C 
HETATM    4  C7  UNL     1     -32.707   6.713   3.355  1.00 20.00     0.014 C 
HETATM    5  C8  UNL     1     -33.082   6.801   4.837  1.00 20.00     0.122 C 
ENDROOT
BRANCH   4   6
HETATM    6  C10 UNL     1     -32.863   8.031   2.595  1.00 20.00     0.007 C 
BRANCH   6   7
HETATM    7  C9  UNL     1     -31.748   8.220   1.567  1.00 20.00     0.005 C 
BRANCH   7   8
HETATM    8  C6  UNL     1     -31.931   9.506   0.777  1.00 20.00    -0.014 A 
HETATM    9  C3  UNL     1     -33.019   9.612  -0.256  1.00 20.00     0.005 A 
HETATM   10  C4  UNL     1     -33.124  10.385   1.028  1.00 20.00     0.005 A 
ENDBRANCH   7   8
ENDBRANCH   6   7
ENDBRANCH   4   6
BRANCH   5  11
HETATM   11  O11 UNL     1     -32.637   7.988   5.461  1.00 20.00    -0.395 OA
HETATM   12  H29 UNL     1     -32.522   8.647   4.758  1.00 20.00     0.210 HD
ENDBRANCH   5  11
TORSDOF 4
ENDMDL
MODEL 4
REMARK VINA RESULT:      -4.7      1.545      4.710
REMARK  4 active torsions:
REMARK  status: ('A' for Active; 'I' for Inactive)
REMARK    1  A    between atoms: C6_6  and  C9_9 
REMARK    2  A    between atoms: C7_7  and  C10_10 
REMARK    3  A    between atoms: C8_8  and  O11_11 
REMARK    4  A    between atoms: C9_9  and  C10_10 
ROOT
HETATM    1  C1  UNL     1     -32.177  10.276   2.558  1.00 20.00     0.003 C 
HETATM    2  C2  UNL     1     -31.465   8.923   2.552  1.00 20.00     0.007 C 
HETATM    3  C5  UNL     1     -32.838  10.421   1.187  1.00 20.00     0.032 C 
HETATM    4  C7  UNL     1     -32.131   8.124   1.431  1.00 20.00     0.014 C 
HETATM    5  C8  UNL     1     -32.380   9.210   0.381  1.00 20.00     0.122 C 
ENDROOT
BRANCH   4   6
HETATM    6  C10 UNL     1     -33.401   7.416   1.906  1.00 20.00     0.007 C 
BRANCH   6   7
HETATM    7  C9  UNL     1     -33.147   6.603   3.175  1.00 20.00     0.005 C 
BRANCH   7   8
HETATM    8  C6  UNL     1     -34.156   6.937   4.262  1.00 20.00    -0.014 A 
HETATM    9  C3  UNL     1     -34.413   5.967   5.381  1.00 20.00     0.005 A 
HETATM   10  C4  UNL     1     -33.691   7.255   5.654  1.00 20.00     0.005 A 
ENDBRANCH   7   8
ENDBRANCH   6   7
ENDBRANCH   4   6
BRANCH   5  11
HETATM   11  O11 UNL     1     -33.344   8.848  -0.587  1.00 20.00    -0.395 OA
HETATM   12  H29 UNL     1     -34.132   8.558  -0.100  1.00 20.00     0.210 HD
ENDBRANCH   5  11
TORSDOF 4
ENDMDL
MODEL 5
REMARK VINA RESULT:      -4.6     10.652     11.614
REMARK  4 active torsions:
REMARK  status: ('A' for Active; 'I' for Inactive)
REMARK    1  A    between atoms: C6_6  and  C9_9 
REMARK    2  A    between atoms: C7_7  and  C10_10 
REMARK    3  A    between atoms: C8_8  and  O11_11 
REMARK    4  A    between atoms: C9_9  and  C10_10 
ROOT
HETATM    1  C1  UNL     1     -37.127  16.040  -5.096  1.00 20.00     0.003 C 
HETATM    2  C2  UNL     1     -35.719  16.180  -5.675  1.00 20.00     0.007 C 
HETATM    3  C5  UNL     1     -37.383  14.540  -4.946  1.00 20.00     0.032 C 
HETATM    4  C7  UNL     1     -35.026  14.852  -5.373  1.00 20.00     0.014 C 
HETATM    5  C8  UNL     1     -36.171  13.853  -5.567  1.00 20.00     0.122 C 
ENDROOT
BRANCH   4   6
HETATM    6  C10 UNL     1     -34.411  14.829  -3.973  1.00 20.00     0.007 C 
BRANCH   6   7
HETATM    7  C9  UNL     1     -33.633  16.112  -3.683  1.00 20.00     0.005 C 
BRANCH   7   8
HETATM    8  C6  UNL     1     -33.965  16.665  -2.307  1.00 20.00    -0.014 A 
HETATM    9  C3  UNL     1     -34.637  18.003  -2.170  1.00 20.00     0.005 A 
HETATM   10  C4  UNL     1     -35.394  16.746  -1.848  1.00 20.00     0.005 A 
ENDBRANCH   7   8
ENDBRANCH   6   7
ENDBRANCH   4   6
BRANCH   5  11
HETATM   11  O11 UNL     1     -35.932  12.598  -4.962  1.00 20.00    -0.395 OA
HETATM   12  H29 UNL     1     -36.309  12.642  -4.069  1.00 20.00     0.210 HD
ENDBRANCH   5  11
TORSDOF 4
ENDMDL
MODEL 6
REMARK VINA RESULT:      -4.4     10.675     11.582
REMARK  4 active torsions:
REMARK  status: ('A' for Active; 'I' for Inactive)
REMARK    1  A    between atoms: C6_6  and  C9_9 
REMARK    2  A    between atoms: C7_7  and  C10_10 
REMARK    3  A    between atoms: C8_8  and  O11_11 
REMARK    4  A    between atoms: C9_9  and  C10_10 
ROOT
HETATM    1  C1  UNL     1     -33.844  15.529  -6.341  1.00 20.00     0.003 C 
HETATM    2  C2  UNL     1     -33.547  15.650  -4.846  1.00 20.00     0.007 C 
HETATM    3  C5  UNL     1     -34.690  14.267  -6.511  1.00 20.00     0.032 C 
HETATM    4  C7  UNL     1     -34.608  14.794  -4.155  1.00 20.00     0.014 C 
HETATM    5  C8  UNL     1     -34.745  13.622  -5.130  1.00 20.00     0.122 C 
ENDROOT
BRANCH   4   6
HETATM    6  C10 UNL     1     -35.908  15.566  -3.924  1.00 20.00     0.007 C 
BRANCH   6   7
HETATM    7  C9  UNL     1     -35.664  16.848  -3.130  1.00 20.00     0.005 C 
BRANCH   7   8
HETATM    8  C6  UNL     1     -35.037  16.554  -1.776  1.00 20.00    -0.014 A 
HETATM    9  C3  UNL     1     -34.086  17.538  -1.152  1.00 20.00     0.005 A 
HETATM   10  C4  UNL     1     -35.454  17.337  -0.563  1.00 20.00     0.005 A 
ENDBRANCH   7   8
ENDBRANCH   6   7
ENDBRANCH   4   6
BRANCH   5  11
HETATM   11  O11 UNL     1     -35.939  12.884  -4.960  1.00 20.00    -0.395 OA
HETATM   12  H29 UNL     1     -36.566  13.469  -4.507  1.00 20.00     0.210 HD
ENDBRANCH   5  11
TORSDOF 4
ENDMDL
MODEL 7
REMARK VINA RESULT:      -4.2      1.720      4.788
REMARK  4 active torsions:
REMARK  status: ('A' for Active; 'I' for Inactive)
REMARK    1  A    between atoms: C6_6  and  C9_9 
REMARK    2  A    between atoms: C7_7  and  C10_10 
REMARK    3  A    between atoms: C8_8  and  O11_11 
REMARK    4  A    between atoms: C9_9  and  C10_10 
ROOT
HETATM    1  C1  UNL     1     -31.861   8.625   0.839  1.00 20.00     0.003 C 
HETATM    2  C2  UNL     1     -33.282   8.301   1.302  1.00 20.00     0.007 C 
HETATM    3  C5  UNL     1     -31.036   8.848   2.107  1.00 20.00     0.032 C 
HETATM    4  C7  UNL     1     -33.138   7.850   2.755  1.00 20.00     0.014 C 
HETATM    5  C8  UNL     1     -32.032   8.779   3.261  1.00 20.00     0.122 C 
ENDROOT
BRANCH   4   6
HETATM    6  C10 UNL     1     -32.800   6.362   2.864  1.00 20.00     0.007 C 
BRANCH   6   7
HETATM    7  C9  UNL     1     -34.056   5.515   3.057  1.00 20.00     0.005 C 
BRANCH   7   8
HETATM    8  C6  UNL     1     -34.803   5.906   4.322  1.00 20.00    -0.014 A 
HETATM    9  C3  UNL     1     -34.786   5.001   5.523  1.00 20.00     0.005 A 
HETATM   10  C4  UNL     1     -34.044   6.307   5.556  1.00 20.00     0.005 A 
ENDBRANCH   7   8
ENDBRANCH   6   7
ENDBRANCH   4   6
BRANCH   5  11
HETATM   11  O11 UNL     1     -31.408   8.321   4.444  1.00 20.00    -0.395 OA
HETATM   12  H29 UNL     1     -31.305   7.361   4.351  1.00 20.00     0.210 HD
ENDBRANCH   5  11
TORSDOF 4
ENDMDL
MODEL 8
REMARK VINA RESULT:      -4.1     10.697     12.140
REMARK  4 active torsions:
REMARK  status: ('A' for Active; 'I' for Inactive)
REMARK    1  A    between atoms: C6_6  and  C9_9 
REMARK    2  A    between atoms: C7_7  and  C10_10 
REMARK    3  A    between atoms: C8_8  and  O11_11 
REMARK    4  A    between atoms: C9_9  and  C10_10 
ROOT
HETATM    1  C1  UNL     1     -34.109  16.745  -5.501  1.00 20.00     0.003 C 
HETATM    2  C2  UNL     1     -34.896  16.414  -4.232  1.00 20.00     0.007 C 
HETATM    3  C5  UNL     1     -32.979  15.719  -5.586  1.00 20.00     0.032 C 
HETATM    4  C7  UNL     1     -34.543  14.963  -3.908  1.00 20.00     0.014 C 
HETATM    5  C8  UNL     1     -33.063  14.908  -4.297  1.00 20.00     0.122 C 
ENDROOT
BRANCH   4   6
HETATM    6  C10 UNL     1     -35.423  13.972  -4.672  1.00 20.00     0.007 C 
BRANCH   6   7
HETATM    7  C9  UNL     1     -36.849  14.498  -4.831  1.00 20.00     0.005 C 
BRANCH   7   8
HETATM    8  C6  UNL     1     -37.326  14.386  -6.270  1.00 20.00    -0.014 A 
HETATM    9  C3  UNL     1     -37.327  15.595  -7.164  1.00 20.00     0.005 A 
HETATM   10  C4  UNL     1     -36.344  14.484  -7.403  1.00 20.00     0.005 A 
ENDBRANCH   7   8
ENDBRANCH   6   7
ENDBRANCH   4   6
BRANCH   5  11
HETATM   11  O11 UNL     1     -32.579  13.595  -4.489  1.00 20.00    -0.395 OA
HETATM   12  H29 UNL     1     -33.112  13.015  -3.922  1.00 20.00     0.210 HD
ENDBRANCH   5  11
TORSDOF 4
ENDMDL
MODEL 9
REMARK VINA RESULT:      -4.1      0.966      4.557
REMARK  4 active torsions:
REMARK  status: ('A' for Active; 'I' for Inactive)
REMARK    1  A    between atoms: C6_6  and  C9_9 
REMARK    2  A    between atoms: C7_7  and  C10_10 
REMARK    3  A    between atoms: C8_8  and  O11_11 
REMARK    4  A    between atoms: C9_9  and  C10_10 
ROOT
HETATM    1  C1  UNL     1     -31.962   9.265   1.936  1.00 20.00     0.003 C 
HETATM    2  C2  UNL     1     -31.407   8.521   3.152  1.00 20.00     0.007 C 
HETATM    3  C5  UNL     1     -32.927   8.300   1.246  1.00 20.00     0.032 C 
HETATM    4  C7  UNL     1     -32.404   7.395   3.423  1.00 20.00     0.014 C 
HETATM    5  C8  UNL     1     -32.802   6.983   2.003  1.00 20.00     0.122 C 
ENDROOT
BRANCH   4   6
HETATM    6  C10 UNL     1     -33.577   7.861   4.287  1.00 20.00     0.007 C 
BRANCH   6   7
HETATM    7  C9  UNL     1     -33.753   6.974   5.518  1.00 20.00     0.005 C 
BRANCH   7   8
HETATM    8  C6  UNL     1     -34.785   5.884   5.276  1.00 20.00    -0.014 A 
HETATM    9  C3  UNL     1     -34.373   4.573   4.665  1.00 20.00     0.005 A 
HETATM   10  C4  UNL     1     -34.776   4.635   6.112  1.00 20.00     0.005 A 
ENDBRANCH   7   8
ENDBRANCH   6   7
ENDBRANCH   4   6
BRANCH   5  11
HETATM   11  O11 UNL     1     -34.007   6.246   1.947  1.00 20.00    -0.395 OA
HETATM   12  H29 UNL     1     -34.203   6.104   1.007  1.00 20.00     0.210 HD
ENDBRANCH   5  11
TORSDOF 4
ENDMDL
