MODEL 1
REMARK VINA RESULT:      -6.4      0.000      0.000
REMARK  5 active torsions:
REMARK  status: ('A' for Active; 'I' for Inactive)
REMARK    1  A    between atoms: C1_1  and  C7_7 
REMARK    2  A    between atoms: C1_1  and  C10_10 
REMARK    3  A    between atoms: C4_4  and  C8_8 
REMARK    4  A    between atoms: C8_8  and  C9_9 
REMARK    5  A    between atoms: C9_9  and  C10_10 
ROOT
HETATM    1  C6  UNL     1     -33.061   5.643   2.614  1.00 20.00     0.018 C 
HETATM    2  C10 UNL     1     -33.259   7.020   3.244  1.00 20.00     0.051 C 
ENDROOT
BRANCH   2   3
HETATM    3  C1  UNL     1     -33.883   6.833   4.625  1.00 20.00     0.130 C 
HETATM    4  O11 UNL     1     -33.520   7.500   5.594  1.00 20.00    -0.298 OA
BRANCH   3   5
HETATM    5  C7  UNL     1     -34.951   5.756   4.737  1.00 20.00     0.074 C 
HETATM    6  C5  UNL     1     -34.585   4.673   5.735  1.00 20.00     0.013 C 
ENDBRANCH   3   5
ENDBRANCH   2   3
BRANCH   2   7
HETATM    7  C9  UNL     1     -31.929   7.784   3.319  1.00 20.00     0.012 C 
BRANCH   7   8
HETATM    8  C8  UNL     1     -31.572   8.468   1.995  1.00 20.00     0.005 C 
BRANCH   8   9
HETATM    9  C4  UNL     1     -32.753   9.168   1.397  1.00 20.00    -0.014 A 
HETATM   10  C2  UNL     1     -32.618  10.571   0.874  1.00 20.00     0.005 A 
HETATM   11  C3  UNL     1     -32.808   9.429  -0.084  1.00 20.00     0.005 A 
ENDBRANCH   8   9
ENDBRANCH   7   8
ENDBRANCH   2   7
TORSDOF 5
ENDMDL
MODEL 2
REMARK VINA RESULT:      -6.2      1.205      1.227
REMARK  5 active torsions:
REMARK  status: ('A' for Active; 'I' for Inactive)
REMARK    1  A    between atoms: C1_1  and  C7_7 
REMARK    2  A    between atoms: C1_1  and  C10_10 
REMARK    3  A    between atoms: C4_4  and  C8_8 
REMARK    4  A    between atoms: C8_8  and  C9_9 
REMARK    5  A    between atoms: C9_9  and  C10_10 
ROOT
HETATM    1  C6  UNL     1     -32.916   4.993   2.570  1.00 20.00     0.018 C 
HETATM    2  C10 UNL     1     -33.521   6.375   2.804  1.00 20.00     0.051 C 
ENDROOT
BRANCH   2   3
HETATM    3  C1  UNL     1     -34.665   6.237   3.808  1.00 20.00     0.130 C 
HETATM    4  O11 UNL     1     -35.835   6.128   3.443  1.00 20.00    -0.298 OA
BRANCH   3   5
HETATM    5  C7  UNL     1     -34.274   6.277   5.277  1.00 20.00     0.074 C 
HETATM    6  C5  UNL     1     -34.550   4.967   5.990  1.00 20.00     0.013 C 
ENDBRANCH   3   5
ENDBRANCH   2   3
BRANCH   2   7
HETATM    7  C9  UNL     1     -32.452   7.365   3.292  1.00 20.00     0.012 C 
BRANCH   7   8
HETATM    8  C8  UNL     1     -31.858   8.194   2.149  1.00 20.00     0.005 C 
BRANCH   8   9
HETATM    9  C4  UNL     1     -32.899   9.036   1.477  1.00 20.00    -0.014 A 
HETATM   10  C2  UNL     1     -32.590  10.456   1.089  1.00 20.00     0.005 A 
HETATM   11  C3  UNL     1     -32.752   9.406   0.026  1.00 20.00     0.005 A 
ENDBRANCH   8   9
ENDBRANCH   7   8
ENDBRANCH   2   7
TORSDOF 5
ENDMDL
MODEL 3
REMARK VINA RESULT:      -6.0      1.328      1.703
REMARK  5 active torsions:
REMARK  status: ('A' for Active; 'I' for Inactive)
REMARK    1  A    between atoms: C1_1  and  C7_7 
REMARK    2  A    between atoms: C1_1  and  C10_10 
REMARK    3  A    between atoms: C4_4  and  C8_8 
REMARK    4  A    between atoms: C8_8  and  C9_9 
REMARK    5  A    between atoms: C9_9  and  C10_10 
ROOT
HETATM    1  C6  UNL     1     -32.977   4.595   2.597  1.00 20.00     0.018 C 
HETATM    2  C10 UNL     1     -33.612   5.979   2.698  1.00 20.00     0.051 C 
ENDROOT
BRANCH   2   3
HETATM    3  C1  UNL     1     -34.620   5.964   3.847  1.00 20.00     0.130 C 
HETATM    4  O11 UNL     1     -35.830   6.071   3.646  1.00 20.00    -0.298 OA
BRANCH   3   5
HETATM    5  C7  UNL     1     -34.038   5.845   5.246  1.00 20.00     0.074 C 
HETATM    6  C5  UNL     1     -33.909   7.188   5.941  1.00 20.00     0.013 C 
ENDBRANCH   3   5
ENDBRANCH   2   3
BRANCH   2   7
HETATM    7  C9  UNL     1     -32.539   7.061   2.897  1.00 20.00     0.012 C 
BRANCH   7   8
HETATM    8  C8  UNL     1     -33.024   8.450   2.469  1.00 20.00     0.005 C 
BRANCH   8   9
HETATM    9  C4  UNL     1     -32.215   8.992   1.331  1.00 20.00    -0.014 A 
HETATM   10  C2  UNL     1     -32.868   9.284   0.008  1.00 20.00     0.005 A 
HETATM   11  C3  UNL     1     -32.402  10.415   0.881  1.00 20.00     0.005 A 
ENDBRANCH   8   9
ENDBRANCH   7   8
ENDBRANCH   2   7
TORSDOF 5
ENDMDL
MODEL 4
REMARK VINA RESULT:      -5.9      1.826      5.255
REMARK  5 active torsions:
REMARK  status: ('A' for Active; 'I' for Inactive)
REMARK    1  A    between atoms: C1_1  and  C7_7 
REMARK    2  A    between atoms: C1_1  and  C10_10 
REMARK    3  A    between atoms: C4_4  and  C8_8 
REMARK    4  A    between atoms: C8_8  and  C9_9 
REMARK    5  A    between atoms: C9_9  and  C10_10 
ROOT
HETATM    1  C6  UNL     1     -31.556   8.039   3.636  1.00 20.00     0.018 C 
HETATM    2  C10 UNL     1     -32.666   8.253   2.610  1.00 20.00     0.051 C 
ENDROOT
BRANCH   2   3
HETATM    3  C1  UNL     1     -32.052   8.877   1.358  1.00 20.00     0.130 C 
HETATM    4  O11 UNL     1     -30.996   8.462   0.881  1.00 20.00    -0.298 OA
BRANCH   3   5
HETATM    5  C7  UNL     1     -32.804  10.056   0.761  1.00 20.00     0.074 C 
HETATM    6  C5  UNL     1     -33.413   9.735  -0.592  1.00 20.00     0.013 C 
ENDBRANCH   3   5
ENDBRANCH   2   3
BRANCH   2   7
HETATM    7  C9  UNL     1     -33.382   6.931   2.295  1.00 20.00     0.012 C 
BRANCH   7   8
HETATM    8  C8  UNL     1     -33.274   5.920   3.440  1.00 20.00     0.005 C 
BRANCH   8   9
HETATM    9  C4  UNL     1     -34.461   5.986   4.351  1.00 20.00    -0.014 A 
HETATM   10  C2  UNL     1     -34.609   4.999   5.477  1.00 20.00     0.005 A 
HETATM   11  C3  UNL     1     -34.297   6.438   5.777  1.00 20.00     0.005 A 
ENDBRANCH   8   9
ENDBRANCH   7   8
ENDBRANCH   2   7
TORSDOF 5
ENDMDL
MODEL 5
REMARK VINA RESULT:      -5.5      1.450      1.860
REMARK  5 active torsions:
REMARK  status: ('A' for Active; 'I' for Inactive)
REMARK    1  A    between atoms: C1_1  and  C7_7 
REMARK    2  A    between atoms: C1_1  and  C10_10 
REMARK    3  A    between atoms: C4_4  and  C8_8 
REMARK    4  A    between atoms: C8_8  and  C9_9 
REMARK    5  A    between atoms: C9_9  and  C10_10 
ROOT
HETATM    1  C6  UNL     1     -33.498   7.628   4.655  1.00 20.00     0.018 C 
HETATM    2  C10 UNL     1     -32.886   6.852   3.491  1.00 20.00     0.051 C 
ENDROOT
BRANCH   2   3
HETATM    3  C1  UNL     1     -33.621   5.518   3.363  1.00 20.00     0.130 C 
HETATM    4  O11 UNL     1     -33.225   4.633   2.605  1.00 20.00    -0.298 OA
BRANCH   3   5
HETATM    5  C7  UNL     1     -34.883   5.367   4.197  1.00 20.00     0.074 C 
HETATM    6  C5  UNL     1     -34.644   4.593   5.481  1.00 20.00     0.013 C 
ENDBRANCH   3   5
ENDBRANCH   2   3
BRANCH   2   7
HETATM    7  C9  UNL     1     -32.957   7.668   2.192  1.00 20.00     0.012 C 
BRANCH   7   8
HETATM    8  C8  UNL     1     -31.646   8.401   1.891  1.00 20.00     0.005 C 
BRANCH   8   9
HETATM    9  C4  UNL     1     -31.761   9.263   0.670  1.00 20.00    -0.014 A 
HETATM   10  C2  UNL     1     -33.068   9.361  -0.067  1.00 20.00     0.005 A 
HETATM   11  C3  UNL     1     -32.558  10.537   0.717  1.00 20.00     0.005 A 
ENDBRANCH   8   9
ENDBRANCH   7   8
ENDBRANCH   2   7
TORSDOF 5
ENDMDL
MODEL 6
REMARK VINA RESULT:      -5.3      1.417      5.148
REMARK  5 active torsions:
REMARK  status: ('A' for Active; 'I' for Inactive)
REMARK    1  A    between atoms: C1_1  and  C7_7 
REMARK    2  A    between atoms: C1_1  and  C10_10 
REMARK    3  A    between atoms: C4_4  and  C8_8 
REMARK    4  A    between atoms: C8_8  and  C9_9 
REMARK    5  A    between atoms: C9_9  and  C10_10 
ROOT
HETATM    1  C6  UNL     1     -32.937   7.818   4.992  1.00 20.00     0.018 C 
HETATM    2  C10 UNL     1     -33.247   7.790   3.497  1.00 20.00     0.051 C 
ENDROOT
BRANCH   2   3
HETATM    3  C1  UNL     1     -31.996   8.226   2.736  1.00 20.00     0.130 C 
HETATM    4  O11 UNL     1     -30.889   8.249   3.273  1.00 20.00    -0.298 OA
BRANCH   3   5
HETATM    5  C7  UNL     1     -32.207   8.659   1.295  1.00 20.00     0.074 C 
HETATM    6  C5  UNL     1     -32.551  10.133   1.172  1.00 20.00     0.013 C 
ENDBRANCH   3   5
ENDBRANCH   2   3
BRANCH   2   7
HETATM    7  C9  UNL     1     -33.720   6.394   3.062  1.00 20.00     0.012 C 
BRANCH   7   8
HETATM    8  C8  UNL     1     -35.142   6.084   3.538  1.00 20.00     0.005 C 
BRANCH   8   9
HETATM    9  C4  UNL     1     -35.184   4.857   4.396  1.00 20.00    -0.014 A 
HETATM   10  C2  UNL     1     -33.925   4.082   4.672  1.00 20.00     0.005 A 
HETATM   11  C3  UNL     1     -34.576   4.874   5.772  1.00 20.00     0.005 A 
ENDBRANCH   8   9
ENDBRANCH   7   8
ENDBRANCH   2   7
TORSDOF 5
ENDMDL
MODEL 7
REMARK VINA RESULT:      -5.3      1.291      4.966
REMARK  5 active torsions:
REMARK  status: ('A' for Active; 'I' for Inactive)
REMARK    1  A    between atoms: C1_1  and  C7_7 
REMARK    2  A    between atoms: C1_1  and  C10_10 
REMARK    3  A    between atoms: C4_4  and  C8_8 
REMARK    4  A    between atoms: C8_8  and  C9_9 
REMARK    5  A    between atoms: C9_9  and  C10_10 
ROOT
HETATM    1  C6  UNL     1     -33.298   6.389   1.999  1.00 20.00     0.018 C 
HETATM    2  C10 UNL     1     -32.744   7.043   3.263  1.00 20.00     0.051 C 
ENDROOT
BRANCH   2   3
HETATM    3  C1  UNL     1     -31.834   8.198   2.849  1.00 20.00     0.130 C 
HETATM    4  O11 UNL     1     -31.092   8.758   3.657  1.00 20.00    -0.298 OA
BRANCH   3   5
HETATM    5  C7  UNL     1     -31.924   8.632   1.395  1.00 20.00     0.074 C 
HETATM    6  C5  UNL     1     -32.582   9.990   1.232  1.00 20.00     0.013 C 
ENDBRANCH   3   5
ENDBRANCH   2   3
BRANCH   2   7
HETATM    7  C9  UNL     1     -33.883   7.516   4.179  1.00 20.00     0.012 C 
BRANCH   7   8
HETATM    8  C8  UNL     1     -33.768   6.946   5.596  1.00 20.00     0.005 C 
BRANCH   8   9
HETATM    9  C4  UNL     1     -34.658   5.756   5.788  1.00 20.00    -0.014 A 
HETATM   10  C2  UNL     1     -35.230   5.037   4.597  1.00 20.00     0.005 A 
HETATM   11  C3  UNL     1     -34.167   4.379   5.431  1.00 20.00     0.005 A 
ENDBRANCH   8   9
ENDBRANCH   7   8
ENDBRANCH   2   7
TORSDOF 5
ENDMDL
MODEL 8
REMARK VINA RESULT:      -4.4     10.460     11.470
REMARK  5 active torsions:
REMARK  status: ('A' for Active; 'I' for Inactive)
REMARK    1  A    between atoms: C1_1  and  C7_7 
REMARK    2  A    between atoms: C1_1  and  C10_10 
REMARK    3  A    between atoms: C4_4  and  C8_8 
REMARK    4  A    between atoms: C8_8  and  C9_9 
REMARK    5  A    between atoms: C9_9  and  C10_10 
ROOT
HETATM    1  C6  UNL     1     -37.903  14.666  -4.882  1.00 20.00     0.018 C 
HETATM    2  C10 UNL     1     -36.475  14.978  -4.439  1.00 20.00     0.051 C 
ENDROOT
BRANCH   2   3
HETATM    3  C1  UNL     1     -35.539  13.945  -5.065  1.00 20.00     0.130 C 
HETATM    4  O11 UNL     1     -35.874  12.769  -5.203  1.00 20.00    -0.298 OA
BRANCH   3   5
HETATM    5  C7  UNL     1     -34.164  14.450  -5.474  1.00 20.00     0.074 C 
HETATM    6  C5  UNL     1     -33.141  14.324  -4.360  1.00 20.00     0.013 C 
ENDBRANCH   3   5
ENDBRANCH   2   3
BRANCH   2   7
HETATM    7  C9  UNL     1     -36.083  16.411  -4.828  1.00 20.00     0.012 C 
BRANCH   7   8
HETATM    8  C8  UNL     1     -35.866  17.310  -3.607  1.00 20.00     0.005 C 
BRANCH   8   9
HETATM    9  C4  UNL     1     -35.329  16.539  -2.441  1.00 20.00    -0.014 A 
HETATM   10  C2  UNL     1     -34.064  16.980  -1.757  1.00 20.00     0.005 A 
HETATM   11  C3  UNL     1     -35.385  17.124  -1.056  1.00 20.00     0.005 A 
ENDBRANCH   8   9
ENDBRANCH   7   8
ENDBRANCH   2   7
TORSDOF 5
ENDMDL
MODEL 9
REMARK VINA RESULT:      -4.3     10.662     11.396
REMARK  5 active torsions:
REMARK  status: ('A' for Active; 'I' for Inactive)
REMARK    1  A    between atoms: C1_1  and  C7_7 
REMARK    2  A    between atoms: C1_1  and  C10_10 
REMARK    3  A    between atoms: C4_4  and  C8_8 
REMARK    4  A    between atoms: C8_8  and  C9_9 
REMARK    5  A    between atoms: C9_9  and  C10_10 
ROOT
HETATM    1  C6  UNL     1     -34.069  14.348  -6.898  1.00 20.00     0.018 C 
HETATM    2  C10 UNL     1     -34.812  14.726  -5.619  1.00 20.00     0.051 C 
ENDROOT
BRANCH   2   3
HETATM    3  C1  UNL     1     -36.019  13.801  -5.471  1.00 20.00     0.130 C 
HETATM    4  O11 UNL     1     -35.892  12.616  -5.167  1.00 20.00    -0.298 OA
BRANCH   3   5
HETATM    5  C7  UNL     1     -37.377  14.425  -5.755  1.00 20.00     0.074 C 
HETATM    6  C5  UNL     1     -37.984  15.083  -4.530  1.00 20.00     0.013 C 
ENDBRANCH   3   5
ENDBRANCH   2   3
BRANCH   2   7
HETATM    7  C9  UNL     1     -33.880  14.644  -4.400  1.00 20.00     0.012 C 
BRANCH   7   8
HETATM    8  C8  UNL     1     -33.806  15.966  -3.631  1.00 20.00     0.005 C 
BRANCH   8   9
HETATM    9  C4  UNL     1     -34.931  16.099  -2.650  1.00 20.00    -0.014 A 
HETATM   10  C2  UNL     1     -34.793  17.004  -1.457  1.00 20.00     0.005 A 
HETATM   11  C3  UNL     1     -35.724  17.376  -2.577  1.00 20.00     0.005 A 
ENDBRANCH   8   9
ENDBRANCH   7   8
ENDBRANCH   2   7
TORSDOF 5
ENDMDL
