MODEL 1
REMARK VINA RESULT:      -5.1      0.000      0.000
REMARK  2 active torsions:
REMARK  status: ('A' for Active; 'I' for Inactive)
REMARK    1  A    between atoms: C1_1  and  C9_9 
REMARK    2  A    between atoms: C6_6  and  C9_9 
ROOT
HETATM    1  C2  UNL     1     -34.179   7.112   4.159  1.00 20.00     0.031 C 
HETATM    2  C3  UNL     1     -32.530   5.964   2.658  1.00 20.00     0.031 C 
HETATM    3  C4  UNL     1     -34.985   5.817   4.145  1.00 20.00     0.168 C 
HETATM    4  C5  UNL     1     -33.426   4.735   2.728  1.00 20.00     0.168 C 
HETATM    5  C6  UNL     1     -33.345   7.243   2.880  1.00 20.00     0.000 C 
HETATM    6  O11 UNL     1     -34.128   4.690   3.971  1.00 20.00    -0.391 OA
ENDROOT
BRANCH   5   7
HETATM    7  C9  UNL     1     -32.439   8.470   2.938  1.00 20.00     0.055 C 
HETATM    8  C8  UNL     1     -31.140   8.150   3.672  1.00 20.00     0.018 C 
BRANCH   7   9
HETATM    9  C1  UNL     1     -32.161   8.976   1.527  1.00 20.00     0.127 C 
HETATM   10  C7  UNL     1     -33.010  10.120   1.033  1.00 20.00     0.091 C 
HETATM   11  O10 UNL     1     -31.306   8.469   0.800  1.00 20.00    -0.298 OA
ENDBRANCH   7   9
ENDBRANCH   5   7
TORSDOF 2
ENDMDL
MODEL 2
REMARK VINA RESULT:      -4.3     11.071     11.888
REMARK  2 active torsions:
REMARK  status: ('A' for Active; 'I' for Inactive)
REMARK    1  A    between atoms: C1_1  and  C9_9 
REMARK    2  A    between atoms: C6_6  and  C9_9 
ROOT
HETATM    1  C2  UNL     1     -33.378  18.529  -3.084  1.00 20.00     0.031 C 
HETATM    2  C3  UNL     1     -34.624  16.772  -1.798  1.00 20.00     0.031 C 
HETATM    3  C4  UNL     1     -33.506  17.625  -4.305  1.00 20.00     0.168 C 
HETATM    4  C5  UNL     1     -34.683  15.967  -3.090  1.00 20.00     0.168 C 
HETATM    5  C6  UNL     1     -33.406  17.702  -1.794  1.00 20.00     0.000 C 
HETATM    6  O11 UNL     1     -34.690  16.832  -4.226  1.00 20.00    -0.391 OA
ENDROOT
BRANCH   5   7
HETATM    7  C9  UNL     1     -33.406  18.603  -0.562  1.00 20.00     0.055 C 
HETATM    8  C8  UNL     1     -34.515  18.199   0.405  1.00 20.00     0.018 C 
BRANCH   7   9
HETATM    9  C1  UNL     1     -32.041  18.555   0.116  1.00 20.00     0.127 C 
HETATM   10  C7  UNL     1     -31.977  19.010   1.552  1.00 20.00     0.091 C 
HETATM   11  O10 UNL     1     -31.024  18.190  -0.474  1.00 20.00    -0.298 OA
ENDBRANCH   7   9
ENDBRANCH   5   7
TORSDOF 2
ENDMDL
MODEL 3
REMARK VINA RESULT:      -4.3     10.353     11.308
REMARK  2 active torsions:
REMARK  status: ('A' for Active; 'I' for Inactive)
REMARK    1  A    between atoms: C1_1  and  C9_9 
REMARK    2  A    between atoms: C6_6  and  C9_9 
ROOT
HETATM    1  C2  UNL     1     -35.644  16.636  -2.209  1.00 20.00     0.031 C 
HETATM    2  C3  UNL     1     -33.323  17.442  -2.711  1.00 20.00     0.031 C 
HETATM    3  C4  UNL     1     -35.440  17.149  -0.788  1.00 20.00     0.168 C 
HETATM    4  C5  UNL     1     -33.248  17.911  -1.264  1.00 20.00     0.168 C 
HETATM    5  C6  UNL     1     -34.301  16.272  -2.852  1.00 20.00     0.000 C 
HETATM    6  O11 UNL     1     -34.544  18.259  -0.776  1.00 20.00    -0.391 OA
ENDROOT
BRANCH   5   7
HETATM    7  C9  UNL     1     -34.480  15.877  -4.315  1.00 20.00     0.055 C 
HETATM    8  C8  UNL     1     -33.394  16.508  -5.183  1.00 20.00     0.018 C 
BRANCH   7   9
HETATM    9  C1  UNL     1     -34.475  14.358  -4.447  1.00 20.00     0.127 C 
HETATM   10  C7  UNL     1     -35.759  13.709  -4.899  1.00 20.00     0.091 C 
HETATM   11  O10 UNL     1     -33.487  13.676  -4.176  1.00 20.00    -0.298 OA
ENDBRANCH   7   9
ENDBRANCH   5   7
TORSDOF 2
ENDMDL
MODEL 4
REMARK VINA RESULT:      -4.3      1.364      4.469
REMARK  2 active torsions:
REMARK  status: ('A' for Active; 'I' for Inactive)
REMARK    1  A    between atoms: C1_1  and  C9_9 
REMARK    2  A    between atoms: C6_6  and  C9_9 
ROOT
HETATM    1  C2  UNL     1     -33.567   7.806   1.581  1.00 20.00     0.031 C 
HETATM    2  C3  UNL     1     -31.938   7.454   3.456  1.00 20.00     0.031 C 
HETATM    3  C4  UNL     1     -32.725   9.007   1.168  1.00 20.00     0.168 C 
HETATM    4  C5  UNL     1     -31.186   8.674   2.938  1.00 20.00     0.168 C 
HETATM    5  C6  UNL     1     -33.422   7.534   3.082  1.00 20.00     0.000 C 
HETATM    6  O11 UNL     1     -31.357   8.814   1.528  1.00 20.00    -0.391 OA
ENDROOT
BRANCH   5   7
HETATM    7  C9  UNL     1     -34.159   6.259   3.485  1.00 20.00     0.055 C 
HETATM    8  C8  UNL     1     -33.447   5.025   2.936  1.00 20.00     0.018 C 
BRANCH   7   9
HETATM    9  C1  UNL     1     -34.285   6.190   5.003  1.00 20.00     0.127 C 
HETATM   10  C7  UNL     1     -34.593   4.841   5.601  1.00 20.00     0.091 C 
HETATM   11  O10 UNL     1     -34.171   7.184   5.720  1.00 20.00    -0.298 OA
ENDBRANCH   7   9
ENDBRANCH   5   7
TORSDOF 2
ENDMDL
MODEL 5
REMARK VINA RESULT:      -4.3     10.717     11.207
REMARK  2 active torsions:
REMARK  status: ('A' for Active; 'I' for Inactive)
REMARK    1  A    between atoms: C1_1  and  C9_9 
REMARK    2  A    between atoms: C6_6  and  C9_9 
ROOT
HETATM    1  C2  UNL     1     -36.513  15.755  -3.632  1.00 20.00     0.031 C 
HETATM    2  C3  UNL     1     -35.576  13.853  -4.972  1.00 20.00     0.031 C 
HETATM    3  C4  UNL     1     -37.820  15.553  -4.390  1.00 20.00     0.168 C 
HETATM    4  C5  UNL     1     -36.934  13.756  -5.655  1.00 20.00     0.168 C 
HETATM    5  C6  UNL     1     -35.322  15.278  -4.470  1.00 20.00     0.000 C 
HETATM    6  O11 UNL     1     -37.974  14.188  -4.777  1.00 20.00    -0.391 OA
ENDROOT
BRANCH   5   7
HETATM    7  C9  UNL     1     -34.022  15.357  -3.674  1.00 20.00     0.055 C 
HETATM    8  C8  UNL     1     -32.904  14.600  -4.386  1.00 20.00     0.018 C 
BRANCH   7   9
HETATM    9  C1  UNL     1     -33.640  16.816  -3.448  1.00 20.00     0.127 C 
HETATM   10  C7  UNL     1     -33.494  17.269  -2.017  1.00 20.00     0.091 C 
HETATM   11  O10 UNL     1     -33.481  17.608  -4.378  1.00 20.00    -0.298 OA
ENDBRANCH   7   9
ENDBRANCH   5   7
TORSDOF 2
ENDMDL
MODEL 6
REMARK VINA RESULT:      -4.2     10.420     11.585
REMARK  2 active torsions:
REMARK  status: ('A' for Active; 'I' for Inactive)
REMARK    1  A    between atoms: C1_1  and  C9_9 
REMARK    2  A    between atoms: C6_6  and  C9_9 
ROOT
HETATM    1  C2  UNL     1     -36.425  16.427  -4.706  1.00 20.00     0.031 C 
HETATM    2  C3  UNL     1     -34.678  16.082  -2.938  1.00 20.00     0.031 C 
HETATM    3  C4  UNL     1     -37.263  17.126  -3.641  1.00 20.00     0.168 C 
HETATM    4  C5  UNL     1     -35.613  16.801  -1.973  1.00 20.00     0.168 C 
HETATM    5  C6  UNL     1     -35.473  15.412  -4.064  1.00 20.00     0.000 C 
HETATM    6  O11 UNL     1     -36.426  17.747  -2.666  1.00 20.00    -0.391 OA
ENDROOT
BRANCH   5   7
HETATM    7  C9  UNL     1     -34.541  14.797  -5.105  1.00 20.00     0.055 C 
HETATM    8  C8  UNL     1     -33.215  14.389  -4.470  1.00 20.00     0.018 C 
BRANCH   7   9
HETATM    9  C1  UNL     1     -35.221  13.605  -5.770  1.00 20.00     0.127 C 
HETATM   10  C7  UNL     1     -35.020  13.447  -7.256  1.00 20.00     0.091 C 
HETATM   11  O10 UNL     1     -35.926  12.813  -5.143  1.00 20.00    -0.298 OA
ENDBRANCH   7   9
ENDBRANCH   5   7
TORSDOF 2
ENDMDL
MODEL 7
REMARK VINA RESULT:      -4.2     10.705     11.771
REMARK  2 active torsions:
REMARK  status: ('A' for Active; 'I' for Inactive)
REMARK    1  A    between atoms: C1_1  and  C9_9 
REMARK    2  A    between atoms: C6_6  and  C9_9 
ROOT
HETATM    1  C2  UNL     1     -33.571  16.971  -4.983  1.00 20.00     0.031 C 
HETATM    2  C3  UNL     1     -34.699  15.254  -3.543  1.00 20.00     0.031 C 
HETATM    3  C4  UNL     1     -33.192  15.831  -5.923  1.00 20.00     0.168 C 
HETATM    4  C5  UNL     1     -34.258  14.211  -4.562  1.00 20.00     0.168 C 
HETATM    5  C6  UNL     1     -33.747  16.455  -3.551  1.00 20.00     0.000 C 
HETATM    6  O11 UNL     1     -34.162  14.786  -5.866  1.00 20.00    -0.391 OA
ENDROOT
BRANCH   5   7
HETATM    7  C9  UNL     1     -34.249  17.561  -2.626  1.00 20.00     0.055 C 
HETATM    8  C8  UNL     1     -35.004  16.971  -1.438  1.00 20.00     0.018 C 
BRANCH   7   9
HETATM    9  C1  UNL     1     -33.077  18.419  -2.161  1.00 20.00     0.127 C 
HETATM   10  C7  UNL     1     -32.604  18.217  -0.743  1.00 20.00     0.091 C 
HETATM   11  O10 UNL     1     -32.548  19.262  -2.886  1.00 20.00    -0.298 OA
ENDBRANCH   7   9
ENDBRANCH   5   7
TORSDOF 2
ENDMDL
MODEL 8
REMARK VINA RESULT:      -4.2      1.528      2.435
REMARK  2 active torsions:
REMARK  status: ('A' for Active; 'I' for Inactive)
REMARK    1  A    between atoms: C1_1  and  C9_9 
REMARK    2  A    between atoms: C6_6  and  C9_9 
ROOT
HETATM    1  C2  UNL     1     -34.034   4.976   3.716  1.00 20.00     0.031 C 
HETATM    2  C3  UNL     1     -33.739   7.269   4.689  1.00 20.00     0.031 C 
HETATM    3  C4  UNL     1     -34.428   4.511   5.114  1.00 20.00     0.168 C 
HETATM    4  C5  UNL     1     -34.150   6.677   6.031  1.00 20.00     0.168 C 
HETATM    5  C6  UNL     1     -33.111   6.196   3.793  1.00 20.00     0.000 C 
HETATM    6  O11 UNL     1     -35.037   5.573   5.847  1.00 20.00    -0.391 OA
ENDROOT
BRANCH   5   7
HETATM    7  C9  UNL     1     -32.811   6.749   2.402  1.00 20.00     0.055 C 
HETATM    8  C8  UNL     1     -34.092   6.873   1.581  1.00 20.00     0.018 C 
BRANCH   7   9
HETATM    9  C1  UNL     1     -32.101   8.093   2.519  1.00 20.00     0.127 C 
HETATM   10  C7  UNL     1     -32.491   9.159   1.526  1.00 20.00     0.091 C 
HETATM   11  O10 UNL     1     -31.229   8.308   3.362  1.00 20.00    -0.298 OA
ENDBRANCH   7   9
ENDBRANCH   5   7
TORSDOF 2
ENDMDL
MODEL 9
REMARK VINA RESULT:      -4.1     10.457     11.191
REMARK  2 active torsions:
REMARK  status: ('A' for Active; 'I' for Inactive)
REMARK    1  A    between atoms: C1_1  and  C9_9 
REMARK    2  A    between atoms: C6_6  and  C9_9 
ROOT
HETATM    1  C2  UNL     1     -33.460  15.732  -3.935  1.00 20.00     0.031 C 
HETATM    2  C3  UNL     1     -35.881  15.134  -4.210  1.00 20.00     0.031 C 
HETATM    3  C4  UNL     1     -33.129  14.364  -4.522  1.00 20.00     0.168 C 
HETATM    4  C5  UNL     1     -35.415  13.801  -4.782  1.00 20.00     0.168 C 
HETATM    5  C6  UNL     1     -34.832  15.709  -3.252  1.00 20.00     0.000 C 
HETATM    6  O11 UNL     1     -34.149  13.942  -5.426  1.00 20.00    -0.391 OA
ENDROOT
BRANCH   5   7
HETATM    7  C9  UNL     1     -35.231  17.101  -2.771  1.00 20.00     0.055 C 
HETATM    8  C8  UNL     1     -36.703  17.375  -3.066  1.00 20.00     0.018 C 
BRANCH   7   9
HETATM    9  C1  UNL     1     -34.934  17.241  -1.282  1.00 20.00     0.127 C 
HETATM   10  C7  UNL     1     -33.610  17.857  -0.906  1.00 20.00     0.091 C 
HETATM   11  O10 UNL     1     -35.715  16.850  -0.414  1.00 20.00    -0.298 OA
ENDBRANCH   7   9
ENDBRANCH   5   7
TORSDOF 2
ENDMDL
