MODEL 1
REMARK VINA RESULT:      -4.6      0.000      0.000
REMARK  2 active torsions:
REMARK  status: ('A' for Active; 'I' for Inactive)
REMARK    1  A    between atoms: C3_3  and  C10_10 
REMARK    2  A    between atoms: C9_9  and  C10_10 
ROOT
HETATM    1  C1  UNL     1     -32.932   7.430   4.869  1.00 20.00     0.006 C 
HETATM    2  C2  UNL     1     -34.345   7.029   5.307  1.00 20.00     0.016 C 
HETATM    3  C3  UNL     1     -32.736   6.871   3.450  1.00 20.00    -0.006 C 
HETATM    4  C4  UNL     1     -34.151   6.484   2.990  1.00 20.00     0.000 C 
HETATM    5  C5  UNL     1     -34.833   6.018   4.277  1.00 20.00     0.062 C 
HETATM    6  C6  UNL     1     -34.184   5.510   1.819  1.00 20.00     0.011 C 
HETATM    7 BR11 UNL     1     -34.309   4.222   4.839  1.00 20.00    -0.091 Br
ENDROOT
BRANCH   3   8
HETATM    8  C10 UNL     1     -32.046   7.861   2.522  1.00 20.00    -0.014 C 
HETATM    9  C8  UNL     1     -31.039   8.705   3.312  1.00 20.00     0.010 C 
BRANCH   8  10
HETATM   10  C9  UNL     1     -33.039   8.794   1.802  1.00 20.00     0.000 C 
HETATM   11  C7  UNL     1     -32.392   9.661   0.732  1.00 20.00     0.005 C 
ENDBRANCH   8  10
ENDBRANCH   3   8
TORSDOF 2
ENDMDL
MODEL 2
REMARK VINA RESULT:      -4.5      2.307      4.123
REMARK  2 active torsions:
REMARK  status: ('A' for Active; 'I' for Inactive)
REMARK    1  A    between atoms: C3_3  and  C10_10 
REMARK    2  A    between atoms: C9_9  and  C10_10 
ROOT
HETATM    1  C1  UNL     1     -32.501   8.258   4.482  1.00 20.00     0.006 C 
HETATM    2  C2  UNL     1     -31.311   8.193   3.518  1.00 20.00     0.016 C 
HETATM    3  C3  UNL     1     -33.694   7.616   3.754  1.00 20.00    -0.006 C 
HETATM    4  C4  UNL     1     -33.065   6.891   2.552  1.00 20.00     0.000 C 
HETATM    5  C5  UNL     1     -31.888   7.788   2.167  1.00 20.00     0.062 C 
HETATM    6  C6  UNL     1     -34.050   6.555   1.439  1.00 20.00     0.011 C 
HETATM    7 BR11 UNL     1     -32.410   9.391   1.181  1.00 20.00    -0.091 Br
ENDROOT
BRANCH   3   8
HETATM    8  C10 UNL     1     -34.505   6.699   4.659  1.00 20.00    -0.014 C 
HETATM    9  C8  UNL     1     -34.012   6.821   6.106  1.00 20.00     0.010 C 
BRANCH   8  10
HETATM   10  C9  UNL     1     -34.444   5.223   4.221  1.00 20.00     0.000 C 
HETATM   11  C7  UNL     1     -34.427   4.244   5.385  1.00 20.00     0.005 C 
ENDBRANCH   8  10
ENDBRANCH   3   8
TORSDOF 2
ENDMDL
MODEL 3
REMARK VINA RESULT:      -4.4     10.697     12.254
REMARK  2 active torsions:
REMARK  status: ('A' for Active; 'I' for Inactive)
REMARK    1  A    between atoms: C3_3  and  C10_10 
REMARK    2  A    between atoms: C9_9  and  C10_10 
ROOT
HETATM    1  C1  UNL     1     -34.800  17.171  -4.915  1.00 20.00     0.006 C 
HETATM    2  C2  UNL     1     -34.042  16.983  -6.234  1.00 20.00     0.016 C 
HETATM    3  C3  UNL     1     -34.332  16.048  -3.974  1.00 20.00    -0.006 C 
HETATM    4  C4  UNL     1     -33.074  15.479  -4.651  1.00 20.00     0.000 C 
HETATM    5  C5  UNL     1     -33.377  15.615  -6.144  1.00 20.00     0.062 C 
HETATM    6  C6  UNL     1     -32.677  14.090  -4.168  1.00 20.00     0.011 C 
HETATM    7 BR11 UNL     1     -34.602  14.255  -6.826  1.00 20.00    -0.091 Br
ENDROOT
BRANCH   3   8
HETATM    8  C10 UNL     1     -34.086  16.541  -2.555  1.00 20.00    -0.014 C 
HETATM    9  C8  UNL     1     -35.422  16.726  -1.825  1.00 20.00     0.010 C 
BRANCH   8  10
HETATM   10  C9  UNL     1     -33.293  17.861  -2.512  1.00 20.00     0.000 C 
HETATM   11  C7  UNL     1     -32.645  18.138  -1.163  1.00 20.00     0.005 C 
ENDBRANCH   8  10
ENDBRANCH   3   8
TORSDOF 2
ENDMDL
MODEL 4
REMARK VINA RESULT:      -4.4     10.861     11.810
REMARK  2 active torsions:
REMARK  status: ('A' for Active; 'I' for Inactive)
REMARK    1  A    between atoms: C3_3  and  C10_10 
REMARK    2  A    between atoms: C9_9  and  C10_10 
ROOT
HETATM    1  C1  UNL     1     -36.351  16.601  -3.561  1.00 20.00     0.006 C 
HETATM    2  C2  UNL     1     -36.344  16.534  -5.093  1.00 20.00     0.016 C 
HETATM    3  C3  UNL     1     -35.090  15.863  -3.082  1.00 20.00    -0.006 C 
HETATM    4  C4  UNL     1     -34.228  15.712  -4.347  1.00 20.00     0.000 C 
HETATM    5  C5  UNL     1     -35.258  15.531  -5.463  1.00 20.00     0.062 C 
HETATM    6  C6  UNL     1     -33.149  14.642  -4.245  1.00 20.00     0.011 C 
HETATM    7 BR11 UNL     1     -36.033  13.739  -5.536  1.00 20.00    -0.091 Br
ENDROOT
BRANCH   3   8
HETATM    8  C10 UNL     1     -34.381  16.593  -1.950  1.00 20.00    -0.014 C 
HETATM    9  C8  UNL     1     -35.410  17.130  -0.948  1.00 20.00     0.010 C 
BRANCH   8  10
HETATM   10  C9  UNL     1     -33.499  17.754  -2.449  1.00 20.00     0.000 C 
HETATM   11  C7  UNL     1     -32.630  18.368  -1.362  1.00 20.00     0.005 C 
ENDBRANCH   8  10
ENDBRANCH   3   8
TORSDOF 2
ENDMDL
MODEL 5
REMARK VINA RESULT:      -4.2     11.303     11.953
REMARK  2 active torsions:
REMARK  status: ('A' for Active; 'I' for Inactive)
REMARK    1  A    between atoms: C3_3  and  C10_10 
REMARK    2  A    between atoms: C9_9  and  C10_10 
ROOT
HETATM    1  C1  UNL     1     -33.607  16.367  -4.116  1.00 20.00     0.006 C 
HETATM    2  C2  UNL     1     -32.903  15.180  -4.783  1.00 20.00     0.016 C 
HETATM    3  C3  UNL     1     -35.113  16.059  -4.143  1.00 20.00    -0.006 C 
HETATM    4  C4  UNL     1     -35.193  14.564  -4.495  1.00 20.00     0.000 C 
HETATM    5  C5  UNL     1     -34.004  14.352  -5.433  1.00 20.00     0.062 C 
HETATM    6  C6  UNL     1     -36.552  14.116  -5.016  1.00 20.00     0.011 C 
HETATM    7 BR11 UNL     1     -34.311  15.000  -7.250  1.00 20.00    -0.091 Br
ENDROOT
BRANCH   3   8
HETATM    8  C10 UNL     1     -35.805  16.411  -2.833  1.00 20.00    -0.014 C 
HETATM    9  C8  UNL     1     -36.766  17.586  -3.047  1.00 20.00     0.010 C 
BRANCH   8  10
HETATM   10  C9  UNL     1     -34.809  16.764  -1.710  1.00 20.00     0.000 C 
HETATM   11  C7  UNL     1     -35.473  17.342  -0.470  1.00 20.00     0.005 C 
ENDBRANCH   8  10
ENDBRANCH   3   8
TORSDOF 2
ENDMDL
MODEL 6
REMARK VINA RESULT:      -4.2     11.251     12.569
REMARK  2 active torsions:
REMARK  status: ('A' for Active; 'I' for Inactive)
REMARK    1  A    between atoms: C3_3  and  C10_10 
REMARK    2  A    between atoms: C9_9  and  C10_10 
ROOT
HETATM    1  C1  UNL     1     -34.789  18.205  -3.968  1.00 20.00     0.006 C 
HETATM    2  C2  UNL     1     -34.137  18.303  -5.353  1.00 20.00     0.016 C 
HETATM    3  C3  UNL     1     -34.501  16.788  -3.445  1.00 20.00    -0.006 C 
HETATM    4  C4  UNL     1     -33.404  16.248  -4.379  1.00 20.00     0.000 C 
HETATM    5  C5  UNL     1     -33.739  16.881  -5.730  1.00 20.00     0.062 C 
HETATM    6  C6  UNL     1     -33.258  14.733  -4.362  1.00 20.00     0.011 C 
HETATM    7 BR11 UNL     1     -35.228  16.019  -6.655  1.00 20.00    -0.091 Br
ENDROOT
BRANCH   3   8
HETATM    8  C10 UNL     1     -34.106  16.777  -1.975  1.00 20.00    -0.014 C 
HETATM    9  C8  UNL     1     -35.332  17.066  -1.101  1.00 20.00     0.010 C 
BRANCH   8  10
HETATM   10  C9  UNL     1     -32.995  17.795  -1.650  1.00 20.00     0.000 C 
HETATM   11  C7  UNL     1     -33.187  18.496  -0.313  1.00 20.00     0.005 C 
ENDBRANCH   8  10
ENDBRANCH   3   8
TORSDOF 2
ENDMDL
MODEL 7
REMARK VINA RESULT:      -4.1     10.877     11.809
REMARK  2 active torsions:
REMARK  status: ('A' for Active; 'I' for Inactive)
REMARK    1  A    between atoms: C3_3  and  C10_10 
REMARK    2  A    between atoms: C9_9  and  C10_10 
ROOT
HETATM    1  C1  UNL     1     -33.769  15.449  -3.695  1.00 20.00     0.006 C 
HETATM    2  C2  UNL     1     -34.520  14.197  -4.164  1.00 20.00     0.016 C 
HETATM    3  C3  UNL     1     -34.800  16.588  -3.643  1.00 20.00    -0.006 C 
HETATM    4  C4  UNL     1     -36.162  15.879  -3.736  1.00 20.00     0.000 C 
HETATM    5  C5  UNL     1     -35.882  14.682  -4.646  1.00 20.00     0.062 C 
HETATM    6  C6  UNL     1     -37.313  16.786  -4.151  1.00 20.00     0.011 C 
HETATM    7 BR11 UNL     1     -35.768  15.143  -6.541  1.00 20.00    -0.091 Br
ENDROOT
BRANCH   3   8
HETATM    8  C10 UNL     1     -34.651  17.454  -2.400  1.00 20.00    -0.014 C 
HETATM    9  C8  UNL     1     -33.167  17.628  -2.057  1.00 20.00     0.010 C 
BRANCH   8  10
HETATM   10  C9  UNL     1     -35.393  16.876  -1.179  1.00 20.00     0.000 C 
HETATM   11  C7  UNL     1     -35.211  17.699   0.088  1.00 20.00     0.005 C 
ENDBRANCH   8  10
ENDBRANCH   3   8
TORSDOF 2
ENDMDL
MODEL 8
REMARK VINA RESULT:      -4.1     10.823     11.803
REMARK  2 active torsions:
REMARK  status: ('A' for Active; 'I' for Inactive)
REMARK    1  A    between atoms: C3_3  and  C10_10 
REMARK    2  A    between atoms: C9_9  and  C10_10 
ROOT
HETATM    1  C1  UNL     1     -33.236  15.611  -4.348  1.00 20.00     0.006 C 
HETATM    2  C2  UNL     1     -33.606  14.125  -4.421  1.00 20.00     0.016 C 
HETATM    3  C3  UNL     1     -34.557  16.389  -4.231  1.00 20.00    -0.006 C 
HETATM    4  C4  UNL     1     -35.604  15.318  -3.882  1.00 20.00     0.000 C 
HETATM    5  C5  UNL     1     -35.114  14.079  -4.633  1.00 20.00     0.062 C 
HETATM    6  C6  UNL     1     -37.043  15.741  -4.145  1.00 20.00     0.011 C 
HETATM    7 BR11 UNL     1     -35.498  14.116  -6.548  1.00 20.00    -0.091 Br
ENDROOT
BRANCH   3   8
HETATM    8  C10 UNL     1     -34.481  17.517  -3.211  1.00 20.00    -0.014 C 
HETATM    9  C8  UNL     1     -33.458  18.565  -3.664  1.00 20.00     0.010 C 
BRANCH   8  10
HETATM   10  C9  UNL     1     -34.112  17.020  -1.800  1.00 20.00     0.000 C 
HETATM   11  C7  UNL     1     -35.223  17.215  -0.778  1.00 20.00     0.005 C 
ENDBRANCH   8  10
ENDBRANCH   3   8
TORSDOF 2
ENDMDL
MODEL 9
REMARK VINA RESULT:      -4.0     10.976     12.279
REMARK  2 active torsions:
REMARK  status: ('A' for Active; 'I' for Inactive)
REMARK    1  A    between atoms: C3_3  and  C10_10 
REMARK    2  A    between atoms: C9_9  and  C10_10 
ROOT
HETATM    1  C1  UNL     1     -34.524  14.497  -4.097  1.00 20.00     0.006 C 
HETATM    2  C2  UNL     1     -35.508  13.614  -4.874  1.00 20.00     0.016 C 
HETATM    3  C3  UNL     1     -34.499  15.861  -4.808  1.00 20.00    -0.006 C 
HETATM    4  C4  UNL     1     -35.723  15.831  -5.739  1.00 20.00     0.000 C 
HETATM    5  C5  UNL     1     -35.815  14.365  -6.165  1.00 20.00     0.062 C 
HETATM    6  C6  UNL     1     -35.678  16.858  -6.863  1.00 20.00     0.011 C 
HETATM    7 BR11 UNL     1     -34.514  13.858  -7.530  1.00 20.00    -0.091 Br
ENDROOT
BRANCH   3   8
HETATM    8  C10 UNL     1     -34.509  17.027  -3.830  1.00 20.00    -0.014 C 
HETATM    9  C8  UNL     1     -33.473  18.075  -4.253  1.00 20.00     0.010 C 
BRANCH   8  10
HETATM   10  C9  UNL     1     -34.231  16.590  -2.378  1.00 20.00     0.000 C 
HETATM   11  C7  UNL     1     -35.363  16.920  -1.417  1.00 20.00     0.005 C 
ENDBRANCH   8  10
ENDBRANCH   3   8
TORSDOF 2
ENDMDL
