MODEL 1
REMARK VINA RESULT:      -4.4      0.000      0.000
REMARK  3 active torsions:
REMARK  status: ('A' for Active; 'I' for Inactive)
REMARK    1  A    between atoms: C4_4  and  C7_7 
REMARK    2  A    between atoms: C8_8  and  C9_9 
REMARK    3  A    between atoms: C9_9  and  N10_10 
ROOT
HETATM    1  C1  UNL     1     -33.979   7.135   5.970  1.00 20.00     0.032 C 
HETATM    2  C2  UNL     1     -34.566   6.024   5.105  1.00 20.00     0.038 C 
HETATM    3  C3  UNL     1     -33.076   7.928   5.040  1.00 20.00     0.273 C 
HETATM    4  C4  UNL     1     -33.971   6.240   3.713  1.00 20.00     0.237 C 
HETATM    5  N10 UNL     1     -32.722   6.957   4.003  1.00 20.00     0.098 N 
ENDROOT
BRANCH   5   6
HETATM    6  C9  UNL     1     -32.147   7.611   2.833  1.00 20.00     0.219 C 
HETATM    7  C6  UNL     1     -31.014   8.535   3.265  1.00 20.00     0.043 C 
BRANCH   6   8
HETATM    8  C8  UNL     1     -33.212   8.385   2.045  1.00 20.00     0.031 C 
HETATM    9  C5  UNL     1     -32.613   9.459   1.146  1.00 20.00     0.007 C 
ENDBRANCH   6   8
ENDBRANCH   5   6
BRANCH   4  10
HETATM   10  C7  UNL     1     -33.757   4.923   2.978  1.00 20.00     0.150 C 
HETATM   11 CL11 UNL     1     -33.975   3.558   4.090  1.00 20.00    -0.128 Cl
ENDBRANCH   4  10
TORSDOF 3
ENDMDL
MODEL 2
REMARK VINA RESULT:      -4.0      2.314      4.046
REMARK  3 active torsions:
REMARK  status: ('A' for Active; 'I' for Inactive)
REMARK    1  A    between atoms: C4_4  and  C7_7 
REMARK    2  A    between atoms: C8_8  and  C9_9 
REMARK    3  A    between atoms: C9_9  and  N10_10 
ROOT
HETATM    1  C1  UNL     1     -32.302   8.383   5.131  1.00 20.00     0.032 C 
HETATM    2  C2  UNL     1     -31.591   8.543   3.791  1.00 20.00     0.038 C 
HETATM    3  C3  UNL     1     -33.330   7.286   4.907  1.00 20.00     0.273 C 
HETATM    4  C4  UNL     1     -32.247   7.521   2.861  1.00 20.00     0.237 C 
HETATM    5  N10 UNL     1     -33.575   7.341   3.464  1.00 20.00     0.098 N 
ENDROOT
BRANCH   5   6
HETATM    6  C9  UNL     1     -34.266   6.147   2.993  1.00 20.00     0.219 C 
HETATM    7  C6  UNL     1     -35.564   5.963   3.773  1.00 20.00     0.043 C 
BRANCH   6   8
HETATM    8  C8  UNL     1     -33.376   4.903   3.113  1.00 20.00     0.031 C 
HETATM    9  C5  UNL     1     -33.930   3.876   4.093  1.00 20.00     0.007 C 
ENDBRANCH   6   8
ENDBRANCH   5   6
BRANCH   4  10
HETATM   10  C7  UNL     1     -32.297   8.015   1.421  1.00 20.00     0.150 C 
HETATM   11 CL11 UNL     1     -32.573   9.767   1.384  1.00 20.00    -0.128 Cl
ENDBRANCH   4  10
TORSDOF 3
ENDMDL
MODEL 3
REMARK VINA RESULT:      -4.0     11.239     12.631
REMARK  3 active torsions:
REMARK  status: ('A' for Active; 'I' for Inactive)
REMARK    1  A    between atoms: C4_4  and  C7_7 
REMARK    2  A    between atoms: C8_8  and  C9_9 
REMARK    3  A    between atoms: C9_9  and  N10_10 
ROOT
HETATM    1  C1  UNL     1     -34.050  17.541  -6.187  1.00 20.00     0.032 C 
HETATM    2  C2  UNL     1     -33.455  16.136  -6.190  1.00 20.00     0.038 C 
HETATM    3  C3  UNL     1     -34.094  17.951  -4.725  1.00 20.00     0.273 C 
HETATM    4  C4  UNL     1     -33.182  15.810  -4.721  1.00 20.00     0.237 C 
HETATM    5  N10 UNL     1     -34.142  16.671  -4.015  1.00 20.00     0.098 N 
ENDROOT
BRANCH   5   6
HETATM    6  C9  UNL     1     -33.839  16.833  -2.598  1.00 20.00     0.219 C 
HETATM    7  C6  UNL     1     -35.123  16.721  -1.782  1.00 20.00     0.043 C 
BRANCH   6   8
HETATM    8  C8  UNL     1     -33.135  18.168  -2.327  1.00 20.00     0.031 C 
HETATM    9  C5  UNL     1     -32.476  18.217  -0.954  1.00 20.00     0.007 C 
ENDBRANCH   6   8
ENDBRANCH   5   6
BRANCH   4  10
HETATM   10  C7  UNL     1     -33.366  14.328  -4.426  1.00 20.00     0.150 C 
HETATM   11 CL11 UNL     1     -35.092  13.916  -4.405  1.00 20.00    -0.128 Cl
ENDBRANCH   4  10
TORSDOF 3
ENDMDL
MODEL 4
REMARK VINA RESULT:      -3.9     11.623     12.437
REMARK  3 active torsions:
REMARK  status: ('A' for Active; 'I' for Inactive)
REMARK    1  A    between atoms: C4_4  and  C7_7 
REMARK    2  A    between atoms: C8_8  and  C9_9 
REMARK    3  A    between atoms: C9_9  and  N10_10 
ROOT
HETATM    1  C1  UNL     1     -33.455  15.820  -6.651  1.00 20.00     0.032 C 
HETATM    2  C2  UNL     1     -34.143  14.460  -6.601  1.00 20.00     0.038 C 
HETATM    3  C3  UNL     1     -33.609  16.395  -5.253  1.00 20.00     0.273 C 
HETATM    4  C4  UNL     1     -34.657  14.319  -5.168  1.00 20.00     0.237 C 
HETATM    5  N10 UNL     1     -34.801  15.717  -4.738  1.00 20.00     0.098 N 
ENDROOT
BRANCH   5   6
HETATM    6  C9  UNL     1     -34.920  15.867  -3.292  1.00 20.00     0.219 C 
HETATM    7  C6  UNL     1     -36.211  16.605  -2.956  1.00 20.00     0.043 C 
BRANCH   6   8
HETATM    8  C8  UNL     1     -33.705  16.599  -2.706  1.00 20.00     0.031 C 
HETATM    9  C5  UNL     1     -34.013  17.277  -1.376  1.00 20.00     0.007 C 
ENDBRANCH   6   8
ENDBRANCH   5   6
BRANCH   4  10
HETATM   10  C7  UNL     1     -35.958  13.529  -5.108  1.00 20.00     0.150 C 
HETATM   11 CL11 UNL     1     -37.216  14.346  -6.055  1.00 20.00    -0.128 Cl
ENDBRANCH   4  10
TORSDOF 3
ENDMDL
MODEL 5
REMARK VINA RESULT:      -3.6     11.593     12.586
REMARK  3 active torsions:
REMARK  status: ('A' for Active; 'I' for Inactive)
REMARK    1  A    between atoms: C4_4  and  C7_7 
REMARK    2  A    between atoms: C8_8  and  C9_9 
REMARK    3  A    between atoms: C9_9  and  N10_10 
ROOT
HETATM    1  C1  UNL     1     -37.728  14.664  -5.250  1.00 20.00     0.032 C 
HETATM    2  C2  UNL     1     -37.136  14.981  -6.620  1.00 20.00     0.038 C 
HETATM    3  C3  UNL     1     -36.665  15.085  -4.250  1.00 20.00     0.273 C 
HETATM    4  C4  UNL     1     -35.756  15.577  -6.335  1.00 20.00     0.237 C 
HETATM    5  N10 UNL     1     -35.423  15.005  -5.023  1.00 20.00     0.098 N 
ENDROOT
BRANCH   5   6
HETATM    6  C9  UNL     1     -34.330  15.699  -4.352  1.00 20.00     0.219 C 
HETATM    7  C6  UNL     1     -33.110  14.787  -4.277  1.00 20.00     0.043 C 
BRANCH   6   8
HETATM    8  C8  UNL     1     -34.744  16.171  -2.952  1.00 20.00     0.031 C 
HETATM    9  C5  UNL     1     -33.651  16.971  -2.253  1.00 20.00     0.007 C 
ENDBRANCH   6   8
ENDBRANCH   5   6
BRANCH   4  10
HETATM   10  C7  UNL     1     -34.751  15.222  -7.423  1.00 20.00     0.150 C 
HETATM   11 CL11 UNL     1     -34.477  13.469  -7.458  1.00 20.00    -0.128 Cl
ENDBRANCH   4  10
TORSDOF 3
ENDMDL
MODEL 6
REMARK VINA RESULT:      -3.6     11.250     12.299
REMARK  3 active torsions:
REMARK  status: ('A' for Active; 'I' for Inactive)
REMARK    1  A    between atoms: C4_4  and  C7_7 
REMARK    2  A    between atoms: C8_8  and  C9_9 
REMARK    3  A    between atoms: C9_9  and  N10_10 
ROOT
HETATM    1  C1  UNL     1     -36.968  17.375  -4.729  1.00 20.00     0.032 C 
HETATM    2  C2  UNL     1     -36.144  16.240  -5.328  1.00 20.00     0.038 C 
HETATM    3  C3  UNL     1     -36.315  17.677  -3.391  1.00 20.00     0.273 C 
HETATM    4  C4  UNL     1     -35.050  15.948  -4.300  1.00 20.00     0.237 C 
HETATM    5  N10 UNL     1     -35.654  16.416  -3.045  1.00 20.00     0.098 N 
ENDROOT
BRANCH   5   6
HETATM    6  C9  UNL     1     -34.685  16.598  -1.970  1.00 20.00     0.219 C 
HETATM    7  C6  UNL     1     -35.378  17.191  -0.748  1.00 20.00     0.043 C 
BRANCH   6   8
HETATM    8  C8  UNL     1     -33.515  17.483  -2.417  1.00 20.00     0.031 C 
HETATM    9  C5  UNL     1     -32.748  18.081  -1.243  1.00 20.00     0.007 C 
ENDBRANCH   6   8
ENDBRANCH   5   6
BRANCH   4  10
HETATM   10  C7  UNL     1     -34.673  14.473  -4.277  1.00 20.00     0.150 C 
HETATM   11 CL11 UNL     1     -32.912  14.288  -4.386  1.00 20.00    -0.128 Cl
ENDBRANCH   4  10
TORSDOF 3
ENDMDL
MODEL 7
REMARK VINA RESULT:      -3.6     11.924     13.035
REMARK  3 active torsions:
REMARK  status: ('A' for Active; 'I' for Inactive)
REMARK    1  A    between atoms: C4_4  and  C7_7 
REMARK    2  A    between atoms: C8_8  and  C9_9 
REMARK    3  A    between atoms: C9_9  and  N10_10 
ROOT
HETATM    1  C1  UNL     1     -33.897  14.533  -7.918  1.00 20.00     0.032 C 
HETATM    2  C2  UNL     1     -34.714  13.519  -7.124  1.00 20.00     0.038 C 
HETATM    3  C3  UNL     1     -33.755  15.736  -7.001  1.00 20.00     0.273 C 
HETATM    4  C4  UNL     1     -34.998  14.193  -5.780  1.00 20.00     0.237 C 
HETATM    5  N10 UNL     1     -34.914  15.622  -6.112  1.00 20.00     0.098 N 
ENDROOT
BRANCH   5   6
HETATM    6  C9  UNL     1     -34.776  16.480  -4.941  1.00 20.00     0.219 C 
HETATM    7  C6  UNL     1     -34.458  17.905  -5.381  1.00 20.00     0.043 C 
BRANCH   6   8
HETATM    8  C8  UNL     1     -33.699  15.951  -3.985  1.00 20.00     0.031 C 
HETATM    9  C5  UNL     1     -33.726  16.642  -2.627  1.00 20.00     0.007 C 
ENDBRANCH   6   8
ENDBRANCH   5   6
BRANCH   4  10
HETATM   10  C7  UNL     1     -36.351  13.781  -5.215  1.00 20.00     0.150 C 
HETATM   11 CL11 UNL     1     -37.659  14.579  -6.109  1.00 20.00    -0.128 Cl
ENDBRANCH   4  10
TORSDOF 3
ENDMDL
MODEL 8
REMARK VINA RESULT:      -3.5     11.416     12.249
REMARK  3 active torsions:
REMARK  status: ('A' for Active; 'I' for Inactive)
REMARK    1  A    between atoms: C4_4  and  C7_7 
REMARK    2  A    between atoms: C8_8  and  C9_9 
REMARK    3  A    between atoms: C9_9  and  N10_10 
ROOT
HETATM    1  C1  UNL     1     -34.705  17.143  -1.648  1.00 20.00     0.032 C 
HETATM    2  C2  UNL     1     -36.072  17.055  -2.319  1.00 20.00     0.038 C 
HETATM    3  C3  UNL     1     -33.732  16.537  -2.645  1.00 20.00     0.273 C 
HETATM    4  C4  UNL     1     -35.813  16.404  -3.679  1.00 20.00     0.237 C 
HETATM    5  N10 UNL     1     -34.577  15.645  -3.443  1.00 20.00     0.098 N 
ENDROOT
BRANCH   5   6
HETATM    6  C9  UNL     1     -33.909  15.232  -4.671  1.00 20.00     0.219 C 
HETATM    7  C6  UNL     1     -32.790  14.249  -4.344  1.00 20.00     0.043 C 
BRANCH   6   8
HETATM    8  C8  UNL     1     -33.363  16.441  -5.443  1.00 20.00     0.031 C 
HETATM    9  C5  UNL     1     -33.797  16.452  -6.903  1.00 20.00     0.007 C 
ENDBRANCH   6   8
ENDBRANCH   5   6
BRANCH   4  10
HETATM   10  C7  UNL     1     -36.982  15.535  -4.123  1.00 20.00     0.150 C 
HETATM   11 CL11 UNL     1     -37.436  15.922  -5.793  1.00 20.00    -0.128 Cl
ENDBRANCH   4  10
TORSDOF 3
ENDMDL
MODEL 9
REMARK VINA RESULT:      -3.5     11.726     12.945
REMARK  3 active torsions:
REMARK  status: ('A' for Active; 'I' for Inactive)
REMARK    1  A    between atoms: C4_4  and  C7_7 
REMARK    2  A    between atoms: C8_8  and  C9_9 
REMARK    3  A    between atoms: C9_9  and  N10_10 
ROOT
HETATM    1  C1  UNL     1     -36.878  14.023  -5.835  1.00 20.00     0.032 C 
HETATM    2  C2  UNL     1     -36.984  15.451  -6.362  1.00 20.00     0.038 C 
HETATM    3  C3  UNL     1     -35.678  14.032  -4.903  1.00 20.00     0.273 C 
HETATM    4  C4  UNL     1     -35.836  16.213  -5.699  1.00 20.00     0.237 C 
HETATM    5  N10 UNL     1     -34.869  15.146  -5.403  1.00 20.00     0.098 N 
ENDROOT
BRANCH   5   6
HETATM    6  C9  UNL     1     -33.850  15.542  -4.439  1.00 20.00     0.219 C 
HETATM    7  C6  UNL     1     -32.857  14.401  -4.241  1.00 20.00     0.043 C 
BRANCH   6   8
HETATM    8  C8  UNL     1     -34.477  15.957  -3.101  1.00 20.00     0.031 C 
HETATM    9  C5  UNL     1     -33.650  17.001  -2.362  1.00 20.00     0.007 C 
ENDBRANCH   6   8
ENDBRANCH   5   6
BRANCH   4  10
HETATM   10  C7  UNL     1     -35.279  17.300  -6.608  1.00 20.00     0.150 C 
HETATM   11 CL11 UNL     1     -34.170  16.595  -7.800  1.00 20.00    -0.128 Cl
ENDBRANCH   4  10
TORSDOF 3
ENDMDL
