MODEL 1
REMARK VINA RESULT:      -5.3      0.000      0.000
REMARK  4 active torsions:
REMARK  status: ('A' for Active; 'I' for Inactive)
REMARK    1  A    between atoms: C1_1  and  C9_9 
REMARK    2  A    between atoms: C4_4  and  C8_8 
REMARK    3  A    between atoms: C8_8  and  C9_9 
REMARK    4  A    between atoms: C9_9  and  C10_10 
ROOT
HETATM    1  C9  UNL     1     -33.664   7.070   3.601  1.00 20.00     0.058 C 
ENDROOT
BRANCH   1   2
HETATM    2  C1  UNL     1     -33.894   5.902   2.636  1.00 20.00     0.127 C 
HETATM    3  C5  UNL     1     -32.884   4.781   2.675  1.00 20.00     0.091 C 
HETATM    4  O11 UNL     1     -34.858   5.854   1.874  1.00 20.00    -0.298 OA
ENDBRANCH   1   2
BRANCH   1   5
HETATM    5  C8  UNL     1     -32.447   7.912   3.173  1.00 20.00     0.017 C 
BRANCH   5   6
HETATM    6  C4  UNL     1     -32.608   8.410   1.738  1.00 20.00    -0.014 A 
HETATM    7  C2  UNL     1     -32.348   9.853   1.403  1.00 20.00     0.005 A 
HETATM    8  C3  UNL     1     -31.398   8.790   0.930  1.00 20.00     0.005 A 
ENDBRANCH   5   6
ENDBRANCH   1   5
BRANCH   1   9
HETATM    9  C10 UNL     1     -33.580   6.527   5.053  1.00 20.00    -0.012 C 
HETATM   10  C6  UNL     1     -34.727   5.582   5.421  1.00 20.00     0.010 C 
HETATM   11  C7  UNL     1     -33.503   7.670   6.071  1.00 20.00     0.010 C 
ENDBRANCH   1   9
TORSDOF 4
ENDMDL
MODEL 2
REMARK VINA RESULT:      -5.0      1.043      1.195
REMARK  4 active torsions:
REMARK  status: ('A' for Active; 'I' for Inactive)
REMARK    1  A    between atoms: C1_1  and  C9_9 
REMARK    2  A    between atoms: C4_4  and  C8_8 
REMARK    3  A    between atoms: C8_8  and  C9_9 
REMARK    4  A    between atoms: C9_9  and  C10_10 
ROOT
HETATM    1  C9  UNL     1     -33.425   7.410   3.403  1.00 20.00     0.058 C 
ENDROOT
BRANCH   1   2
HETATM    2  C1  UNL     1     -34.064   6.036   3.172  1.00 20.00     0.127 C 
HETATM    3  C5  UNL     1     -33.148   4.930   2.709  1.00 20.00     0.091 C 
HETATM    4  O11 UNL     1     -35.260   5.822   3.367  1.00 20.00    -0.298 OA
ENDBRANCH   1   2
BRANCH   1   5
HETATM    5  C8  UNL     1     -32.415   7.745   2.289  1.00 20.00     0.017 C 
BRANCH   5   6
HETATM    6  C4  UNL     1     -32.998   8.768   1.315  1.00 20.00    -0.014 A 
HETATM    7  C2  UNL     1     -32.560  10.206   1.374  1.00 20.00     0.005 A 
HETATM    8  C3  UNL     1     -32.143   9.341   0.219  1.00 20.00     0.005 A 
ENDBRANCH   5   6
ENDBRANCH   1   5
BRANCH   1   9
HETATM    9  C10 UNL     1     -32.831   7.465   4.835  1.00 20.00    -0.012 C 
HETATM   10  C6  UNL     1     -33.880   7.316   5.941  1.00 20.00     0.010 C 
HETATM   11  C7  UNL     1     -32.025   8.750   5.055  1.00 20.00     0.010 C 
ENDBRANCH   1   9
TORSDOF 4
ENDMDL
MODEL 3
REMARK VINA RESULT:      -5.0      1.851      2.864
REMARK  4 active torsions:
REMARK  status: ('A' for Active; 'I' for Inactive)
REMARK    1  A    between atoms: C1_1  and  C9_9 
REMARK    2  A    between atoms: C4_4  and  C8_8 
REMARK    3  A    between atoms: C8_8  and  C9_9 
REMARK    4  A    between atoms: C9_9  and  C10_10 
ROOT
HETATM    1  C9  UNL     1     -32.726   7.142   3.046  1.00 20.00     0.058 C 
ENDROOT
BRANCH   1   2
HETATM    2  C1  UNL     1     -32.402   7.877   4.352  1.00 20.00     0.127 C 
HETATM    3  C5  UNL     1     -33.279   7.567   5.541  1.00 20.00     0.091 C 
HETATM    4  O11 UNL     1     -31.467   8.669   4.450  1.00 20.00    -0.298 OA
ENDBRANCH   1   2
BRANCH   1   5
HETATM    5  C8  UNL     1     -33.444   8.072   2.051  1.00 20.00     0.017 C 
BRANCH   5   6
HETATM    6  C4  UNL     1     -32.436   8.876   1.231  1.00 20.00    -0.014 A 
HETATM    7  C2  UNL     1     -32.829   9.448  -0.103  1.00 20.00     0.005 A 
HETATM    8  C3  UNL     1     -32.607  10.361   1.069  1.00 20.00     0.005 A 
ENDBRANCH   5   6
ENDBRANCH   1   5
BRANCH   1   9
HETATM    9  C10 UNL     1     -33.502   5.838   3.370  1.00 20.00    -0.012 C 
HETATM   10  C6  UNL     1     -33.057   4.635   2.534  1.00 20.00     0.010 C 
HETATM   11  C7  UNL     1     -35.014   6.040   3.225  1.00 20.00     0.010 C 
ENDBRANCH   1   9
TORSDOF 4
ENDMDL
MODEL 4
REMARK VINA RESULT:      -4.8      1.510      2.603
REMARK  4 active torsions:
REMARK  status: ('A' for Active; 'I' for Inactive)
REMARK    1  A    between atoms: C1_1  and  C9_9 
REMARK    2  A    between atoms: C4_4  and  C8_8 
REMARK    3  A    between atoms: C8_8  and  C9_9 
REMARK    4  A    between atoms: C9_9  and  C10_10 
ROOT
HETATM    1  C9  UNL     1     -32.797   6.805   3.888  1.00 20.00     0.058 C 
ENDROOT
BRANCH   1   2
HETATM    2  C1  UNL     1     -33.611   7.082   5.156  1.00 20.00     0.127 C 
HETATM    3  C5  UNL     1     -34.221   5.885   5.846  1.00 20.00     0.091 C 
HETATM    4  O11 UNL     1     -33.755   8.214   5.616  1.00 20.00    -0.298 OA
ENDBRANCH   1   2
BRANCH   1   5
HETATM    5  C8  UNL     1     -32.125   8.090   3.369  1.00 20.00     0.017 C 
BRANCH   5   6
HETATM    6  C4  UNL     1     -32.533   8.373   1.924  1.00 20.00    -0.014 A 
HETATM    7  C2  UNL     1     -32.471   9.773   1.380  1.00 20.00     0.005 A 
HETATM    8  C3  UNL     1     -31.492   8.738   0.902  1.00 20.00     0.005 A 
ENDBRANCH   5   6
ENDBRANCH   1   5
BRANCH   1   9
HETATM    9  C10 UNL     1     -33.699   6.096   2.844  1.00 20.00    -0.012 C 
HETATM   10  C6  UNL     1     -35.181   6.070   3.229  1.00 20.00     0.010 C 
HETATM   11  C7  UNL     1     -33.212   4.670   2.564  1.00 20.00     0.010 C 
ENDBRANCH   1   9
TORSDOF 4
ENDMDL
MODEL 5
REMARK VINA RESULT:      -4.7     10.422     11.422
REMARK  4 active torsions:
REMARK  status: ('A' for Active; 'I' for Inactive)
REMARK    1  A    between atoms: C1_1  and  C9_9 
REMARK    2  A    between atoms: C4_4  and  C8_8 
REMARK    3  A    between atoms: C8_8  and  C9_9 
REMARK    4  A    between atoms: C9_9  and  C10_10 
ROOT
HETATM    1  C9  UNL     1     -34.886  14.606  -4.138  1.00 20.00     0.058 C 
ENDROOT
BRANCH   1   2
HETATM    2  C1  UNL     1     -35.996  13.849  -4.876  1.00 20.00     0.127 C 
HETATM    3  C5  UNL     1     -37.279  14.603  -5.130  1.00 20.00     0.091 C 
HETATM    4  O11 UNL     1     -35.860  12.691  -5.267  1.00 20.00    -0.298 OA
ENDBRANCH   1   2
BRANCH   1   5
HETATM    5  C8  UNL     1     -35.348  16.021  -3.745  1.00 20.00     0.017 C 
BRANCH   5   6
HETATM    6  C4  UNL     1     -34.899  16.366  -2.325  1.00 20.00    -0.014 A 
HETATM    7  C2  UNL     1     -33.607  17.102  -2.097  1.00 20.00     0.005 A 
HETATM    8  C3  UNL     1     -34.919  17.793  -1.852  1.00 20.00     0.005 A 
ENDBRANCH   5   6
ENDBRANCH   1   5
BRANCH   1   9
HETATM    9  C10 UNL     1     -33.591  14.575  -4.991  1.00 20.00    -0.012 C 
HETATM   10  C6  UNL     1     -32.352  14.130  -4.209  1.00 20.00     0.010 C 
HETATM   11  C7  UNL     1     -33.326  15.933  -5.651  1.00 20.00     0.010 C 
ENDBRANCH   1   9
TORSDOF 4
ENDMDL
MODEL 6
REMARK VINA RESULT:      -4.5     10.918     12.161
REMARK  4 active torsions:
REMARK  status: ('A' for Active; 'I' for Inactive)
REMARK    1  A    between atoms: C1_1  and  C9_9 
REMARK    2  A    between atoms: C4_4  and  C8_8 
REMARK    3  A    between atoms: C8_8  and  C9_9 
REMARK    4  A    between atoms: C9_9  and  C10_10 
ROOT
HETATM    1  C9  UNL     1     -34.955  14.897  -5.347  1.00 20.00     0.058 C 
ENDROOT
BRANCH   1   2
HETATM    2  C1  UNL     1     -36.085  13.864  -5.277  1.00 20.00     0.127 C 
HETATM    3  C5  UNL     1     -37.495  14.394  -5.358  1.00 20.00     0.091 C 
HETATM    4  O11 UNL     1     -35.871  12.656  -5.178  1.00 20.00    -0.298 OA
ENDBRANCH   1   2
BRANCH   1   5
HETATM    5  C8  UNL     1     -35.236  16.090  -4.415  1.00 20.00     0.017 C 
BRANCH   5   6
HETATM    6  C4  UNL     1     -34.582  15.881  -3.050  1.00 20.00    -0.014 A 
HETATM    7  C2  UNL     1     -33.659  16.925  -2.485  1.00 20.00     0.005 A 
HETATM    8  C3  UNL     1     -35.013  16.708  -1.871  1.00 20.00     0.005 A 
ENDBRANCH   5   6
ENDBRANCH   1   5
BRANCH   1   9
HETATM    9  C10 UNL     1     -34.713  15.292  -6.828  1.00 20.00    -0.012 C 
HETATM   10  C6  UNL     1     -34.154  14.152  -7.684  1.00 20.00     0.010 C 
HETATM   11  C7  UNL     1     -33.799  16.517  -6.935  1.00 20.00     0.010 C 
ENDBRANCH   1   9
TORSDOF 4
ENDMDL
MODEL 7
REMARK VINA RESULT:      -4.3     10.892     12.308
REMARK  4 active torsions:
REMARK  status: ('A' for Active; 'I' for Inactive)
REMARK    1  A    between atoms: C1_1  and  C9_9 
REMARK    2  A    between atoms: C4_4  and  C8_8 
REMARK    3  A    between atoms: C8_8  and  C9_9 
REMARK    4  A    between atoms: C9_9  and  C10_10 
ROOT
HETATM    1  C9  UNL     1     -34.857  14.914  -5.500  1.00 20.00     0.058 C 
ENDROOT
BRANCH   1   2
HETATM    2  C1  UNL     1     -35.397  13.555  -5.960  1.00 20.00     0.127 C 
HETATM    3  C5  UNL     1     -35.203  13.205  -7.415  1.00 20.00     0.091 C 
HETATM    4  O11 UNL     1     -35.948  12.768  -5.191  1.00 20.00    -0.298 OA
ENDBRANCH   1   2
BRANCH   1   5
HETATM    5  C8  UNL     1     -35.448  15.312  -4.135  1.00 20.00     0.017 C 
BRANCH   5   6
HETATM    6  C4  UNL     1     -34.345  15.730  -3.165  1.00 20.00    -0.014 A 
HETATM    7  C2  UNL     1     -33.745  17.107  -3.247  1.00 20.00     0.005 A 
HETATM    8  C3  UNL     1     -34.628  16.741  -2.087  1.00 20.00     0.005 A 
ENDBRANCH   5   6
ENDBRANCH   1   5
BRANCH   1   9
HETATM    9  C10 UNL     1     -35.087  15.963  -6.620  1.00 20.00    -0.012 C 
HETATM   10  C6  UNL     1     -33.811  16.696  -7.045  1.00 20.00     0.010 C 
HETATM   11  C7  UNL     1     -36.161  16.980  -6.219  1.00 20.00     0.010 C 
ENDBRANCH   1   9
TORSDOF 4
ENDMDL
MODEL 8
REMARK VINA RESULT:      -4.2     10.854     12.129
REMARK  4 active torsions:
REMARK  status: ('A' for Active; 'I' for Inactive)
REMARK    1  A    between atoms: C1_1  and  C9_9 
REMARK    2  A    between atoms: C4_4  and  C8_8 
REMARK    3  A    between atoms: C8_8  and  C9_9 
REMARK    4  A    between atoms: C9_9  and  C10_10 
ROOT
HETATM    1  C9  UNL     1     -35.314  14.786  -5.767  1.00 20.00     0.058 C 
ENDROOT
BRANCH   1   2
HETATM    2  C1  UNL     1     -34.883  13.664  -6.717  1.00 20.00     0.127 C 
HETATM    3  C5  UNL     1     -34.063  14.069  -7.918  1.00 20.00     0.091 C 
HETATM    4  O11 UNL     1     -35.165  12.483  -6.517  1.00 20.00    -0.298 OA
ENDBRANCH   1   2
BRANCH   1   5
HETATM    5  C8  UNL     1     -34.947  14.450  -4.309  1.00 20.00     0.017 C 
BRANCH   5   6
HETATM    6  C4  UNL     1     -33.976  15.483  -3.740  1.00 20.00    -0.014 A 
HETATM    7  C2  UNL     1     -34.198  16.949  -3.987  1.00 20.00     0.005 A 
HETATM    8  C3  UNL     1     -34.402  16.380  -2.611  1.00 20.00     0.005 A 
ENDBRANCH   5   6
ENDBRANCH   1   5
BRANCH   1   9
HETATM    9  C10 UNL     1     -36.819  15.094  -5.986  1.00 20.00    -0.012 C 
HETATM   10  C6  UNL     1     -37.091  16.530  -6.445  1.00 20.00     0.010 C 
HETATM   11  C7  UNL     1     -37.640  14.787  -4.729  1.00 20.00     0.010 C 
ENDBRANCH   1   9
TORSDOF 4
ENDMDL
MODEL 9
REMARK VINA RESULT:      -4.2     10.690     12.054
REMARK  4 active torsions:
REMARK  status: ('A' for Active; 'I' for Inactive)
REMARK    1  A    between atoms: C1_1  and  C9_9 
REMARK    2  A    between atoms: C4_4  and  C8_8 
REMARK    3  A    between atoms: C8_8  and  C9_9 
REMARK    4  A    between atoms: C9_9  and  C10_10 
ROOT
HETATM    1  C9  UNL     1     -34.756  15.843  -4.183  1.00 20.00     0.058 C 
ENDROOT
BRANCH   1   2
HETATM    2  C1  UNL     1     -34.901  14.330  -4.378  1.00 20.00     0.127 C 
HETATM    3  C5  UNL     1     -36.131  13.855  -5.111  1.00 20.00     0.091 C 
HETATM    4  O11 UNL     1     -34.057  13.528  -3.980  1.00 20.00    -0.298 OA
ENDBRANCH   1   2
BRANCH   1   5
HETATM    5  C8  UNL     1     -35.644  16.340  -3.027  1.00 20.00     0.017 C 
BRANCH   5   6
HETATM    6  C4  UNL     1     -34.808  16.619  -1.778  1.00 20.00    -0.014 A 
HETATM    7  C2  UNL     1     -33.461  17.277  -1.899  1.00 20.00     0.005 A 
HETATM    8  C3  UNL     1     -34.614  18.030  -1.298  1.00 20.00     0.005 A 
ENDBRANCH   5   6
ENDBRANCH   1   5
BRANCH   1   9
HETATM    9  C10 UNL     1     -35.012  16.561  -5.534  1.00 20.00    -0.012 C 
HETATM   10  C6  UNL     1     -33.770  16.657  -6.424  1.00 20.00     0.010 C 
HETATM   11  C7  UNL     1     -35.604  17.958  -5.318  1.00 20.00     0.010 C 
ENDBRANCH   1   9
TORSDOF 4
ENDMDL
