MODEL 1
REMARK VINA RESULT:      -5.6      0.000      0.000
REMARK  4 active torsions:
REMARK  status: ('A' for Active; 'I' for Inactive)
REMARK    1  A    between atoms: C4_4  and  C6_6 
REMARK    2  A    between atoms: C6_6  and  C8_8 
REMARK    3  A    between atoms: C7_7  and  C8_8 
REMARK    4  A    between atoms: C8_8  and  O10_10 
ROOT
HETATM    1  C6  UNL     1     -32.929   6.761   2.634  1.00 20.00     0.038 C 
ENDROOT
BRANCH   1   2
HETATM    2  C4  UNL     1     -33.979   6.460   3.686  1.00 20.00     0.014 C 
HETATM    3  C1  UNL     1     -34.105   4.994   4.036  1.00 20.00     0.033 C 
HETATM    4  C2  UNL     1     -34.807   5.058   5.377  1.00 20.00     0.168 C 
HETATM    5  O9  UNL     1     -34.382   6.273   6.010  1.00 20.00    -0.391 OA
HETATM    6  C3  UNL     1     -33.678   7.068   5.045  1.00 20.00     0.172 C 
ENDBRANCH   1   2
BRANCH   1   7
HETATM    7  C8  UNL     1     -32.505   8.234   2.639  1.00 20.00     0.118 C 
BRANCH   7   8
HETATM    8  C7  UNL     1     -32.398   8.774   1.208  1.00 20.00     0.027 C 
HETATM    9  C5  UNL     1     -32.637  10.275   1.123  1.00 20.00     0.007 C 
ENDBRANCH   7   8
BRANCH   7  10
HETATM   10  O10 UNL     1     -31.241   8.337   3.290  1.00 20.00    -0.396 OA
HETATM   11  H26 UNL     1     -31.136   9.267   3.545  1.00 20.00     0.210 HD
ENDBRANCH   7  10
ENDBRANCH   1   7
TORSDOF 4
ENDMDL
MODEL 2
REMARK VINA RESULT:      -5.3      0.765      1.293
REMARK  4 active torsions:
REMARK  status: ('A' for Active; 'I' for Inactive)
REMARK    1  A    between atoms: C4_4  and  C6_6 
REMARK    2  A    between atoms: C6_6  and  C8_8 
REMARK    3  A    between atoms: C7_7  and  C8_8 
REMARK    4  A    between atoms: C8_8  and  O10_10 
ROOT
HETATM    1  C6  UNL     1     -33.194   7.133   2.442  1.00 20.00     0.038 C 
ENDROOT
BRANCH   1   2
HETATM    2  C4  UNL     1     -33.305   6.384   3.756  1.00 20.00     0.014 C 
HETATM    3  C1  UNL     1     -34.033   7.144   4.844  1.00 20.00     0.033 C 
HETATM    4  C2  UNL     1     -34.412   6.028   5.795  1.00 20.00     0.168 C 
HETATM    5  O9  UNL     1     -34.615   4.853   4.997  1.00 20.00    -0.391 OA
HETATM    6  C3  UNL     1     -34.136   5.115   3.670  1.00 20.00     0.172 C 
ENDBRANCH   1   2
BRANCH   1   7
HETATM    7  C8  UNL     1     -32.358   8.412   2.569  1.00 20.00     0.118 C 
BRANCH   7   8
HETATM    8  C7  UNL     1     -31.932   8.921   1.188  1.00 20.00     0.027 C 
HETATM    9  C5  UNL     1     -32.615  10.226   0.802  1.00 20.00     0.007 C 
ENDBRANCH   7   8
BRANCH   7  10
HETATM   10  O10 UNL     1     -31.205   8.120   3.354  1.00 20.00    -0.396 OA
HETATM   11  H26 UNL     1     -30.519   8.750   3.082  1.00 20.00     0.210 HD
ENDBRANCH   7  10
ENDBRANCH   1   7
TORSDOF 4
ENDMDL
MODEL 3
REMARK VINA RESULT:      -4.8      1.547      4.580
REMARK  4 active torsions:
REMARK  status: ('A' for Active; 'I' for Inactive)
REMARK    1  A    between atoms: C4_4  and  C6_6 
REMARK    2  A    between atoms: C6_6  and  C8_8 
REMARK    3  A    between atoms: C7_7  and  C8_8 
REMARK    4  A    between atoms: C8_8  and  O10_10 
ROOT
HETATM    1  C6  UNL     1     -33.936   6.655   3.566  1.00 20.00     0.038 C 
ENDROOT
BRANCH   1   2
HETATM    2  C4  UNL     1     -32.776   7.228   2.776  1.00 20.00     0.014 C 
HETATM    3  C1  UNL     1     -33.178   8.253   1.738  1.00 20.00     0.033 C 
HETATM    4  C2  UNL     1     -31.866   8.969   1.491  1.00 20.00     0.168 C 
HETATM    5  O9  UNL     1     -31.133   8.930   2.723  1.00 20.00    -0.391 OA
HETATM    6  C3  UNL     1     -31.794   8.024   3.618  1.00 20.00     0.172 C 
ENDBRANCH   1   2
BRANCH   1   7
HETATM    7  C8  UNL     1     -34.151   5.163   3.288  1.00 20.00     0.118 C 
BRANCH   7   8
HETATM    8  C7  UNL     1     -34.455   4.407   4.586  1.00 20.00     0.027 C 
HETATM    9  C5  UNL     1     -34.579   5.328   5.792  1.00 20.00     0.007 C 
ENDBRANCH   7   8
BRANCH   7  10
HETATM   10  O10 UNL     1     -32.967   4.641   2.690  1.00 20.00    -0.396 OA
HETATM   11  H26 UNL     1     -32.256   4.754   3.340  1.00 20.00     0.210 HD
ENDBRANCH   7  10
ENDBRANCH   1   7
TORSDOF 4
ENDMDL
MODEL 4
REMARK VINA RESULT:      -4.8      0.977      4.583
REMARK  4 active torsions:
REMARK  status: ('A' for Active; 'I' for Inactive)
REMARK    1  A    between atoms: C4_4  and  C6_6 
REMARK    2  A    between atoms: C6_6  and  C8_8 
REMARK    3  A    between atoms: C7_7  and  C8_8 
REMARK    4  A    between atoms: C8_8  and  O10_10 
ROOT
HETATM    1  C6  UNL     1     -34.137   6.967   3.892  1.00 20.00     0.038 C 
ENDROOT
BRANCH   1   2
HETATM    2  C4  UNL     1     -32.909   7.236   3.045  1.00 20.00     0.014 C 
HETATM    3  C1  UNL     1     -33.158   8.142   1.859  1.00 20.00     0.033 C 
HETATM    4  C2  UNL     1     -31.754   8.609   1.530  1.00 20.00     0.168 C 
HETATM    5  O9  UNL     1     -31.029   8.647   2.767  1.00 20.00    -0.391 OA
HETATM    6  C3  UNL     1     -31.813   7.994   3.776  1.00 20.00     0.172 C 
ENDBRANCH   1   2
BRANCH   1   7
HETATM    7  C8  UNL     1     -33.780   6.425   5.280  1.00 20.00     0.118 C 
BRANCH   7   8
HETATM    8  C7  UNL     1     -34.542   5.126   5.568  1.00 20.00     0.027 C 
HETATM    9  C5  UNL     1     -34.373   4.086   4.469  1.00 20.00     0.007 C 
ENDBRANCH   7   8
BRANCH   7  10
HETATM   10  O10 UNL     1     -34.122   7.411   6.251  1.00 20.00    -0.396 OA
HETATM   11  H26 UNL     1     -34.572   6.945   6.972  1.00 20.00     0.210 HD
ENDBRANCH   7  10
ENDBRANCH   1   7
TORSDOF 4
ENDMDL
MODEL 5
REMARK VINA RESULT:      -4.6      1.728      4.844
REMARK  4 active torsions:
REMARK  status: ('A' for Active; 'I' for Inactive)
REMARK    1  A    between atoms: C4_4  and  C6_6 
REMARK    2  A    between atoms: C6_6  and  C8_8 
REMARK    3  A    between atoms: C7_7  and  C8_8 
REMARK    4  A    between atoms: C8_8  and  O10_10 
ROOT
HETATM    1  C6  UNL     1     -32.722   7.471   3.228  1.00 20.00     0.038 C 
ENDROOT
BRANCH   1   2
HETATM    2  C4  UNL     1     -32.798   8.260   1.936  1.00 20.00     0.014 C 
HETATM    3  C1  UNL     1     -33.058   9.739   2.125  1.00 20.00     0.033 C 
HETATM    4  C2  UNL     1     -32.599  10.303   0.796  1.00 20.00     0.168 C 
HETATM    5  O9  UNL     1     -31.536   9.459   0.331  1.00 20.00    -0.391 OA
HETATM    6  C3  UNL     1     -31.495   8.284   1.154  1.00 20.00     0.172 C 
ENDBRANCH   1   2
BRANCH   1   7
HETATM    7  C8  UNL     1     -33.784   6.369   3.301  1.00 20.00     0.118 C 
BRANCH   7   8
HETATM    8  C7  UNL     1     -34.310   6.216   4.733  1.00 20.00     0.027 C 
HETATM    9  C5  UNL     1     -33.735   7.253   5.688  1.00 20.00     0.007 C 
ENDBRANCH   7   8
BRANCH   7  10
HETATM   10  O10 UNL     1     -33.194   5.145   2.869  1.00 20.00    -0.396 OA
HETATM   11  H26 UNL     1     -33.291   4.518   3.602  1.00 20.00     0.210 HD
ENDBRANCH   7  10
ENDBRANCH   1   7
TORSDOF 4
ENDMDL
MODEL 6
REMARK VINA RESULT:      -4.4      1.252      1.266
REMARK  4 active torsions:
REMARK  status: ('A' for Active; 'I' for Inactive)
REMARK    1  A    between atoms: C4_4  and  C6_6 
REMARK    2  A    between atoms: C6_6  and  C8_8 
REMARK    3  A    between atoms: C7_7  and  C8_8 
REMARK    4  A    between atoms: C8_8  and  O10_10 
ROOT
HETATM    1  C6  UNL     1     -32.552   7.636   3.706  1.00 20.00     0.038 C 
ENDROOT
BRANCH   1   2
HETATM    2  C4  UNL     1     -33.760   6.781   4.035  1.00 20.00     0.014 C 
HETATM    3  C1  UNL     1     -33.617   5.327   3.640  1.00 20.00     0.033 C 
HETATM    4  C2  UNL     1     -34.682   4.671   4.495  1.00 20.00     0.168 C 
HETATM    5  O9  UNL     1     -34.780   5.444   5.700  1.00 20.00    -0.391 OA
HETATM    6  C3  UNL     1     -34.040   6.660   5.523  1.00 20.00     0.172 C 
ENDBRANCH   1   2
BRANCH   1   7
HETATM    7  C8  UNL     1     -32.395   7.868   2.199  1.00 20.00     0.118 C 
BRANCH   7   8
HETATM    8  C7  UNL     1     -31.914   9.297   1.917  1.00 20.00     0.027 C 
HETATM    9  C5  UNL     1     -32.723   9.989   0.828  1.00 20.00     0.007 C 
ENDBRANCH   7   8
BRANCH   7  10
HETATM   10  O10 UNL     1     -33.658   7.651   1.575  1.00 20.00    -0.396 OA
HETATM   11  H26 UNL     1     -34.283   8.258   1.999  1.00 20.00     0.210 HD
ENDBRANCH   7  10
ENDBRANCH   1   7
TORSDOF 4
ENDMDL
MODEL 7
REMARK VINA RESULT:      -4.1     11.035     11.670
REMARK  4 active torsions:
REMARK  status: ('A' for Active; 'I' for Inactive)
REMARK    1  A    between atoms: C4_4  and  C6_6 
REMARK    2  A    between atoms: C6_6  and  C8_8 
REMARK    3  A    between atoms: C7_7  and  C8_8 
REMARK    4  A    between atoms: C8_8  and  O10_10 
ROOT
HETATM    1  C6  UNL     1     -33.637  17.111  -3.326  1.00 20.00     0.038 C 
ENDROOT
BRANCH   1   2
HETATM    2  C4  UNL     1     -33.955  15.643  -3.534  1.00 20.00     0.014 C 
HETATM    3  C1  UNL     1     -35.349  15.378  -4.057  1.00 20.00     0.033 C 
HETATM    4  C2  UNL     1     -35.206  13.976  -4.614  1.00 20.00     0.168 C 
HETATM    5  O9  UNL     1     -33.853  13.848  -5.072  1.00 20.00    -0.391 OA
HETATM    6  C3  UNL     1     -33.103  14.976  -4.600  1.00 20.00     0.172 C 
ENDBRANCH   1   2
BRANCH   1   7
HETATM    7  C8  UNL     1     -33.211  17.417  -1.885  1.00 20.00     0.118 C 
BRANCH   7   8
HETATM    8  C7  UNL     1     -34.430  17.462  -0.957  1.00 20.00     0.027 C 
HETATM    9  C5  UNL     1     -34.176  18.260   0.315  1.00 20.00     0.007 C 
ENDBRANCH   7   8
BRANCH   7  10
HETATM   10  O10 UNL     1     -32.544  18.676  -1.870  1.00 20.00    -0.396 OA
HETATM   11  H26 UNL     1     -32.575  19.016  -2.777  1.00 20.00     0.210 HD
ENDBRANCH   7  10
ENDBRANCH   1   7
TORSDOF 4
ENDMDL
MODEL 8
REMARK VINA RESULT:      -4.0     10.860     11.928
REMARK  4 active torsions:
REMARK  status: ('A' for Active; 'I' for Inactive)
REMARK    1  A    between atoms: C4_4  and  C6_6 
REMARK    2  A    between atoms: C6_6  and  C8_8 
REMARK    3  A    between atoms: C7_7  and  C8_8 
REMARK    4  A    between atoms: C8_8  and  O10_10 
ROOT
HETATM    1  C6  UNL     1     -33.365  15.567  -4.862  1.00 20.00     0.038 C 
ENDROOT
BRANCH   1   2
HETATM    2  C4  UNL     1     -34.594  14.859  -5.397  1.00 20.00     0.014 C 
HETATM    3  C1  UNL     1     -34.360  14.095  -6.682  1.00 20.00     0.033 C 
HETATM    4  C2  UNL     1     -35.539  13.144  -6.692  1.00 20.00     0.168 C 
HETATM    5  O9  UNL     1     -35.851  12.856  -5.322  1.00 20.00    -0.391 OA
HETATM    6  C3  UNL     1     -35.114  13.761  -4.486  1.00 20.00     0.172 C 
ENDBRANCH   1   2
BRANCH   1   7
HETATM    7  C8  UNL     1     -33.711  16.885  -4.159  1.00 20.00     0.118 C 
BRANCH   7   8
HETATM    8  C7  UNL     1     -33.669  16.715  -2.636  1.00 20.00     0.027 C 
HETATM    9  C5  UNL     1     -35.055  16.665  -2.008  1.00 20.00     0.007 C 
ENDBRANCH   7   8
BRANCH   7  10
HETATM   10  O10 UNL     1     -35.018  17.283  -4.565  1.00 20.00    -0.396 OA
HETATM   11  H26 UNL     1     -35.458  16.486  -4.898  1.00 20.00     0.210 HD
ENDBRANCH   7  10
ENDBRANCH   1   7
TORSDOF 4
ENDMDL
MODEL 9
REMARK VINA RESULT:      -4.0      1.399      4.608
REMARK  4 active torsions:
REMARK  status: ('A' for Active; 'I' for Inactive)
REMARK    1  A    between atoms: C4_4  and  C6_6 
REMARK    2  A    between atoms: C6_6  and  C8_8 
REMARK    3  A    between atoms: C7_7  and  C8_8 
REMARK    4  A    between atoms: C8_8  and  O10_10 
ROOT
HETATM    1  C6  UNL     1     -34.402   6.932   4.023  1.00 20.00     0.038 C 
ENDROOT
BRANCH   1   2
HETATM    2  C4  UNL     1     -33.416   7.889   3.381  1.00 20.00     0.014 C 
HETATM    3  C1  UNL     1     -32.075   7.958   4.077  1.00 20.00     0.033 C 
HETATM    4  C2  UNL     1     -31.198   8.552   2.994  1.00 20.00     0.168 C 
HETATM    5  O9  UNL     1     -31.725   8.100   1.739  1.00 20.00    -0.391 OA
HETATM    6  C3  UNL     1     -33.003   7.491   1.974  1.00 20.00     0.172 C 
ENDBRANCH   1   2
BRANCH   1   7
HETATM    7  C8  UNL     1     -33.883   6.362   5.347  1.00 20.00     0.118 C 
BRANCH   7   8
HETATM    8  C7  UNL     1     -34.460   4.964   5.600  1.00 20.00     0.027 C 
HETATM    9  C5  UNL     1     -34.311   4.037   4.401  1.00 20.00     0.007 C 
ENDBRANCH   7   8
BRANCH   7  10
HETATM   10  O10 UNL     1     -34.268   7.242   6.400  1.00 20.00    -0.396 OA
HETATM   11  H26 UNL     1     -35.120   6.919   6.732  1.00 20.00     0.210 HD
ENDBRANCH   7  10
ENDBRANCH   1   7
TORSDOF 4
ENDMDL
