MODEL 1
REMARK VINA RESULT:      -6.1      0.000      0.000
REMARK  5 active torsions:
REMARK  status: ('A' for Active; 'I' for Inactive)
REMARK    1  A    between atoms: C1_1  and  C10_10 
REMARK    2  A    between atoms: C4_4  and  C8_8 
REMARK    3  A    between atoms: C8_8  and  C9_9 
REMARK    4  A    between atoms: C9_9  and  C10_10 
REMARK    5  A    between atoms: C10_10  and  C11_11 
ROOT
HETATM    1  C10 UNL     1     -33.146   6.784   3.686  1.00 20.00     0.058 C 
ENDROOT
BRANCH   1   2
HETATM    2  C1  UNL     1     -33.681   5.773   2.665  1.00 20.00     0.127 C 
HETATM    3  C5  UNL     1     -32.893   4.499   2.493  1.00 20.00     0.091 C 
HETATM    4  O12 UNL     1     -34.694   5.984   1.998  1.00 20.00    -0.298 OA
ENDBRANCH   1   2
BRANCH   1   5
HETATM    5  C9  UNL     1     -32.869   8.147   3.023  1.00 20.00     0.013 C 
BRANCH   5   6
HETATM    6  C8  UNL     1     -31.879   8.038   1.857  1.00 20.00     0.005 C 
BRANCH   6   7
HETATM    7  C4  UNL     1     -31.883   9.275   1.011  1.00 20.00    -0.014 A 
HETATM    8  C2  UNL     1     -32.884   9.431  -0.099  1.00 20.00     0.005 A 
HETATM    9  C3  UNL     1     -32.997  10.275   1.139  1.00 20.00     0.005 A 
ENDBRANCH   6   7
ENDBRANCH   5   6
ENDBRANCH   1   5
BRANCH   1  10
HETATM   10  C11 UNL     1     -34.112   6.850   4.897  1.00 20.00    -0.012 C 
HETATM   11  C6  UNL     1     -34.602   5.479   5.370  1.00 20.00     0.010 C 
HETATM   12  C7  UNL     1     -33.481   7.606   6.072  1.00 20.00     0.010 C 
ENDBRANCH   1  10
TORSDOF 5
ENDMDL
MODEL 2
REMARK VINA RESULT:      -5.9      1.563      2.760
REMARK  5 active torsions:
REMARK  status: ('A' for Active; 'I' for Inactive)
REMARK    1  A    between atoms: C1_1  and  C10_10 
REMARK    2  A    between atoms: C4_4  and  C8_8 
REMARK    3  A    between atoms: C8_8  and  C9_9 
REMARK    4  A    between atoms: C9_9  and  C10_10 
REMARK    5  A    between atoms: C10_10  and  C11_11 
ROOT
HETATM    1  C10 UNL     1     -33.529   7.064   3.753  1.00 20.00     0.058 C 
ENDROOT
BRANCH   1   2
HETATM    2  C1  UNL     1     -33.803   6.888   5.250  1.00 20.00     0.127 C 
HETATM    3  C5  UNL     1     -34.616   5.685   5.655  1.00 20.00     0.091 C 
HETATM    4  O12 UNL     1     -33.401   7.691   6.092  1.00 20.00    -0.298 OA
ENDBRANCH   1   2
BRANCH   1   5
HETATM    5  C9  UNL     1     -32.041   7.373   3.494  1.00 20.00     0.013 C 
BRANCH   5   6
HETATM    6  C8  UNL     1     -31.830   8.778   2.917  1.00 20.00     0.005 C 
BRANCH   6   7
HETATM    7  C4  UNL     1     -32.628   8.989   1.667  1.00 20.00    -0.014 A 
HETATM    8  C2  UNL     1     -32.685  10.346   1.023  1.00 20.00     0.005 A 
HETATM    9  C3  UNL     1     -31.933   9.228   0.357  1.00 20.00     0.005 A 
ENDBRANCH   6   7
ENDBRANCH   5   6
ENDBRANCH   1   5
BRANCH   1  10
HETATM   10  C11 UNL     1     -34.063   5.827   2.985  1.00 20.00    -0.012 C 
HETATM   11  C6  UNL     1     -34.819   6.179   1.701  1.00 20.00     0.010 C 
HETATM   12  C7  UNL     1     -32.935   4.839   2.665  1.00 20.00     0.010 C 
ENDBRANCH   1  10
TORSDOF 5
ENDMDL
MODEL 3
REMARK VINA RESULT:      -5.3      1.220      1.448
REMARK  5 active torsions:
REMARK  status: ('A' for Active; 'I' for Inactive)
REMARK    1  A    between atoms: C1_1  and  C10_10 
REMARK    2  A    between atoms: C4_4  and  C8_8 
REMARK    3  A    between atoms: C8_8  and  C9_9 
REMARK    4  A    between atoms: C9_9  and  C10_10 
REMARK    5  A    between atoms: C10_10  and  C11_11 
ROOT
HETATM    1  C10 UNL     1     -33.202   6.413   3.817  1.00 20.00     0.058 C 
ENDROOT
BRANCH   1   2
HETATM    2  C1  UNL     1     -34.453   5.530   3.857  1.00 20.00     0.127 C 
HETATM    3  C5  UNL     1     -34.267   4.108   4.324  1.00 20.00     0.091 C 
HETATM    4  O12 UNL     1     -35.561   5.940   3.512  1.00 20.00    -0.298 OA
ENDBRANCH   1   2
BRANCH   1   5
HETATM    5  C9  UNL     1     -32.846   6.804   2.369  1.00 20.00     0.013 C 
BRANCH   5   6
HETATM    6  C8  UNL     1     -33.348   8.207   2.004  1.00 20.00     0.005 C 
BRANCH   6   7
HETATM    7  C4  UNL     1     -32.417   8.899   1.056  1.00 20.00    -0.014 A 
HETATM    8  C2  UNL     1     -32.938   9.480  -0.228  1.00 20.00     0.005 A 
HETATM    9  C3  UNL     1     -32.487  10.389   0.880  1.00 20.00     0.005 A 
ENDBRANCH   6   7
ENDBRANCH   5   6
ENDBRANCH   1   5
BRANCH   1  10
HETATM   10  C11 UNL     1     -33.394   7.619   4.773  1.00 20.00    -0.012 C 
HETATM   11  C6  UNL     1     -33.896   7.226   6.165  1.00 20.00     0.010 C 
HETATM   12  C7  UNL     1     -32.105   8.439   4.901  1.00 20.00     0.010 C 
ENDBRANCH   1  10
TORSDOF 5
ENDMDL
MODEL 4
REMARK VINA RESULT:      -5.3      1.416      2.632
REMARK  5 active torsions:
REMARK  status: ('A' for Active; 'I' for Inactive)
REMARK    1  A    between atoms: C1_1  and  C10_10 
REMARK    2  A    between atoms: C4_4  and  C8_8 
REMARK    3  A    between atoms: C8_8  and  C9_9 
REMARK    4  A    between atoms: C9_9  and  C10_10 
REMARK    5  A    between atoms: C10_10  and  C11_11 
ROOT
HETATM    1  C10 UNL     1     -34.073   6.600   3.823  1.00 20.00     0.058 C 
ENDROOT
BRANCH   1   2
HETATM    2  C1  UNL     1     -34.189   6.655   5.350  1.00 20.00     0.127 C 
HETATM    3  C5  UNL     1     -33.288   7.631   6.065  1.00 20.00     0.091 C 
HETATM    4  O12 UNL     1     -34.961   5.933   5.979  1.00 20.00    -0.298 OA
ENDBRANCH   1   2
BRANCH   1   5
HETATM    5  C9  UNL     1     -32.840   7.383   3.332  1.00 20.00     0.013 C 
BRANCH   5   6
HETATM    6  C8  UNL     1     -33.022   7.923   1.908  1.00 20.00     0.005 C 
BRANCH   6   7
HETATM    7  C4  UNL     1     -32.184   9.142   1.668  1.00 20.00    -0.014 A 
HETATM    8  C2  UNL     1     -32.057   9.713   0.283  1.00 20.00     0.005 A 
HETATM    9  C3  UNL     1     -32.836  10.454   1.333  1.00 20.00     0.005 A 
ENDBRANCH   6   7
ENDBRANCH   5   6
ENDBRANCH   1   5
BRANCH   1  10
HETATM   10  C11 UNL     1     -34.112   5.120   3.359  1.00 20.00    -0.012 C 
HETATM   11  C6  UNL     1     -32.912   4.713   2.498  1.00 20.00     0.010 C 
HETATM   12  C7  UNL     1     -34.237   4.165   4.552  1.00 20.00     0.010 C 
ENDBRANCH   1  10
TORSDOF 5
ENDMDL
MODEL 5
REMARK VINA RESULT:      -4.8     10.265     11.361
REMARK  5 active torsions:
REMARK  status: ('A' for Active; 'I' for Inactive)
REMARK    1  A    between atoms: C1_1  and  C10_10 
REMARK    2  A    between atoms: C4_4  and  C8_8 
REMARK    3  A    between atoms: C8_8  and  C9_9 
REMARK    4  A    between atoms: C9_9  and  C10_10 
REMARK    5  A    between atoms: C10_10  and  C11_11 
ROOT
HETATM    1  C10 UNL     1     -35.240  15.063  -4.821  1.00 20.00     0.058 C 
ENDROOT
BRANCH   1   2
HETATM    2  C1  UNL     1     -36.261  13.954  -5.097  1.00 20.00     0.127 C 
HETATM    3  C5  UNL     1     -37.711  14.366  -5.159  1.00 20.00     0.091 C 
HETATM    4  O12 UNL     1     -35.932  12.778  -5.246  1.00 20.00    -0.298 OA
ENDBRANCH   1   2
BRANCH   1   5
HETATM    5  C9  UNL     1     -35.172  15.392  -3.316  1.00 20.00     0.013 C 
BRANCH   5   6
HETATM    6  C8  UNL     1     -34.822  16.862  -3.056  1.00 20.00     0.005 C 
BRANCH   6   7
HETATM    7  C4  UNL     1     -33.748  16.999  -2.020  1.00 20.00    -0.014 A 
HETATM    8  C2  UNL     1     -33.052  18.317  -1.822  1.00 20.00     0.005 A 
HETATM    9  C3  UNL     1     -33.997  17.801  -0.774  1.00 20.00     0.005 A 
ENDBRANCH   6   7
ENDBRANCH   5   6
ENDBRANCH   1   5
BRANCH   1  10
HETATM   10  C11 UNL     1     -33.876  14.673  -5.448  1.00 20.00    -0.012 C 
HETATM   11  C6  UNL     1     -33.265  15.771  -6.323  1.00 20.00     0.010 C 
HETATM   12  C7  UNL     1     -32.869  14.249  -4.373  1.00 20.00     0.010 C 
ENDBRANCH   1  10
TORSDOF 5
ENDMDL
MODEL 6
REMARK VINA RESULT:      -4.8      1.847      5.029
REMARK  5 active torsions:
REMARK  status: ('A' for Active; 'I' for Inactive)
REMARK    1  A    between atoms: C1_1  and  C10_10 
REMARK    2  A    between atoms: C4_4  and  C8_8 
REMARK    3  A    between atoms: C8_8  and  C9_9 
REMARK    4  A    between atoms: C9_9  and  C10_10 
REMARK    5  A    between atoms: C10_10  and  C11_11 
ROOT
HETATM    1  C10 UNL     1     -32.553   7.633   2.370  1.00 20.00     0.058 C 
ENDROOT
BRANCH   1   2
HETATM    2  C1  UNL     1     -31.704   8.106   3.555  1.00 20.00     0.127 C 
HETATM    3  C5  UNL     1     -32.436   8.394   4.842  1.00 20.00     0.091 C 
HETATM    4  O12 UNL     1     -30.487   8.266   3.472  1.00 20.00    -0.298 OA
ENDBRANCH   1   2
BRANCH   1   5
HETATM    5  C9  UNL     1     -33.953   7.185   2.834  1.00 20.00     0.013 C 
BRANCH   5   6
HETATM    6  C8  UNL     1     -34.006   5.688   3.163  1.00 20.00     0.005 C 
BRANCH   6   7
HETATM    7  C4  UNL     1     -34.919   5.408   4.318  1.00 20.00    -0.014 A 
HETATM    8  C2  UNL     1     -34.541   4.382   5.350  1.00 20.00     0.005 A 
HETATM    9  C3  UNL     1     -34.538   5.843   5.705  1.00 20.00     0.005 A 
ENDBRANCH   6   7
ENDBRANCH   5   6
ENDBRANCH   1   5
BRANCH   1  10
HETATM   10  C11 UNL     1     -32.568   8.735   1.278  1.00 20.00    -0.012 C 
HETATM   11  C6  UNL     1     -32.740  10.151   1.834  1.00 20.00     0.010 C 
HETATM   12  C7  UNL     1     -31.308   8.673   0.406  1.00 20.00     0.010 C 
ENDBRANCH   1  10
TORSDOF 5
ENDMDL
MODEL 7
REMARK VINA RESULT:      -4.7     10.182     11.367
REMARK  5 active torsions:
REMARK  status: ('A' for Active; 'I' for Inactive)
REMARK    1  A    between atoms: C1_1  and  C10_10 
REMARK    2  A    between atoms: C4_4  and  C8_8 
REMARK    3  A    between atoms: C8_8  and  C9_9 
REMARK    4  A    between atoms: C9_9  and  C10_10 
REMARK    5  A    between atoms: C10_10  and  C11_11 
ROOT
HETATM    1  C10 UNL     1     -34.995  15.623  -3.659  1.00 20.00     0.058 C 
ENDROOT
BRANCH   1   2
HETATM    2  C1  UNL     1     -34.359  14.335  -4.193  1.00 20.00     0.127 C 
HETATM    3  C5  UNL     1     -32.859  14.335  -4.356  1.00 20.00     0.091 C 
HETATM    4  O12 UNL     1     -35.026  13.347  -4.497  1.00 20.00    -0.298 OA
ENDBRANCH   1   2
BRANCH   1   5
HETATM    5  C9  UNL     1     -33.920  16.677  -3.328  1.00 20.00     0.013 C 
BRANCH   5   6
HETATM    6  C8  UNL     1     -33.921  17.065  -1.845  1.00 20.00     0.005 C 
BRANCH   6   7
HETATM    7  C4  UNL     1     -35.275  16.888  -1.228  1.00 20.00    -0.014 A 
HETATM    8  C2  UNL     1     -35.586  17.506   0.106  1.00 20.00     0.005 A 
HETATM    9  C3  UNL     1     -36.225  18.050  -1.141  1.00 20.00     0.005 A 
ENDBRANCH   6   7
ENDBRANCH   5   6
ENDBRANCH   1   5
BRANCH   1  10
HETATM   10  C11 UNL     1     -36.079  16.111  -4.656  1.00 20.00    -0.012 C 
HETATM   11  C6  UNL     1     -37.512  15.912  -4.153  1.00 20.00     0.010 C 
HETATM   12  C7  UNL     1     -35.865  17.580  -5.036  1.00 20.00     0.010 C 
ENDBRANCH   1  10
TORSDOF 5
ENDMDL
MODEL 8
REMARK VINA RESULT:      -4.7     10.492     11.908
REMARK  5 active torsions:
REMARK  status: ('A' for Active; 'I' for Inactive)
REMARK    1  A    between atoms: C1_1  and  C10_10 
REMARK    2  A    between atoms: C4_4  and  C8_8 
REMARK    3  A    between atoms: C8_8  and  C9_9 
REMARK    4  A    between atoms: C9_9  and  C10_10 
REMARK    5  A    between atoms: C10_10  and  C11_11 
ROOT
HETATM    1  C10 UNL     1     -35.061  14.899  -5.568  1.00 20.00     0.058 C 
ENDROOT
BRANCH   1   2
HETATM    2  C1  UNL     1     -36.169  13.862  -5.355  1.00 20.00     0.127 C 
HETATM    3  C5  UNL     1     -37.583  14.381  -5.284  1.00 20.00     0.091 C 
HETATM    4  O12 UNL     1     -35.931  12.661  -5.228  1.00 20.00    -0.298 OA
ENDBRANCH   1   2
BRANCH   1   5
HETATM    5  C9  UNL     1     -33.718  14.402  -4.999  1.00 20.00     0.013 C 
BRANCH   5   6
HETATM    6  C8  UNL     1     -33.265  15.214  -3.780  1.00 20.00     0.005 C 
BRANCH   6   7
HETATM    7  C4  UNL     1     -34.172  16.379  -3.524  1.00 20.00    -0.014 A 
HETATM    8  C2  UNL     1     -34.888  16.506  -2.208  1.00 20.00     0.005 A 
HETATM    9  C3  UNL     1     -33.770  17.450  -2.549  1.00 20.00     0.005 A 
ENDBRANCH   6   7
ENDBRANCH   5   6
ENDBRANCH   1   5
BRANCH   1  10
HETATM   10  C11 UNL     1     -35.010  15.294  -7.067  1.00 20.00    -0.012 C 
HETATM   11  C6  UNL     1     -34.494  16.715  -7.312  1.00 20.00     0.010 C 
HETATM   12  C7  UNL     1     -34.175  14.295  -7.878  1.00 20.00     0.010 C 
ENDBRANCH   1  10
TORSDOF 5
ENDMDL
MODEL 9
REMARK VINA RESULT:      -4.7      1.618      4.418
REMARK  5 active torsions:
REMARK  status: ('A' for Active; 'I' for Inactive)
REMARK    1  A    between atoms: C1_1  and  C10_10 
REMARK    2  A    between atoms: C4_4  and  C8_8 
REMARK    3  A    between atoms: C8_8  and  C9_9 
REMARK    4  A    between atoms: C9_9  and  C10_10 
REMARK    5  A    between atoms: C10_10  and  C11_11 
ROOT
HETATM    1  C10 UNL     1     -33.143   7.803   2.670  1.00 20.00     0.058 C 
ENDROOT
BRANCH   1   2
HETATM    2  C1  UNL     1     -32.391   8.637   1.626  1.00 20.00     0.127 C 
HETATM    3  C5  UNL     1     -32.940  10.010   1.329  1.00 20.00     0.091 C 
HETATM    4  O12 UNL     1     -31.397   8.214   1.036  1.00 20.00    -0.298 OA
ENDBRANCH   1   2
BRANCH   1   5
HETATM    5  C9  UNL     1     -33.572   6.442   2.088  1.00 20.00     0.013 C 
BRANCH   5   6
HETATM    6  C8  UNL     1     -33.059   5.263   2.924  1.00 20.00     0.005 C 
BRANCH   6   7
HETATM    7  C4  UNL     1     -34.181   4.537   3.603  1.00 20.00    -0.014 A 
HETATM    8  C2  UNL     1     -34.245   4.477   5.103  1.00 20.00     0.005 A 
HETATM    9  C3  UNL     1     -35.241   5.305   4.341  1.00 20.00     0.005 A 
ENDBRANCH   6   7
ENDBRANCH   5   6
ENDBRANCH   1   5
BRANCH   1  10
HETATM   10  C11 UNL     1     -32.286   7.702   3.959  1.00 20.00    -0.012 C 
HETATM   11  C6  UNL     1     -31.091   8.660   3.980  1.00 20.00     0.010 C 
HETATM   12  C7  UNL     1     -33.139   7.914   5.214  1.00 20.00     0.010 C 
ENDBRANCH   1  10
TORSDOF 5
ENDMDL
