MODEL 1
REMARK VINA RESULT:      -5.1      0.000      0.000
REMARK  2 active torsions:
REMARK  status: ('A' for Active; 'I' for Inactive)
REMARK    1  A    between atoms: C4_4  and  C7_7 
REMARK    2  A    between atoms: C7_7  and  O8_8 
ROOT
HETATM    1  C1  UNL     1     -32.957   7.766   5.089  1.00 20.00     0.008 C 
HETATM    2  C2  UNL     1     -34.074   6.849   5.593  1.00 20.00     0.016 C 
HETATM    3  C3  UNL     1     -33.945   6.777   3.156  1.00 20.00     0.022 C 
HETATM    4  C4  UNL     1     -32.591   7.223   3.710  1.00 20.00     0.011 C 
HETATM    5  C5  UNL     1     -34.640   6.147   4.358  1.00 20.00     0.058 C 
HETATM    6 BR9  UNL     1     -34.241   4.233   4.430  1.00 20.00    -0.091 Br
ENDROOT
BRANCH   4   7
HETATM    7  C7  UNL     1     -31.895   8.246   2.831  1.00 20.00     0.171 C 
BRANCH   7   8
HETATM    8  O8  UNL     1     -32.652   8.421   1.644  1.00 20.00    -0.396 OA
HETATM    9  C6  UNL     1     -32.585   9.760   1.171  1.00 20.00     0.201 C 
ENDBRANCH   7   8
ENDBRANCH   4   7
TORSDOF 2
ENDMDL
MODEL 2
REMARK VINA RESULT:      -4.6      2.861      4.090
REMARK  2 active torsions:
REMARK  status: ('A' for Active; 'I' for Inactive)
REMARK    1  A    between atoms: C4_4  and  C7_7 
REMARK    2  A    between atoms: C7_7  and  O8_8 
ROOT
HETATM    1  C1  UNL     1     -33.279   7.464   4.806  1.00 20.00     0.008 C 
HETATM    2  C2  UNL     1     -32.051   8.123   4.173  1.00 20.00     0.016 C 
HETATM    3  C3  UNL     1     -33.124   6.612   2.584  1.00 20.00     0.022 C 
HETATM    4  C4  UNL     1     -34.154   7.043   3.628  1.00 20.00     0.011 C 
HETATM    5  C5  UNL     1     -32.012   7.645   2.721  1.00 20.00     0.058 C 
HETATM    6 BR9  UNL     1     -32.346   9.146   1.510  1.00 20.00    -0.091 Br
ENDROOT
BRANCH   4   7
HETATM    7  C7  UNL     1     -35.142   5.945   3.981  1.00 20.00     0.171 C 
BRANCH   7   8
HETATM    8  O8  UNL     1     -34.584   5.139   5.006  1.00 20.00    -0.396 OA
HETATM    9  C6  UNL     1     -34.136   3.887   4.504  1.00 20.00     0.201 C 
ENDBRANCH   7   8
ENDBRANCH   4   7
TORSDOF 2
ENDMDL
MODEL 3
REMARK VINA RESULT:      -3.9     11.350     11.893
REMARK  2 active torsions:
REMARK  status: ('A' for Active; 'I' for Inactive)
REMARK    1  A    between atoms: C4_4  and  C7_7 
REMARK    2  A    between atoms: C7_7  and  O8_8 
ROOT
HETATM    1  C1  UNL     1     -34.504  17.394  -0.849  1.00 20.00     0.008 C 
HETATM    2  C2  UNL     1     -35.239  16.676  -1.983  1.00 20.00     0.016 C 
HETATM    3  C3  UNL     1     -33.438  18.061  -2.876  1.00 20.00     0.022 C 
HETATM    4  C4  UNL     1     -33.126  17.724  -1.418  1.00 20.00     0.011 C 
HETATM    5  C5  UNL     1     -34.493  17.033  -3.269  1.00 20.00     0.058 C 
HETATM    6 BR9  UNL     1     -33.628  15.442  -4.009  1.00 20.00    -0.091 Br
ENDROOT
BRANCH   4   7
HETATM    7  C7  UNL     1     -32.431  18.855  -0.680  1.00 20.00     0.171 C 
BRANCH   7   8
HETATM    8  O8  UNL     1     -31.193  18.380  -0.175  1.00 20.00    -0.396 OA
HETATM    9  C6  UNL     1     -31.020  18.720   1.195  1.00 20.00     0.201 C 
ENDBRANCH   7   8
ENDBRANCH   4   7
TORSDOF 2
ENDMDL
MODEL 4
REMARK VINA RESULT:      -3.7     11.128     11.712
REMARK  2 active torsions:
REMARK  status: ('A' for Active; 'I' for Inactive)
REMARK    1  A    between atoms: C4_4  and  C7_7 
REMARK    2  A    between atoms: C7_7  and  O8_8 
ROOT
HETATM    1  C1  UNL     1     -34.015  14.515  -4.434  1.00 20.00     0.008 C 
HETATM    2  C2  UNL     1     -33.521  15.764  -3.700  1.00 20.00     0.016 C 
HETATM    3  C3  UNL     1     -35.856  16.029  -4.360  1.00 20.00     0.022 C 
HETATM    4  C4  UNL     1     -35.533  14.537  -4.275  1.00 20.00     0.011 C 
HETATM    5  C5  UNL     1     -34.730  16.691  -3.574  1.00 20.00     0.058 C 
HETATM    6 BR9  UNL     1     -35.247  16.869  -1.695  1.00 20.00    -0.091 Br
ENDROOT
BRANCH   4   7
HETATM    7  C7  UNL     1     -36.254  13.709  -5.324  1.00 20.00     0.171 C 
BRANCH   7   8
HETATM    8  O8  UNL     1     -35.339  12.782  -5.885  1.00 20.00    -0.396 OA
HETATM    9  C6  UNL     1     -35.262  12.910  -7.299  1.00 20.00     0.201 C 
ENDBRANCH   7   8
ENDBRANCH   4   7
TORSDOF 2
ENDMDL
MODEL 5
REMARK VINA RESULT:      -3.5     11.286     12.002
REMARK  2 active torsions:
REMARK  status: ('A' for Active; 'I' for Inactive)
REMARK    1  A    between atoms: C4_4  and  C7_7 
REMARK    2  A    between atoms: C7_7  and  O8_8 
ROOT
HETATM    1  C1  UNL     1     -34.368  14.357  -4.616  1.00 20.00     0.008 C 
HETATM    2  C2  UNL     1     -33.585  15.449  -3.884  1.00 20.00     0.016 C 
HETATM    3  C3  UNL     1     -35.830  16.232  -4.436  1.00 20.00     0.022 C 
HETATM    4  C4  UNL     1     -35.837  14.704  -4.391  1.00 20.00     0.011 C 
HETATM    5  C5  UNL     1     -34.558  16.612  -3.688  1.00 20.00     0.058 C 
HETATM    6 BR9  UNL     1     -34.949  16.849  -1.786  1.00 20.00    -0.091 Br
ENDROOT
BRANCH   4   7
HETATM    7  C7  UNL     1     -36.763  14.080  -5.421  1.00 20.00     0.171 C 
BRANCH   7   8
HETATM    8  O8  UNL     1     -38.052  13.934  -4.848  1.00 20.00    -0.396 OA
HETATM    9  C6  UNL     1     -38.979  14.860  -5.401  1.00 20.00     0.201 C 
ENDBRANCH   7   8
ENDBRANCH   4   7
TORSDOF 2
ENDMDL
MODEL 6
REMARK VINA RESULT:      -3.5     10.970     12.047
REMARK  2 active torsions:
REMARK  status: ('A' for Active; 'I' for Inactive)
REMARK    1  A    between atoms: C4_4  and  C7_7 
REMARK    2  A    between atoms: C7_7  and  O8_8 
ROOT
HETATM    1  C1  UNL     1     -33.586  16.235  -4.978  1.00 20.00     0.008 C 
HETATM    2  C2  UNL     1     -33.500  17.650  -4.399  1.00 20.00     0.016 C 
HETATM    3  C3  UNL     1     -34.921  16.239  -3.002  1.00 20.00     0.022 C 
HETATM    4  C4  UNL     1     -33.969  15.346  -3.798  1.00 20.00     0.011 C 
HETATM    5  C5  UNL     1     -34.281  17.620  -3.084  1.00 20.00     0.058 C 
HETATM    6 BR9  UNL     1     -33.064  17.879  -1.574  1.00 20.00    -0.091 Br
ENDROOT
BRANCH   4   7
HETATM    7  C7  UNL     1     -34.597  14.030  -4.221  1.00 20.00     0.171 C 
BRANCH   7   8
HETATM    8  O8  UNL     1     -34.331  13.818  -5.598  1.00 20.00    -0.396 OA
HETATM    9  C6  UNL     1     -35.496  13.400  -6.298  1.00 20.00     0.201 C 
ENDBRANCH   7   8
ENDBRANCH   4   7
TORSDOF 2
ENDMDL
MODEL 7
REMARK VINA RESULT:      -3.4      1.679      2.325
REMARK  2 active torsions:
REMARK  status: ('A' for Active; 'I' for Inactive)
REMARK    1  A    between atoms: C4_4  and  C7_7 
REMARK    2  A    between atoms: C7_7  and  O8_8 
ROOT
HETATM    1  C1  UNL     1     -33.490   6.886   1.940  1.00 20.00     0.008 C 
HETATM    2  C2  UNL     1     -33.732   6.014   3.175  1.00 20.00     0.016 C 
HETATM    3  C3  UNL     1     -31.963   7.640   3.609  1.00 20.00     0.022 C 
HETATM    4  C4  UNL     1     -32.846   8.162   2.476  1.00 20.00     0.011 C 
HETATM    5  C5  UNL     1     -32.817   6.563   4.270  1.00 20.00     0.058 C 
HETATM    6 BR9  UNL     1     -33.886   7.351   5.707  1.00 20.00    -0.091 Br
ENDROOT
BRANCH   4   7
HETATM    7  C7  UNL     1     -32.070   8.928   1.419  1.00 20.00     0.171 C 
BRANCH   7   8
HETATM    8  O8  UNL     1     -32.928   9.893   0.831  1.00 20.00    -0.396 OA
HETATM    9  C6  UNL     1     -33.216   9.582  -0.526  1.00 20.00     0.201 C 
ENDBRANCH   7   8
ENDBRANCH   4   7
TORSDOF 2
ENDMDL
MODEL 8
REMARK VINA RESULT:      -3.4     11.556     12.025
REMARK  2 active torsions:
REMARK  status: ('A' for Active; 'I' for Inactive)
REMARK    1  A    between atoms: C4_4  and  C7_7 
REMARK    2  A    between atoms: C7_7  and  O8_8 
ROOT
HETATM    1  C1  UNL     1     -32.879  17.840  -1.445  1.00 20.00     0.008 C 
HETATM    2  C2  UNL     1     -33.922  16.988  -2.171  1.00 20.00     0.016 C 
HETATM    3  C3  UNL     1     -34.793  17.758  -0.025  1.00 20.00     0.022 C 
HETATM    4  C4  UNL     1     -33.680  18.705  -0.474  1.00 20.00     0.011 C 
HETATM    5  C5  UNL     1     -35.179  17.017  -1.300  1.00 20.00     0.058 C 
HETATM    6 BR9  UNL     1     -36.613  17.977  -2.220  1.00 20.00    -0.091 Br
ENDROOT
BRANCH   4   7
HETATM    7  C7  UNL     1     -32.847  19.237   0.678  1.00 20.00     0.171 C 
BRANCH   7   8
HETATM    8  O8  UNL     1     -31.534  18.710   0.576  1.00 20.00    -0.396 OA
HETATM    9  C6  UNL     1     -30.774  18.964   1.750  1.00 20.00     0.201 C 
ENDBRANCH   7   8
ENDBRANCH   4   7
TORSDOF 2
ENDMDL
MODEL 9
REMARK VINA RESULT:      -3.4     11.247     11.926
REMARK  2 active torsions:
REMARK  status: ('A' for Active; 'I' for Inactive)
REMARK    1  A    between atoms: C4_4  and  C7_7 
REMARK    2  A    between atoms: C7_7  and  O8_8 
ROOT
HETATM    1  C1  UNL     1     -36.808  15.290  -4.203  1.00 20.00     0.008 C 
HETATM    2  C2  UNL     1     -36.176  16.320  -3.264  1.00 20.00     0.016 C 
HETATM    3  C3  UNL     1     -34.520  14.664  -3.955  1.00 20.00     0.022 C 
HETATM    4  C4  UNL     1     -35.640  14.705  -4.994  1.00 20.00     0.011 C 
HETATM    5  C5  UNL     1     -34.690  15.968  -3.184  1.00 20.00     0.058 C 
HETATM    6 BR9  UNL     1     -33.619  17.378  -4.018  1.00 20.00    -0.091 Br
ENDROOT
BRANCH   4   7
HETATM    7  C7  UNL     1     -35.947  13.345  -5.595  1.00 20.00     0.171 C 
BRANCH   7   8
HETATM    8  O8  UNL     1     -34.827  12.916  -6.353  1.00 20.00    -0.396 OA
HETATM    9  C6  UNL     1     -34.657  13.700  -7.527  1.00 20.00     0.201 C 
ENDBRANCH   7   8
ENDBRANCH   4   7
TORSDOF 2
ENDMDL
