MODEL 1
REMARK VINA RESULT:      -5.3      0.000      0.000
REMARK  2 active torsions:
REMARK  status: ('A' for Active; 'I' for Inactive)
REMARK    1  A    between atoms: C7_7  and  C8_8 
REMARK    2  A    between atoms: C8_8  and  S9_9 
ROOT
HETATM    1  C1  UNL     1     -34.418   4.705   5.529  1.00 20.00     0.005 C 
HETATM    2  C2  UNL     1     -33.975   4.164   4.161  1.00 20.00     0.005 C 
HETATM    3  C3  UNL     1     -35.441   5.995   3.809  1.00 20.00     0.009 C 
HETATM    4  C4  UNL     1     -33.593   6.995   4.923  1.00 20.00     0.010 C 
HETATM    5  C5  UNL     1     -34.846   6.147   5.208  1.00 20.00    -0.014 C 
HETATM    6  C6  UNL     1     -34.166   5.376   3.231  1.00 20.00    -0.009 C 
HETATM    7  C7  UNL     1     -33.086   6.429   3.578  1.00 20.00    -0.001 C 
ENDROOT
BRANCH   7   8
HETATM    8  C8  UNL     1     -32.949   7.510   2.511  1.00 20.00     0.075 C 
BRANCH   8   9
HETATM    9  S9  UNL     1     -31.505   8.549   2.850  1.00 20.00    -0.182 SA
HETATM   10  H23 UNL     1     -30.606   7.747   2.263  1.00 20.00     0.101 HD
ENDBRANCH   8   9
ENDBRANCH   7   8
TORSDOF 2
ENDMDL
MODEL 2
REMARK VINA RESULT:      -3.7      1.408      2.423
REMARK  2 active torsions:
REMARK  status: ('A' for Active; 'I' for Inactive)
REMARK    1  A    between atoms: C7_7  and  C8_8 
REMARK    2  A    between atoms: C8_8  and  S9_9 
ROOT
HETATM    1  C1  UNL     1     -34.948   5.958   4.052  1.00 20.00     0.005 C 
HETATM    2  C2  UNL     1     -34.004   6.898   4.817  1.00 20.00     0.005 C 
HETATM    3  C3  UNL     1     -32.721   5.626   3.280  1.00 20.00     0.009 C 
HETATM    4  C4  UNL     1     -34.153   6.893   1.865  1.00 20.00     0.010 C 
HETATM    5  C5  UNL     1     -34.160   5.646   2.768  1.00 20.00    -0.014 C 
HETATM    6  C6  UNL     1     -32.807   7.040   3.859  1.00 20.00    -0.009 C 
HETATM    7  C7  UNL     1     -33.257   7.883   2.642  1.00 20.00    -0.001 C 
ENDROOT
BRANCH   7   8
HETATM    8  C8  UNL     1     -32.087   8.384   1.803  1.00 20.00     0.075 C 
BRANCH   8   9
HETATM    9  S9  UNL     1     -32.557   9.879   0.896  1.00 20.00    -0.182 SA
HETATM   10  H23 UNL     1     -31.658  10.690   1.472  1.00 20.00     0.101 HD
ENDBRANCH   8   9
ENDBRANCH   7   8
TORSDOF 2
ENDMDL
MODEL 3
REMARK VINA RESULT:      -3.7     12.010     12.810
REMARK  2 active torsions:
REMARK  status: ('A' for Active; 'I' for Inactive)
REMARK    1  A    between atoms: C7_7  and  C8_8 
REMARK    2  A    between atoms: C8_8  and  S9_9 
ROOT
HETATM    1  C1  UNL     1     -33.636  16.652  -2.862  1.00 20.00     0.005 C 
HETATM    2  C2  UNL     1     -35.083  16.261  -2.525  1.00 20.00     0.005 C 
HETATM    3  C3  UNL     1     -34.958  16.771  -4.838  1.00 20.00     0.009 C 
HETATM    4  C4  UNL     1     -33.537  14.875  -4.629  1.00 20.00     0.010 C 
HETATM    5  C5  UNL     1     -33.552  16.393  -4.376  1.00 20.00    -0.014 C 
HETATM    6  C6  UNL     1     -35.638  15.789  -3.882  1.00 20.00    -0.009 C 
HETATM    7  C7  UNL     1     -34.967  14.441  -4.238  1.00 20.00    -0.001 C 
ENDROOT
BRANCH   7   8
HETATM    8  C8  UNL     1     -35.678  13.706  -5.369  1.00 20.00     0.075 C 
BRANCH   8   9
HETATM    9  S9  UNL     1     -34.632  13.662  -6.846  1.00 20.00    -0.182 SA
HETATM   10  H23 UNL     1     -33.471  13.871  -6.210  1.00 20.00     0.101 HD
ENDBRANCH   8   9
ENDBRANCH   7   8
TORSDOF 2
ENDMDL
MODEL 4
REMARK VINA RESULT:      -3.7     11.713     12.689
REMARK  2 active torsions:
REMARK  status: ('A' for Active; 'I' for Inactive)
REMARK    1  A    between atoms: C7_7  and  C8_8 
REMARK    2  A    between atoms: C8_8  and  S9_9 
ROOT
HETATM    1  C1  UNL     1     -34.726  14.168  -4.181  1.00 20.00     0.005 C 
HETATM    2  C2  UNL     1     -33.282  14.615  -4.456  1.00 20.00     0.005 C 
HETATM    3  C3  UNL     1     -34.748  16.372  -5.081  1.00 20.00     0.009 C 
HETATM    4  C4  UNL     1     -35.106  16.183  -2.737  1.00 20.00     0.010 C 
HETATM    5  C5  UNL     1     -35.484  15.501  -4.064  1.00 20.00    -0.014 C 
HETATM    6  C6  UNL     1     -33.383  16.151  -4.423  1.00 20.00    -0.009 C 
HETATM    7  C7  UNL     1     -33.632  16.590  -2.960  1.00 20.00    -0.001 C 
ENDROOT
BRANCH   7   8
HETATM    8  C8  UNL     1     -33.405  18.082  -2.742  1.00 20.00     0.075 C 
BRANCH   8   9
HETATM    9  S9  UNL     1     -32.760  18.384  -1.078  1.00 20.00    -0.182 SA
HETATM   10  H23 UNL     1     -31.562  18.842  -1.466  1.00 20.00     0.101 HD
ENDBRANCH   8   9
ENDBRANCH   7   8
TORSDOF 2
ENDMDL
MODEL 5
REMARK VINA RESULT:      -3.6      1.112      1.906
REMARK  2 active torsions:
REMARK  status: ('A' for Active; 'I' for Inactive)
REMARK    1  A    between atoms: C7_7  and  C8_8 
REMARK    2  A    between atoms: C8_8  and  S9_9 
ROOT
HETATM    1  C1  UNL     1     -35.098   4.842   4.051  1.00 20.00     0.005 C 
HETATM    2  C2  UNL     1     -35.547   6.282   3.756  1.00 20.00     0.005 C 
HETATM    3  C3  UNL     1     -33.653   6.358   5.182  1.00 20.00     0.009 C 
HETATM    4  C4  UNL     1     -32.794   5.355   3.203  1.00 20.00     0.010 C 
HETATM    5  C5  UNL     1     -33.624   5.015   4.454  1.00 20.00    -0.014 C 
HETATM    6  C6  UNL     1     -34.262   7.099   3.988  1.00 20.00    -0.009 C 
HETATM    7  C7  UNL     1     -33.271   6.780   2.844  1.00 20.00    -0.001 C 
ENDROOT
BRANCH   7   8
HETATM    8  C8  UNL     1     -32.116   7.774   2.767  1.00 20.00     0.075 C 
BRANCH   8   9
HETATM    9  S9  UNL     1     -32.385   8.947   1.415  1.00 20.00    -0.182 SA
HETATM   10  H23 UNL     1     -33.623   8.535   1.107  1.00 20.00     0.101 HD
ENDBRANCH   8   9
ENDBRANCH   7   8
TORSDOF 2
ENDMDL
MODEL 6
REMARK VINA RESULT:      -3.6     12.110     12.835
REMARK  2 active torsions:
REMARK  status: ('A' for Active; 'I' for Inactive)
REMARK    1  A    between atoms: C7_7  and  C8_8 
REMARK    2  A    between atoms: C8_8  and  S9_9 
ROOT
HETATM    1  C1  UNL     1     -33.764  17.028  -2.066  1.00 20.00     0.005 C 
HETATM    2  C2  UNL     1     -35.233  16.614  -1.890  1.00 20.00     0.005 C 
HETATM    3  C3  UNL     1     -34.925  17.378  -4.114  1.00 20.00     0.009 C 
HETATM    4  C4  UNL     1     -33.524  15.459  -4.007  1.00 20.00     0.010 C 
HETATM    5  C5  UNL     1     -33.560  16.940  -3.587  1.00 20.00    -0.014 C 
HETATM    6  C6  UNL     1     -35.679  16.301  -3.330  1.00 20.00    -0.009 C 
HETATM    7  C7  UNL     1     -34.980  14.996  -3.781  1.00 20.00    -0.001 C 
ENDROOT
BRANCH   7   8
HETATM    8  C8  UNL     1     -35.599  14.398  -5.041  1.00 20.00     0.075 C 
BRANCH   8   9
HETATM    9  S9  UNL     1     -37.400  14.575  -5.002  1.00 20.00    -0.182 SA
HETATM   10  H23 UNL     1     -37.599  13.810  -3.919  1.00 20.00     0.101 HD
ENDBRANCH   8   9
ENDBRANCH   7   8
TORSDOF 2
ENDMDL
MODEL 7
REMARK VINA RESULT:      -3.6     11.910     12.865
REMARK  2 active torsions:
REMARK  status: ('A' for Active; 'I' for Inactive)
REMARK    1  A    between atoms: C7_7  and  C8_8 
REMARK    2  A    between atoms: C8_8  and  S9_9 
ROOT
HETATM    1  C1  UNL     1     -33.874  15.064  -6.437  1.00 20.00     0.005 C 
HETATM    2  C2  UNL     1     -35.013  14.366  -5.678  1.00 20.00     0.005 C 
HETATM    3  C3  UNL     1     -33.114  14.466  -4.261  1.00 20.00     0.009 C 
HETATM    4  C4  UNL     1     -33.651  16.758  -4.601  1.00 20.00     0.010 C 
HETATM    5  C5  UNL     1     -32.966  15.573  -5.304  1.00 20.00    -0.014 C 
HETATM    6  C6  UNL     1     -34.638  14.596  -4.202  1.00 20.00    -0.009 C 
HETATM    7  C7  UNL     1     -34.843  16.095  -3.877  1.00 20.00    -0.001 C 
ENDROOT
BRANCH   7   8
HETATM    8  C8  UNL     1     -34.842  16.381  -2.379  1.00 20.00     0.075 C 
BRANCH   8   9
HETATM    9  S9  UNL     1     -33.472  17.484  -1.951  1.00 20.00    -0.182 SA
HETATM   10  H23 UNL     1     -34.086  18.090  -0.925  1.00 20.00     0.101 HD
ENDBRANCH   8   9
ENDBRANCH   7   8
TORSDOF 2
ENDMDL
MODEL 8
REMARK VINA RESULT:      -3.5     11.964     13.173
REMARK  2 active torsions:
REMARK  status: ('A' for Active; 'I' for Inactive)
REMARK    1  A    between atoms: C7_7  and  C8_8 
REMARK    2  A    between atoms: C8_8  and  S9_9 
ROOT
HETATM    1  C1  UNL     1     -34.403  16.124  -3.198  1.00 20.00     0.005 C 
HETATM    2  C2  UNL     1     -33.517  16.914  -4.174  1.00 20.00     0.005 C 
HETATM    3  C3  UNL     1     -33.038  14.604  -4.419  1.00 20.00     0.009 C 
HETATM    4  C4  UNL     1     -35.315  14.754  -5.090  1.00 20.00     0.010 C 
HETATM    5  C5  UNL     1     -34.440  14.720  -3.824  1.00 20.00    -0.014 C 
HETATM    6  C6  UNL     1     -33.187  15.874  -5.260  1.00 20.00    -0.009 C 
HETATM    7  C7  UNL     1     -34.475  15.598  -6.074  1.00 20.00    -0.001 C 
ENDROOT
BRANCH   7   8
HETATM    8  C8  UNL     1     -34.202  14.862  -7.381  1.00 20.00     0.075 C 
BRANCH   8   9
HETATM    9  S9  UNL     1     -35.094  13.287  -7.413  1.00 20.00    -0.182 SA
HETATM   10  H23 UNL     1     -36.248  13.761  -6.922  1.00 20.00     0.101 HD
ENDBRANCH   8   9
ENDBRANCH   7   8
TORSDOF 2
ENDMDL
MODEL 9
REMARK VINA RESULT:      -3.4     12.007     12.731
REMARK  2 active torsions:
REMARK  status: ('A' for Active; 'I' for Inactive)
REMARK    1  A    between atoms: C7_7  and  C8_8 
REMARK    2  A    between atoms: C8_8  and  S9_9 
ROOT
HETATM    1  C1  UNL     1     -34.124  18.091  -0.026  1.00 20.00     0.005 C 
HETATM    2  C2  UNL     1     -35.499  17.406  -0.037  1.00 20.00     0.005 C 
HETATM    3  C3  UNL     1     -35.262  18.657  -2.038  1.00 20.00     0.009 C 
HETATM    4  C4  UNL     1     -33.542  17.024  -2.219  1.00 20.00     0.010 C 
HETATM    5  C5  UNL     1     -33.858  18.357  -1.517  1.00 20.00    -0.014 C 
HETATM    6  C6  UNL     1     -35.834  17.328  -1.538  1.00 20.00    -0.009 C 
HETATM    7  C7  UNL     1     -34.897  16.284  -2.190  1.00 20.00    -0.001 C 
ENDROOT
BRANCH   7   8
HETATM    8  C8  UNL     1     -35.357  15.865  -3.583  1.00 20.00     0.075 C 
BRANCH   8   9
HETATM    9  S9  UNL     1     -34.147  14.749  -4.336  1.00 20.00    -0.182 SA
HETATM   10  H23 UNL     1     -35.013  14.108  -5.133  1.00 20.00     0.101 HD
ENDBRANCH   8   9
ENDBRANCH   7   8
TORSDOF 2
ENDMDL
