MODEL 1
REMARK VINA RESULT:      -4.7      0.000      0.000
REMARK  4 active torsions:
REMARK  status: ('A' for Active; 'I' for Inactive)
REMARK    1  A    between atoms: C4_4  and  C6_6 
REMARK    2  A    between atoms: C4_4  and  C7_7 
REMARK    3  A    between atoms: C5_5  and  C6_6 
REMARK    4  A    between atoms: C5_5  and  O8_8 
ROOT
HETATM    1  C1  UNL     1     -31.412   8.139   3.638  1.00 20.00     0.012 C 
HETATM    2  C6  UNL     1     -32.801   7.826   3.081  1.00 20.00     0.007 C 
ENDROOT
BRANCH   2   3
HETATM    3  C4  UNL     1     -33.201   6.347   3.295  1.00 20.00     0.026 C 
BRANCH   3   4
HETATM    4  C7  UNL     1     -34.329   6.096   4.309  1.00 20.00     0.078 C 
HETATM    5  C2  UNL     1     -34.052   6.819   5.623  1.00 20.00     0.026 C 
HETATM    6 CL9  UNL     1     -34.517   4.349   4.642  1.00 20.00    -0.125 Cl
ENDBRANCH   3   4
ENDBRANCH   2   3
BRANCH   2   7
HETATM    7  C5  UNL     1     -32.843   8.179   1.586  1.00 20.00     0.171 C 
BRANCH   7   8
HETATM    8  O8  UNL     1     -31.917   9.220   1.304  1.00 20.00    -0.396 OA
HETATM    9  C3  UNL     1     -32.573  10.391   0.839  1.00 20.00     0.201 C 
ENDBRANCH   7   8
ENDBRANCH   2   7
TORSDOF 4
ENDMDL
MODEL 2
REMARK VINA RESULT:      -4.6      1.274      1.733
REMARK  4 active torsions:
REMARK  status: ('A' for Active; 'I' for Inactive)
REMARK    1  A    between atoms: C4_4  and  C6_6 
REMARK    2  A    between atoms: C4_4  and  C7_7 
REMARK    3  A    between atoms: C5_5  and  C6_6 
REMARK    4  A    between atoms: C5_5  and  O8_8 
ROOT
HETATM    1  C1  UNL     1     -32.924   4.812   2.524  1.00 20.00     0.012 C 
HETATM    2  C6  UNL     1     -33.144   6.218   3.083  1.00 20.00     0.007 C 
ENDROOT
BRANCH   2   3
HETATM    3  C4  UNL     1     -34.563   6.402   3.670  1.00 20.00     0.026 C 
BRANCH   3   4
HETATM    4  C7  UNL     1     -34.668   6.355   5.203  1.00 20.00     0.078 C 
HETATM    5  C2  UNL     1     -33.612   7.246   5.849  1.00 20.00     0.026 C 
HETATM    6 CL9  UNL     1     -34.464   4.686   5.813  1.00 20.00    -0.125 Cl
ENDBRANCH   3   4
ENDBRANCH   2   3
BRANCH   2   7
HETATM    7  C5  UNL     1     -32.886   7.254   1.978  1.00 20.00     0.171 C 
BRANCH   7   8
HETATM    8  O8  UNL     1     -32.226   8.391   2.520  1.00 20.00    -0.396 OA
HETATM    9  C3  UNL     1     -32.220   9.477   1.603  1.00 20.00     0.201 C 
ENDBRANCH   7   8
ENDBRANCH   2   7
TORSDOF 4
ENDMDL
MODEL 3
REMARK VINA RESULT:      -4.5      3.202      4.936
REMARK  4 active torsions:
REMARK  status: ('A' for Active; 'I' for Inactive)
REMARK    1  A    between atoms: C4_4  and  C6_6 
REMARK    2  A    between atoms: C4_4  and  C7_7 
REMARK    3  A    between atoms: C5_5  and  C6_6 
REMARK    4  A    between atoms: C5_5  and  O8_8 
ROOT
HETATM    1  C1  UNL     1     -32.938   5.653   2.572  1.00 20.00     0.012 C 
HETATM    2  C6  UNL     1     -33.419   7.032   3.026  1.00 20.00     0.007 C 
ENDROOT
BRANCH   2   3
HETATM    3  C4  UNL     1     -32.383   8.143   2.733  1.00 20.00     0.026 C 
BRANCH   3   4
HETATM    4  C7  UNL     1     -32.507   8.834   1.365  1.00 20.00     0.078 C 
HETATM    5  C2  UNL     1     -31.243   8.633   0.537  1.00 20.00     0.026 C 
HETATM    6 CL9  UNL     1     -32.799  10.588   1.555  1.00 20.00    -0.125 Cl
ENDBRANCH   3   4
ENDBRANCH   2   3
BRANCH   2   7
HETATM    7  C5  UNL     1     -33.746   6.991   4.527  1.00 20.00     0.171 C 
BRANCH   7   8
HETATM    8  O8  UNL     1     -34.850   6.126   4.762  1.00 20.00    -0.396 OA
HETATM    9  C3  UNL     1     -34.547   5.151   5.751  1.00 20.00     0.201 C 
ENDBRANCH   7   8
ENDBRANCH   2   7
TORSDOF 4
ENDMDL
MODEL 4
REMARK VINA RESULT:      -4.4      3.258      4.712
REMARK  4 active torsions:
REMARK  status: ('A' for Active; 'I' for Inactive)
REMARK    1  A    between atoms: C4_4  and  C6_6 
REMARK    2  A    between atoms: C4_4  and  C7_7 
REMARK    3  A    between atoms: C5_5  and  C6_6 
REMARK    4  A    between atoms: C5_5  and  O8_8 
ROOT
HETATM    1  C1  UNL     1     -33.088   4.959   2.679  1.00 20.00     0.012 C 
HETATM    2  C6  UNL     1     -34.126   6.072   2.822  1.00 20.00     0.007 C 
ENDROOT
BRANCH   2   3
HETATM    3  C4  UNL     1     -33.495   7.410   3.274  1.00 20.00     0.026 C 
BRANCH   3   4
HETATM    4  C7  UNL     1     -32.209   7.828   2.543  1.00 20.00     0.078 C 
HETATM    5  C2  UNL     1     -31.184   8.390   3.521  1.00 20.00     0.026 C 
HETATM    6 CL9  UNL     1     -32.551   9.063   1.295  1.00 20.00    -0.125 Cl
ENDBRANCH   3   4
ENDBRANCH   2   3
BRANCH   2   7
HETATM    7  C5  UNL     1     -35.213   5.633   3.817  1.00 20.00     0.171 C 
BRANCH   7   8
HETATM    8  O8  UNL     1     -34.717   4.596   4.654  1.00 20.00    -0.396 OA
HETATM    9  C3  UNL     1     -34.571   5.035   5.998  1.00 20.00     0.201 C 
ENDBRANCH   7   8
ENDBRANCH   2   7
TORSDOF 4
ENDMDL
MODEL 5
REMARK VINA RESULT:      -4.3      3.063      4.636
REMARK  4 active torsions:
REMARK  status: ('A' for Active; 'I' for Inactive)
REMARK    1  A    between atoms: C4_4  and  C6_6 
REMARK    2  A    between atoms: C4_4  and  C7_7 
REMARK    3  A    between atoms: C5_5  and  C6_6 
REMARK    4  A    between atoms: C5_5  and  O8_8 
ROOT
HETATM    1  C1  UNL     1     -31.790   8.401   4.003  1.00 20.00     0.012 C 
HETATM    2  C6  UNL     1     -31.914   7.594   2.710  1.00 20.00     0.007 C 
ENDROOT
BRANCH   2   3
HETATM    3  C4  UNL     1     -31.709   8.468   1.449  1.00 20.00     0.026 C 
BRANCH   3   4
HETATM    4  C7  UNL     1     -32.884   9.382   1.066  1.00 20.00     0.078 C 
HETATM    5  C2  UNL     1     -33.107   9.380  -0.442  1.00 20.00     0.026 C 
HETATM    6 CL9  UNL     1     -32.592  11.063   1.602  1.00 20.00    -0.125 Cl
ENDBRANCH   3   4
ENDBRANCH   2   3
BRANCH   2   7
HETATM    7  C5  UNL     1     -33.289   6.908   2.665  1.00 20.00     0.171 C 
BRANCH   7   8
HETATM    8  O8  UNL     1     -33.772   6.698   3.986  1.00 20.00    -0.396 OA
HETATM    9  C3  UNL     1     -34.872   5.799   4.002  1.00 20.00     0.201 C 
ENDBRANCH   7   8
ENDBRANCH   2   7
TORSDOF 4
ENDMDL
MODEL 6
REMARK VINA RESULT:      -4.3      3.069      4.710
REMARK  4 active torsions:
REMARK  status: ('A' for Active; 'I' for Inactive)
REMARK    1  A    between atoms: C4_4  and  C6_6 
REMARK    2  A    between atoms: C4_4  and  C7_7 
REMARK    3  A    between atoms: C5_5  and  C6_6 
REMARK    4  A    between atoms: C5_5  and  O8_8 
ROOT
HETATM    1  C1  UNL     1     -33.018   7.543   4.590  1.00 20.00     0.012 C 
HETATM    2  C6  UNL     1     -32.713   7.055   3.173  1.00 20.00     0.007 C 
ENDROOT
BRANCH   2   3
HETATM    3  C4  UNL     1     -33.163   8.067   2.093  1.00 20.00     0.026 C 
BRANCH   3   4
HETATM    4  C7  UNL     1     -32.126   9.129   1.692  1.00 20.00     0.078 C 
HETATM    5  C2  UNL     1     -32.808  10.431   1.286  1.00 20.00     0.026 C 
HETATM    6 CL9  UNL     1     -31.114   8.560   0.332  1.00 20.00    -0.125 Cl
ENDBRANCH   3   4
ENDBRANCH   2   3
BRANCH   2   7
HETATM    7  C5  UNL     1     -33.391   5.695   2.944  1.00 20.00     0.171 C 
BRANCH   7   8
HETATM    8  O8  UNL     1     -34.517   5.561   3.801  1.00 20.00    -0.396 OA
HETATM    9  C3  UNL     1     -34.485   4.332   4.516  1.00 20.00     0.201 C 
ENDBRANCH   7   8
ENDBRANCH   2   7
TORSDOF 4
ENDMDL
MODEL 7
REMARK VINA RESULT:      -4.2      1.276      2.157
REMARK  4 active torsions:
REMARK  status: ('A' for Active; 'I' for Inactive)
REMARK    1  A    between atoms: C4_4  and  C6_6 
REMARK    2  A    between atoms: C4_4  and  C7_7 
REMARK    3  A    between atoms: C5_5  and  C6_6 
REMARK    4  A    between atoms: C5_5  and  O8_8 
ROOT
HETATM    1  C1  UNL     1     -33.552   7.352   5.517  1.00 20.00     0.012 C 
HETATM    2  C6  UNL     1     -33.553   7.571   4.004  1.00 20.00     0.007 C 
ENDROOT
BRANCH   2   3
HETATM    3  C4  UNL     1     -34.090   6.342   3.233  1.00 20.00     0.026 C 
BRANCH   3   4
HETATM    4  C7  UNL     1     -33.360   5.014   3.490  1.00 20.00     0.078 C 
HETATM    5  C2  UNL     1     -33.004   4.325   2.177  1.00 20.00     0.026 C 
HETATM    6 CL9  UNL     1     -34.365   3.905   4.469  1.00 20.00    -0.125 Cl
ENDBRANCH   3   4
ENDBRANCH   2   3
BRANCH   2   7
HETATM    7  C5  UNL     1     -32.130   7.914   3.536  1.00 20.00     0.171 C 
BRANCH   7   8
HETATM    8  O8  UNL     1     -32.078   7.945   2.115  1.00 20.00    -0.396 OA
HETATM    9  C3  UNL     1     -32.284   9.259   1.614  1.00 20.00     0.201 C 
ENDBRANCH   7   8
ENDBRANCH   2   7
TORSDOF 4
ENDMDL
MODEL 8
REMARK VINA RESULT:      -3.6      3.224      4.669
REMARK  4 active torsions:
REMARK  status: ('A' for Active; 'I' for Inactive)
REMARK    1  A    between atoms: C4_4  and  C6_6 
REMARK    2  A    between atoms: C4_4  and  C7_7 
REMARK    3  A    between atoms: C5_5  and  C6_6 
REMARK    4  A    between atoms: C5_5  and  O8_8 
ROOT
HETATM    1  C1  UNL     1     -33.712   7.381   6.221  1.00 20.00     0.012 C 
HETATM    2  C6  UNL     1     -33.833   6.694   4.861  1.00 20.00     0.007 C 
ENDROOT
BRANCH   2   3
HETATM    3  C4  UNL     1     -33.941   7.708   3.698  1.00 20.00     0.026 C 
BRANCH   3   4
HETATM    4  C7  UNL     1     -32.832   7.636   2.636  1.00 20.00     0.078 C 
HETATM    5  C2  UNL     1     -32.553   6.191   2.236  1.00 20.00     0.026 C 
HETATM    6 CL9  UNL     1     -31.316   8.368   3.239  1.00 20.00    -0.125 Cl
ENDBRANCH   3   4
ENDBRANCH   2   3
BRANCH   2   7
HETATM    7  C5  UNL     1     -35.051   5.757   4.867  1.00 20.00     0.171 C 
BRANCH   7   8
HETATM    8  O8  UNL     1     -34.667   4.461   5.310  1.00 20.00    -0.396 OA
HETATM    9  C3  UNL     1     -33.955   3.755   4.303  1.00 20.00     0.201 C 
ENDBRANCH   7   8
ENDBRANCH   2   7
TORSDOF 4
ENDMDL
MODEL 9
REMARK VINA RESULT:      -3.6     10.780     11.315
REMARK  4 active torsions:
REMARK  status: ('A' for Active; 'I' for Inactive)
REMARK    1  A    between atoms: C4_4  and  C6_6 
REMARK    2  A    between atoms: C4_4  and  C7_7 
REMARK    3  A    between atoms: C5_5  and  C6_6 
REMARK    4  A    between atoms: C5_5  and  O8_8 
ROOT
HETATM    1  C1  UNL     1     -33.540  14.257  -4.279  1.00 20.00     0.012 C 
HETATM    2  C6  UNL     1     -34.863  14.873  -4.734  1.00 20.00     0.007 C 
ENDROOT
BRANCH   2   3
HETATM    3  C4  UNL     1     -35.455  15.840  -3.681  1.00 20.00     0.026 C 
BRANCH   3   4
HETATM    4  C7  UNL     1     -34.467  16.381  -2.634  1.00 20.00     0.078 C 
HETATM    5  C2  UNL     1     -35.205  16.890  -1.400  1.00 20.00     0.026 C 
HETATM    6 CL9  UNL     1     -33.481  17.712  -3.307  1.00 20.00    -0.125 Cl
ENDBRANCH   3   4
ENDBRANCH   2   3
BRANCH   2   7
HETATM    7  C5  UNL     1     -35.866  13.753  -5.051  1.00 20.00     0.171 C 
BRANCH   7   8
HETATM    8  O8  UNL     1     -35.253  12.769  -5.876  1.00 20.00    -0.396 OA
HETATM    9  C3  UNL     1     -35.307  13.132  -7.249  1.00 20.00     0.201 C 
ENDBRANCH   7   8
ENDBRANCH   2   7
TORSDOF 4
ENDMDL
