MODEL 1
REMARK VINA RESULT:      -5.0      0.000      0.000
REMARK  4 active torsions:
REMARK  status: ('A' for Active; 'I' for Inactive)
REMARK    1  A    between atoms: C6_6  and  C7_7 
REMARK    2  A    between atoms: C6_6  and  O10_10 
REMARK    3  A    between atoms: C7_7  and  C8_8 
REMARK    4  A    between atoms: C7_7  and  O9_9 
ROOT
HETATM    1  C7  UNL     1     -33.564   7.213   4.237  1.00 20.00     0.154 C 
ENDROOT
BRANCH   1   2
HETATM    2  C6  UNL     1     -32.449   7.403   3.185  1.00 20.00     0.146 C 
HETATM    3  C1  UNL     1     -31.328   8.319   3.671  1.00 20.00     0.042 C 
BRANCH   2   4
HETATM    4  O10 UNL     1     -32.968   7.957   1.980  1.00 20.00    -0.388 OA
HETATM    5  C5  UNL     1     -32.206   9.077   1.552  1.00 20.00     0.202 C 
ENDBRANCH   2   4
ENDBRANCH   1   2
BRANCH   1   6
HETATM    6  C8  UNL     1     -34.299   5.831   4.242  1.00 20.00    -0.023 C 
HETATM    7  C2  UNL     1     -35.695   6.018   3.602  1.00 20.00     0.017 C 
HETATM    8  C3  UNL     1     -33.528   4.796   3.404  1.00 20.00     0.017 C 
HETATM    9  C4  UNL     1     -34.512   5.266   5.658  1.00 20.00     0.017 C 
ENDBRANCH   1   6
BRANCH   1  10
HETATM   10  O9  UNL     1     -33.027   7.452   5.542  1.00 20.00    -0.392 OA
HETATM   11  H28 UNL     1     -33.786   7.504   6.141  1.00 20.00     0.210 HD
ENDBRANCH   1  10
TORSDOF 4
ENDMDL
MODEL 2
REMARK VINA RESULT:      -3.8      1.336      1.934
REMARK  4 active torsions:
REMARK  status: ('A' for Active; 'I' for Inactive)
REMARK    1  A    between atoms: C6_6  and  C7_7 
REMARK    2  A    between atoms: C6_6  and  O10_10 
REMARK    3  A    between atoms: C7_7  and  C8_8 
REMARK    4  A    between atoms: C7_7  and  O9_9 
ROOT
HETATM    1  C7  UNL     1     -33.150   6.022   3.572  1.00 20.00     0.154 C 
ENDROOT
BRANCH   1   2
HETATM    2  C6  UNL     1     -33.075   7.541   3.306  1.00 20.00     0.146 C 
HETATM    3  C1  UNL     1     -32.662   7.870   1.873  1.00 20.00     0.042 C 
BRANCH   2   4
HETATM    4  O10 UNL     1     -32.144   8.171   4.180  1.00 20.00    -0.388 OA
HETATM    5  C5  UNL     1     -30.940   8.504   3.504  1.00 20.00     0.202 C 
ENDBRANCH   2   4
ENDBRANCH   1   2
BRANCH   1   6
HETATM    6  C8  UNL     1     -34.359   5.515   4.426  1.00 20.00    -0.023 C 
HETATM    7  C2  UNL     1     -35.669   5.940   3.721  1.00 20.00     0.017 C 
HETATM    8  C3  UNL     1     -34.353   3.979   4.529  1.00 20.00     0.017 C 
HETATM    9  C4  UNL     1     -34.386   6.109   5.847  1.00 20.00     0.017 C 
ENDBRANCH   1   6
BRANCH   1  10
HETATM   10  O9  UNL     1     -33.144   5.323   2.323  1.00 20.00    -0.392 OA
HETATM   11  H28 UNL     1     -33.932   4.759   2.326  1.00 20.00     0.210 HD
ENDBRANCH   1  10
TORSDOF 4
ENDMDL
MODEL 3
REMARK VINA RESULT:      -3.7      1.465      2.272
REMARK  4 active torsions:
REMARK  status: ('A' for Active; 'I' for Inactive)
REMARK    1  A    between atoms: C6_6  and  C7_7 
REMARK    2  A    between atoms: C6_6  and  O10_10 
REMARK    3  A    between atoms: C7_7  and  C8_8 
REMARK    4  A    between atoms: C7_7  and  O9_9 
ROOT
HETATM    1  C7  UNL     1     -33.097   6.045   3.647  1.00 20.00     0.154 C 
ENDROOT
BRANCH   1   2
HETATM    2  C6  UNL     1     -33.026   7.534   3.243  1.00 20.00     0.146 C 
HETATM    3  C1  UNL     1     -33.031   7.738   1.730  1.00 20.00     0.042 C 
BRANCH   2   4
HETATM    4  O10 UNL     1     -31.850   8.151   3.759  1.00 20.00    -0.388 OA
HETATM    5  C5  UNL     1     -31.124   8.821   2.737  1.00 20.00     0.202 C 
ENDBRANCH   2   4
ENDBRANCH   1   2
BRANCH   1   6
HETATM    6  C8  UNL     1     -34.376   5.585   4.423  1.00 20.00    -0.023 C 
HETATM    7  C2  UNL     1     -34.351   4.043   4.536  1.00 20.00     0.017 C 
HETATM    8  C3  UNL     1     -34.390   6.166   5.848  1.00 20.00     0.017 C 
HETATM    9  C4  UNL     1     -35.685   5.975   3.713  1.00 20.00     0.017 C 
ENDBRANCH   1   6
BRANCH   1  10
HETATM   10  O9  UNL     1     -32.952   5.232   2.477  1.00 20.00    -0.392 OA
HETATM   11  H28 UNL     1     -33.631   5.532   1.854  1.00 20.00     0.210 HD
ENDBRANCH   1  10
TORSDOF 4
ENDMDL
MODEL 4
REMARK VINA RESULT:      -3.6     11.219     12.224
REMARK  4 active torsions:
REMARK  status: ('A' for Active; 'I' for Inactive)
REMARK    1  A    between atoms: C6_6  and  C7_7 
REMARK    2  A    between atoms: C6_6  and  O10_10 
REMARK    3  A    between atoms: C7_7  and  C8_8 
REMARK    4  A    between atoms: C7_7  and  O9_9 
ROOT
HETATM    1  C7  UNL     1     -35.325  14.767  -4.191  1.00 20.00     0.154 C 
ENDROOT
BRANCH   1   2
HETATM    2  C6  UNL     1     -36.015  14.267  -5.479  1.00 20.00     0.146 C 
HETATM    3  C1  UNL     1     -37.537  14.250  -5.366  1.00 20.00     0.042 C 
BRANCH   2   4
HETATM    4  O10 UNL     1     -35.590  12.950  -5.812  1.00 20.00    -0.388 OA
HETATM    5  C5  UNL     1     -35.105  12.881  -7.145  1.00 20.00     0.202 C 
ENDBRANCH   2   4
ENDBRANCH   1   2
BRANCH   1   6
HETATM    6  C8  UNL     1     -33.900  15.394  -4.352  1.00 20.00    -0.023 C 
HETATM    7  C2  UNL     1     -33.674  16.398  -3.197  1.00 20.00     0.017 C 
HETATM    8  C3  UNL     1     -32.811  14.311  -4.259  1.00 20.00     0.017 C 
HETATM    9  C4  UNL     1     -33.725  16.164  -5.673  1.00 20.00     0.017 C 
ENDBRANCH   1   6
BRANCH   1  10
HETATM   10  O9  UNL     1     -36.175  15.717  -3.540  1.00 20.00    -0.392 OA
HETATM   11  H28 UNL     1     -35.589  16.306  -3.040  1.00 20.00     0.210 HD
ENDBRANCH   1  10
TORSDOF 4
ENDMDL
MODEL 5
REMARK VINA RESULT:      -3.6     11.436     12.623
REMARK  4 active torsions:
REMARK  status: ('A' for Active; 'I' for Inactive)
REMARK    1  A    between atoms: C6_6  and  C7_7 
REMARK    2  A    between atoms: C6_6  and  O10_10 
REMARK    3  A    between atoms: C7_7  and  C8_8 
REMARK    4  A    between atoms: C7_7  and  O9_9 
ROOT
HETATM    1  C7  UNL     1     -35.189  15.204  -5.556  1.00 20.00     0.154 C 
ENDROOT
BRANCH   1   2
HETATM    2  C6  UNL     1     -35.378  13.679  -5.709  1.00 20.00     0.146 C 
HETATM    3  C1  UNL     1     -35.281  13.215  -7.160  1.00 20.00     0.042 C 
BRANCH   2   4
HETATM    4  O10 UNL     1     -36.643  13.264  -5.206  1.00 20.00    -0.388 OA
HETATM    5  C5  UNL     1     -37.568  14.343  -5.172  1.00 20.00     0.202 C 
ENDBRANCH   2   4
ENDBRANCH   1   2
BRANCH   1   6
HETATM    6  C8  UNL     1     -34.129  15.681  -4.507  1.00 20.00    -0.023 C 
HETATM    7  C2  UNL     1     -33.050  14.582  -4.367  1.00 20.00     0.017 C 
HETATM    8  C3  UNL     1     -33.434  16.971  -4.977  1.00 20.00     0.017 C 
HETATM    9  C4  UNL     1     -34.729  15.920  -3.109  1.00 20.00     0.017 C 
ENDBRANCH   1   6
BRANCH   1  10
HETATM   10  O9  UNL     1     -34.861  15.769  -6.829  1.00 20.00    -0.392 OA
HETATM   11  H28 UNL     1     -34.318  16.550  -6.646  1.00 20.00     0.210 HD
ENDBRANCH   1  10
TORSDOF 4
ENDMDL
MODEL 6
REMARK VINA RESULT:      -3.6     11.432     12.637
REMARK  4 active torsions:
REMARK  status: ('A' for Active; 'I' for Inactive)
REMARK    1  A    between atoms: C6_6  and  C7_7 
REMARK    2  A    between atoms: C6_6  and  O10_10 
REMARK    3  A    between atoms: C7_7  and  C8_8 
REMARK    4  A    between atoms: C7_7  and  O9_9 
ROOT
HETATM    1  C7  UNL     1     -35.248  15.205  -5.499  1.00 20.00     0.154 C 
ENDROOT
BRANCH   1   2
HETATM    2  C6  UNL     1     -35.482  13.690  -5.682  1.00 20.00     0.146 C 
HETATM    3  C1  UNL     1     -35.348  13.244  -7.136  1.00 20.00     0.042 C 
BRANCH   2   4
HETATM    4  O10 UNL     1     -36.778  13.312  -5.232  1.00 20.00    -0.388 OA
HETATM    5  C5  UNL     1     -37.634  14.439  -5.102  1.00 20.00     0.202 C 
ENDBRANCH   2   4
ENDBRANCH   1   2
BRANCH   1   6
HETATM    6  C8  UNL     1     -34.117  15.628  -4.502  1.00 20.00    -0.023 C 
HETATM    7  C2  UNL     1     -33.443  16.911  -5.043  1.00 20.00     0.017 C 
HETATM    8  C3  UNL     1     -34.701  15.948  -3.114  1.00 20.00     0.017 C 
HETATM    9  C4  UNL     1     -33.019  14.560  -4.347  1.00 20.00     0.017 C 
ENDBRANCH   1   6
BRANCH   1  10
HETATM   10  O9  UNL     1     -34.983  15.800  -6.773  1.00 20.00    -0.392 OA
HETATM   11  H28 UNL     1     -35.628  16.516  -6.877  1.00 20.00     0.210 HD
ENDBRANCH   1  10
TORSDOF 4
ENDMDL
MODEL 7
REMARK VINA RESULT:      -3.5     11.008     12.361
REMARK  4 active torsions:
REMARK  status: ('A' for Active; 'I' for Inactive)
REMARK    1  A    between atoms: C6_6  and  C7_7 
REMARK    2  A    between atoms: C6_6  and  O10_10 
REMARK    3  A    between atoms: C7_7  and  C8_8 
REMARK    4  A    between atoms: C7_7  and  O9_9 
ROOT
HETATM    1  C7  UNL     1     -35.486  14.354  -5.091  1.00 20.00     0.154 C 
ENDROOT
BRANCH   1   2
HETATM    2  C6  UNL     1     -34.328  15.125  -4.421  1.00 20.00     0.146 C 
HETATM    3  C1  UNL     1     -33.082  14.266  -4.223  1.00 20.00     0.042 C 
BRANCH   2   4
HETATM    4  O10 UNL     1     -34.715  15.628  -3.147  1.00 20.00    -0.388 OA
HETATM    5  C5  UNL     1     -35.959  16.311  -3.212  1.00 20.00     0.202 C 
ENDBRANCH   2   4
ENDBRANCH   1   2
BRANCH   1   6
HETATM    6  C8  UNL     1     -35.571  14.426  -6.652  1.00 20.00    -0.023 C 
HETATM    7  C2  UNL     1     -37.047  14.662  -7.052  1.00 20.00     0.017 C 
HETATM    8  C3  UNL     1     -34.739  15.602  -7.193  1.00 20.00     0.017 C 
HETATM    9  C4  UNL     1     -35.108  13.130  -7.343  1.00 20.00     0.017 C 
ENDBRANCH   1   6
BRANCH   1  10
HETATM   10  O9  UNL     1     -35.427  12.979  -4.697  1.00 20.00    -0.392 OA
HETATM   11  H28 UNL     1     -34.573  12.861  -4.255  1.00 20.00     0.210 HD
ENDBRANCH   1  10
TORSDOF 4
ENDMDL
MODEL 8
REMARK VINA RESULT:      -3.5     11.752     12.904
REMARK  4 active torsions:
REMARK  status: ('A' for Active; 'I' for Inactive)
REMARK    1  A    between atoms: C6_6  and  C7_7 
REMARK    2  A    between atoms: C6_6  and  O10_10 
REMARK    3  A    between atoms: C7_7  and  C8_8 
REMARK    4  A    between atoms: C7_7  and  O9_9 
ROOT
HETATM    1  C7  UNL     1     -36.226  13.825  -5.944  1.00 20.00     0.154 C 
ENDROOT
BRANCH   1   2
HETATM    2  C6  UNL     1     -37.292  14.789  -5.381  1.00 20.00     0.146 C 
HETATM    3  C1  UNL     1     -36.918  15.347  -4.010  1.00 20.00     0.042 C 
BRANCH   2   4
HETATM    4  O10 UNL     1     -38.555  14.144  -5.255  1.00 20.00    -0.388 OA
HETATM    5  C5  UNL     1     -39.627  15.064  -5.408  1.00 20.00     0.202 C 
ENDBRANCH   2   4
ENDBRANCH   1   2
BRANCH   1   6
HETATM    6  C8  UNL     1     -34.873  14.461  -6.407  1.00 20.00    -0.023 C 
HETATM    7  C2  UNL     1     -34.323  13.635  -7.593  1.00 20.00     0.017 C 
HETATM    8  C3  UNL     1     -35.085  15.906  -6.894  1.00 20.00     0.017 C 
HETATM    9  C4  UNL     1     -33.798  14.459  -5.305  1.00 20.00     0.017 C 
ENDBRANCH   1   6
BRANCH   1  10
HETATM   10  O9  UNL     1     -35.948  12.809  -4.974  1.00 20.00    -0.392 OA
HETATM   11  H28 UNL     1     -35.275  13.178  -4.383  1.00 20.00     0.210 HD
ENDBRANCH   1  10
TORSDOF 4
ENDMDL
MODEL 9
REMARK VINA RESULT:      -3.5     11.468     12.357
REMARK  4 active torsions:
REMARK  status: ('A' for Active; 'I' for Inactive)
REMARK    1  A    between atoms: C6_6  and  C7_7 
REMARK    2  A    between atoms: C6_6  and  O10_10 
REMARK    3  A    between atoms: C7_7  and  C8_8 
REMARK    4  A    between atoms: C7_7  and  O9_9 
ROOT
HETATM    1  C7  UNL     1     -35.780  14.143  -4.918  1.00 20.00     0.154 C 
ENDROOT
BRANCH   1   2
HETATM    2  C6  UNL     1     -34.643  14.239  -5.959  1.00 20.00     0.146 C 
HETATM    3  C1  UNL     1     -34.816  13.258  -7.116  1.00 20.00     0.042 C 
BRANCH   2   4
HETATM    4  O10 UNL     1     -33.376  13.983  -5.361  1.00 20.00    -0.388 OA
HETATM    5  C5  UNL     1     -33.076  14.936  -4.351  1.00 20.00     0.202 C 
ENDBRANCH   2   4
ENDBRANCH   1   2
BRANCH   1   6
HETATM    6  C8  UNL     1     -36.863  15.272  -4.951  1.00 20.00    -0.023 C 
HETATM    7  C2  UNL     1     -38.260  14.609  -4.996  1.00 20.00     0.017 C 
HETATM    8  C3  UNL     1     -36.790  16.140  -3.682  1.00 20.00     0.017 C 
HETATM    9  C4  UNL     1     -36.746  16.184  -6.186  1.00 20.00     0.017 C 
ENDBRANCH   1   6
BRANCH   1  10
HETATM   10  O9  UNL     1     -36.433  12.876  -5.048  1.00 20.00    -0.392 OA
HETATM   11  H28 UNL     1     -35.753  12.204  -4.889  1.00 20.00     0.210 HD
ENDBRANCH   1  10
TORSDOF 4
ENDMDL
