MODEL 1
REMARK VINA RESULT:      -4.9      0.000      0.000
REMARK  2 active torsions:
REMARK  status: ('A' for Active; 'I' for Inactive)
REMARK    1  A    between atoms: C4_4  and  C7_7 
REMARK    2  A    between atoms: C7_7  and  O8_8 
ROOT
HETATM    1  C1  UNL     1     -33.074   7.997   4.233  1.00 20.00     0.008 C 
HETATM    2  C2  UNL     1     -33.706   6.911   5.090  1.00 20.00     0.020 C 
HETATM    3  C3  UNL     1     -33.259   5.920   2.943  1.00 20.00     0.027 C 
HETATM    4  C4  UNL     1     -32.462   7.235   3.052  1.00 20.00     0.011 C 
HETATM    5  C5  UNL     1     -34.320   5.999   4.039  1.00 20.00     0.082 C 
HETATM    6 CL9  UNL     1     -34.743   4.409   4.690  1.00 20.00    -0.125 Cl
ENDROOT
BRANCH   4   7
HETATM    7  C7  UNL     1     -32.476   8.047   1.766  1.00 20.00     0.171 C 
BRANCH   7   8
HETATM    8  O8  UNL     1     -32.134   9.388   2.071  1.00 20.00    -0.396 OA
HETATM    9  C6  UNL     1     -32.638  10.294   1.098  1.00 20.00     0.201 C 
ENDBRANCH   7   8
ENDBRANCH   4   7
TORSDOF 2
ENDMDL
MODEL 2
REMARK VINA RESULT:      -4.7      1.034      1.671
REMARK  2 active torsions:
REMARK  status: ('A' for Active; 'I' for Inactive)
REMARK    1  A    between atoms: C4_4  and  C7_7 
REMARK    2  A    between atoms: C7_7  and  O8_8 
ROOT
HETATM    1  C1  UNL     1     -33.211   6.121   2.538  1.00 20.00     0.008 C 
HETATM    2  C2  UNL     1     -34.144   5.342   3.453  1.00 20.00     0.020 C 
HETATM    3  C3  UNL     1     -33.492   7.321   4.658  1.00 20.00     0.027 C 
HETATM    4  C4  UNL     1     -33.146   7.517   3.169  1.00 20.00     0.011 C 
HETATM    5  C5  UNL     1     -33.704   5.818   4.830  1.00 20.00     0.082 C 
HETATM    6 CL9  UNL     1     -34.890   5.437   6.085  1.00 20.00    -0.125 Cl
ENDROOT
BRANCH   4   7
HETATM    7  C7  UNL     1     -31.798   8.188   2.956  1.00 20.00     0.171 C 
BRANCH   7   8
HETATM    8  O8  UNL     1     -31.639   8.462   1.574  1.00 20.00    -0.396 OA
HETATM    9  C6  UNL     1     -32.429   9.571   1.165  1.00 20.00     0.201 C 
ENDBRANCH   7   8
ENDBRANCH   4   7
TORSDOF 2
ENDMDL
MODEL 3
REMARK VINA RESULT:      -4.2      3.125      4.348
REMARK  2 active torsions:
REMARK  status: ('A' for Active; 'I' for Inactive)
REMARK    1  A    between atoms: C4_4  and  C7_7 
REMARK    2  A    between atoms: C7_7  and  O8_8 
ROOT
HETATM    1  C1  UNL     1     -33.305   7.273   5.755  1.00 20.00     0.008 C 
HETATM    2  C2  UNL     1     -32.674   8.168   4.700  1.00 20.00     0.020 C 
HETATM    3  C3  UNL     1     -34.054   6.587   3.523  1.00 20.00     0.027 C 
HETATM    4  C4  UNL     1     -34.446   6.567   5.014  1.00 20.00     0.011 C 
HETATM    5  C5  UNL     1     -32.688   7.268   3.474  1.00 20.00     0.082 C 
HETATM    6 CL9  UNL     1     -32.431   8.169   1.973  1.00 20.00    -0.125 Cl
ENDROOT
BRANCH   4   7
HETATM    7  C7  UNL     1     -34.702   5.163   5.542  1.00 20.00     0.171 C 
BRANCH   7   8
HETATM    8  O8  UNL     1     -34.902   4.293   4.441  1.00 20.00    -0.396 OA
HETATM    9  C6  UNL     1     -33.742   3.518   4.166  1.00 20.00     0.201 C 
ENDBRANCH   7   8
ENDBRANCH   4   7
TORSDOF 2
ENDMDL
MODEL 4
REMARK VINA RESULT:      -3.9      3.207      4.261
REMARK  2 active torsions:
REMARK  status: ('A' for Active; 'I' for Inactive)
REMARK    1  A    between atoms: C4_4  and  C7_7 
REMARK    2  A    between atoms: C7_7  and  O8_8 
ROOT
HETATM    1  C1  UNL     1     -31.928   7.632   3.639  1.00 20.00     0.008 C 
HETATM    2  C2  UNL     1     -31.753   9.011   3.022  1.00 20.00     0.020 C 
HETATM    3  C3  UNL     1     -33.309   7.824   1.622  1.00 20.00     0.027 C 
HETATM    4  C4  UNL     1     -33.187   7.077   2.964  1.00 20.00     0.011 C 
HETATM    5  C5  UNL     1     -32.095   8.749   1.563  1.00 20.00     0.082 C 
HETATM    6 CL9  UNL     1     -32.420  10.241   0.669  1.00 20.00    -0.125 Cl
ENDROOT
BRANCH   4   7
HETATM    7  C7  UNL     1     -33.140   5.565   2.799  1.00 20.00     0.171 C 
BRANCH   7   8
HETATM    8  O8  UNL     1     -33.963   4.973   3.790  1.00 20.00    -0.396 OA
HETATM    9  C6  UNL     1     -35.120   5.759   4.049  1.00 20.00     0.201 C 
ENDBRANCH   7   8
ENDBRANCH   4   7
TORSDOF 2
ENDMDL
MODEL 5
REMARK VINA RESULT:      -3.7     11.112     11.647
REMARK  2 active torsions:
REMARK  status: ('A' for Active; 'I' for Inactive)
REMARK    1  A    between atoms: C4_4  and  C7_7 
REMARK    2  A    between atoms: C7_7  and  O8_8 
ROOT
HETATM    1  C1  UNL     1     -34.021  14.289  -5.338  1.00 20.00     0.008 C 
HETATM    2  C2  UNL     1     -33.140  15.049  -4.357  1.00 20.00     0.020 C 
HETATM    3  C3  UNL     1     -35.414  15.398  -3.652  1.00 20.00     0.027 C 
HETATM    4  C4  UNL     1     -35.383  14.214  -4.637  1.00 20.00     0.011 C 
HETATM    5  C5  UNL     1     -34.087  16.128  -3.854  1.00 20.00     0.082 C 
HETATM    6 CL9  UNL     1     -33.502  16.900  -2.373  1.00 20.00    -0.125 Cl
ENDROOT
BRANCH   4   7
HETATM    7  C7  UNL     1     -36.544  14.229  -5.620  1.00 20.00     0.171 C 
BRANCH   7   8
HETATM    8  O8  UNL     1     -37.720  13.826  -4.940  1.00 20.00    -0.396 OA
HETATM    9  C6  UNL     1     -38.797  14.727  -5.173  1.00 20.00     0.201 C 
ENDBRANCH   7   8
ENDBRANCH   4   7
TORSDOF 2
ENDMDL
MODEL 6
REMARK VINA RESULT:      -3.7     10.846     11.662
REMARK  2 active torsions:
REMARK  status: ('A' for Active; 'I' for Inactive)
REMARK    1  A    between atoms: C4_4  and  C7_7 
REMARK    2  A    between atoms: C7_7  and  O8_8 
ROOT
HETATM    1  C1  UNL     1     -36.344  15.893  -5.007  1.00 20.00     0.008 C 
HETATM    2  C2  UNL     1     -35.649  16.911  -4.115  1.00 20.00     0.020 C 
HETATM    3  C3  UNL     1     -34.436  14.847  -3.877  1.00 20.00     0.027 C 
HETATM    4  C4  UNL     1     -35.332  14.748  -5.126  1.00 20.00     0.011 C 
HETATM    5  C5  UNL     1     -34.993  16.020  -3.072  1.00 20.00     0.082 C 
HETATM    6 CL9  UNL     1     -33.742  16.869  -2.152  1.00 20.00    -0.125 Cl
ENDROOT
BRANCH   4   7
HETATM    7  C7  UNL     1     -36.005  13.390  -5.267  1.00 20.00     0.171 C 
BRANCH   7   8
HETATM    8  O8  UNL     1     -35.255  12.603  -6.176  1.00 20.00    -0.396 OA
HETATM    9  C6  UNL     1     -34.829  13.362  -7.301  1.00 20.00     0.201 C 
ENDBRANCH   7   8
ENDBRANCH   4   7
TORSDOF 2
ENDMDL
MODEL 7
REMARK VINA RESULT:      -3.7     10.930     11.410
REMARK  2 active torsions:
REMARK  status: ('A' for Active; 'I' for Inactive)
REMARK    1  A    between atoms: C4_4  and  C7_7 
REMARK    2  A    between atoms: C7_7  and  O8_8 
ROOT
HETATM    1  C1  UNL     1     -32.979  18.041  -1.839  1.00 20.00     0.008 C 
HETATM    2  C2  UNL     1     -33.479  18.122  -0.405  1.00 20.00     0.020 C 
HETATM    3  C3  UNL     1     -35.059  16.762  -1.609  1.00 20.00     0.027 C 
HETATM    4  C4  UNL     1     -33.771  16.878  -2.448  1.00 20.00     0.011 C 
HETATM    5  C5  UNL     1     -34.972  17.887  -0.579  1.00 20.00     0.082 C 
HETATM    6 CL9  UNL     1     -35.771  17.476   0.945  1.00 20.00    -0.125 Cl
ENDROOT
BRANCH   4   7
HETATM    7  C7  UNL     1     -34.045  17.074  -3.931  1.00 20.00     0.171 C 
BRANCH   7   8
HETATM    8  O8  UNL     1     -33.124  16.291  -4.671  1.00 20.00    -0.396 OA
HETATM    9  C6  UNL     1     -33.297  14.901  -4.421  1.00 20.00     0.201 C 
ENDBRANCH   7   8
ENDBRANCH   4   7
TORSDOF 2
ENDMDL
MODEL 8
REMARK VINA RESULT:      -3.6     11.024     11.986
REMARK  2 active torsions:
REMARK  status: ('A' for Active; 'I' for Inactive)
REMARK    1  A    between atoms: C4_4  and  C7_7 
REMARK    2  A    between atoms: C7_7  and  O8_8 
ROOT
HETATM    1  C1  UNL     1     -33.791  16.868  -5.818  1.00 20.00     0.008 C 
HETATM    2  C2  UNL     1     -33.530  17.693  -4.567  1.00 20.00     0.020 C 
HETATM    3  C3  UNL     1     -33.406  15.383  -3.905  1.00 20.00     0.027 C 
HETATM    4  C4  UNL     1     -33.320  15.458  -5.442  1.00 20.00     0.011 C 
HETATM    5  C5  UNL     1     -33.959  16.737  -3.464  1.00 20.00     0.082 C 
HETATM    6 CL9  UNL     1     -33.361  17.230  -1.874  1.00 20.00    -0.125 Cl
ENDROOT
BRANCH   4   7
HETATM    7  C7  UNL     1     -34.127  14.372  -6.137  1.00 20.00     0.171 C 
BRANCH   7   8
HETATM    8  O8  UNL     1     -34.733  13.555  -5.149  1.00 20.00    -0.396 OA
HETATM    9  C6  UNL     1     -36.134  13.425  -5.362  1.00 20.00     0.201 C 
ENDBRANCH   7   8
ENDBRANCH   4   7
TORSDOF 2
ENDMDL
MODEL 9
REMARK VINA RESULT:      -3.5     10.731     11.407
REMARK  2 active torsions:
REMARK  status: ('A' for Active; 'I' for Inactive)
REMARK    1  A    between atoms: C4_4  and  C7_7 
REMARK    2  A    between atoms: C7_7  and  O8_8 
ROOT
HETATM    1  C1  UNL     1     -33.338  17.526  -2.491  1.00 20.00     0.008 C 
HETATM    2  C2  UNL     1     -33.166  17.969  -1.046  1.00 20.00     0.020 C 
HETATM    3  C3  UNL     1     -35.314  16.894  -1.184  1.00 20.00     0.027 C 
HETATM    4  C4  UNL     1     -34.500  16.528  -2.440  1.00 20.00     0.011 C 
HETATM    5  C5  UNL     1     -34.609  18.110  -0.586  1.00 20.00     0.082 C 
HETATM    6 CL9  UNL     1     -34.750  18.180   1.176  1.00 20.00    -0.125 Cl
ENDROOT
BRANCH   4   7
HETATM    7  C7  UNL     1     -35.334  16.543  -3.713  1.00 20.00     0.171 C 
BRANCH   7   8
HETATM    8  O8  UNL     1     -35.693  15.210  -4.037  1.00 20.00    -0.396 OA
HETATM    9  C6  UNL     1     -34.549  14.374  -4.159  1.00 20.00     0.201 C 
ENDBRANCH   7   8
ENDBRANCH   4   7
TORSDOF 2
ENDMDL
