MODEL 1
REMARK VINA RESULT:      -6.1      0.000      0.000
REMARK  3 active torsions:
REMARK  status: ('A' for Active; 'I' for Inactive)
REMARK    1  A    between atoms: C7_7  and  C9_9 
REMARK    2  A    between atoms: C9_9  and  N10_10 
REMARK    3  A    between atoms: N10_10  and  O11_11 
ROOT
HETATM    1  C1  UNL     1     -34.353   4.976   5.602  1.00 20.00     0.005 C 
HETATM    2  C2  UNL     1     -34.145   6.487   5.781  1.00 20.00     0.005 C 
HETATM    3  C3  UNL     1     -35.383   6.126   3.790  1.00 20.00     0.010 C 
HETATM    4  C4  UNL     1     -33.302   5.071   3.326  1.00 20.00     0.011 C 
HETATM    5  C5  UNL     1     -34.617   4.840   4.092  1.00 20.00    -0.014 C 
HETATM    6  C6  UNL     1     -34.277   7.026   4.344  1.00 20.00    -0.009 C 
HETATM    7  C7  UNL     1     -33.033   6.576   3.541  1.00 20.00     0.005 C 
ENDROOT
BRANCH   7   8
HETATM    8  C9  UNL     1     -32.875   7.329   2.225  1.00 20.00     0.122 C 
BRANCH   8   9
HETATM    9  N10 UNL     1     -31.940   8.393   2.384  1.00 20.00    -0.206 NA
HETATM   10  H28 UNL     1     -32.345   9.167   2.931  1.00 20.00     0.153 HD
BRANCH   9  11
HETATM   11  O11 UNL     1     -31.832   9.035   1.072  1.00 20.00    -0.311 OA
HETATM   12  C8  UNL     1     -32.666  10.186   1.069  1.00 20.00     0.229 C 
ENDBRANCH   9  11
ENDBRANCH   8   9
ENDBRANCH   7   8
TORSDOF 3
ENDMDL
MODEL 2
REMARK VINA RESULT:      -4.8      1.034      1.895
REMARK  3 active torsions:
REMARK  status: ('A' for Active; 'I' for Inactive)
REMARK    1  A    between atoms: C7_7  and  C9_9 
REMARK    2  A    between atoms: C9_9  and  N10_10 
REMARK    3  A    between atoms: N10_10  and  O11_11 
ROOT
HETATM    1  C1  UNL     1     -35.387   5.774   4.086  1.00 20.00     0.005 C 
HETATM    2  C2  UNL     1     -35.101   6.183   2.633  1.00 20.00     0.005 C 
HETATM    3  C3  UNL     1     -33.138   5.210   3.543  1.00 20.00     0.010 C 
HETATM    4  C4  UNL     1     -33.447   7.150   4.886  1.00 20.00     0.011 C 
HETATM    5  C5  UNL     1     -33.982   5.717   4.711  1.00 20.00    -0.014 C 
HETATM    6  C6  UNL     1     -33.571   6.348   2.616  1.00 20.00    -0.009 C 
HETATM    7  C7  UNL     1     -33.209   7.612   3.432  1.00 20.00     0.005 C 
ENDROOT
BRANCH   7   8
HETATM    8  C9  UNL     1     -31.775   8.076   3.200  1.00 20.00     0.122 C 
BRANCH   8   9
HETATM    9  N10 UNL     1     -31.600   8.448   1.835  1.00 20.00    -0.206 NA
HETATM   10  H28 UNL     1     -30.706   8.941   1.695  1.00 20.00     0.153 HD
BRANCH   9  11
HETATM   11  O11 UNL     1     -32.538   9.546   1.594  1.00 20.00    -0.311 OA
HETATM   12  C8  UNL     1     -32.760   9.643   0.193  1.00 20.00     0.229 C 
ENDBRANCH   9  11
ENDBRANCH   8   9
ENDBRANCH   7   8
TORSDOF 3
ENDMDL
MODEL 3
REMARK VINA RESULT:      -4.5     11.348     11.980
REMARK  3 active torsions:
REMARK  status: ('A' for Active; 'I' for Inactive)
REMARK    1  A    between atoms: C7_7  and  C9_9 
REMARK    2  A    between atoms: C9_9  and  N10_10 
REMARK    3  A    between atoms: N10_10  and  O11_11 
ROOT
HETATM    1  C1  UNL     1     -35.177  16.966  -1.404  1.00 20.00     0.005 C 
HETATM    2  C2  UNL     1     -33.688  17.179  -1.717  1.00 20.00     0.005 C 
HETATM    3  C3  UNL     1     -34.957  17.804  -3.622  1.00 20.00     0.010 C 
HETATM    4  C4  UNL     1     -35.417  15.479  -3.410  1.00 20.00     0.011 C 
HETATM    5  C5  UNL     1     -35.809  16.837  -2.801  1.00 20.00    -0.014 C 
HETATM    6  C6  UNL     1     -33.646  17.107  -3.255  1.00 20.00    -0.009 C 
HETATM    7  C7  UNL     1     -33.905  15.641  -3.680  1.00 20.00     0.005 C 
ENDROOT
BRANCH   7   8
HETATM    8  C9  UNL     1     -33.545  15.375  -5.137  1.00 20.00     0.122 C 
BRANCH   8   9
HETATM    9  N10 UNL     1     -33.257  13.991  -5.320  1.00 20.00    -0.206 NA
HETATM   10  H28 UNL     1     -32.506  13.855  -6.012  1.00 20.00     0.153 HD
BRANCH   9  11
HETATM   11  O11 UNL     1     -34.392  13.438  -6.064  1.00 20.00    -0.311 OA
HETATM   12  C8  UNL     1     -34.310  13.895  -7.407  1.00 20.00     0.229 C 
ENDBRANCH   9  11
ENDBRANCH   8   9
ENDBRANCH   7   8
TORSDOF 3
ENDMDL
MODEL 4
REMARK VINA RESULT:      -4.4     11.362     12.423
REMARK  3 active torsions:
REMARK  status: ('A' for Active; 'I' for Inactive)
REMARK    1  A    between atoms: C7_7  and  C9_9 
REMARK    2  A    between atoms: C9_9  and  N10_10 
REMARK    3  A    between atoms: N10_10  and  O11_11 
ROOT
HETATM    1  C1  UNL     1     -33.668  17.273  -3.823  1.00 20.00     0.005 C 
HETATM    2  C2  UNL     1     -33.958  15.993  -3.024  1.00 20.00     0.005 C 
HETATM    3  C3  UNL     1     -33.387  15.384  -5.244  1.00 20.00     0.010 C 
HETATM    4  C4  UNL     1     -35.391  16.634  -5.530  1.00 20.00     0.011 C 
HETATM    5  C5  UNL     1     -33.885  16.827  -5.279  1.00 20.00    -0.014 C 
HETATM    6  C6  UNL     1     -34.344  14.983  -4.120  1.00 20.00    -0.009 C 
HETATM    7  C7  UNL     1     -35.727  15.385  -4.686  1.00 20.00     0.005 C 
ENDROOT
BRANCH   7   8
HETATM    8  C9  UNL     1     -36.370  14.281  -5.518  1.00 20.00     0.122 C 
BRANCH   8   9
HETATM    9  N10 UNL     1     -35.852  13.012  -5.124  1.00 20.00    -0.206 NA
HETATM   10  H28 UNL     1     -34.997  13.118  -4.559  1.00 20.00     0.153 HD
BRANCH   9  11
HETATM   11  O11 UNL     1     -35.286  12.414  -6.335  1.00 20.00    -0.311 OA
HETATM   12  C8  UNL     1     -35.547  13.285  -7.427  1.00 20.00     0.229 C 
ENDBRANCH   9  11
ENDBRANCH   8   9
ENDBRANCH   7   8
TORSDOF 3
ENDMDL
MODEL 5
REMARK VINA RESULT:      -4.4     11.364     12.167
REMARK  3 active torsions:
REMARK  status: ('A' for Active; 'I' for Inactive)
REMARK    1  A    between atoms: C7_7  and  C9_9 
REMARK    2  A    between atoms: C9_9  and  N10_10 
REMARK    3  A    between atoms: N10_10  and  O11_11 
ROOT
HETATM    1  C1  UNL     1     -33.570  18.171  -2.919  1.00 20.00     0.005 C 
HETATM    2  C2  UNL     1     -34.957  18.419  -3.532  1.00 20.00     0.005 C 
HETATM    3  C3  UNL     1     -35.130  16.645  -1.966  1.00 20.00     0.010 C 
HETATM    4  C4  UNL     1     -33.659  15.763  -3.615  1.00 20.00     0.011 C 
HETATM    5  C5  UNL     1     -33.671  16.722  -2.412  1.00 20.00    -0.014 C 
HETATM    6  C6  UNL     1     -35.667  17.067  -3.336  1.00 20.00    -0.009 C 
HETATM    7  C7  UNL     1     -35.021  16.035  -4.291  1.00 20.00     0.005 C 
ENDROOT
BRANCH   7   8
HETATM    8  C9  UNL     1     -35.854  14.767  -4.444  1.00 20.00     0.122 C 
BRANCH   8   9
HETATM    9  N10 UNL     1     -34.996  13.633  -4.550  1.00 20.00    -0.206 NA
HETATM   10  H28 UNL     1     -34.122  13.871  -5.040  1.00 20.00     0.153 HD
BRANCH   9  11
HETATM   11  O11 UNL     1     -35.614  12.752  -5.542  1.00 20.00    -0.311 OA
HETATM   12  C8  UNL     1     -35.269  13.226  -6.837  1.00 20.00     0.229 C 
ENDBRANCH   9  11
ENDBRANCH   8   9
ENDBRANCH   7   8
TORSDOF 3
ENDMDL
MODEL 6
REMARK VINA RESULT:      -4.3     11.279     12.375
REMARK  3 active torsions:
REMARK  status: ('A' for Active; 'I' for Inactive)
REMARK    1  A    between atoms: C7_7  and  C9_9 
REMARK    2  A    between atoms: C9_9  and  N10_10 
REMARK    3  A    between atoms: N10_10  and  O11_11 
ROOT
HETATM    1  C1  UNL     1     -33.524  17.031  -4.144  1.00 20.00     0.005 C 
HETATM    2  C2  UNL     1     -34.247  16.223  -3.056  1.00 20.00     0.005 C 
HETATM    3  C3  UNL     1     -33.100  14.713  -4.481  1.00 20.00     0.010 C 
HETATM    4  C4  UNL     1     -34.691  15.720  -5.935  1.00 20.00     0.011 C 
HETATM    5  C5  UNL     1     -33.332  16.000  -5.270  1.00 20.00    -0.014 C 
HETATM    6  C6  UNL     1     -34.415  14.839  -3.709  1.00 20.00    -0.009 C 
HETATM    7  C7  UNL     1     -35.467  14.959  -4.838  1.00 20.00     0.005 C 
ENDROOT
BRANCH   7   8
HETATM    8  C9  UNL     1     -35.974  13.605  -5.321  1.00 20.00     0.122 C 
BRANCH   8   9
HETATM    9  N10 UNL     1     -37.278  13.746  -5.878  1.00 20.00    -0.206 NA
HETATM   10  H28 UNL     1     -37.352  14.605  -6.442  1.00 20.00     0.153 HD
BRANCH   9  11
HETATM   11  O11 UNL     1     -38.158  14.097  -4.761  1.00 20.00    -0.311 OA
HETATM   12  C8  UNL     1     -39.176  14.959  -5.249  1.00 20.00     0.229 C 
ENDBRANCH   9  11
ENDBRANCH   8   9
ENDBRANCH   7   8
TORSDOF 3
ENDMDL
MODEL 7
REMARK VINA RESULT:      -4.3     11.364     12.434
REMARK  3 active torsions:
REMARK  status: ('A' for Active; 'I' for Inactive)
REMARK    1  A    between atoms: C7_7  and  C9_9 
REMARK    2  A    between atoms: C9_9  and  N10_10 
REMARK    3  A    between atoms: N10_10  and  O11_11 
ROOT
HETATM    1  C1  UNL     1     -33.503  17.463  -2.615  1.00 20.00     0.005 C 
HETATM    2  C2  UNL     1     -33.448  18.193  -3.966  1.00 20.00     0.005 C 
HETATM    3  C3  UNL     1     -35.324  16.741  -3.968  1.00 20.00     0.010 C 
HETATM    4  C4  UNL     1     -33.487  15.242  -3.779  1.00 20.00     0.011 C 
HETATM    5  C5  UNL     1     -34.334  16.209  -2.934  1.00 20.00    -0.014 C 
HETATM    6  C6  UNL     1     -34.221  17.245  -4.901  1.00 20.00    -0.009 C 
HETATM    7  C7  UNL     1     -33.360  15.979  -5.130  1.00 20.00     0.005 C 
ENDROOT
BRANCH   7   8
HETATM    8  C9  UNL     1     -33.852  15.133  -6.299  1.00 20.00     0.122 C 
BRANCH   8   9
HETATM    9  N10 UNL     1     -33.779  13.750  -5.961  1.00 20.00    -0.206 NA
HETATM   10  H28 UNL     1     -33.087  13.259  -6.547  1.00 20.00     0.153 HD
BRANCH   9  11
HETATM   11  O11 UNL     1     -35.014  13.146  -6.465  1.00 20.00    -0.311 OA
HETATM   12  C8  UNL     1     -36.043  13.375  -5.512  1.00 20.00     0.229 C 
ENDBRANCH   9  11
ENDBRANCH   8   9
ENDBRANCH   7   8
TORSDOF 3
ENDMDL
MODEL 8
REMARK VINA RESULT:      -4.1     11.185     12.432
REMARK  3 active torsions:
REMARK  status: ('A' for Active; 'I' for Inactive)
REMARK    1  A    between atoms: C7_7  and  C9_9 
REMARK    2  A    between atoms: C9_9  and  N10_10 
REMARK    3  A    between atoms: N10_10  and  O11_11 
ROOT
HETATM    1  C1  UNL     1     -32.989  14.737  -4.581  1.00 20.00     0.005 C 
HETATM    2  C2  UNL     1     -33.328  16.019  -5.356  1.00 20.00     0.005 C 
HETATM    3  C3  UNL     1     -34.979  15.688  -3.685  1.00 20.00     0.010 C 
HETATM    4  C4  UNL     1     -35.255  13.791  -5.095  1.00 20.00     0.011 C 
HETATM    5  C5  UNL     1     -34.344  14.330  -3.977  1.00 20.00    -0.014 C 
HETATM    6  C6  UNL     1     -34.844  16.166  -5.132  1.00 20.00    -0.009 C 
HETATM    7  C7  UNL     1     -35.563  15.053  -5.930  1.00 20.00     0.005 C 
ENDROOT
BRANCH   7   8
HETATM    8  C9  UNL     1     -37.061  15.299  -6.073  1.00 20.00     0.122 C 
BRANCH   8   9
HETATM    9  N10 UNL     1     -37.773  14.075  -5.907  1.00 20.00    -0.206 NA
HETATM   10  H28 UNL     1     -38.538  13.993  -6.592  1.00 20.00     0.153 HD
BRANCH   9  11
HETATM   11  O11 UNL     1     -38.548  14.224  -4.674  1.00 20.00    -0.311 OA
HETATM   12  C8  UNL     1     -38.860  15.599  -4.506  1.00 20.00     0.229 C 
ENDBRANCH   9  11
ENDBRANCH   8   9
ENDBRANCH   7   8
TORSDOF 3
ENDMDL
MODEL 9
REMARK VINA RESULT:      -4.0     11.429     12.254
REMARK  3 active torsions:
REMARK  status: ('A' for Active; 'I' for Inactive)
REMARK    1  A    between atoms: C7_7  and  C9_9 
REMARK    2  A    between atoms: C9_9  and  N10_10 
REMARK    3  A    between atoms: N10_10  and  O11_11 
ROOT
HETATM    1  C1  UNL     1     -33.613  18.388   0.030  1.00 20.00     0.005 C 
HETATM    2  C2  UNL     1     -32.479  18.191  -0.987  1.00 20.00     0.005 C 
HETATM    3  C3  UNL     1     -34.381  19.031  -2.129  1.00 20.00     0.010 C 
HETATM    4  C4  UNL     1     -35.127  16.919  -1.326  1.00 20.00     0.011 C 
HETATM    5  C5  UNL     1     -34.875  18.360  -0.849  1.00 20.00    -0.014 C 
HETATM    6  C6  UNL     1     -33.235  18.035  -2.319  1.00 20.00    -0.009 C 
HETATM    7  C7  UNL     1     -33.962  16.668  -2.308  1.00 20.00     0.005 C 
ENDROOT
BRANCH   7   8
HETATM    8  C9  UNL     1     -34.451  16.246  -3.689  1.00 20.00     0.122 C 
BRANCH   8   9
HETATM    9  N10 UNL     1     -33.740  15.089  -4.123  1.00 20.00    -0.206 NA
HETATM   10  H28 UNL     1     -33.110  14.741  -3.386  1.00 20.00     0.153 HD
BRANCH   9  11
HETATM   11  O11 UNL     1     -32.755  15.563  -5.098  1.00 20.00    -0.311 OA
HETATM   12  C8  UNL     1     -33.427  15.811  -6.325  1.00 20.00     0.229 C 
ENDBRANCH   9  11
ENDBRANCH   8   9
ENDBRANCH   7   8
TORSDOF 3
ENDMDL
