MODEL 1
REMARK VINA RESULT:      -4.9      0.000      0.000
REMARK  3 active torsions:
REMARK  status: ('A' for Active; 'I' for Inactive)
REMARK    1  A    between atoms: C3_3  and  C5_5 
REMARK    2  A    between atoms: C6_6  and  C8_8 
REMARK    3  A    between atoms: C8_8  and  C9_9 
ROOT
HETATM    1  C1  UNL     1     -33.666   5.908   3.297  1.00 20.00     0.026 A 
HETATM    2  C2  UNL     1     -33.632   7.604   4.886  1.00 20.00     0.061 A 
HETATM    3  C3  UNL     1     -33.386   7.278   3.570  1.00 20.00    -0.029 A 
HETATM    4  C4  UNL     1     -34.115   5.239   4.414  1.00 20.00    -0.021 A 
HETATM    5  C7  UNL     1     -34.509   3.818   4.541  1.00 20.00     0.056 C 
HETATM    6  S10 UNL     1     -34.198   6.261   5.785  1.00 20.00    -0.106 SA
ENDROOT
BRANCH   3   7
HETATM    7  C5  UNL     1     -32.891   8.253   2.586  1.00 20.00     0.008 C 
HETATM    8  C6  UNL     1     -31.813   8.083   1.806  1.00 20.00    -0.025 C 
BRANCH   8   9
HETATM    9  C8  UNL     1     -31.336   9.111   0.817  1.00 20.00     0.042 C 
BRANCH   9  10
HETATM   10  C9  UNL     1     -32.392  10.169   0.512  1.00 20.00     0.118 C 
HETATM   11 CL11 UNL     1     -33.549   9.607  -0.720  1.00 20.00    -0.130 Cl
ENDBRANCH   9  10
ENDBRANCH   8   9
ENDBRANCH   3   7
TORSDOF 3
ENDMDL
MODEL 2
REMARK VINA RESULT:      -4.9      1.218      1.641
REMARK  3 active torsions:
REMARK  status: ('A' for Active; 'I' for Inactive)
REMARK    1  A    between atoms: C3_3  and  C5_5 
REMARK    2  A    between atoms: C6_6  and  C8_8 
REMARK    3  A    between atoms: C8_8  and  C9_9 
ROOT
HETATM    1  C1  UNL     1     -33.944   6.774   4.300  1.00 20.00     0.026 A 
HETATM    2  C2  UNL     1     -33.409   5.045   2.842  1.00 20.00     0.061 A 
HETATM    3  C3  UNL     1     -33.399   6.408   3.035  1.00 20.00    -0.029 A 
HETATM    4  C4  UNL     1     -34.349   5.675   5.026  1.00 20.00    -0.021 A 
HETATM    5  C7  UNL     1     -34.959   5.634   6.373  1.00 20.00     0.056 C 
HETATM    6  S10 UNL     1     -34.072   4.211   4.183  1.00 20.00    -0.106 SA
ENDROOT
BRANCH   3   7
HETATM    7  C5  UNL     1     -32.882   7.353   2.033  1.00 20.00     0.008 C 
HETATM    8  C6  UNL     1     -31.960   8.299   2.266  1.00 20.00    -0.025 C 
BRANCH   8   9
HETATM    9  C8  UNL     1     -31.465   9.251   1.212  1.00 20.00     0.042 C 
BRANCH   9  10
HETATM   10  C9  UNL     1     -32.560  10.179   0.697  1.00 20.00     0.118 C 
HETATM   11 CL11 UNL     1     -33.392   9.493  -0.720  1.00 20.00    -0.130 Cl
ENDBRANCH   9  10
ENDBRANCH   8   9
ENDBRANCH   3   7
TORSDOF 3
ENDMDL
MODEL 3
REMARK VINA RESULT:      -4.4     10.998     11.544
REMARK  3 active torsions:
REMARK  status: ('A' for Active; 'I' for Inactive)
REMARK    1  A    between atoms: C3_3  and  C5_5 
REMARK    2  A    between atoms: C6_6  and  C8_8 
REMARK    3  A    between atoms: C8_8  and  C9_9 
ROOT
HETATM    1  C1  UNL     1     -34.940  15.028  -3.702  1.00 20.00     0.026 A 
HETATM    2  C2  UNL     1     -33.299  16.207  -4.849  1.00 20.00     0.061 A 
HETATM    3  C3  UNL     1     -33.951  16.052  -3.646  1.00 20.00    -0.029 A 
HETATM    4  C4  UNL     1     -35.007  14.440  -4.946  1.00 20.00    -0.021 A 
HETATM    5  C7  UNL     1     -35.896  13.349  -5.403  1.00 20.00     0.056 C 
HETATM    6  S10 UNL     1     -33.879  15.121  -6.040  1.00 20.00    -0.106 SA
ENDROOT
BRANCH   3   7
HETATM    7  C5  UNL     1     -33.641  16.864  -2.460  1.00 20.00     0.008 C 
HETATM    8  C6  UNL     1     -34.495  17.127  -1.459  1.00 20.00    -0.025 C 
BRANCH   8   9
HETATM    9  C8  UNL     1     -34.139  17.972  -0.267  1.00 20.00     0.042 C 
BRANCH   9  10
HETATM   10  C9  UNL     1     -33.037  18.982  -0.569  1.00 20.00     0.118 C 
HETATM   11 CL11 UNL     1     -31.483  18.497   0.153  1.00 20.00    -0.130 Cl
ENDBRANCH   9  10
ENDBRANCH   8   9
ENDBRANCH   3   7
TORSDOF 3
ENDMDL
MODEL 4
REMARK VINA RESULT:      -4.3     10.644     11.315
REMARK  3 active torsions:
REMARK  status: ('A' for Active; 'I' for Inactive)
REMARK    1  A    between atoms: C3_3  and  C5_5 
REMARK    2  A    between atoms: C6_6  and  C8_8 
REMARK    3  A    between atoms: C8_8  and  C9_9 
ROOT
HETATM    1  C1  UNL     1     -36.350  15.686  -3.914  1.00 20.00     0.026 A 
HETATM    2  C2  UNL     1     -34.520  14.316  -4.334  1.00 20.00     0.061 A 
HETATM    3  C3  UNL     1     -34.963  15.449  -3.688  1.00 20.00    -0.029 A 
HETATM    4  C4  UNL     1     -36.914  14.725  -4.724  1.00 20.00    -0.021 A 
HETATM    5  C7  UNL     1     -38.315  14.617  -5.187  1.00 20.00     0.056 C 
HETATM    6  S10 UNL     1     -35.773  13.543  -5.208  1.00 20.00    -0.106 SA
ENDROOT
BRANCH   3   7
HETATM    7  C5  UNL     1     -34.083  16.297  -2.868  1.00 20.00     0.008 C 
HETATM    8  C6  UNL     1     -34.464  16.976  -1.776  1.00 20.00    -0.025 C 
BRANCH   8   9
HETATM    9  C8  UNL     1     -33.531  17.839  -0.971  1.00 20.00     0.042 C 
BRANCH   9  10
HETATM   10  C9  UNL     1     -34.173  18.365   0.309  1.00 20.00     0.118 C 
HETATM   11 CL11 UNL     1     -35.631  17.438   0.742  1.00 20.00    -0.130 Cl
ENDBRANCH   9  10
ENDBRANCH   8   9
ENDBRANCH   3   7
TORSDOF 3
ENDMDL
MODEL 5
REMARK VINA RESULT:      -4.3     10.759     11.141
REMARK  3 active torsions:
REMARK  status: ('A' for Active; 'I' for Inactive)
REMARK    1  A    between atoms: C3_3  and  C5_5 
REMARK    2  A    between atoms: C6_6  and  C8_8 
REMARK    3  A    between atoms: C8_8  and  C9_9 
ROOT
HETATM    1  C1  UNL     1     -35.214  16.903  -1.162  1.00 20.00     0.026 A 
HETATM    2  C2  UNL     1     -33.113  17.785  -1.619  1.00 20.00     0.061 A 
HETATM    3  C3  UNL     1     -34.103  16.931  -2.053  1.00 20.00    -0.029 A 
HETATM    4  C4  UNL     1     -35.032  17.736  -0.081  1.00 20.00    -0.021 A 
HETATM    5  C7  UNL     1     -35.947  17.986   1.055  1.00 20.00     0.056 C 
HETATM    6  S10 UNL     1     -33.525  18.548  -0.142  1.00 20.00    -0.106 SA
ENDROOT
BRANCH   3   7
HETATM    7  C5  UNL     1     -33.995  16.150  -3.296  1.00 20.00     0.008 C 
HETATM    8  C6  UNL     1     -34.835  15.174  -3.670  1.00 20.00    -0.025 C 
BRANCH   8   9
HETATM    9  C8  UNL     1     -34.683  14.394  -4.947  1.00 20.00     0.042 C 
BRANCH   9  10
HETATM   10  C9  UNL     1     -35.882  13.496  -5.235  1.00 20.00     0.118 C 
HETATM   11 CL11 UNL     1     -37.422  14.354  -4.980  1.00 20.00    -0.130 Cl
ENDBRANCH   9  10
ENDBRANCH   8   9
ENDBRANCH   3   7
TORSDOF 3
ENDMDL
MODEL 6
REMARK VINA RESULT:      -4.2     10.697     11.274
REMARK  3 active torsions:
REMARK  status: ('A' for Active; 'I' for Inactive)
REMARK    1  A    between atoms: C3_3  and  C5_5 
REMARK    2  A    between atoms: C6_6  and  C8_8 
REMARK    3  A    between atoms: C8_8  and  C9_9 
ROOT
HETATM    1  C1  UNL     1     -33.365  17.348  -1.835  1.00 20.00     0.026 A 
HETATM    2  C2  UNL     1     -35.550  17.050  -1.101  1.00 20.00     0.061 A 
HETATM    3  C3  UNL     1     -34.634  16.753  -2.086  1.00 20.00    -0.029 A 
HETATM    4  C4  UNL     1     -33.358  18.078  -0.667  1.00 20.00    -0.021 A 
HETATM    5  C7  UNL     1     -32.243  18.840  -0.062  1.00 20.00     0.056 C 
HETATM    6  S10 UNL     1     -34.878  18.044   0.121  1.00 20.00    -0.106 SA
ENDROOT
BRANCH   3   7
HETATM    7  C5  UNL     1     -34.960  15.916  -3.252  1.00 20.00     0.008 C 
HETATM    8  C6  UNL     1     -34.075  15.190  -3.953  1.00 20.00    -0.025 C 
BRANCH   8   9
HETATM    9  C8  UNL     1     -34.450  14.354  -5.146  1.00 20.00     0.042 C 
BRANCH   9  10
HETATM   10  C9  UNL     1     -35.778  13.626  -4.960  1.00 20.00     0.118 C 
HETATM   11 CL11 UNL     1     -37.016  14.215  -6.096  1.00 20.00    -0.130 Cl
ENDBRANCH   9  10
ENDBRANCH   8   9
ENDBRANCH   3   7
TORSDOF 3
ENDMDL
MODEL 7
REMARK VINA RESULT:      -4.2     10.879     11.333
REMARK  3 active torsions:
REMARK  status: ('A' for Active; 'I' for Inactive)
REMARK    1  A    between atoms: C3_3  and  C5_5 
REMARK    2  A    between atoms: C6_6  and  C8_8 
REMARK    3  A    between atoms: C8_8  and  C9_9 
ROOT
HETATM    1  C1  UNL     1     -34.504  15.015  -3.847  1.00 20.00     0.026 A 
HETATM    2  C2  UNL     1     -35.983  16.669  -3.155  1.00 20.00     0.061 A 
HETATM    3  C3  UNL     1     -34.686  16.210  -3.092  1.00 20.00    -0.029 A 
HETATM    4  C4  UNL     1     -35.668  14.607  -4.459  1.00 20.00    -0.021 A 
HETATM    5  C7  UNL     1     -35.891  13.426  -5.322  1.00 20.00     0.056 C 
HETATM    6  S10 UNL     1     -36.975  15.662  -4.123  1.00 20.00    -0.106 SA
ENDROOT
BRANCH   3   7
HETATM    7  C5  UNL     1     -33.634  16.893  -2.323  1.00 20.00     0.008 C 
HETATM    8  C6  UNL     1     -33.839  17.639  -1.227  1.00 20.00    -0.025 C 
BRANCH   8   9
HETATM    9  C8  UNL     1     -32.734  18.329  -0.476  1.00 20.00     0.042 C 
BRANCH   9  10
HETATM   10  C9  UNL     1     -33.144  18.732   0.937  1.00 20.00     0.118 C 
HETATM   11 CL11 UNL     1     -34.779  18.150   1.338  1.00 20.00    -0.130 Cl
ENDBRANCH   9  10
ENDBRANCH   8   9
ENDBRANCH   3   7
TORSDOF 3
ENDMDL
MODEL 8
REMARK VINA RESULT:      -4.2      3.158      5.474
REMARK  3 active torsions:
REMARK  status: ('A' for Active; 'I' for Inactive)
REMARK    1  A    between atoms: C3_3  and  C5_5 
REMARK    2  A    between atoms: C6_6  and  C8_8 
REMARK    3  A    between atoms: C8_8  and  C9_9 
ROOT
HETATM    1  C1  UNL     1     -33.403   8.650   1.851  1.00 20.00     0.026 A 
HETATM    2  C2  UNL     1     -31.184   8.184   2.364  1.00 20.00     0.061 A 
HETATM    3  C3  UNL     1     -32.486   8.132   2.811  1.00 20.00    -0.029 A 
HETATM    4  C4  UNL     1     -32.767   9.079   0.707  1.00 20.00    -0.021 A 
HETATM    5  C7  UNL     1     -33.362   9.673  -0.511  1.00 20.00     0.056 C 
HETATM    6  S10 UNL     1     -31.072   8.856   0.793  1.00 20.00    -0.106 SA
ENDROOT
BRANCH   3   7
HETATM    7  C5  UNL     1     -32.856   7.599   4.132  1.00 20.00     0.008 C 
HETATM    8  C6  UNL     1     -33.957   6.878   4.393  1.00 20.00    -0.025 C 
BRANCH   8   9
HETATM    9  C8  UNL     1     -34.301   6.360   5.762  1.00 20.00     0.042 C 
BRANCH   9  10
HETATM   10  C9  UNL     1     -34.664   4.878   5.756  1.00 20.00     0.118 C 
HETATM   11 CL11 UNL     1     -34.210   4.096   4.222  1.00 20.00    -0.130 Cl
ENDBRANCH   9  10
ENDBRANCH   8   9
ENDBRANCH   3   7
TORSDOF 3
ENDMDL
MODEL 9
REMARK VINA RESULT:      -4.0     11.049     11.674
REMARK  3 active torsions:
REMARK  status: ('A' for Active; 'I' for Inactive)
REMARK    1  A    between atoms: C3_3  and  C5_5 
REMARK    2  A    between atoms: C6_6  and  C8_8 
REMARK    3  A    between atoms: C8_8  and  C9_9 
ROOT
HETATM    1  C1  UNL     1     -34.931  15.493  -3.705  1.00 20.00     0.026 A 
HETATM    2  C2  UNL     1     -33.476  16.581  -5.154  1.00 20.00     0.061 A 
HETATM    3  C3  UNL     1     -34.016  16.570  -3.887  1.00 20.00    -0.029 A 
HETATM    4  C4  UNL     1     -35.056  14.723  -4.839  1.00 20.00    -0.021 A 
HETATM    5  C7  UNL     1     -35.899  13.526  -5.052  1.00 20.00     0.056 C 
HETATM    6  S10 UNL     1     -34.072  15.297  -6.118  1.00 20.00    -0.106 SA
ENDROOT
BRANCH   3   7
HETATM    7  C5  UNL     1     -33.670  17.568  -2.863  1.00 20.00     0.008 C 
HETATM    8  C6  UNL     1     -33.459  17.302  -1.565  1.00 20.00    -0.025 C 
BRANCH   8   9
HETATM    9  C8  UNL     1     -33.115  18.356  -0.549  1.00 20.00     0.042 C 
BRANCH   9  10
HETATM   10  C9  UNL     1     -34.148  18.454   0.570  1.00 20.00     0.118 C 
HETATM   11 CL11 UNL     1     -35.577  17.445   0.236  1.00 20.00    -0.130 Cl
ENDBRANCH   9  10
ENDBRANCH   8   9
ENDBRANCH   3   7
TORSDOF 3
ENDMDL
