MODEL 1
REMARK VINA RESULT:      -6.7      0.000      0.000
REMARK  4 active torsions:
REMARK  status: ('A' for Active; 'I' for Inactive)
REMARK    1  A    between atoms: C1_1  and  C9_9 
REMARK    2  A    between atoms: C8_8  and  C10_10 
REMARK    3  A    between atoms: C9_9  and  C11_11 
REMARK    4  A    between atoms: C10_10  and  C11_11 
ROOT
HETATM    1  C2  UNL     1     -34.260   4.592   5.213  1.00 20.00     0.005 C 
HETATM    2  C3  UNL     1     -33.789   4.319   3.776  1.00 20.00     0.005 C 
HETATM    3  C4  UNL     1     -35.434   6.027   3.720  1.00 20.00     0.009 C 
HETATM    4  C5  UNL     1     -33.674   7.019   4.975  1.00 20.00     0.009 C 
HETATM    5  C6  UNL     1     -34.833   6.017   5.125  1.00 20.00    -0.014 C 
HETATM    6  C7  UNL     1     -34.115   5.638   3.051  1.00 20.00    -0.010 C 
HETATM    7  C8  UNL     1     -33.137   6.725   3.557  1.00 20.00    -0.010 C 
ENDROOT
BRANCH   7   8
HETATM    8  C10 UNL     1     -33.125   7.968   2.674  1.00 20.00     0.005 C 
BRANCH   8   9
HETATM    9  C11 UNL     1     -31.699   8.362   2.291  1.00 20.00     0.007 C 
BRANCH   9  10
HETATM   10  C9  UNL     1     -31.592   8.804   0.834  1.00 20.00     0.069 C 
BRANCH  10  11
HETATM   11  C1  UNL     1     -32.810   9.537   0.323  1.00 20.00     0.231 C 
HETATM   12  O12 UNL     1     -33.434   9.241  -0.689  1.00 20.00    -0.307 OA
ENDBRANCH  10  11
ENDBRANCH   9  10
ENDBRANCH   8   9
ENDBRANCH   7   8
TORSDOF 4
ENDMDL
MODEL 2
REMARK VINA RESULT:      -5.0      0.866      1.577
REMARK  4 active torsions:
REMARK  status: ('A' for Active; 'I' for Inactive)
REMARK    1  A    between atoms: C1_1  and  C9_9 
REMARK    2  A    between atoms: C8_8  and  C10_10 
REMARK    3  A    between atoms: C9_9  and  C11_11 
REMARK    4  A    between atoms: C10_10  and  C11_11 
ROOT
HETATM    1  C2  UNL     1     -35.274   4.754   4.230  1.00 20.00     0.005 C 
HETATM    2  C3  UNL     1     -35.601   6.195   3.814  1.00 20.00     0.005 C 
HETATM    3  C4  UNL     1     -33.706   6.233   5.239  1.00 20.00     0.009 C 
HETATM    4  C5  UNL     1     -32.936   5.003   3.355  1.00 20.00     0.009 C 
HETATM    5  C6  UNL     1     -33.789   4.836   4.626  1.00 20.00    -0.014 C 
HETATM    6  C7  UNL     1     -34.253   6.919   3.986  1.00 20.00    -0.010 C 
HETATM    7  C8  UNL     1     -33.293   6.427   2.877  1.00 20.00    -0.010 C 
ENDROOT
BRANCH   7   8
HETATM    8  C10 UNL     1     -32.060   7.311   2.725  1.00 20.00     0.005 C 
BRANCH   8   9
HETATM    9  C11 UNL     1     -32.439   8.713   2.247  1.00 20.00     0.007 C 
BRANCH   9  10
HETATM   10  C9  UNL     1     -31.818   9.052   0.895  1.00 20.00     0.069 C 
BRANCH  10  11
HETATM   11  C1  UNL     1     -32.772   9.716  -0.070  1.00 20.00     0.231 C 
HETATM   12  O12 UNL     1     -33.588   9.125  -0.768  1.00 20.00    -0.307 OA
ENDBRANCH  10  11
ENDBRANCH   9  10
ENDBRANCH   8   9
ENDBRANCH   7   8
TORSDOF 4
ENDMDL
MODEL 3
REMARK VINA RESULT:      -4.9     10.474     11.549
REMARK  4 active torsions:
REMARK  status: ('A' for Active; 'I' for Inactive)
REMARK    1  A    between atoms: C1_1  and  C9_9 
REMARK    2  A    between atoms: C8_8  and  C10_10 
REMARK    3  A    between atoms: C9_9  and  C11_11 
REMARK    4  A    between atoms: C10_10  and  C11_11 
ROOT
HETATM    1  C2  UNL     1     -34.049  18.373   0.552  1.00 20.00     0.005 C 
HETATM    2  C3  UNL     1     -35.435  17.711   0.536  1.00 20.00     0.005 C 
HETATM    3  C4  UNL     1     -35.198  19.013  -1.432  1.00 20.00     0.009 C 
HETATM    4  C5  UNL     1     -33.507  17.358  -1.678  1.00 20.00     0.009 C 
HETATM    5  C6  UNL     1     -33.794  18.676  -0.935  1.00 20.00    -0.014 C 
HETATM    6  C7  UNL     1     -35.785  17.681  -0.963  1.00 20.00    -0.010 C 
HETATM    7  C8  UNL     1     -34.873  16.639  -1.654  1.00 20.00    -0.010 C 
ENDROOT
BRANCH   7   8
HETATM    8  C10 UNL     1     -35.353  16.267  -3.053  1.00 20.00     0.005 C 
BRANCH   8   9
HETATM    9  C11 UNL     1     -34.209  15.713  -3.903  1.00 20.00     0.007 C 
BRANCH   9  10
HETATM   10  C9  UNL     1     -34.344  14.212  -4.148  1.00 20.00     0.069 C 
BRANCH  10  11
HETATM   11  C1  UNL     1     -35.557  13.829  -4.962  1.00 20.00     0.231 C 
HETATM   12  O12 UNL     1     -35.883  12.681  -5.238  1.00 20.00    -0.307 OA
ENDBRANCH  10  11
ENDBRANCH   9  10
ENDBRANCH   8   9
ENDBRANCH   7   8
TORSDOF 4
ENDMDL
MODEL 4
REMARK VINA RESULT:      -4.8      2.396      5.455
REMARK  4 active torsions:
REMARK  status: ('A' for Active; 'I' for Inactive)
REMARK    1  A    between atoms: C1_1  and  C9_9 
REMARK    2  A    between atoms: C8_8  and  C10_10 
REMARK    3  A    between atoms: C9_9  and  C11_11 
REMARK    4  A    between atoms: C10_10  and  C11_11 
ROOT
HETATM    1  C2  UNL     1     -31.995  10.674   0.422  1.00 20.00     0.005 C 
HETATM    2  C3  UNL     1     -32.975  10.716   1.604  1.00 20.00     0.005 C 
HETATM    3  C4  UNL     1     -33.469   8.811   0.282  1.00 20.00     0.009 C 
HETATM    4  C5  UNL     1     -31.270   8.361   1.069  1.00 20.00     0.009 C 
HETATM    5  C6  UNL     1     -32.015   9.192   0.009  1.00 20.00    -0.014 C 
HETATM    6  C7  UNL     1     -33.406   9.245   1.747  1.00 20.00    -0.010 C 
HETATM    7  C8  UNL     1     -32.205   8.438   2.295  1.00 20.00    -0.010 C 
ENDROOT
BRANCH   7   8
HETATM    8  C10 UNL     1     -32.602   7.057   2.806  1.00 20.00     0.005 C 
BRANCH   8   9
HETATM    9  C11 UNL     1     -33.714   7.151   3.852  1.00 20.00     0.007 C 
BRANCH   9  10
HETATM   10  C9  UNL     1     -34.765   6.058   3.680  1.00 20.00     0.069 C 
BRANCH  10  11
HETATM   11  C1  UNL     1     -34.625   4.913   4.656  1.00 20.00     0.231 C 
HETATM   12  O12 UNL     1     -34.382   3.753   4.347  1.00 20.00    -0.307 OA
ENDBRANCH  10  11
ENDBRANCH   9  10
ENDBRANCH   8   9
ENDBRANCH   7   8
TORSDOF 4
ENDMDL
MODEL 5
REMARK VINA RESULT:      -4.7     10.648     12.096
REMARK  4 active torsions:
REMARK  status: ('A' for Active; 'I' for Inactive)
REMARK    1  A    between atoms: C1_1  and  C9_9 
REMARK    2  A    between atoms: C8_8  and  C10_10 
REMARK    3  A    between atoms: C9_9  and  C11_11 
REMARK    4  A    between atoms: C10_10  and  C11_11 
ROOT
HETATM    1  C2  UNL     1     -35.487  16.673  -2.626  1.00 20.00     0.005 C 
HETATM    2  C3  UNL     1     -33.955  16.607  -2.557  1.00 20.00     0.005 C 
HETATM    3  C4  UNL     1     -34.737  14.721  -3.763  1.00 20.00     0.009 C 
HETATM    4  C5  UNL     1     -35.408  16.548  -5.130  1.00 20.00     0.009 C 
HETATM    5  C6  UNL     1     -35.816  15.799  -3.848  1.00 20.00    -0.014 C 
HETATM    6  C7  UNL     1     -33.592  15.735  -3.773  1.00 20.00    -0.010 C 
HETATM    7  C8  UNL     1     -33.866  16.553  -5.056  1.00 20.00    -0.010 C 
ENDROOT
BRANCH   7   8
HETATM    8  C10 UNL     1     -33.227  15.940  -6.298  1.00 20.00     0.005 C 
BRANCH   8   9
HETATM    9  C11 UNL     1     -34.277  15.617  -7.360  1.00 20.00     0.007 C 
BRANCH   9  10
HETATM   10  C9  UNL     1     -34.235  14.153  -7.790  1.00 20.00     0.069 C 
BRANCH  10  11
HETATM   11  C1  UNL     1     -35.258  13.280  -7.099  1.00 20.00     0.231 C 
HETATM   12  O12 UNL     1     -35.114  12.087  -6.859  1.00 20.00    -0.307 OA
ENDBRANCH  10  11
ENDBRANCH   9  10
ENDBRANCH   8   9
ENDBRANCH   7   8
TORSDOF 4
ENDMDL
MODEL 6
REMARK VINA RESULT:      -4.6     10.940     11.994
REMARK  4 active torsions:
REMARK  status: ('A' for Active; 'I' for Inactive)
REMARK    1  A    between atoms: C1_1  and  C9_9 
REMARK    2  A    between atoms: C8_8  and  C10_10 
REMARK    3  A    between atoms: C9_9  and  C11_11 
REMARK    4  A    between atoms: C10_10  and  C11_11 
ROOT
HETATM    1  C2  UNL     1     -35.606  14.886  -5.899  1.00 20.00     0.005 C 
HETATM    2  C3  UNL     1     -35.168  14.015  -4.712  1.00 20.00     0.005 C 
HETATM    3  C4  UNL     1     -33.377  15.457  -5.291  1.00 20.00     0.009 C 
HETATM    4  C5  UNL     1     -35.080  16.968  -4.601  1.00 20.00     0.009 C 
HETATM    5  C6  UNL     1     -34.665  16.099  -5.803  1.00 20.00    -0.014 C 
HETATM    6  C7  UNL     1     -34.055  14.856  -4.060  1.00 20.00    -0.010 C 
HETATM    7  C8  UNL     1     -34.708  16.087  -3.389  1.00 20.00    -0.010 C 
ENDROOT
BRANCH   7   8
HETATM    8  C10 UNL     1     -33.769  16.803  -2.423  1.00 20.00     0.005 C 
BRANCH   8   9
HETATM    9  C11 UNL     1     -34.511  17.262  -1.167  1.00 20.00     0.007 C 
BRANCH   9  10
HETATM   10  C9  UNL     1     -33.641  18.139  -0.269  1.00 20.00     0.069 C 
BRANCH  10  11
HETATM   11  C1  UNL     1     -32.296  18.484  -0.864  1.00 20.00     0.231 C 
HETATM   12  O12 UNL     1     -31.217  18.303  -0.312  1.00 20.00    -0.307 OA
ENDBRANCH  10  11
ENDBRANCH   9  10
ENDBRANCH   8   9
ENDBRANCH   7   8
TORSDOF 4
ENDMDL
MODEL 7
REMARK VINA RESULT:      -4.6     10.678     11.760
REMARK  4 active torsions:
REMARK  status: ('A' for Active; 'I' for Inactive)
REMARK    1  A    between atoms: C1_1  and  C9_9 
REMARK    2  A    between atoms: C8_8  and  C10_10 
REMARK    3  A    between atoms: C9_9  and  C11_11 
REMARK    4  A    between atoms: C10_10  and  C11_11 
ROOT
HETATM    1  C2  UNL     1     -34.004  17.885  -0.752  1.00 20.00     0.005 C 
HETATM    2  C3  UNL     1     -35.343  17.134  -0.733  1.00 20.00     0.005 C 
HETATM    3  C4  UNL     1     -35.191  18.354  -2.761  1.00 20.00     0.009 C 
HETATM    4  C5  UNL     1     -33.396  16.804  -2.933  1.00 20.00     0.009 C 
HETATM    5  C6  UNL     1     -33.768  18.134  -2.252  1.00 20.00    -0.014 C 
HETATM    6  C7  UNL     1     -35.691  17.010  -2.228  1.00 20.00    -0.010 C 
HETATM    7  C8  UNL     1     -34.713  15.999  -2.872  1.00 20.00    -0.010 C 
ENDROOT
BRANCH   7   8
HETATM    8  C10 UNL     1     -35.167  15.531  -4.250  1.00 20.00     0.005 C 
BRANCH   8   9
HETATM    9  C11 UNL     1     -34.991  14.020  -4.408  1.00 20.00     0.007 C 
BRANCH   9  10
HETATM   10  C9  UNL     1     -35.884  13.444  -5.504  1.00 20.00     0.069 C 
BRANCH  10  11
HETATM   11  C1  UNL     1     -37.217  14.143  -5.640  1.00 20.00     0.231 C 
HETATM   12  O12 UNL     1     -38.212  13.893  -4.970  1.00 20.00    -0.307 OA
ENDBRANCH  10  11
ENDBRANCH   9  10
ENDBRANCH   8   9
ENDBRANCH   7   8
TORSDOF 4
ENDMDL
MODEL 8
REMARK VINA RESULT:      -4.5     10.415     11.976
REMARK  4 active torsions:
REMARK  status: ('A' for Active; 'I' for Inactive)
REMARK    1  A    between atoms: C1_1  and  C9_9 
REMARK    2  A    between atoms: C8_8  and  C10_10 
REMARK    3  A    between atoms: C9_9  and  C11_11 
REMARK    4  A    between atoms: C10_10  and  C11_11 
ROOT
HETATM    1  C2  UNL     1     -33.872  19.195  -0.826  1.00 20.00     0.005 C 
HETATM    2  C3  UNL     1     -32.785  18.186  -1.224  1.00 20.00     0.005 C 
HETATM    3  C4  UNL     1     -34.876  17.068  -1.193  1.00 20.00     0.009 C 
HETATM    4  C5  UNL     1     -35.156  18.680  -2.919  1.00 20.00     0.009 C 
HETATM    5  C6  UNL     1     -35.156  18.557  -1.384  1.00 20.00    -0.014 C 
HETATM    6  C7  UNL     1     -33.575  17.113  -1.996  1.00 20.00    -0.010 C 
HETATM    7  C8  UNL     1     -34.024  17.720  -3.347  1.00 20.00    -0.010 C 
ENDROOT
BRANCH   7   8
HETATM    8  C10 UNL     1     -34.505  16.667  -4.339  1.00 20.00     0.005 C 
BRANCH   8   9
HETATM    9  C11 UNL     1     -33.556  15.469  -4.379  1.00 20.00     0.007 C 
BRANCH   9  10
HETATM   10  C9  UNL     1     -34.278  14.148  -4.124  1.00 20.00     0.069 C 
BRANCH  10  11
HETATM   11  C1  UNL     1     -35.347  13.826  -5.142  1.00 20.00     0.231 C 
HETATM   12  O12 UNL     1     -35.974  12.774  -5.191  1.00 20.00    -0.307 OA
ENDBRANCH  10  11
ENDBRANCH   9  10
ENDBRANCH   8   9
ENDBRANCH   7   8
TORSDOF 4
ENDMDL
MODEL 9
REMARK VINA RESULT:      -4.5      2.383      5.292
REMARK  4 active torsions:
REMARK  status: ('A' for Active; 'I' for Inactive)
REMARK    1  A    between atoms: C1_1  and  C9_9 
REMARK    2  A    between atoms: C8_8  and  C10_10 
REMARK    3  A    between atoms: C9_9  and  C11_11 
REMARK    4  A    between atoms: C10_10  and  C11_11 
ROOT
HETATM    1  C2  UNL     1     -33.249   9.746  -0.341  1.00 20.00     0.005 C 
HETATM    2  C3  UNL     1     -32.157   8.665  -0.354  1.00 20.00     0.005 C 
HETATM    3  C4  UNL     1     -31.711  10.167   1.426  1.00 20.00     0.009 C 
HETATM    4  C5  UNL     1     -33.796   9.205   2.047  1.00 20.00     0.009 C 
HETATM    5  C6  UNL     1     -33.201  10.268   1.105  1.00 20.00    -0.014 C 
HETATM    6  C7  UNL     1     -31.645   8.675   1.099  1.00 20.00    -0.010 C 
HETATM    7  C8  UNL     1     -32.746   8.074   2.005  1.00 20.00    -0.010 C 
ENDROOT
BRANCH   7   8
HETATM    8  C10 UNL     1     -32.235   7.709   3.395  1.00 20.00     0.005 C 
BRANCH   8   9
HETATM    9  C11 UNL     1     -33.369   7.203   4.287  1.00 20.00     0.007 C 
BRANCH   9  10
HETATM   10  C9  UNL     1     -34.190   6.106   3.615  1.00 20.00     0.069 C 
BRANCH  10  11
HETATM   11  C1  UNL     1     -34.612   4.995   4.548  1.00 20.00     0.231 C 
HETATM   12  O12 UNL     1     -34.402   3.803   4.359  1.00 20.00    -0.307 OA
ENDBRANCH  10  11
ENDBRANCH   9  10
ENDBRANCH   8   9
ENDBRANCH   7   8
TORSDOF 4
ENDMDL
