MODEL 1
REMARK VINA RESULT:      -5.4      0.000      0.000
REMARK  2 active torsions:
REMARK  status: ('A' for Active; 'I' for Inactive)
REMARK    1  A    between atoms: C7_7  and  C8_8 
REMARK    2  A    between atoms: C8_8  and  S9_9 
ROOT
HETATM    1  C1  UNL     1     -33.958   5.313   5.592  1.00 20.00     0.005 C 
HETATM    2  C2  UNL     1     -34.052   6.835   5.415  1.00 20.00     0.005 C 
HETATM    3  C3  UNL     1     -35.530   5.807   3.873  1.00 20.00     0.009 C 
HETATM    4  C4  UNL     1     -33.382   5.030   3.174  1.00 20.00     0.010 C 
HETATM    5  C5  UNL     1     -34.462   4.776   4.241  1.00 20.00    -0.014 C 
HETATM    6  C6  UNL     1     -34.554   6.983   3.968  1.00 20.00    -0.009 C 
HETATM    7  C7  UNL     1     -33.479   6.553   2.942  1.00 20.00    -0.001 C 
ENDROOT
BRANCH   7   8
HETATM    8  C8  UNL     1     -32.142   7.269   3.042  1.00 20.00     0.075 C 
BRANCH   8   9
HETATM    9  S9  UNL     1     -32.078   8.657   1.878  1.00 20.00    -0.182 SA
HETATM   10  H23 UNL     1     -32.827   8.083   0.926  1.00 20.00     0.101 HD
ENDBRANCH   8   9
ENDBRANCH   7   8
TORSDOF 2
ENDMDL
MODEL 2
REMARK VINA RESULT:      -3.9      0.951      2.057
REMARK  2 active torsions:
REMARK  status: ('A' for Active; 'I' for Inactive)
REMARK    1  A    between atoms: C7_7  and  C8_8 
REMARK    2  A    between atoms: C8_8  and  S9_9 
ROOT
HETATM    1  C1  UNL     1     -35.566   6.033   3.676  1.00 20.00     0.005 C 
HETATM    2  C2  UNL     1     -34.763   6.100   2.369  1.00 20.00     0.005 C 
HETATM    3  C3  UNL     1     -33.504   4.880   3.964  1.00 20.00     0.009 C 
HETATM    4  C4  UNL     1     -33.665   7.053   4.940  1.00 20.00     0.010 C 
HETATM    5  C5  UNL     1     -34.483   5.766   4.735  1.00 20.00    -0.014 C 
HETATM    6  C6  UNL     1     -33.313   5.909   2.846  1.00 20.00    -0.009 C 
HETATM    7  C7  UNL     1     -32.811   7.128   3.657  1.00 20.00    -0.001 C 
ENDROOT
BRANCH   7   8
HETATM    8  C8  UNL     1     -32.892   8.472   2.951  1.00 20.00     0.075 C 
BRANCH   8   9
HETATM    9  S9  UNL     1     -31.820   8.484   1.489  1.00 20.00    -0.182 SA
HETATM   10  H23 UNL     1     -31.705   7.154   1.382  1.00 20.00     0.101 HD
ENDBRANCH   8   9
ENDBRANCH   7   8
TORSDOF 2
ENDMDL
MODEL 3
REMARK VINA RESULT:      -3.6     11.737     12.699
REMARK  2 active torsions:
REMARK  status: ('A' for Active; 'I' for Inactive)
REMARK    1  A    between atoms: C7_7  and  C8_8 
REMARK    2  A    between atoms: C8_8  and  S9_9 
ROOT
HETATM    1  C1  UNL     1     -34.104  16.808  -5.323  1.00 20.00     0.005 C 
HETATM    2  C2  UNL     1     -35.601  16.573  -5.075  1.00 20.00     0.005 C 
HETATM    3  C3  UNL     1     -34.412  15.986  -3.111  1.00 20.00     0.009 C 
HETATM    4  C4  UNL     1     -33.594  14.433  -4.730  1.00 20.00     0.010 C 
HETATM    5  C5  UNL     1     -33.433  15.896  -4.282  1.00 20.00    -0.014 C 
HETATM    6  C6  UNL     1     -35.602  15.519  -3.953  1.00 20.00    -0.009 C 
HETATM    7  C7  UNL     1     -35.086  14.149  -4.453  1.00 20.00    -0.001 C 
ENDROOT
BRANCH   7   8
HETATM    8  C8  UNL     1     -35.823  13.557  -5.644  1.00 20.00     0.075 C 
BRANCH   8   9
HETATM    9  S9  UNL     1     -34.730  13.477  -7.088  1.00 20.00    -0.182 SA
HETATM   10  H23 UNL     1     -33.844  12.626  -6.553  1.00 20.00     0.101 HD
ENDBRANCH   8   9
ENDBRANCH   7   8
TORSDOF 2
ENDMDL
MODEL 4
REMARK VINA RESULT:      -3.5     11.625     12.733
REMARK  2 active torsions:
REMARK  status: ('A' for Active; 'I' for Inactive)
REMARK    1  A    between atoms: C7_7  and  C8_8 
REMARK    2  A    between atoms: C8_8  and  S9_9 
ROOT
HETATM    1  C1  UNL     1     -34.037  16.600  -4.502  1.00 20.00     0.005 C 
HETATM    2  C2  UNL     1     -34.734  15.674  -3.495  1.00 20.00     0.005 C 
HETATM    3  C3  UNL     1     -32.910  14.504  -4.455  1.00 20.00     0.009 C 
HETATM    4  C4  UNL     1     -34.342  14.913  -6.322  1.00 20.00     0.010 C 
HETATM    5  C5  UNL     1     -33.304  15.615  -5.428  1.00 20.00    -0.014 C 
HETATM    6  C6  UNL     1     -34.353  14.270  -3.998  1.00 20.00    -0.009 C 
HETATM    7  C7  UNL     1     -35.035  13.939  -5.346  1.00 20.00    -0.001 C 
ENDROOT
BRANCH   7   8
HETATM    8  C8  UNL     1     -36.552  14.040  -5.364  1.00 20.00     0.075 C 
BRANCH   8   9
HETATM    9  S9  UNL     1     -37.097  15.166  -6.676  1.00 20.00    -0.182 SA
HETATM   10  H23 UNL     1     -38.361  15.285  -6.249  1.00 20.00     0.101 HD
ENDBRANCH   8   9
ENDBRANCH   7   8
TORSDOF 2
ENDMDL
MODEL 5
REMARK VINA RESULT:      -3.5     11.466     12.678
REMARK  2 active torsions:
REMARK  status: ('A' for Active; 'I' for Inactive)
REMARK    1  A    between atoms: C7_7  and  C8_8 
REMARK    2  A    between atoms: C8_8  and  S9_9 
ROOT
HETATM    1  C1  UNL     1     -35.004  15.801  -5.726  1.00 20.00     0.005 C 
HETATM    2  C2  UNL     1     -33.496  15.966  -5.490  1.00 20.00     0.005 C 
HETATM    3  C3  UNL     1     -34.287  14.217  -4.101  1.00 20.00     0.009 C 
HETATM    4  C4  UNL     1     -35.460  16.133  -3.290  1.00 20.00     0.010 C 
HETATM    5  C5  UNL     1     -35.482  15.109  -4.439  1.00 20.00    -0.014 C 
HETATM    6  C6  UNL     1     -33.304  15.390  -4.076  1.00 20.00    -0.009 C 
HETATM    7  C7  UNL     1     -33.953  16.290  -2.998  1.00 20.00    -0.001 C 
ENDROOT
BRANCH   7   8
HETATM    8  C8  UNL     1     -33.487  17.737  -2.974  1.00 20.00     0.075 C 
BRANCH   8   9
HETATM    9  S9  UNL     1     -32.887  18.182  -1.322  1.00 20.00    -0.182 SA
HETATM   10  H23 UNL     1     -33.830  17.518  -0.642  1.00 20.00     0.101 HD
ENDBRANCH   8   9
ENDBRANCH   7   8
TORSDOF 2
ENDMDL
MODEL 6
REMARK VINA RESULT:      -3.5     11.776     12.661
REMARK  2 active torsions:
REMARK  status: ('A' for Active; 'I' for Inactive)
REMARK    1  A    between atoms: C7_7  and  C8_8 
REMARK    2  A    between atoms: C8_8  and  S9_9 
ROOT
HETATM    1  C1  UNL     1     -33.924  15.758  -6.209  1.00 20.00     0.005 C 
HETATM    2  C2  UNL     1     -33.460  16.702  -5.091  1.00 20.00     0.005 C 
HETATM    3  C3  UNL     1     -32.939  14.478  -4.461  1.00 20.00     0.009 C 
HETATM    4  C4  UNL     1     -35.323  14.466  -4.589  1.00 20.00     0.010 C 
HETATM    5  C5  UNL     1     -34.073  14.410  -5.484  1.00 20.00    -0.014 C 
HETATM    6  C6  UNL     1     -33.445  15.789  -3.853  1.00 20.00    -0.009 C 
HETATM    7  C7  UNL     1     -34.875  15.378  -3.427  1.00 20.00    -0.001 C 
ENDROOT
BRANCH   7   8
HETATM    8  C8  UNL     1     -35.837  16.521  -3.146  1.00 20.00     0.075 C 
BRANCH   8   9
HETATM    9  S9  UNL     1     -35.550  17.197  -1.489  1.00 20.00    -0.182 SA
HETATM   10  H23 UNL     1     -34.963  16.103  -0.985  1.00 20.00     0.101 HD
ENDBRANCH   8   9
ENDBRANCH   7   8
TORSDOF 2
ENDMDL
MODEL 7
REMARK VINA RESULT:      -3.5     11.601     12.810
REMARK  2 active torsions:
REMARK  status: ('A' for Active; 'I' for Inactive)
REMARK    1  A    between atoms: C7_7  and  C8_8 
REMARK    2  A    between atoms: C8_8  and  S9_9 
ROOT
HETATM    1  C1  UNL     1     -32.979  14.636  -4.607  1.00 20.00     0.005 C 
HETATM    2  C2  UNL     1     -33.236  15.994  -5.275  1.00 20.00     0.005 C 
HETATM    3  C3  UNL     1     -34.732  15.759  -3.452  1.00 20.00     0.009 C 
HETATM    4  C4  UNL     1     -35.374  13.988  -4.920  1.00 20.00     0.010 C 
HETATM    5  C5  UNL     1     -34.303  14.354  -3.877  1.00 20.00    -0.014 C 
HETATM    6  C6  UNL     1     -34.692  16.301  -4.884  1.00 20.00    -0.009 C 
HETATM    7  C7  UNL     1     -35.687  15.345  -5.584  1.00 20.00    -0.001 C 
ENDROOT
BRANCH   7   8
HETATM    8  C8  UNL     1     -35.615  15.310  -7.102  1.00 20.00     0.075 C 
BRANCH   8   9
HETATM    9  S9  UNL     1     -35.173  13.648  -7.676  1.00 20.00    -0.182 SA
HETATM   10  H23 UNL     1     -36.048  12.990  -6.903  1.00 20.00     0.101 HD
ENDBRANCH   8   9
ENDBRANCH   7   8
TORSDOF 2
ENDMDL
MODEL 8
REMARK VINA RESULT:      -3.4     11.528     12.817
REMARK  2 active torsions:
REMARK  status: ('A' for Active; 'I' for Inactive)
REMARK    1  A    between atoms: C7_7  and  C8_8 
REMARK    2  A    between atoms: C8_8  and  S9_9 
ROOT
HETATM    1  C1  UNL     1     -33.164  15.772  -5.546  1.00 20.00     0.005 C 
HETATM    2  C2  UNL     1     -34.453  16.599  -5.655  1.00 20.00     0.005 C 
HETATM    3  C3  UNL     1     -33.993  16.223  -3.361  1.00 20.00     0.009 C 
HETATM    4  C4  UNL     1     -34.356  14.022  -4.215  1.00 20.00     0.010 C 
HETATM    5  C5  UNL     1     -33.285  15.125  -4.156  1.00 20.00    -0.014 C 
HETATM    6  C6  UNL     1     -35.175  16.288  -4.333  1.00 20.00    -0.009 C 
HETATM    7  C7  UNL     1     -35.673  14.824  -4.283  1.00 20.00    -0.001 C 
ENDROOT
BRANCH   7   8
HETATM    8  C8  UNL     1     -36.587  14.396  -5.420  1.00 20.00     0.075 C 
BRANCH   8   9
HETATM    9  S9  UNL     1     -38.312  14.795  -5.030  1.00 20.00    -0.182 SA
HETATM   10  H23 UNL     1     -38.848  14.163  -6.082  1.00 20.00     0.101 HD
ENDBRANCH   8   9
ENDBRANCH   7   8
TORSDOF 2
ENDMDL
MODEL 9
REMARK VINA RESULT:      -3.4     11.711     12.954
REMARK  2 active torsions:
REMARK  status: ('A' for Active; 'I' for Inactive)
REMARK    1  A    between atoms: C7_7  and  C8_8 
REMARK    2  A    between atoms: C8_8  and  S9_9 
ROOT
HETATM    1  C1  UNL     1     -34.940  14.262  -5.569  1.00 20.00     0.005 C 
HETATM    2  C2  UNL     1     -33.918  15.129  -6.318  1.00 20.00     0.005 C 
HETATM    3  C3  UNL     1     -32.900  14.309  -4.342  1.00 20.00     0.009 C 
HETATM    4  C4  UNL     1     -34.682  15.668  -3.517  1.00 20.00     0.010 C 
HETATM    5  C5  UNL     1     -34.413  14.279  -4.123  1.00 20.00    -0.014 C 
HETATM    6  C6  UNL     1     -32.959  15.575  -5.201  1.00 20.00    -0.009 C 
HETATM    7  C7  UNL     1     -33.639  16.560  -4.221  1.00 20.00    -0.001 C 
ENDROOT
BRANCH   7   8
HETATM    8  C8  UNL     1     -34.233  17.812  -4.846  1.00 20.00     0.075 C 
BRANCH   8   9
HETATM    9  S9  UNL     1     -36.019  17.883  -4.544  1.00 20.00    -0.182 SA
HETATM   10  H23 UNL     1     -36.098  16.729  -3.869  1.00 20.00     0.101 HD
ENDBRANCH   8   9
ENDBRANCH   7   8
TORSDOF 2
ENDMDL
