MODEL 1
REMARK VINA RESULT:      -5.6      0.000      0.000
REMARK  3 active torsions:
REMARK  status: ('A' for Active; 'I' for Inactive)
REMARK    1  A    between atoms: C1_1  and  C5_5 
REMARK    2  A    between atoms: C2_2  and  C7_7 
REMARK    3  A    between atoms: C5_5  and  C6_6 
ROOT
HETATM    1  C1  UNL     1     -32.946   7.562   3.235  1.00 20.00    -0.029 C 
HETATM    2  C2  UNL     1     -33.702   6.453   3.250  1.00 20.00    -0.027 C 
ENDROOT
BRANCH   1   3
HETATM    3  C5  UNL     1     -32.105   7.984   2.065  1.00 20.00     0.042 C 
BRANCH   3   4
HETATM    4  C6  UNL     1     -32.474   9.369   1.543  1.00 20.00     0.118 C 
HETATM    5 CL8  UNL     1     -32.910   9.327  -0.183  1.00 20.00    -0.130 Cl
ENDBRANCH   3   4
ENDBRANCH   1   3
BRANCH   2   6
HETATM    6  C7  UNL     1     -34.547   6.031   4.423  1.00 20.00    -0.001 C 
HETATM    7  C3  UNL     1     -34.058   6.714   5.700  1.00 20.00     0.013 C 
HETATM    8  C4  UNL     1     -34.510   4.511   4.579  1.00 20.00     0.013 C 
ENDBRANCH   2   6
TORSDOF 3
ENDMDL
MODEL 2
REMARK VINA RESULT:      -5.4      0.825      1.433
REMARK  3 active torsions:
REMARK  status: ('A' for Active; 'I' for Inactive)
REMARK    1  A    between atoms: C1_1  and  C5_5 
REMARK    2  A    between atoms: C2_2  and  C7_7 
REMARK    3  A    between atoms: C5_5  and  C6_6 
ROOT
HETATM    1  C1  UNL     1     -32.345   7.873   2.964  1.00 20.00    -0.029 C 
HETATM    2  C2  UNL     1     -33.208   6.846   2.988  1.00 20.00    -0.027 C 
ENDROOT
BRANCH   1   3
HETATM    3  C5  UNL     1     -31.785   8.465   1.702  1.00 20.00     0.042 C 
BRANCH   3   4
HETATM    4  C6  UNL     1     -32.554   9.698   1.238  1.00 20.00     0.118 C 
HETATM    5 CL8  UNL     1     -33.156   9.510  -0.427  1.00 20.00    -0.130 Cl
ENDBRANCH   3   4
ENDBRANCH   1   3
BRANCH   2   6
HETATM    6  C7  UNL     1     -33.771   6.254   4.254  1.00 20.00    -0.001 C 
HETATM    7  C3  UNL     1     -35.209   5.788   4.026  1.00 20.00     0.013 C 
HETATM    8  C4  UNL     1     -33.711   7.279   5.386  1.00 20.00     0.013 C 
ENDBRANCH   2   6
TORSDOF 3
ENDMDL
MODEL 3
REMARK VINA RESULT:      -5.2      2.545      4.909
REMARK  3 active torsions:
REMARK  status: ('A' for Active; 'I' for Inactive)
REMARK    1  A    between atoms: C1_1  and  C5_5 
REMARK    2  A    between atoms: C2_2  and  C7_7 
REMARK    3  A    between atoms: C5_5  and  C6_6 
ROOT
HETATM    1  C1  UNL     1     -32.925   8.041   2.442  1.00 20.00    -0.029 C 
HETATM    2  C2  UNL     1     -32.005   8.425   1.545  1.00 20.00    -0.027 C 
ENDROOT
BRANCH   1   3
HETATM    3  C5  UNL     1     -32.786   6.824   3.312  1.00 20.00     0.042 C 
BRANCH   3   4
HETATM    4  C6  UNL     1     -33.976   6.629   4.247  1.00 20.00     0.118 C 
HETATM    5 CL8  UNL     1     -33.667   7.320   5.858  1.00 20.00    -0.130 Cl
ENDBRANCH   3   4
ENDBRANCH   1   3
BRANCH   2   6
HETATM    6  C7  UNL     1     -32.143   9.646   0.674  1.00 20.00    -0.001 C 
HETATM    7  C3  UNL     1     -32.659  10.827   1.497  1.00 20.00     0.013 C 
HETATM    8  C4  UNL     1     -33.082   9.355  -0.496  1.00 20.00     0.013 C 
ENDBRANCH   2   6
TORSDOF 3
ENDMDL
MODEL 4
REMARK VINA RESULT:      -5.0      2.517      4.573
REMARK  3 active torsions:
REMARK  status: ('A' for Active; 'I' for Inactive)
REMARK    1  A    between atoms: C1_1  and  C5_5 
REMARK    2  A    between atoms: C2_2  and  C7_7 
REMARK    3  A    between atoms: C5_5  and  C6_6 
ROOT
HETATM    1  C1  UNL     1     -33.253   6.281   3.359  1.00 20.00    -0.029 C 
HETATM    2  C2  UNL     1     -33.291   7.303   2.491  1.00 20.00    -0.027 C 
ENDROOT
BRANCH   1   3
HETATM    3  C5  UNL     1     -34.456   5.471   3.749  1.00 20.00     0.042 C 
BRANCH   3   4
HETATM    4  C6  UNL     1     -34.729   5.506   5.249  1.00 20.00     0.118 C 
HETATM    5 CL8  UNL     1     -34.024   6.952   6.013  1.00 20.00    -0.130 Cl
ENDBRANCH   3   4
ENDBRANCH   1   3
BRANCH   2   6
HETATM    6  C7  UNL     1     -32.084   8.114   2.098  1.00 20.00    -0.001 C 
HETATM    7  C3  UNL     1     -31.261   8.471   3.336  1.00 20.00     0.013 C 
HETATM    8  C4  UNL     1     -32.516   9.378   1.357  1.00 20.00     0.013 C 
ENDBRANCH   2   6
TORSDOF 3
ENDMDL
MODEL 5
REMARK VINA RESULT:      -4.9      1.762      1.799
REMARK  3 active torsions:
REMARK  status: ('A' for Active; 'I' for Inactive)
REMARK    1  A    between atoms: C1_1  and  C5_5 
REMARK    2  A    between atoms: C2_2  and  C7_7 
REMARK    3  A    between atoms: C5_5  and  C6_6 
ROOT
HETATM    1  C1  UNL     1     -33.229   6.457   2.960  1.00 20.00    -0.029 C 
HETATM    2  C2  UNL     1     -34.469   6.388   3.469  1.00 20.00    -0.027 C 
ENDROOT
BRANCH   1   3
HETATM    3  C5  UNL     1     -32.847   7.343   1.809  1.00 20.00     0.042 C 
BRANCH   3   4
HETATM    4  C6  UNL     1     -31.886   8.456   2.215  1.00 20.00     0.118 C 
HETATM    5 CL8  UNL     1     -31.466   8.364   3.943  1.00 20.00    -0.130 Cl
ENDBRANCH   3   4
ENDBRANCH   1   3
BRANCH   2   6
HETATM    6  C7  UNL     1     -34.852   5.501   4.625  1.00 20.00    -0.001 C 
HETATM    7  C3  UNL     1     -34.373   6.112   5.942  1.00 20.00     0.013 C 
HETATM    8  C4  UNL     1     -34.262   4.104   4.435  1.00 20.00     0.013 C 
ENDBRANCH   2   6
TORSDOF 3
ENDMDL
MODEL 6
REMARK VINA RESULT:      -4.8      2.809      4.750
REMARK  3 active torsions:
REMARK  status: ('A' for Active; 'I' for Inactive)
REMARK    1  A    between atoms: C1_1  and  C5_5 
REMARK    2  A    between atoms: C2_2  and  C7_7 
REMARK    3  A    between atoms: C5_5  and  C6_6 
ROOT
HETATM    1  C1  UNL     1     -33.376   6.326   3.420  1.00 20.00    -0.029 C 
HETATM    2  C2  UNL     1     -32.953   6.992   2.335  1.00 20.00    -0.027 C 
ENDROOT
BRANCH   1   3
HETATM    3  C5  UNL     1     -33.964   4.945   3.377  1.00 20.00     0.042 C 
BRANCH   3   4
HETATM    4  C6  UNL     1     -34.543   4.508   4.719  1.00 20.00     0.118 C 
HETATM    5 CL8  UNL     1     -34.487   5.823   5.919  1.00 20.00    -0.130 Cl
ENDBRANCH   3   4
ENDBRANCH   1   3
BRANCH   2   6
HETATM    6  C7  UNL     1     -32.361   8.376   2.379  1.00 20.00    -0.001 C 
HETATM    7  C3  UNL     1     -31.718   8.720   1.036  1.00 20.00     0.013 C 
HETATM    8  C4  UNL     1     -31.335   8.474   3.507  1.00 20.00     0.013 C 
ENDBRANCH   2   6
TORSDOF 3
ENDMDL
MODEL 7
REMARK VINA RESULT:      -3.6     10.663     11.227
REMARK  3 active torsions:
REMARK  status: ('A' for Active; 'I' for Inactive)
REMARK    1  A    between atoms: C1_1  and  C5_5 
REMARK    2  A    between atoms: C2_2  and  C7_7 
REMARK    3  A    between atoms: C5_5  and  C6_6 
ROOT
HETATM    1  C1  UNL     1     -34.783  15.410  -3.495  1.00 20.00    -0.029 C 
HETATM    2  C2  UNL     1     -33.850  16.236  -2.998  1.00 20.00    -0.027 C 
ENDROOT
BRANCH   1   3
HETATM    3  C5  UNL     1     -34.472  14.226  -4.365  1.00 20.00     0.042 C 
BRANCH   3   4
HETATM    4  C6  UNL     1     -35.703  13.682  -5.083  1.00 20.00     0.118 C 
HETATM    5 CL8  UNL     1     -35.333  13.214  -6.761  1.00 20.00    -0.130 Cl
ENDBRANCH   3   4
ENDBRANCH   1   3
BRANCH   2   6
HETATM    6  C7  UNL     1     -34.163  17.423  -2.124  1.00 20.00    -0.001 C 
HETATM    7  C3  UNL     1     -32.898  17.905  -1.414  1.00 20.00     0.013 C 
HETATM    8  C4  UNL     1     -35.244  17.059  -1.109  1.00 20.00     0.013 C 
ENDBRANCH   2   6
TORSDOF 3
ENDMDL
MODEL 8
REMARK VINA RESULT:      -3.6     10.835     11.375
REMARK  3 active torsions:
REMARK  status: ('A' for Active; 'I' for Inactive)
REMARK    1  A    between atoms: C1_1  and  C5_5 
REMARK    2  A    between atoms: C2_2  and  C7_7 
REMARK    3  A    between atoms: C5_5  and  C6_6 
ROOT
HETATM    1  C1  UNL     1     -34.728  15.907  -3.066  1.00 20.00    -0.029 C 
HETATM    2  C2  UNL     1     -33.738  16.675  -2.588  1.00 20.00    -0.027 C 
ENDROOT
BRANCH   1   3
HETATM    3  C5  UNL     1     -34.513  14.756  -4.007  1.00 20.00     0.042 C 
BRANCH   3   4
HETATM    4  C6  UNL     1     -33.131  14.775  -4.655  1.00 20.00     0.118 C 
HETATM    5 CL8  UNL     1     -33.105  15.787  -6.120  1.00 20.00    -0.130 Cl
ENDBRANCH   3   4
ENDBRANCH   1   3
BRANCH   2   6
HETATM    6  C7  UNL     1     -33.954  17.827  -1.642  1.00 20.00    -0.001 C 
HETATM    7  C3  UNL     1     -32.625  18.259  -1.022  1.00 20.00     0.013 C 
HETATM    8  C4  UNL     1     -34.953  17.435  -0.554  1.00 20.00     0.013 C 
ENDBRANCH   2   6
TORSDOF 3
ENDMDL
MODEL 9
REMARK VINA RESULT:      -3.5     10.833     11.269
REMARK  3 active torsions:
REMARK  status: ('A' for Active; 'I' for Inactive)
REMARK    1  A    between atoms: C1_1  and  C5_5 
REMARK    2  A    between atoms: C2_2  and  C7_7 
REMARK    3  A    between atoms: C5_5  and  C6_6 
ROOT
HETATM    1  C1  UNL     1     -33.833  16.703  -2.510  1.00 20.00    -0.029 C 
HETATM    2  C2  UNL     1     -34.693  15.874  -3.122  1.00 20.00    -0.027 C 
ENDROOT
BRANCH   1   3
HETATM    3  C5  UNL     1     -34.119  17.388  -1.205  1.00 20.00     0.042 C 
BRANCH   3   4
HETATM    4  C6  UNL     1     -35.580  17.266  -0.783  1.00 20.00     0.118 C 
HETATM    5 CL8  UNL     1     -35.775  17.454   0.977  1.00 20.00    -0.130 Cl
ENDBRANCH   3   4
ENDBRANCH   1   3
BRANCH   2   6
HETATM    6  C7  UNL     1     -34.405  15.185  -4.431  1.00 20.00    -0.001 C 
HETATM    7  C3  UNL     1     -35.372  14.020  -4.639  1.00 20.00     0.013 C 
HETATM    8  C4  UNL     1     -32.958  14.695  -4.460  1.00 20.00     0.013 C 
ENDBRANCH   2   6
TORSDOF 3
ENDMDL
