MODEL 1
REMARK VINA RESULT:      -7.0      0.000      0.000
REMARK  3 active torsions:
REMARK  status: ('A' for Active; 'I' for Inactive)
REMARK    1  A    between atoms: C1_1  and  C10_10 
REMARK    2  A    between atoms: C8_8  and  C11_11 
REMARK    3  A    between atoms: C10_10  and  C11_11 
ROOT
HETATM    1  C2  UNL     1     -34.260   5.127   5.564  1.00 20.00     0.005 C 
HETATM    2  C3  UNL     1     -34.067   6.647   5.672  1.00 20.00     0.005 C 
HETATM    3  C4  UNL     1     -35.370   6.185   3.744  1.00 20.00     0.009 C 
HETATM    4  C5  UNL     1     -33.292   5.137   3.250  1.00 20.00     0.009 C 
HETATM    5  C6  UNL     1     -34.576   4.923   4.072  1.00 20.00    -0.014 C 
HETATM    6  C7  UNL     1     -34.257   7.122   4.219  1.00 20.00    -0.010 C 
HETATM    7  C8  UNL     1     -33.036   6.654   3.392  1.00 20.00    -0.010 C 
ENDROOT
BRANCH   7   8
HETATM    8  C11 UNL     1     -32.934   7.352   2.040  1.00 20.00     0.012 C 
BRANCH   8   9
HETATM    9  C10 UNL     1     -32.092   8.618   2.131  1.00 20.00     0.078 C 
BRANCH   9  10
HETATM   10  C1  UNL     1     -32.562   9.696   1.171  1.00 20.00     0.123 C 
HETATM   11  C9  UNL     1     -32.898   9.240  -0.225  1.00 20.00     0.091 C 
HETATM   12  O12 UNL     1     -32.669  10.878   1.495  1.00 20.00    -0.298 OA
ENDBRANCH   9  10
ENDBRANCH   8   9
ENDBRANCH   7   8
TORSDOF 3
ENDMDL
MODEL 2
REMARK VINA RESULT:      -7.0      0.919      1.008
REMARK  3 active torsions:
REMARK  status: ('A' for Active; 'I' for Inactive)
REMARK    1  A    between atoms: C1_1  and  C10_10 
REMARK    2  A    between atoms: C8_8  and  C11_11 
REMARK    3  A    between atoms: C10_10  and  C11_11 
ROOT
HETATM    1  C2  UNL     1     -34.436   4.989   5.699  1.00 20.00     0.005 C 
HETATM    2  C3  UNL     1     -34.169   6.498   5.804  1.00 20.00     0.005 C 
HETATM    3  C4  UNL     1     -35.395   6.083   3.816  1.00 20.00     0.009 C 
HETATM    4  C5  UNL     1     -33.351   4.925   3.438  1.00 20.00     0.009 C 
HETATM    5  C6  UNL     1     -34.685   4.786   4.195  1.00 20.00    -0.014 C 
HETATM    6  C7  UNL     1     -34.261   6.967   4.340  1.00 20.00    -0.010 C 
HETATM    7  C8  UNL     1     -33.025   6.428   3.581  1.00 20.00    -0.010 C 
ENDROOT
BRANCH   7   8
HETATM    8  C11 UNL     1     -32.818   7.105   2.230  1.00 20.00     0.012 C 
BRANCH   8   9
HETATM    9  C10 UNL     1     -32.005   8.386   2.370  1.00 20.00     0.078 C 
BRANCH   9  10
HETATM   10  C1  UNL     1     -32.134   9.289   1.156  1.00 20.00     0.123 C 
HETATM   11  C9  UNL     1     -32.774  10.632   1.392  1.00 20.00     0.091 C 
HETATM   12  O12 UNL     1     -31.745   8.960   0.036  1.00 20.00    -0.298 OA
ENDBRANCH   9  10
ENDBRANCH   8   9
ENDBRANCH   7   8
TORSDOF 3
ENDMDL
MODEL 3
REMARK VINA RESULT:      -5.9      0.905      1.755
REMARK  3 active torsions:
REMARK  status: ('A' for Active; 'I' for Inactive)
REMARK    1  A    between atoms: C1_1  and  C10_10 
REMARK    2  A    between atoms: C8_8  and  C11_11 
REMARK    3  A    between atoms: C10_10  and  C11_11 
ROOT
HETATM    1  C2  UNL     1     -35.212   5.761   4.180  1.00 20.00     0.005 C 
HETATM    2  C3  UNL     1     -35.113   6.199   2.711  1.00 20.00     0.005 C 
HETATM    3  C4  UNL     1     -33.009   5.336   3.386  1.00 20.00     0.009 C 
HETATM    4  C5  UNL     1     -33.279   7.242   4.783  1.00 20.00     0.009 C 
HETATM    5  C6  UNL     1     -33.746   5.782   4.647  1.00 20.00    -0.014 C 
HETATM    6  C7  UNL     1     -33.605   6.454   2.528  1.00 20.00    -0.010 C 
HETATM    7  C8  UNL     1     -33.230   7.731   3.318  1.00 20.00    -0.010 C 
ENDROOT
BRANCH   7   8
HETATM    8  C11 UNL     1     -31.860   8.281   2.938  1.00 20.00     0.012 C 
BRANCH   8   9
HETATM    9  C10 UNL     1     -31.716   8.417   1.427  1.00 20.00     0.078 C 
BRANCH   9  10
HETATM   10  C1  UNL     1     -32.495   9.598   0.875  1.00 20.00     0.123 C 
HETATM   11  C9  UNL     1     -33.164   9.387  -0.458  1.00 20.00     0.091 C 
HETATM   12  O12 UNL     1     -32.586  10.672   1.469  1.00 20.00    -0.298 OA
ENDBRANCH   9  10
ENDBRANCH   8   9
ENDBRANCH   7   8
TORSDOF 3
ENDMDL
MODEL 4
REMARK VINA RESULT:      -5.1      2.393      5.248
REMARK  3 active torsions:
REMARK  status: ('A' for Active; 'I' for Inactive)
REMARK    1  A    between atoms: C1_1  and  C10_10 
REMARK    2  A    between atoms: C8_8  and  C11_11 
REMARK    3  A    between atoms: C10_10  and  C11_11 
ROOT
HETATM    1  C2  UNL     1     -32.931  10.258   0.361  1.00 20.00     0.005 C 
HETATM    2  C3  UNL     1     -32.449  10.441   1.808  1.00 20.00     0.005 C 
HETATM    3  C4  UNL     1     -31.254   8.637   0.836  1.00 20.00     0.009 C 
HETATM    4  C5  UNL     1     -33.503   7.859   0.824  1.00 20.00     0.009 C 
HETATM    5  C6  UNL     1     -32.556   8.798   0.054  1.00 20.00    -0.014 C 
HETATM    6  C7  UNL     1     -31.892   9.051   2.165  1.00 20.00    -0.010 C 
HETATM    7  C8  UNL     1     -33.082   8.070   2.296  1.00 20.00    -0.010 C 
ENDROOT
BRANCH   7   8
HETATM    8  C11 UNL     1     -32.699   6.762   2.980  1.00 20.00     0.012 C 
BRANCH   8   9
HETATM    9  C10 UNL     1     -33.805   5.722   2.846  1.00 20.00     0.078 C 
BRANCH   9  10
HETATM   10  C1  UNL     1     -34.258   5.182   4.191  1.00 20.00     0.123 C 
HETATM   11  C9  UNL     1     -34.344   6.184   5.313  1.00 20.00     0.091 C 
HETATM   12  O12 UNL     1     -34.542   3.999   4.373  1.00 20.00    -0.298 OA
ENDBRANCH   9  10
ENDBRANCH   8   9
ENDBRANCH   7   8
TORSDOF 3
ENDMDL
MODEL 5
REMARK VINA RESULT:      -5.0     10.567     11.615
REMARK  3 active torsions:
REMARK  status: ('A' for Active; 'I' for Inactive)
REMARK    1  A    between atoms: C1_1  and  C10_10 
REMARK    2  A    between atoms: C8_8  and  C11_11 
REMARK    3  A    between atoms: C10_10  and  C11_11 
ROOT
HETATM    1  C2  UNL     1     -33.899  18.211  -0.243  1.00 20.00     0.005 C 
HETATM    2  C3  UNL     1     -32.683  18.116  -1.176  1.00 20.00     0.005 C 
HETATM    3  C4  UNL     1     -34.564  18.796  -2.452  1.00 20.00     0.009 C 
HETATM    4  C5  UNL     1     -35.180  16.624  -1.703  1.00 20.00     0.009 C 
HETATM    5  C6  UNL     1     -35.088  18.079  -1.210  1.00 20.00    -0.014 C 
HETATM    6  C7  UNL     1     -33.326  17.903  -2.560  1.00 20.00    -0.010 C 
HETATM    7  C8  UNL     1     -33.930  16.479  -2.599  1.00 20.00    -0.010 C 
ENDROOT
BRANCH   7   8
HETATM    8  C11 UNL     1     -34.281  16.023  -4.011  1.00 20.00     0.012 C 
BRANCH   8   9
HETATM    9  C10 UNL     1     -34.274  14.503  -4.121  1.00 20.00     0.078 C 
BRANCH   9  10
HETATM   10  C1  UNL     1     -35.562  13.960  -4.712  1.00 20.00     0.123 C 
HETATM   11  C9  UNL     1     -36.747  14.890  -4.688  1.00 20.00     0.091 C 
HETATM   12  O12 UNL     1     -35.653  12.828  -5.188  1.00 20.00    -0.298 OA
ENDBRANCH   9  10
ENDBRANCH   8   9
ENDBRANCH   7   8
TORSDOF 3
ENDMDL
MODEL 6
REMARK VINA RESULT:      -4.8     10.546     11.793
REMARK  3 active torsions:
REMARK  status: ('A' for Active; 'I' for Inactive)
REMARK    1  A    between atoms: C1_1  and  C10_10 
REMARK    2  A    between atoms: C8_8  and  C11_11 
REMARK    3  A    between atoms: C10_10  and  C11_11 
ROOT
HETATM    1  C2  UNL     1     -34.715  14.957  -6.178  1.00 20.00     0.005 C 
HETATM    2  C3  UNL     1     -33.494  15.879  -6.053  1.00 20.00     0.005 C 
HETATM    3  C4  UNL     1     -33.434  14.301  -4.282  1.00 20.00     0.009 C 
HETATM    4  C5  UNL     1     -35.424  15.528  -3.840  1.00 20.00     0.009 C 
HETATM    5  C6  UNL     1     -34.884  14.410  -4.750  1.00 20.00    -0.014 C 
HETATM    6  C7  UNL     1     -33.136  15.777  -4.558  1.00 20.00    -0.010 C 
HETATM    7  C8  UNL     1     -34.233  16.507  -3.746  1.00 20.00    -0.010 C 
ENDROOT
BRANCH   7   8
HETATM    8  C11 UNL     1     -33.820  16.778  -2.303  1.00 20.00     0.012 C 
BRANCH   8   9
HETATM    9  C10 UNL     1     -33.069  18.098  -2.179  1.00 20.00     0.078 C 
BRANCH   9  10
HETATM   10  C1  UNL     1     -32.485  18.303  -0.793  1.00 20.00     0.123 C 
HETATM   11  C9  UNL     1     -33.476  18.523   0.320  1.00 20.00     0.091 C 
HETATM   12  O12 UNL     1     -31.274  18.293  -0.572  1.00 20.00    -0.298 OA
ENDBRANCH   9  10
ENDBRANCH   8   9
ENDBRANCH   7   8
TORSDOF 3
ENDMDL
MODEL 7
REMARK VINA RESULT:      -4.7     10.799     11.662
REMARK  3 active torsions:
REMARK  status: ('A' for Active; 'I' for Inactive)
REMARK    1  A    between atoms: C1_1  and  C10_10 
REMARK    2  A    between atoms: C8_8  and  C11_11 
REMARK    3  A    between atoms: C10_10  and  C11_11 
ROOT
HETATM    1  C2  UNL     1     -34.978  13.730  -6.432  1.00 20.00     0.005 C 
HETATM    2  C3  UNL     1     -35.988  13.486  -5.300  1.00 20.00     0.005 C 
HETATM    3  C4  UNL     1     -35.904  15.814  -5.750  1.00 20.00     0.009 C 
HETATM    4  C5  UNL     1     -33.701  15.336  -4.988  1.00 20.00     0.009 C 
HETATM    5  C6  UNL     1     -34.591  15.206  -6.238  1.00 20.00    -0.014 C 
HETATM    6  C7  UNL     1     -36.025  14.843  -4.573  1.00 20.00    -0.010 C 
HETATM    7  C8  UNL     1     -34.680  15.033  -3.831  1.00 20.00    -0.010 C 
ENDROOT
BRANCH   7   8
HETATM    8  C11 UNL     1     -34.724  16.157  -2.802  1.00 20.00     0.012 C 
BRANCH   8   9
HETATM    9  C10 UNL     1     -33.446  16.986  -2.832  1.00 20.00     0.078 C 
BRANCH   9  10
HETATM   10  C1  UNL     1     -33.209  17.732  -1.531  1.00 20.00     0.123 C 
HETATM   11  C9  UNL     1     -34.353  17.735  -0.550  1.00 20.00     0.091 C 
HETATM   12  O12 UNL     1     -32.152  18.307  -1.274  1.00 20.00    -0.298 OA
ENDBRANCH   9  10
ENDBRANCH   8   9
ENDBRANCH   7   8
TORSDOF 3
ENDMDL
MODEL 8
REMARK VINA RESULT:      -4.7     10.631     11.758
REMARK  3 active torsions:
REMARK  status: ('A' for Active; 'I' for Inactive)
REMARK    1  A    between atoms: C1_1  and  C10_10 
REMARK    2  A    between atoms: C8_8  and  C11_11 
REMARK    3  A    between atoms: C10_10  and  C11_11 
ROOT
HETATM    1  C2  UNL     1     -33.739  18.902  -1.805  1.00 20.00     0.005 C 
HETATM    2  C3  UNL     1     -35.163  19.091  -2.346  1.00 20.00     0.005 C 
HETATM    3  C4  UNL     1     -35.097  17.089  -1.074  1.00 20.00     0.009 C 
HETATM    4  C5  UNL     1     -33.603  16.634  -2.868  1.00 20.00     0.009 C 
HETATM    5  C6  UNL     1     -33.670  17.390  -1.529  1.00 20.00    -0.014 C 
HETATM    6  C7  UNL     1     -35.723  17.656  -2.349  1.00 20.00    -0.010 C 
HETATM    7  C8  UNL     1     -35.009  16.860  -3.467  1.00 20.00    -0.010 C 
ENDROOT
BRANCH   7   8
HETATM    8  C11 UNL     1     -35.712  15.548  -3.802  1.00 20.00     0.012 C 
BRANCH   8   9
HETATM    9  C10 UNL     1     -34.711  14.466  -4.189  1.00 20.00     0.078 C 
BRANCH   9  10
HETATM   10  C1  UNL     1     -35.178  13.644  -5.377  1.00 20.00     0.123 C 
HETATM   11  C9  UNL     1     -34.595  14.021  -6.714  1.00 20.00     0.091 C 
HETATM   12  O12 UNL     1     -35.985  12.721  -5.274  1.00 20.00    -0.298 OA
ENDBRANCH   9  10
ENDBRANCH   8   9
ENDBRANCH   7   8
TORSDOF 3
ENDMDL
MODEL 9
REMARK VINA RESULT:      -4.6     10.583     11.778
REMARK  3 active torsions:
REMARK  status: ('A' for Active; 'I' for Inactive)
REMARK    1  A    between atoms: C1_1  and  C10_10 
REMARK    2  A    between atoms: C8_8  and  C11_11 
REMARK    3  A    between atoms: C10_10  and  C11_11 
ROOT
HETATM    1  C2  UNL     1     -34.773  18.680  -0.670  1.00 20.00     0.005 C 
HETATM    2  C3  UNL     1     -35.460  17.308  -0.597  1.00 20.00     0.005 C 
HETATM    3  C4  UNL     1     -33.538  17.121  -1.977  1.00 20.00     0.009 C 
HETATM    4  C5  UNL     1     -34.910  18.651  -3.174  1.00 20.00     0.009 C 
HETATM    5  C6  UNL     1     -33.954  18.590  -1.969  1.00 20.00    -0.014 C 
HETATM    6  C7  UNL     1     -34.980  16.615  -1.886  1.00 20.00    -0.010 C 
HETATM    7  C8  UNL     1     -35.663  17.304  -3.091  1.00 20.00    -0.010 C 
ENDROOT
BRANCH   7   8
HETATM    8  C11 UNL     1     -35.546  16.497  -4.380  1.00 20.00     0.012 C 
BRANCH   8   9
HETATM    9  C10 UNL     1     -36.165  15.113  -4.225  1.00 20.00     0.078 C 
BRANCH   9  10
HETATM   10  C1  UNL     1     -35.213  14.005  -4.642  1.00 20.00     0.123 C 
HETATM   11  C9  UNL     1     -33.745  14.289  -4.462  1.00 20.00     0.091 C 
HETATM   12  O12 UNL     1     -35.601  12.931  -5.102  1.00 20.00    -0.298 OA
ENDBRANCH   9  10
ENDBRANCH   8   9
ENDBRANCH   7   8
TORSDOF 3
ENDMDL
