MODEL 1
REMARK VINA RESULT:      -4.7      0.000      0.000
REMARK  4 active torsions:
REMARK  status: ('A' for Active; 'I' for Inactive)
REMARK    1  A    between atoms: C4_4  and  C6_6 
REMARK    2  A    between atoms: C4_4  and  C7_7 
REMARK    3  A    between atoms: C5_5  and  C6_6 
REMARK    4  A    between atoms: C5_5  and  O8_8 
ROOT
HETATM    1  C1  UNL     1     -31.394   8.323   3.791  1.00 20.00     0.012 C 
HETATM    2  C6  UNL     1     -32.428   7.469   3.055  1.00 20.00     0.007 C 
ENDROOT
BRANCH   2   3
HETATM    3  C4  UNL     1     -33.640   7.115   3.950  1.00 20.00     0.026 C 
BRANCH   3   4
HETATM    4  C7  UNL     1     -34.294   5.750   3.689  1.00 20.00     0.078 C 
HETATM    5  C2  UNL     1     -34.645   5.054   5.000  1.00 20.00     0.026 C 
HETATM    6 CL9  UNL     1     -33.210   4.686   2.744  1.00 20.00    -0.125 Cl
ENDBRANCH   3   4
ENDBRANCH   2   3
BRANCH   2   7
HETATM    7  C5  UNL     1     -32.891   8.206   1.789  1.00 20.00     0.171 C 
BRANCH   7   8
HETATM    8  O8  UNL     1     -31.951   9.214   1.441  1.00 20.00    -0.396 OA
HETATM    9  C3  UNL     1     -32.592  10.362   0.901  1.00 20.00     0.201 C 
ENDBRANCH   7   8
ENDBRANCH   2   7
TORSDOF 4
ENDMDL
MODEL 2
REMARK VINA RESULT:      -4.7      1.915      2.383
REMARK  4 active torsions:
REMARK  status: ('A' for Active; 'I' for Inactive)
REMARK    1  A    between atoms: C4_4  and  C6_6 
REMARK    2  A    between atoms: C4_4  and  C7_7 
REMARK    3  A    between atoms: C5_5  and  C6_6 
REMARK    4  A    between atoms: C5_5  and  O8_8 
ROOT
HETATM    1  C1  UNL     1     -32.986   4.751   2.499  1.00 20.00     0.012 C 
HETATM    2  C6  UNL     1     -33.550   6.171   2.563  1.00 20.00     0.007 C 
ENDROOT
BRANCH   2   3
HETATM    3  C4  UNL     1     -34.508   6.368   3.762  1.00 20.00     0.026 C 
BRANCH   3   4
HETATM    4  C7  UNL     1     -33.929   6.043   5.147  1.00 20.00     0.078 C 
HETATM    5  C2  UNL     1     -34.746   4.956   5.838  1.00 20.00     0.026 C 
HETATM    6 CL9  UNL     1     -33.902   7.495   6.191  1.00 20.00    -0.125 Cl
ENDBRANCH   3   4
ENDBRANCH   2   3
BRANCH   2   7
HETATM    7  C5  UNL     1     -32.391   7.178   2.629  1.00 20.00     0.171 C 
BRANCH   7   8
HETATM    8  O8  UNL     1     -32.827   8.452   2.174  1.00 20.00    -0.396 OA
HETATM    9  C3  UNL     1     -31.973   8.963   1.158  1.00 20.00     0.201 C 
ENDBRANCH   7   8
ENDBRANCH   2   7
TORSDOF 4
ENDMDL
MODEL 3
REMARK VINA RESULT:      -4.6      2.875      4.362
REMARK  4 active torsions:
REMARK  status: ('A' for Active; 'I' for Inactive)
REMARK    1  A    between atoms: C4_4  and  C6_6 
REMARK    2  A    between atoms: C4_4  and  C7_7 
REMARK    3  A    between atoms: C5_5  and  C6_6 
REMARK    4  A    between atoms: C5_5  and  O8_8 
ROOT
HETATM    1  C1  UNL     1     -33.054   4.833   2.580  1.00 20.00     0.012 C 
HETATM    2  C6  UNL     1     -33.461   6.103   3.329  1.00 20.00     0.007 C 
ENDROOT
BRANCH   2   3
HETATM    3  C4  UNL     1     -33.483   7.345   2.407  1.00 20.00     0.026 C 
BRANCH   3   4
HETATM    4  C7  UNL     1     -32.133   8.048   2.192  1.00 20.00     0.078 C 
HETATM    5  C2  UNL     1     -31.443   8.320   3.525  1.00 20.00     0.026 C 
HETATM    6 CL9  UNL     1     -32.345   9.598   1.326  1.00 20.00    -0.125 Cl
ENDBRANCH   3   4
ENDBRANCH   2   3
BRANCH   2   7
HETATM    7  C5  UNL     1     -34.838   5.892   3.980  1.00 20.00     0.171 C 
BRANCH   7   8
HETATM    8  O8  UNL     1     -34.703   5.828   5.393  1.00 20.00    -0.396 OA
HETATM    9  C3  UNL     1     -33.969   6.936   5.898  1.00 20.00     0.201 C 
ENDBRANCH   7   8
ENDBRANCH   2   7
TORSDOF 4
ENDMDL
MODEL 4
REMARK VINA RESULT:      -4.5      1.687      1.725
REMARK  4 active torsions:
REMARK  status: ('A' for Active; 'I' for Inactive)
REMARK    1  A    between atoms: C4_4  and  C6_6 
REMARK    2  A    between atoms: C4_4  and  C7_7 
REMARK    3  A    between atoms: C5_5  and  C6_6 
REMARK    4  A    between atoms: C5_5  and  O8_8 
ROOT
HETATM    1  C1  UNL     1     -31.324   8.134   3.604  1.00 20.00     0.012 C 
HETATM    2  C6  UNL     1     -32.431   7.967   2.562  1.00 20.00     0.007 C 
ENDROOT
BRANCH   2   3
HETATM    3  C4  UNL     1     -33.790   7.600   3.205  1.00 20.00     0.026 C 
BRANCH   3   4
HETATM    4  C7  UNL     1     -33.746   6.540   4.316  1.00 20.00     0.078 C 
HETATM    5  C2  UNL     1     -34.911   5.564   4.185  1.00 20.00     0.026 C 
HETATM    6 CL9  UNL     1     -33.810   7.300   5.934  1.00 20.00    -0.125 Cl
ENDBRANCH   3   4
ENDBRANCH   2   3
BRANCH   2   7
HETATM    7  C5  UNL     1     -32.556   9.259   1.739  1.00 20.00     0.171 C 
BRANCH   7   8
HETATM    8  O8  UNL     1     -32.087   9.040   0.416  1.00 20.00    -0.396 OA
HETATM    9  C3  UNL     1     -33.091   9.332  -0.548  1.00 20.00     0.201 C 
ENDBRANCH   7   8
ENDBRANCH   2   7
TORSDOF 4
ENDMDL
MODEL 5
REMARK VINA RESULT:      -4.5      2.482      4.450
REMARK  4 active torsions:
REMARK  status: ('A' for Active; 'I' for Inactive)
REMARK    1  A    between atoms: C4_4  and  C6_6 
REMARK    2  A    between atoms: C4_4  and  C7_7 
REMARK    3  A    between atoms: C5_5  and  C6_6 
REMARK    4  A    between atoms: C5_5  and  O8_8 
ROOT
HETATM    1  C1  UNL     1     -31.429   8.302   3.878  1.00 20.00     0.012 C 
HETATM    2  C6  UNL     1     -32.430   8.185   2.727  1.00 20.00     0.007 C 
ENDROOT
BRANCH   2   3
HETATM    3  C4  UNL     1     -31.753   8.340   1.344  1.00 20.00     0.026 C 
BRANCH   3   4
HETATM    4  C7  UNL     1     -32.105   9.615   0.562  1.00 20.00     0.078 C 
HETATM    5  C2  UNL     1     -32.728  10.663   1.479  1.00 20.00     0.026 C 
HETATM    6 CL9  UNL     1     -33.248   9.260  -0.767  1.00 20.00    -0.125 Cl
ENDBRANCH   3   4
ENDBRANCH   2   3
BRANCH   2   7
HETATM    7  C5  UNL     1     -33.160   6.836   2.821  1.00 20.00     0.171 C 
BRANCH   7   8
HETATM    8  O8  UNL     1     -33.983   6.807   3.979  1.00 20.00    -0.396 OA
HETATM    9  C3  UNL     1     -34.903   5.723   3.938  1.00 20.00     0.201 C 
ENDBRANCH   7   8
ENDBRANCH   2   7
TORSDOF 4
ENDMDL
MODEL 6
REMARK VINA RESULT:      -4.4      2.831      4.654
REMARK  4 active torsions:
REMARK  status: ('A' for Active; 'I' for Inactive)
REMARK    1  A    between atoms: C4_4  and  C6_6 
REMARK    2  A    between atoms: C4_4  and  C7_7 
REMARK    3  A    between atoms: C5_5  and  C6_6 
REMARK    4  A    between atoms: C5_5  and  O8_8 
ROOT
HETATM    1  C1  UNL     1     -33.243   7.559   5.060  1.00 20.00     0.012 C 
HETATM    2  C6  UNL     1     -33.370   7.484   3.538  1.00 20.00     0.007 C 
ENDROOT
BRANCH   2   3
HETATM    3  C4  UNL     1     -32.175   8.153   2.817  1.00 20.00     0.026 C 
BRANCH   3   4
HETATM    4  C7  UNL     1     -32.482   8.787   1.452  1.00 20.00     0.078 C 
HETATM    5  C2  UNL     1     -31.318   8.589   0.485  1.00 20.00     0.026 C 
HETATM    6 CL9  UNL     1     -32.804  10.539   1.612  1.00 20.00    -0.125 Cl
ENDBRANCH   3   4
ENDBRANCH   2   3
BRANCH   2   7
HETATM    7  C5  UNL     1     -33.502   6.014   3.108  1.00 20.00     0.171 C 
BRANCH   7   8
HETATM    8  O8  UNL     1     -34.652   5.434   3.710  1.00 20.00    -0.396 OA
HETATM    9  C3  UNL     1     -34.332   4.222   4.382  1.00 20.00     0.201 C 
ENDBRANCH   7   8
ENDBRANCH   2   7
TORSDOF 4
ENDMDL
MODEL 7
REMARK VINA RESULT:      -4.3      2.827      4.714
REMARK  4 active torsions:
REMARK  status: ('A' for Active; 'I' for Inactive)
REMARK    1  A    between atoms: C4_4  and  C6_6 
REMARK    2  A    between atoms: C4_4  and  C7_7 
REMARK    3  A    between atoms: C5_5  and  C6_6 
REMARK    4  A    between atoms: C5_5  and  O8_8 
ROOT
HETATM    1  C1  UNL     1     -33.532   6.402   2.350  1.00 20.00     0.012 C 
HETATM    2  C6  UNL     1     -32.625   7.064   3.388  1.00 20.00     0.007 C 
ENDROOT
BRANCH   2   3
HETATM    3  C4  UNL     1     -32.044   8.407   2.888  1.00 20.00     0.026 C 
BRANCH   3   4
HETATM    4  C7  UNL     1     -32.447   8.827   1.466  1.00 20.00     0.078 C 
HETATM    5  C2  UNL     1     -31.292   8.623   0.490  1.00 20.00     0.026 C 
HETATM    6 CL9  UNL     1     -32.944  10.545   1.417  1.00 20.00    -0.125 Cl
ENDBRANCH   3   4
ENDBRANCH   2   3
BRANCH   2   7
HETATM    7  C5  UNL     1     -33.410   7.270   4.694  1.00 20.00     0.171 C 
BRANCH   7   8
HETATM    8  O8  UNL     1     -34.568   6.447   4.701  1.00 20.00    -0.396 OA
HETATM    9  C3  UNL     1     -34.515   5.482   5.744  1.00 20.00     0.201 C 
ENDBRANCH   7   8
ENDBRANCH   2   7
TORSDOF 4
ENDMDL
MODEL 8
REMARK VINA RESULT:      -3.6     10.825     11.375
REMARK  4 active torsions:
REMARK  status: ('A' for Active; 'I' for Inactive)
REMARK    1  A    between atoms: C4_4  and  C6_6 
REMARK    2  A    between atoms: C4_4  and  C7_7 
REMARK    3  A    between atoms: C5_5  and  C6_6 
REMARK    4  A    between atoms: C5_5  and  O8_8 
ROOT
HETATM    1  C1  UNL     1     -33.098  14.461  -4.502  1.00 20.00     0.012 C 
HETATM    2  C6  UNL     1     -34.546  14.459  -4.010  1.00 20.00     0.007 C 
ENDROOT
BRANCH   2   3
HETATM    3  C4  UNL     1     -34.914  15.766  -3.268  1.00 20.00     0.026 C 
BRANCH   3   4
HETATM    4  C7  UNL     1     -33.737  16.668  -2.867  1.00 20.00     0.078 C 
HETATM    5  C2  UNL     1     -33.945  17.248  -1.471  1.00 20.00     0.026 C 
HETATM    6 CL9  UNL     1     -33.534  18.016  -4.026  1.00 20.00    -0.125 Cl
ENDBRANCH   3   4
ENDBRANCH   2   3
BRANCH   2   7
HETATM    7  C5  UNL     1     -35.490  14.233  -5.202  1.00 20.00     0.171 C 
BRANCH   7   8
HETATM    8  O8  UNL     1     -35.315  12.920  -5.718  1.00 20.00    -0.396 OA
HETATM    9  C3  UNL     1     -35.214  12.926  -7.136  1.00 20.00     0.201 C 
ENDBRANCH   7   8
ENDBRANCH   2   7
TORSDOF 4
ENDMDL
MODEL 9
REMARK VINA RESULT:      -3.6     10.863     11.534
REMARK  4 active torsions:
REMARK  status: ('A' for Active; 'I' for Inactive)
REMARK    1  A    between atoms: C4_4  and  C6_6 
REMARK    2  A    between atoms: C4_4  and  C7_7 
REMARK    3  A    between atoms: C5_5  and  C6_6 
REMARK    4  A    between atoms: C5_5  and  O8_8 
ROOT
HETATM    1  C1  UNL     1     -34.965  16.956  -1.346  1.00 20.00     0.012 C 
HETATM    2  C6  UNL     1     -33.640  17.094  -2.098  1.00 20.00     0.007 C 
ENDROOT
BRANCH   2   3
HETATM    3  C4  UNL     1     -33.815  16.936  -3.627  1.00 20.00     0.026 C 
BRANCH   3   4
HETATM    4  C7  UNL     1     -33.365  15.593  -4.222  1.00 20.00     0.078 C 
HETATM    5  C2  UNL     1     -33.095  15.722  -5.718  1.00 20.00     0.026 C 
HETATM    6 CL9  UNL     1     -34.605  14.329  -3.968  1.00 20.00    -0.125 Cl
ENDBRANCH   3   4
ENDBRANCH   2   3
BRANCH   2   7
HETATM    7  C5  UNL     1     -33.005  18.454  -1.767  1.00 20.00     0.171 C 
BRANCH   7   8
HETATM    8  O8  UNL     1     -31.859  18.269  -0.946  1.00 20.00    -0.396 OA
HETATM    9  C3  UNL     1     -32.046  18.833   0.345  1.00 20.00     0.201 C 
ENDBRANCH   7   8
ENDBRANCH   2   7
TORSDOF 4
ENDMDL
