MODEL 1
REMARK VINA RESULT:      -4.2      0.000      0.000
REMARK  4 active torsions:
REMARK  status: ('A' for Active; 'I' for Inactive)
REMARK    1  A    between atoms: C6_6  and  C7_7 
REMARK    2  A    between atoms: C6_6  and  O10_10 
REMARK    3  A    between atoms: C7_7  and  C8_8 
REMARK    4  A    between atoms: C7_7  and  O9_9 
ROOT
HETATM    1  C7  UNL     1     -33.473   6.364   2.896  1.00 20.00     0.154 C 
ENDROOT
BRANCH   1   2
HETATM    2  C6  UNL     1     -32.970   7.823   2.962  1.00 20.00     0.146 C 
HETATM    3  C1  UNL     1     -31.522   7.928   3.435  1.00 20.00     0.042 C 
BRANCH   2   4
HETATM    4  O10 UNL     1     -33.057   8.455   1.690  1.00 20.00    -0.388 OA
HETATM    5  C5  UNL     1     -31.771   8.797   1.190  1.00 20.00     0.202 C 
ENDBRANCH   2   4
ENDBRANCH   1   2
BRANCH   1   6
HETATM    6  C8  UNL     1     -34.376   5.868   4.072  1.00 20.00    -0.023 C 
HETATM    7  C2  UNL     1     -35.856   6.106   3.688  1.00 20.00     0.017 C 
HETATM    8  C3  UNL     1     -34.186   4.359   4.312  1.00 20.00     0.017 C 
HETATM    9  C4  UNL     1     -34.116   6.618   5.393  1.00 20.00     0.017 C 
ENDBRANCH   1   6
BRANCH   1  10
HETATM   10  O9  UNL     1     -32.350   5.482   2.797  1.00 20.00    -0.392 OA
HETATM   11  H28 UNL     1     -32.479   4.803   3.475  1.00 20.00     0.210 HD
ENDBRANCH   1  10
TORSDOF 4
ENDMDL
MODEL 2
REMARK VINA RESULT:      -3.9     10.965     12.100
REMARK  4 active torsions:
REMARK  status: ('A' for Active; 'I' for Inactive)
REMARK    1  A    between atoms: C6_6  and  C7_7 
REMARK    2  A    between atoms: C6_6  and  O10_10 
REMARK    3  A    between atoms: C7_7  and  C8_8 
REMARK    4  A    between atoms: C7_7  and  O9_9 
ROOT
HETATM    1  C7  UNL     1     -35.294  14.559  -4.192  1.00 20.00     0.154 C 
ENDROOT
BRANCH   1   2
HETATM    2  C6  UNL     1     -36.219  14.289  -5.397  1.00 20.00     0.146 C 
HETATM    3  C1  UNL     1     -35.601  13.332  -6.414  1.00 20.00     0.042 C 
BRANCH   2   4
HETATM    4  O10 UNL     1     -37.461  13.734  -4.979  1.00 20.00    -0.388 OA
HETATM    5  C5  UNL     1     -38.506  14.696  -5.035  1.00 20.00     0.202 C 
ENDBRANCH   2   4
ENDBRANCH   1   2
BRANCH   1   6
HETATM    6  C8  UNL     1     -34.526  15.922  -4.173  1.00 20.00    -0.023 C 
HETATM    7  C2  UNL     1     -33.167  15.730  -4.887  1.00 20.00     0.017 C 
HETATM    8  C3  UNL     1     -35.313  17.006  -4.934  1.00 20.00     0.017 C 
HETATM    9  C4  UNL     1     -34.231  16.430  -2.749  1.00 20.00     0.017 C 
ENDBRANCH   1   6
BRANCH   1  10
HETATM   10  O9  UNL     1     -34.329  13.506  -4.092  1.00 20.00    -0.392 OA
HETATM   11  H28 UNL     1     -34.204  13.168  -4.990  1.00 20.00     0.210 HD
ENDBRANCH   1  10
TORSDOF 4
ENDMDL
MODEL 3
REMARK VINA RESULT:      -3.8     11.125     12.300
REMARK  4 active torsions:
REMARK  status: ('A' for Active; 'I' for Inactive)
REMARK    1  A    between atoms: C6_6  and  C7_7 
REMARK    2  A    between atoms: C6_6  and  O10_10 
REMARK    3  A    between atoms: C7_7  and  C8_8 
REMARK    4  A    between atoms: C7_7  and  O9_9 
ROOT
HETATM    1  C7  UNL     1     -35.196  15.161  -5.489  1.00 20.00     0.154 C 
ENDROOT
BRANCH   1   2
HETATM    2  C6  UNL     1     -36.043  13.941  -5.069  1.00 20.00     0.146 C 
HETATM    3  C1  UNL     1     -37.536  14.143  -5.319  1.00 20.00     0.042 C 
BRANCH   2   4
HETATM    4  O10 UNL     1     -35.642  12.769  -5.770  1.00 20.00    -0.388 OA
HETATM    5  C5  UNL     1     -35.177  13.078  -7.077  1.00 20.00     0.202 C 
ENDBRANCH   2   4
ENDBRANCH   1   2
BRANCH   1   6
HETATM    6  C8  UNL     1     -34.070  15.620  -4.506  1.00 20.00    -0.023 C 
HETATM    7  C2  UNL     1     -33.431  16.915  -5.062  1.00 20.00     0.017 C 
HETATM    8  C3  UNL     1     -34.650  15.936  -3.115  1.00 20.00     0.017 C 
HETATM    9  C4  UNL     1     -32.943  14.581  -4.351  1.00 20.00     0.017 C 
ENDBRANCH   1   6
BRANCH   1  10
HETATM   10  O9  UNL     1     -36.061  16.277  -5.725  1.00 20.00    -0.392 OA
HETATM   11  H28 UNL     1     -36.922  16.035  -5.355  1.00 20.00     0.210 HD
ENDBRANCH   1  10
TORSDOF 4
ENDMDL
MODEL 4
REMARK VINA RESULT:      -3.8     10.974     12.201
REMARK  4 active torsions:
REMARK  status: ('A' for Active; 'I' for Inactive)
REMARK    1  A    between atoms: C6_6  and  C7_7 
REMARK    2  A    between atoms: C6_6  and  O10_10 
REMARK    3  A    between atoms: C7_7  and  C8_8 
REMARK    4  A    between atoms: C7_7  and  O9_9 
ROOT
HETATM    1  C7  UNL     1     -34.868  13.934  -5.311  1.00 20.00     0.154 C 
ENDROOT
BRANCH   1   2
HETATM    2  C6  UNL     1     -36.251  14.448  -5.764  1.00 20.00     0.146 C 
HETATM    3  C1  UNL     1     -36.511  14.210  -7.250  1.00 20.00     0.042 C 
BRANCH   2   4
HETATM    4  O10 UNL     1     -37.299  13.818  -5.036  1.00 20.00    -0.388 OA
HETATM    5  C5  UNL     1     -38.489  14.596  -5.058  1.00 20.00     0.202 C 
ENDBRANCH   2   4
ENDBRANCH   1   2
BRANCH   1   6
HETATM    6  C8  UNL     1     -33.909  14.970  -4.636  1.00 20.00    -0.023 C 
HETATM    7  C2  UNL     1     -32.641  14.225  -4.157  1.00 20.00     0.017 C 
HETATM    8  C3  UNL     1     -33.473  16.051  -5.642  1.00 20.00     0.017 C 
HETATM    9  C4  UNL     1     -34.532  15.658  -3.406  1.00 20.00     0.017 C 
ENDBRANCH   1   6
BRANCH   1  10
HETATM   10  O9  UNL     1     -34.186  13.363  -6.431  1.00 20.00    -0.392 OA
HETATM   11  H28 UNL     1     -34.159  12.408  -6.274  1.00 20.00     0.210 HD
ENDBRANCH   1  10
TORSDOF 4
ENDMDL
MODEL 5
REMARK VINA RESULT:      -3.7      1.500      2.060
REMARK  4 active torsions:
REMARK  status: ('A' for Active; 'I' for Inactive)
REMARK    1  A    between atoms: C6_6  and  C7_7 
REMARK    2  A    between atoms: C6_6  and  O10_10 
REMARK    3  A    between atoms: C7_7  and  C8_8 
REMARK    4  A    between atoms: C7_7  and  O9_9 
ROOT
HETATM    1  C7  UNL     1     -33.280   6.764   4.619  1.00 20.00     0.154 C 
ENDROOT
BRANCH   1   2
HETATM    2  C6  UNL     1     -32.893   7.905   3.653  1.00 20.00     0.146 C 
HETATM    3  C1  UNL     1     -31.473   8.417   3.883  1.00 20.00     0.042 C 
BRANCH   2   4
HETATM    4  O10 UNL     1     -32.988   7.486   2.296  1.00 20.00    -0.388 OA
HETATM    5  C5  UNL     1     -32.408   8.439   1.416  1.00 20.00     0.202 C 
ENDBRANCH   2   4
ENDBRANCH   1   2
BRANCH   1   6
HETATM    6  C8  UNL     1     -34.170   5.613   4.042  1.00 20.00    -0.023 C 
HETATM    7  C2  UNL     1     -34.509   4.634   5.191  1.00 20.00     0.017 C 
HETATM    8  C3  UNL     1     -35.494   6.169   3.486  1.00 20.00     0.017 C 
HETATM    9  C4  UNL     1     -33.467   4.802   2.937  1.00 20.00     0.017 C 
ENDBRANCH   1   6
BRANCH   1  10
HETATM   10  O9  UNL     1     -33.950   7.315   5.757  1.00 20.00    -0.392 OA
HETATM   11  H28 UNL     1     -33.322   7.264   6.491  1.00 20.00     0.210 HD
ENDBRANCH   1  10
TORSDOF 4
ENDMDL
MODEL 6
REMARK VINA RESULT:      -3.6      1.509      1.890
REMARK  4 active torsions:
REMARK  status: ('A' for Active; 'I' for Inactive)
REMARK    1  A    between atoms: C6_6  and  C7_7 
REMARK    2  A    between atoms: C6_6  and  O10_10 
REMARK    3  A    between atoms: C7_7  and  C8_8 
REMARK    4  A    between atoms: C7_7  and  O9_9 
ROOT
HETATM    1  C7  UNL     1     -33.262   6.761   4.644  1.00 20.00     0.154 C 
ENDROOT
BRANCH   1   2
HETATM    2  C6  UNL     1     -32.900   7.893   3.658  1.00 20.00     0.146 C 
HETATM    3  C1  UNL     1     -31.506   8.464   3.901  1.00 20.00     0.042 C 
BRANCH   2   4
HETATM    4  O10 UNL     1     -32.953   7.438   2.310  1.00 20.00    -0.388 OA
HETATM    5  C5  UNL     1     -32.396   8.393   1.417  1.00 20.00     0.202 C 
ENDBRANCH   2   4
ENDBRANCH   1   2
BRANCH   1   6
HETATM    6  C8  UNL     1     -34.208   5.632   4.118  1.00 20.00    -0.023 C 
HETATM    7  C2  UNL     1     -33.467   4.851   3.007  1.00 20.00     0.017 C 
HETATM    8  C3  UNL     1     -34.557   4.640   5.243  1.00 20.00     0.017 C 
HETATM    9  C4  UNL     1     -35.515   6.174   3.508  1.00 20.00     0.017 C 
ENDBRANCH   1   6
BRANCH   1  10
HETATM   10  O9  UNL     1     -33.857   7.328   5.816  1.00 20.00    -0.392 OA
HETATM   11  H28 UNL     1     -33.231   7.989   6.144  1.00 20.00     0.210 HD
ENDBRANCH   1  10
TORSDOF 4
ENDMDL
MODEL 7
REMARK VINA RESULT:      -3.6      1.567      4.347
REMARK  4 active torsions:
REMARK  status: ('A' for Active; 'I' for Inactive)
REMARK    1  A    between atoms: C6_6  and  C7_7 
REMARK    2  A    between atoms: C6_6  and  O10_10 
REMARK    3  A    between atoms: C7_7  and  C8_8 
REMARK    4  A    between atoms: C7_7  and  O9_9 
ROOT
HETATM    1  C7  UNL     1     -32.635   8.443   2.601  1.00 20.00     0.154 C 
ENDROOT
BRANCH   1   2
HETATM    2  C6  UNL     1     -33.532   7.189   2.681  1.00 20.00     0.146 C 
HETATM    3  C1  UNL     1     -32.735   5.889   2.605  1.00 20.00     0.042 C 
BRANCH   2   4
HETATM    4  O10 UNL     1     -34.280   7.167   3.892  1.00 20.00    -0.388 OA
HETATM    5  C5  UNL     1     -34.757   5.861   4.185  1.00 20.00     0.202 C 
ENDBRANCH   2   4
ENDBRANCH   1   2
BRANCH   1   6
HETATM    6  C8  UNL     1     -32.422   9.077   1.187  1.00 20.00    -0.023 C 
HETATM    7  C2  UNL     1     -32.511  10.616   1.321  1.00 20.00     0.017 C 
HETATM    8  C3  UNL     1     -31.027   8.729   0.634  1.00 20.00     0.017 C 
HETATM    9  C4  UNL     1     -33.486   8.641   0.162  1.00 20.00     0.017 C 
ENDBRANCH   1   6
BRANCH   1  10
HETATM   10  O9  UNL     1     -31.349   8.141   3.150  1.00 20.00    -0.392 OA
HETATM   11  H28 UNL     1     -31.157   8.840   3.791  1.00 20.00     0.210 HD
ENDBRANCH   1  10
TORSDOF 4
ENDMDL
MODEL 8
REMARK VINA RESULT:      -3.5     11.099     12.400
REMARK  4 active torsions:
REMARK  status: ('A' for Active; 'I' for Inactive)
REMARK    1  A    between atoms: C6_6  and  C7_7 
REMARK    2  A    between atoms: C6_6  and  O10_10 
REMARK    3  A    between atoms: C7_7  and  C8_8 
REMARK    4  A    between atoms: C7_7  and  O9_9 
ROOT
HETATM    1  C7  UNL     1     -33.931  14.877  -5.666  1.00 20.00     0.154 C 
ENDROOT
BRANCH   1   2
HETATM    2  C6  UNL     1     -34.126  16.148  -4.812  1.00 20.00     0.146 C 
HETATM    3  C1  UNL     1     -33.820  15.918  -3.333  1.00 20.00     0.042 C 
BRANCH   2   4
HETATM    4  O10 UNL     1     -33.291  17.207  -5.266  1.00 20.00    -0.388 OA
HETATM    5  C5  UNL     1     -33.488  18.389  -4.501  1.00 20.00     0.202 C 
ENDBRANCH   2   4
ENDBRANCH   1   2
BRANCH   1   6
HETATM    6  C8  UNL     1     -35.217  14.213  -6.260  1.00 20.00    -0.023 C 
HETATM    7  C2  UNL     1     -35.940  13.445  -5.128  1.00 20.00     0.017 C 
HETATM    8  C3  UNL     1     -36.186  15.281  -6.801  1.00 20.00     0.017 C 
HETATM    9  C4  UNL     1     -34.913  13.203  -7.382  1.00 20.00     0.017 C 
ENDBRANCH   1   6
BRANCH   1  10
HETATM   10  O9  UNL     1     -33.239  13.890  -4.895  1.00 20.00    -0.392 OA
HETATM   11  H28 UNL     1     -33.373  14.129  -3.967  1.00 20.00     0.210 HD
ENDBRANCH   1  10
TORSDOF 4
ENDMDL
MODEL 9
REMARK VINA RESULT:      -3.5     11.279     12.283
REMARK  4 active torsions:
REMARK  status: ('A' for Active; 'I' for Inactive)
REMARK    1  A    between atoms: C6_6  and  C7_7 
REMARK    2  A    between atoms: C6_6  and  O10_10 
REMARK    3  A    between atoms: C7_7  and  C8_8 
REMARK    4  A    between atoms: C7_7  and  O9_9 
ROOT
HETATM    1  C7  UNL     1     -35.658  14.231  -4.839  1.00 20.00     0.154 C 
ENDROOT
BRANCH   1   2
HETATM    2  C6  UNL     1     -36.911  15.133  -4.865  1.00 20.00     0.146 C 
HETATM    3  C1  UNL     1     -38.178  14.373  -5.247  1.00 20.00     0.042 C 
BRANCH   2   4
HETATM    4  O10 UNL     1     -37.135  15.740  -3.598  1.00 20.00    -0.388 OA
HETATM    5  C5  UNL     1     -35.958  16.363  -3.103  1.00 20.00     0.202 C 
ENDBRANCH   2   4
ENDBRANCH   1   2
BRANCH   1   6
HETATM    6  C8  UNL     1     -34.518  14.565  -5.856  1.00 20.00    -0.023 C 
HETATM    7  C2  UNL     1     -33.171  14.579  -5.096  1.00 20.00     0.017 C 
HETATM    8  C3  UNL     1     -34.430  13.490  -6.955  1.00 20.00     0.017 C 
HETATM    9  C4  UNL     1     -34.686  15.944  -6.522  1.00 20.00     0.017 C 
ENDBRANCH   1   6
BRANCH   1  10
HETATM   10  O9  UNL     1     -36.052  12.871  -5.045  1.00 20.00    -0.392 OA
HETATM   11  H28 UNL     1     -35.357  12.325  -4.649  1.00 20.00     0.210 HD
ENDBRANCH   1  10
TORSDOF 4
ENDMDL
