MODEL 1
REMARK VINA RESULT:      -4.7      0.000      0.000
REMARK  2 active torsions:
REMARK  status: ('A' for Active; 'I' for Inactive)
REMARK    1  A    between atoms: C3_3  and  C4_4 
REMARK    2  A    between atoms: C3_3  and  S9_9 
ROOT
HETATM    1  C1  UNL     1     -33.709   7.216   4.988  1.00 20.00     0.083 C 
HETATM    2  C3  UNL     1     -33.545   7.245   3.527  1.00 20.00     0.261 C 
HETATM    3  N5  UNL     1     -33.838   7.197   6.141  1.00 20.00    -0.196 NA
ENDROOT
BRANCH   2   4
HETATM    4  C4  UNL     1     -33.730   5.861   2.929  1.00 20.00     0.412 C 
HETATM    5  F6  UNL     1     -34.407   5.048   3.772  1.00 20.00    -0.169 F 
HETATM    6  F7  UNL     1     -34.447   5.925   1.783  1.00 20.00    -0.169 F 
HETATM    7  F8  UNL     1     -32.552   5.267   2.641  1.00 20.00    -0.169 F 
ENDBRANCH   2   4
BRANCH   2   8
HETATM    8  S9  UNL     1     -31.907   7.909   3.069  1.00 20.00    -0.145 SA
HETATM    9  C2  UNL     1     -32.405   8.808   1.585  1.00 20.00     0.091 C 
ENDBRANCH   2   8
TORSDOF 2
ENDMDL
MODEL 2
REMARK VINA RESULT:      -4.3      1.463      1.646
REMARK  2 active torsions:
REMARK  status: ('A' for Active; 'I' for Inactive)
REMARK    1  A    between atoms: C3_3  and  C4_4 
REMARK    2  A    between atoms: C3_3  and  S9_9 
ROOT
HETATM    1  C1  UNL     1     -33.572   7.361   5.284  1.00 20.00     0.083 C 
HETATM    2  C3  UNL     1     -34.089   6.853   4.004  1.00 20.00     0.261 C 
HETATM    3  N5  UNL     1     -33.162   7.765   6.292  1.00 20.00    -0.196 NA
ENDROOT
BRANCH   2   4
HETATM    4  C4  UNL     1     -34.903   5.587   4.208  1.00 20.00     0.412 C 
HETATM    5  F6  UNL     1     -35.068   5.315   5.523  1.00 20.00    -0.169 F 
HETATM    6  F7  UNL     1     -36.141   5.721   3.676  1.00 20.00    -0.169 F 
HETATM    7  F8  UNL     1     -34.327   4.510   3.633  1.00 20.00    -0.169 F 
ENDBRANCH   2   4
BRANCH   2   8
HETATM    8  S9  UNL     1     -32.727   6.536   2.831  1.00 20.00    -0.145 SA
HETATM    9  C2  UNL     1     -31.959   8.170   2.889  1.00 20.00     0.091 C 
ENDBRANCH   2   8
TORSDOF 2
ENDMDL
MODEL 3
REMARK VINA RESULT:      -4.1      2.664      3.560
REMARK  2 active torsions:
REMARK  status: ('A' for Active; 'I' for Inactive)
REMARK    1  A    between atoms: C3_3  and  C4_4 
REMARK    2  A    between atoms: C3_3  and  S9_9 
ROOT
HETATM    1  C1  UNL     1     -33.274   5.724   2.986  1.00 20.00     0.083 C 
HETATM    2  C3  UNL     1     -33.505   7.113   3.407  1.00 20.00     0.261 C 
HETATM    3  N5  UNL     1     -33.096   4.625   2.655  1.00 20.00    -0.196 NA
ENDROOT
BRANCH   2   4
HETATM    4  C4  UNL     1     -32.448   8.041   2.833  1.00 20.00     0.412 C 
HETATM    5  F6  UNL     1     -31.586   8.455   3.790  1.00 20.00    -0.169 F 
HETATM    6  F7  UNL     1     -31.713   7.406   1.890  1.00 20.00    -0.169 F 
HETATM    7  F8  UNL     1     -32.986   9.138   2.259  1.00 20.00    -0.169 F 
ENDBRANCH   2   4
BRANCH   2   8
HETATM    8  S9  UNL     1     -33.529   7.246   5.227  1.00 20.00    -0.145 SA
HETATM    9  C2  UNL     1     -34.545   5.794   5.573  1.00 20.00     0.091 C 
ENDBRANCH   2   8
TORSDOF 2
ENDMDL
MODEL 4
REMARK VINA RESULT:      -3.9      2.078      3.121
REMARK  2 active torsions:
REMARK  status: ('A' for Active; 'I' for Inactive)
REMARK    1  A    between atoms: C3_3  and  C4_4 
REMARK    2  A    between atoms: C3_3  and  S9_9 
ROOT
HETATM    1  C1  UNL     1     -32.609   7.705   2.882  1.00 20.00     0.083 C 
HETATM    2  C3  UNL     1     -33.108   6.619   3.738  1.00 20.00     0.261 C 
HETATM    3  N5  UNL     1     -32.212   8.564   2.210  1.00 20.00    -0.196 NA
ENDROOT
BRANCH   2   4
HETATM    4  C4  UNL     1     -34.144   5.781   3.008  1.00 20.00     0.412 C 
HETATM    5  F6  UNL     1     -34.087   5.984   1.671  1.00 20.00    -0.169 F 
HETATM    6  F7  UNL     1     -33.926   4.461   3.215  1.00 20.00    -0.169 F 
HETATM    7  F8  UNL     1     -35.402   6.055   3.414  1.00 20.00    -0.169 F 
ENDBRANCH   2   4
BRANCH   2   8
HETATM    8  S9  UNL     1     -33.819   7.282   5.283  1.00 20.00    -0.145 SA
HETATM    9  C2  UNL     1     -34.387   5.720   5.990  1.00 20.00     0.091 C 
ENDBRANCH   2   8
TORSDOF 2
ENDMDL
MODEL 5
REMARK VINA RESULT:      -3.8      2.565      3.008
REMARK  2 active torsions:
REMARK  status: ('A' for Active; 'I' for Inactive)
REMARK    1  A    between atoms: C3_3  and  C4_4 
REMARK    2  A    between atoms: C3_3  and  S9_9 
ROOT
HETATM    1  C1  UNL     1     -33.136   5.015   2.818  1.00 20.00     0.083 C 
HETATM    2  C3  UNL     1     -33.437   5.911   3.944  1.00 20.00     0.261 C 
HETATM    3  N5  UNL     1     -32.893   4.310   1.928  1.00 20.00    -0.196 NA
ENDROOT
BRANCH   2   4
HETATM    4  C4  UNL     1     -34.712   5.486   4.653  1.00 20.00     0.412 C 
HETATM    5  F6  UNL     1     -34.759   4.143   4.815  1.00 20.00    -0.169 F 
HETATM    6  F7  UNL     1     -34.780   6.034   5.889  1.00 20.00    -0.169 F 
HETATM    7  F8  UNL     1     -35.821   5.860   3.980  1.00 20.00    -0.169 F 
ENDBRANCH   2   4
BRANCH   2   8
HETATM    8  S9  UNL     1     -33.586   7.640   3.378  1.00 20.00    -0.145 SA
HETATM    9  C2  UNL     1     -31.825   8.014   3.241  1.00 20.00     0.091 C 
ENDBRANCH   2   8
TORSDOF 2
ENDMDL
MODEL 6
REMARK VINA RESULT:      -3.8     11.231     11.893
REMARK  2 active torsions:
REMARK  status: ('A' for Active; 'I' for Inactive)
REMARK    1  A    between atoms: C3_3  and  C4_4 
REMARK    2  A    between atoms: C3_3  and  S9_9 
ROOT
HETATM    1  C1  UNL     1     -35.434  13.891  -5.041  1.00 20.00     0.083 C 
HETATM    2  C3  UNL     1     -34.915  15.245  -4.792  1.00 20.00     0.261 C 
HETATM    3  N5  UNL     1     -35.847  12.825  -5.239  1.00 20.00    -0.196 NA
ENDROOT
BRANCH   2   4
HETATM    4  C4  UNL     1     -33.464  15.199  -4.345  1.00 20.00     0.412 C 
HETATM    5  F6  UNL     1     -32.648  15.760  -5.267  1.00 20.00    -0.169 F 
HETATM    6  F7  UNL     1     -33.294  15.893  -3.195  1.00 20.00    -0.169 F 
HETATM    7  F8  UNL     1     -33.034  13.938  -4.127  1.00 20.00    -0.169 F 
ENDBRANCH   2   4
BRANCH   2   8
HETATM    8  S9  UNL     1     -35.926  16.109  -3.542  1.00 20.00    -0.145 SA
HETATM    9  C2  UNL     1     -37.540  15.873  -4.315  1.00 20.00     0.091 C 
ENDBRANCH   2   8
TORSDOF 2
ENDMDL
MODEL 7
REMARK VINA RESULT:      -3.8     11.233     11.871
REMARK  2 active torsions:
REMARK  status: ('A' for Active; 'I' for Inactive)
REMARK    1  A    between atoms: C3_3  and  C4_4 
REMARK    2  A    between atoms: C3_3  and  S9_9 
ROOT
HETATM    1  C1  UNL     1     -35.438  13.893  -5.046  1.00 20.00     0.083 C 
HETATM    2  C3  UNL     1     -34.925  15.248  -4.800  1.00 20.00     0.261 C 
HETATM    3  N5  UNL     1     -35.847  12.824  -5.242  1.00 20.00    -0.196 NA
ENDROOT
BRANCH   2   4
HETATM    4  C4  UNL     1     -33.474  15.209  -4.352  1.00 20.00     0.412 C 
HETATM    5  F6  UNL     1     -33.297  15.894  -3.198  1.00 20.00    -0.169 F 
HETATM    6  F7  UNL     1     -33.077  13.936  -4.120  1.00 20.00    -0.169 F 
HETATM    7  F8  UNL     1     -32.639  15.734  -5.275  1.00 20.00    -0.169 F 
ENDBRANCH   2   4
BRANCH   2   8
HETATM    8  S9  UNL     1     -35.939  16.112  -3.552  1.00 20.00    -0.145 SA
HETATM    9  C2  UNL     1     -37.554  15.860  -4.321  1.00 20.00     0.091 C 
ENDBRANCH   2   8
TORSDOF 2
ENDMDL
MODEL 8
REMARK VINA RESULT:      -3.7     11.236     11.869
REMARK  2 active torsions:
REMARK  status: ('A' for Active; 'I' for Inactive)
REMARK    1  A    between atoms: C3_3  and  C4_4 
REMARK    2  A    between atoms: C3_3  and  S9_9 
ROOT
HETATM    1  C1  UNL     1     -35.438  13.893  -5.042  1.00 20.00     0.083 C 
HETATM    2  C3  UNL     1     -34.929  15.249  -4.794  1.00 20.00     0.261 C 
HETATM    3  N5  UNL     1     -35.843  12.824  -5.241  1.00 20.00    -0.196 NA
ENDROOT
BRANCH   2   4
HETATM    4  C4  UNL     1     -33.482  15.214  -4.332  1.00 20.00     0.412 C 
HETATM    5  F6  UNL     1     -33.063  13.943  -4.127  1.00 20.00    -0.169 F 
HETATM    6  F7  UNL     1     -32.665  15.751  -5.268  1.00 20.00    -0.169 F 
HETATM    7  F8  UNL     1     -33.293  15.900  -3.184  1.00 20.00    -0.169 F 
ENDBRANCH   2   4
BRANCH   2   8
HETATM    8  S9  UNL     1     -35.957  16.113  -3.557  1.00 20.00    -0.145 SA
HETATM    9  C2  UNL     1     -37.565  15.843  -4.332  1.00 20.00     0.091 C 
ENDBRANCH   2   8
TORSDOF 2
ENDMDL
MODEL 9
REMARK VINA RESULT:      -3.6      2.303      3.121
REMARK  2 active torsions:
REMARK  status: ('A' for Active; 'I' for Inactive)
REMARK    1  A    between atoms: C3_3  and  C4_4 
REMARK    2  A    between atoms: C3_3  and  S9_9 
ROOT
HETATM    1  C1  UNL     1     -33.303   7.235   4.977  1.00 20.00     0.083 C 
HETATM    2  C3  UNL     1     -32.748   6.792   3.689  1.00 20.00     0.261 C 
HETATM    3  N5  UNL     1     -33.741   7.580   5.995  1.00 20.00    -0.196 NA
ENDROOT
BRANCH   2   4
HETATM    4  C4  UNL     1     -32.328   7.979   2.839  1.00 20.00     0.412 C 
HETATM    5  F6  UNL     1     -33.391   8.752   2.516  1.00 20.00    -0.169 F 
HETATM    6  F7  UNL     1     -31.458   8.768   3.512  1.00 20.00    -0.169 F 
HETATM    7  F8  UNL     1     -31.729   7.600   1.690  1.00 20.00    -0.169 F 
ENDBRANCH   2   4
BRANCH   2   8
HETATM    8  S9  UNL     1     -33.954   5.769   2.778  1.00 20.00    -0.145 SA
HETATM    9  C2  UNL     1     -34.336   4.595   4.097  1.00 20.00     0.091 C 
ENDBRANCH   2   8
TORSDOF 2
ENDMDL
