MODEL 1
REMARK VINA RESULT:      -4.9      0.000      0.000
REMARK  3 active torsions:
REMARK  status: ('A' for Active; 'I' for Inactive)
REMARK    1  A    between atoms: C4_4  and  C9_9 
REMARK    2  A    between atoms: C7_7  and  C8_8 
REMARK    3  A    between atoms: C8_8  and  N11_11 
ROOT
HETATM    1  C1  UNL     1     -32.566   9.189   0.128  1.00 20.00     0.060 C 
HETATM    2  C7  UNL     1     -31.380   8.828   0.918  1.00 20.00     0.151 C 
HETATM    3  N10 UNL     1     -33.502   9.474  -0.496  1.00 20.00    -0.197 NA
ENDROOT
BRANCH   2   4
HETATM    4  C8  UNL     1     -31.733   8.450   2.349  1.00 20.00     0.249 C 
BRANCH   4   5
HETATM    5  N11 UNL     1     -33.046   7.770   2.389  1.00 20.00    -0.069 N 
HETATM    6  C2  UNL     1     -33.650   7.817   3.736  1.00 20.00     0.241 C 
HETATM    7  C4  UNL     1     -34.045   6.338   3.542  1.00 20.00     0.041 C 
HETATM    8  C3  UNL     1     -32.904   6.304   2.504  1.00 20.00     0.241 C 
HETATM    9  H28 UNL     1     -33.687   8.063   1.639  1.00 20.00     0.279 HD
BRANCH   7  10
HETATM   10  C9  UNL     1     -33.903   5.429   4.744  1.00 20.00    -0.015 C 
HETATM   11  C5  UNL     1     -34.702   5.964   5.936  1.00 20.00     0.010 C 
HETATM   12  C6  UNL     1     -34.348   4.002   4.410  1.00 20.00     0.010 C 
ENDBRANCH   7  10
ENDBRANCH   4   5
ENDBRANCH   2   4
TORSDOF 3
ENDMDL
MODEL 2
REMARK VINA RESULT:      -4.9      1.791      5.130
REMARK  3 active torsions:
REMARK  status: ('A' for Active; 'I' for Inactive)
REMARK    1  A    between atoms: C4_4  and  C9_9 
REMARK    2  A    between atoms: C7_7  and  C8_8 
REMARK    3  A    between atoms: C8_8  and  N11_11 
ROOT
HETATM    1  C1  UNL     1     -34.451   5.025   4.431  1.00 20.00     0.060 C 
HETATM    2  C7  UNL     1     -34.533   6.492   4.376  1.00 20.00     0.151 C 
HETATM    3  N10 UNL     1     -34.386   3.868   4.475  1.00 20.00    -0.197 NA
ENDROOT
BRANCH   2   4
HETATM    4  C8  UNL     1     -33.204   7.158   4.698  1.00 20.00     0.249 C 
BRANCH   4   5
HETATM    5  N11 UNL     1     -32.381   7.275   3.473  1.00 20.00    -0.069 N 
HETATM    6  C2  UNL     1     -31.948   8.666   3.232  1.00 20.00     0.241 C 
HETATM    7  C4  UNL     1     -32.289   8.447   1.743  1.00 20.00     0.041 C 
HETATM    8  C3  UNL     1     -33.213   7.322   2.253  1.00 20.00     0.241 C 
HETATM    9  H28 UNL     1     -31.615   6.590   3.422  1.00 20.00     0.279 HD
BRANCH   7  10
HETATM   10  C9  UNL     1     -32.952   9.599   1.017  1.00 20.00    -0.015 C 
HETATM   11  C5  UNL     1     -32.246  10.923   1.325  1.00 20.00     0.010 C 
HETATM   12  C6  UNL     1     -32.974   9.355  -0.496  1.00 20.00     0.010 C 
ENDBRANCH   7  10
ENDBRANCH   4   5
ENDBRANCH   2   4
TORSDOF 3
ENDMDL
MODEL 3
REMARK VINA RESULT:      -4.8      0.948      1.565
REMARK  3 active torsions:
REMARK  status: ('A' for Active; 'I' for Inactive)
REMARK    1  A    between atoms: C4_4  and  C9_9 
REMARK    2  A    between atoms: C7_7  and  C8_8 
REMARK    3  A    between atoms: C8_8  and  N11_11 
ROOT
HETATM    1  C1  UNL     1     -32.873   9.415  -0.293  1.00 20.00     0.060 C 
HETATM    2  C7  UNL     1     -31.737   9.167   0.606  1.00 20.00     0.151 C 
HETATM    3  N10 UNL     1     -33.771   9.611  -1.002  1.00 20.00    -0.197 NA
ENDROOT
BRANCH   2   4
HETATM    4  C8  UNL     1     -32.146   9.178   2.071  1.00 20.00     0.249 C 
BRANCH   4   5
HETATM    5  N11 UNL     1     -31.981   7.830   2.658  1.00 20.00    -0.069 N 
HETATM    6  C2  UNL     1     -33.167   6.980   2.427  1.00 20.00     0.241 C 
HETATM    7  C4  UNL     1     -33.035   6.508   3.890  1.00 20.00     0.041 C 
HETATM    8  C3  UNL     1     -32.258   7.823   4.109  1.00 20.00     0.241 C 
HETATM    9  H28 UNL     1     -31.093   7.375   2.406  1.00 20.00     0.279 HD
BRANCH   7  10
HETATM   10  C9  UNL     1     -34.321   6.335   4.671  1.00 20.00    -0.015 C 
HETATM   11  C5  UNL     1     -34.758   4.867   4.694  1.00 20.00     0.010 C 
HETATM   12  C6  UNL     1     -34.170   6.862   6.101  1.00 20.00     0.010 C 
ENDBRANCH   7  10
ENDBRANCH   4   5
ENDBRANCH   2   4
TORSDOF 3
ENDMDL
MODEL 4
REMARK VINA RESULT:      -4.4     10.914     11.615
REMARK  3 active torsions:
REMARK  status: ('A' for Active; 'I' for Inactive)
REMARK    1  A    between atoms: C4_4  and  C9_9 
REMARK    2  A    between atoms: C7_7  and  C8_8 
REMARK    3  A    between atoms: C8_8  and  N11_11 
ROOT
HETATM    1  C1  UNL     1     -34.619  13.449  -7.130  1.00 20.00     0.060 C 
HETATM    2  C7  UNL     1     -34.037  14.692  -7.658  1.00 20.00     0.151 C 
HETATM    3  N10 UNL     1     -35.077  12.468  -6.714  1.00 20.00    -0.197 NA
ENDROOT
BRANCH   2   4
HETATM    4  C8  UNL     1     -33.860  15.750  -6.579  1.00 20.00     0.249 C 
BRANCH   4   5
HETATM    5  N11 UNL     1     -34.226  15.197  -5.256  1.00 20.00    -0.069 N 
HETATM    6  C2  UNL     1     -35.325  15.956  -4.627  1.00 20.00     0.241 C 
HETATM    7  C4  UNL     1     -34.542  15.869  -3.300  1.00 20.00     0.041 C 
HETATM    8  C3  UNL     1     -33.304  15.652  -4.195  1.00 20.00     0.241 C 
HETATM    9  H28 UNL     1     -34.377  14.179  -5.261  1.00 20.00     0.279 HD
BRANCH   7  10
HETATM   10  C9  UNL     1     -34.544  17.102  -2.422  1.00 20.00    -0.015 C 
HETATM   11  C5  UNL     1     -35.499  16.933  -1.237  1.00 20.00     0.010 C 
HETATM   12  C6  UNL     1     -33.133  17.421  -1.919  1.00 20.00     0.010 C 
ENDBRANCH   7  10
ENDBRANCH   4   5
ENDBRANCH   2   4
TORSDOF 3
ENDMDL
MODEL 5
REMARK VINA RESULT:      -4.3     10.890     11.583
REMARK  3 active torsions:
REMARK  status: ('A' for Active; 'I' for Inactive)
REMARK    1  A    between atoms: C4_4  and  C9_9 
REMARK    2  A    between atoms: C7_7  and  C8_8 
REMARK    3  A    between atoms: C8_8  and  N11_11 
ROOT
HETATM    1  C1  UNL     1     -35.771  13.910  -5.787  1.00 20.00     0.060 C 
HETATM    2  C7  UNL     1     -35.607  15.227  -6.418  1.00 20.00     0.151 C 
HETATM    3  N10 UNL     1     -35.901  12.870  -5.289  1.00 20.00    -0.197 NA
ENDROOT
BRANCH   2   4
HETATM    4  C8  UNL     1     -35.495  16.348  -5.395  1.00 20.00     0.249 C 
BRANCH   4   5
HETATM    5  N11 UNL     1     -34.875  15.843  -4.150  1.00 20.00    -0.069 N 
HETATM    6  C2  UNL     1     -35.604  16.297  -2.948  1.00 20.00     0.241 C 
HETATM    7  C4  UNL     1     -34.232  16.577  -2.300  1.00 20.00     0.041 C 
HETATM    8  C3  UNL     1     -33.707  16.654  -3.748  1.00 20.00     0.241 C 
HETATM    9  H28 UNL     1     -34.689  14.831  -4.162  1.00 20.00     0.279 HD
BRANCH   7  10
HETATM   10  C9  UNL     1     -34.115  17.834  -1.463  1.00 20.00    -0.015 C 
HETATM   11  C5  UNL     1     -34.929  17.712  -0.171  1.00 20.00     0.010 C 
HETATM   12  C6  UNL     1     -32.651  18.142  -1.135  1.00 20.00     0.010 C 
ENDBRANCH   7  10
ENDBRANCH   4   5
ENDBRANCH   2   4
TORSDOF 3
ENDMDL
MODEL 6
REMARK VINA RESULT:      -4.2      1.755      5.134
REMARK  3 active torsions:
REMARK  status: ('A' for Active; 'I' for Inactive)
REMARK    1  A    between atoms: C4_4  and  C9_9 
REMARK    2  A    between atoms: C7_7  and  C8_8 
REMARK    3  A    between atoms: C8_8  and  N11_11 
ROOT
HETATM    1  C1  UNL     1     -34.518   5.693   5.466  1.00 20.00     0.060 C 
HETATM    2  C7  UNL     1     -34.485   4.743   4.345  1.00 20.00     0.151 C 
HETATM    3  N10 UNL     1     -34.543   6.443   6.351  1.00 20.00    -0.197 NA
ENDROOT
BRANCH   2   4
HETATM    4  C8  UNL     1     -33.711   5.284   3.152  1.00 20.00     0.249 C 
BRANCH   4   5
HETATM    5  N11 UNL     1     -33.156   6.619   3.466  1.00 20.00    -0.069 N 
HETATM    6  C2  UNL     1     -33.938   7.704   2.839  1.00 20.00     0.241 C 
HETATM    7  C4  UNL     1     -32.597   8.370   2.465  1.00 20.00     0.041 C 
HETATM    8  C3  UNL     1     -32.002   6.953   2.605  1.00 20.00     0.241 C 
HETATM    9  H28 UNL     1     -32.976   6.767   4.469  1.00 20.00     0.279 HD
BRANCH   7  10
HETATM   10  C9  UNL     1     -32.511   9.015   1.099  1.00 20.00    -0.015 C 
HETATM   11  C5  UNL     1     -32.728  10.529   1.190  1.00 20.00     0.010 C 
HETATM   12  C6  UNL     1     -31.165   8.716   0.433  1.00 20.00     0.010 C 
ENDBRANCH   7  10
ENDBRANCH   4   5
ENDBRANCH   2   4
TORSDOF 3
ENDMDL
MODEL 7
REMARK VINA RESULT:      -4.1     10.955     11.690
REMARK  3 active torsions:
REMARK  status: ('A' for Active; 'I' for Inactive)
REMARK    1  A    between atoms: C4_4  and  C9_9 
REMARK    2  A    between atoms: C7_7  and  C8_8 
REMARK    3  A    between atoms: C8_8  and  N11_11 
ROOT
HETATM    1  C1  UNL     1     -34.593  13.552  -6.907  1.00 20.00     0.060 C 
HETATM    2  C7  UNL     1     -34.006  14.889  -7.075  1.00 20.00     0.151 C 
HETATM    3  N10 UNL     1     -35.056  12.496  -6.774  1.00 20.00    -0.197 NA
ENDROOT
BRANCH   2   4
HETATM    4  C8  UNL     1     -33.370  15.406  -5.794  1.00 20.00     0.249 C 
BRANCH   4   5
HETATM    5  N11 UNL     1     -34.314  16.291  -5.076  1.00 20.00    -0.069 N 
HETATM    6  C2  UNL     1     -33.611  17.303  -4.262  1.00 20.00     0.241 C 
HETATM    7  C4  UNL     1     -34.631  17.017  -3.139  1.00 20.00     0.041 C 
HETATM    8  C3  UNL     1     -34.832  15.660  -3.844  1.00 20.00     0.241 C 
HETATM    9  H28 UNL     1     -35.050  16.685  -5.677  1.00 20.00     0.279 HD
BRANCH   7  10
HETATM   10  C9  UNL     1     -34.097  16.980  -1.723  1.00 20.00    -0.015 C 
HETATM   11  C5  UNL     1     -32.998  18.029  -1.521  1.00 20.00     0.010 C 
HETATM   12  C6  UNL     1     -35.222  17.194  -0.706  1.00 20.00     0.010 C 
ENDBRANCH   7  10
ENDBRANCH   4   5
ENDBRANCH   2   4
TORSDOF 3
ENDMDL
MODEL 8
REMARK VINA RESULT:      -4.0     10.524     11.929
REMARK  3 active torsions:
REMARK  status: ('A' for Active; 'I' for Inactive)
REMARK    1  A    between atoms: C4_4  and  C9_9 
REMARK    2  A    between atoms: C7_7  and  C8_8 
REMARK    3  A    between atoms: C8_8  and  N11_11 
ROOT
HETATM    1  C1  UNL     1     -37.251  14.243  -5.706  1.00 20.00     0.060 C 
HETATM    2  C7  UNL     1     -36.087  14.545  -6.552  1.00 20.00     0.151 C 
HETATM    3  N10 UNL     1     -38.169  14.005  -5.038  1.00 20.00    -0.197 NA
ENDROOT
BRANCH   2   4
HETATM    4  C8  UNL     1     -34.998  13.490  -6.434  1.00 20.00     0.249 C 
BRANCH   4   5
HETATM    5  N11 UNL     1     -33.824  14.046  -5.724  1.00 20.00    -0.069 N 
HETATM    6  C2  UNL     1     -34.124  14.341  -4.309  1.00 20.00     0.241 C 
HETATM    7  C4  UNL     1     -33.351  15.665  -4.486  1.00 20.00     0.041 C 
HETATM    8  C3  UNL     1     -33.652  15.489  -5.989  1.00 20.00     0.241 C 
HETATM    9  H28 UNL     1     -32.963  13.498  -5.857  1.00 20.00     0.279 HD
BRANCH   7  10
HETATM   10  C9  UNL     1     -33.930  16.890  -3.811  1.00 20.00    -0.015 C 
HETATM   11  C5  UNL     1     -33.583  16.912  -2.319  1.00 20.00     0.010 C 
HETATM   12  C6  UNL     1     -33.435  18.174  -4.485  1.00 20.00     0.010 C 
ENDBRANCH   7  10
ENDBRANCH   4   5
ENDBRANCH   2   4
TORSDOF 3
ENDMDL
MODEL 9
REMARK VINA RESULT:      -3.9     10.447     11.534
REMARK  3 active torsions:
REMARK  status: ('A' for Active; 'I' for Inactive)
REMARK    1  A    between atoms: C4_4  and  C9_9 
REMARK    2  A    between atoms: C7_7  and  C8_8 
REMARK    3  A    between atoms: C8_8  and  N11_11 
ROOT
HETATM    1  C1  UNL     1     -35.304  13.653  -4.779  1.00 20.00     0.060 C 
HETATM    2  C7  UNL     1     -34.464  14.652  -4.102  1.00 20.00     0.151 C 
HETATM    3  N10 UNL     1     -35.966  12.865  -5.314  1.00 20.00    -0.197 NA
ENDROOT
BRANCH   2   4
HETATM    4  C8  UNL     1     -34.287  15.915  -4.930  1.00 20.00     0.249 C 
BRANCH   4   5
HETATM    5  N11 UNL     1     -34.723  17.099  -4.157  1.00 20.00    -0.069 N 
HETATM    6  C2  UNL     1     -33.597  17.741  -3.450  1.00 20.00     0.241 C 
HETATM    7  C4  UNL     1     -34.527  17.880  -2.226  1.00 20.00     0.041 C 
HETATM    8  C3  UNL     1     -35.322  16.720  -2.861  1.00 20.00     0.241 C 
HETATM    9  H28 UNL     1     -35.299  17.758  -4.699  1.00 20.00     0.279 HD
BRANCH   7  10
HETATM   10  C9  UNL     1     -33.912  17.624  -0.867  1.00 20.00    -0.015 C 
HETATM   11  C5  UNL     1     -32.682  18.510  -0.644  1.00 20.00     0.010 C 
HETATM   12  C6  UNL     1     -34.934  17.853   0.251  1.00 20.00     0.010 C 
ENDBRANCH   7  10
ENDBRANCH   4   5
ENDBRANCH   2   4
TORSDOF 3
ENDMDL
