MODEL 1
REMARK VINA RESULT:      -6.4      0.000      0.000
REMARK  3 active torsions:
REMARK  status: ('A' for Active; 'I' for Inactive)
REMARK    1  A    between atoms: C3_3  and  C9_9 
REMARK    2  A    between atoms: C7_7  and  O11_11 
REMARK    3  A    between atoms: C9_9  and  O11_11 
ROOT
HETATM    1  C1  UNL     1     -34.491   5.124   4.513  1.00 20.00     0.129 C 
HETATM    2  C4  UNL     1     -34.036   5.813   5.772  1.00 20.00     0.081 C 
HETATM    3  C5  UNL     1     -34.485   6.047   3.319  1.00 20.00     0.110 C 
HETATM    4  C6  UNL     1     -34.060   7.280   5.354  1.00 20.00     0.040 C 
HETATM    5  C7  UNL     1     -33.740   7.263   3.864  1.00 20.00     0.129 C 
HETATM    6  O10 UNL     1     -34.825   3.947   4.463  1.00 20.00    -0.298 OA
ENDROOT
BRANCH   5   7
HETATM    7  O11 UNL     1     -32.337   7.098   3.687  1.00 20.00    -0.382 OA
BRANCH   7   8
HETATM    8  C9  UNL     1     -31.738   8.275   3.166  1.00 20.00     0.195 C 
BRANCH   8   9
HETATM    9  C3  UNL     1     -32.127   8.416   1.730  1.00 20.00    -0.005 C 
HETATM   10  C2  UNL     1     -32.551   9.566   1.185  1.00 20.00    -0.033 C 
HETATM   11  C8  UNL     1     -32.945   9.710  -0.248  1.00 20.00     0.036 C 
ENDBRANCH   8   9
ENDBRANCH   7   8
ENDBRANCH   5   7
TORSDOF 3
ENDMDL
MODEL 2
REMARK VINA RESULT:      -4.7      1.893      5.150
REMARK  3 active torsions:
REMARK  status: ('A' for Active; 'I' for Inactive)
REMARK    1  A    between atoms: C3_3  and  C9_9 
REMARK    2  A    between atoms: C7_7  and  O11_11 
REMARK    3  A    between atoms: C9_9  and  O11_11 
ROOT
HETATM    1  C1  UNL     1     -32.768   9.299   0.128  1.00 20.00     0.129 C 
HETATM    2  C4  UNL     1     -33.235  10.382   1.063  1.00 20.00     0.081 C 
HETATM    3  C5  UNL     1     -31.761   8.377   0.773  1.00 20.00     0.110 C 
HETATM    4  C6  UNL     1     -32.226  10.270   2.203  1.00 20.00     0.040 C 
HETATM    5  C7  UNL     1     -31.847   8.794   2.239  1.00 20.00     0.129 C 
HETATM    6  O10 UNL     1     -33.162   9.177  -1.025  1.00 20.00    -0.298 OA
ENDROOT
BRANCH   5   7
HETATM    7  O11 UNL     1     -32.874   8.061   2.898  1.00 20.00    -0.382 OA
BRANCH   7   8
HETATM    8  C9  UNL     1     -32.942   6.724   2.424  1.00 20.00     0.195 C 
BRANCH   8   9
HETATM    9  C3  UNL     1     -33.668   5.893   3.432  1.00 20.00    -0.005 C 
HETATM   10  C2  UNL     1     -34.028   6.341   4.644  1.00 20.00    -0.033 C 
HETATM   11  C8  UNL     1     -34.749   5.513   5.655  1.00 20.00     0.036 C 
ENDBRANCH   8   9
ENDBRANCH   7   8
ENDBRANCH   5   7
TORSDOF 3
ENDMDL
MODEL 3
REMARK VINA RESULT:      -4.5      1.220      1.806
REMARK  3 active torsions:
REMARK  status: ('A' for Active; 'I' for Inactive)
REMARK    1  A    between atoms: C3_3  and  C9_9 
REMARK    2  A    between atoms: C7_7  and  O11_11 
REMARK    3  A    between atoms: C9_9  and  O11_11 
ROOT
HETATM    1  C1  UNL     1     -34.827   6.116   3.675  1.00 20.00     0.129 C 
HETATM    2  C4  UNL     1     -34.016   5.692   2.479  1.00 20.00     0.081 C 
HETATM    3  C5  UNL     1     -33.996   6.840   4.706  1.00 20.00     0.110 C 
HETATM    4  C6  UNL     1     -32.589   5.907   2.975  1.00 20.00     0.040 C 
HETATM    5  C7  UNL     1     -32.691   7.075   3.950  1.00 20.00     0.129 C 
HETATM    6  O10 UNL     1     -36.027   5.901   3.795  1.00 20.00    -0.298 OA
ENDROOT
BRANCH   5   7
HETATM    7  O11 UNL     1     -32.762   8.293   3.217  1.00 20.00    -0.382 OA
BRANCH   7   8
HETATM    8  C9  UNL     1     -31.517   8.608   2.612  1.00 20.00     0.195 C 
BRANCH   8   9
HETATM    9  C3  UNL     1     -31.745   8.898   1.165  1.00 20.00    -0.005 C 
HETATM   10  C2  UNL     1     -32.931   9.266   0.658  1.00 20.00    -0.033 C 
HETATM   11  C8  UNL     1     -33.164   9.551  -0.789  1.00 20.00     0.036 C 
ENDBRANCH   8   9
ENDBRANCH   7   8
ENDBRANCH   5   7
TORSDOF 3
ENDMDL
MODEL 4
REMARK VINA RESULT:      -4.5     11.068     11.776
REMARK  3 active torsions:
REMARK  status: ('A' for Active; 'I' for Inactive)
REMARK    1  A    between atoms: C3_3  and  C9_9 
REMARK    2  A    between atoms: C7_7  and  O11_11 
REMARK    3  A    between atoms: C9_9  and  O11_11 
ROOT
HETATM    1  C1  UNL     1     -37.134  14.346  -5.118  1.00 20.00     0.129 C 
HETATM    2  C4  UNL     1     -36.805  15.805  -5.286  1.00 20.00     0.081 C 
HETATM    3  C5  UNL     1     -35.912  13.466  -5.213  1.00 20.00     0.110 C 
HETATM    4  C6  UNL     1     -35.372  15.746  -5.807  1.00 20.00     0.040 C 
HETATM    5  C7  UNL     1     -34.782  14.491  -5.173  1.00 20.00     0.129 C 
HETATM    6  O10 UNL     1     -38.266  13.921  -4.924  1.00 20.00    -0.298 OA
ENDROOT
BRANCH   5   7
HETATM    7  O11 UNL     1     -34.422  14.771  -3.824  1.00 20.00    -0.382 OA
BRANCH   7   8
HETATM    8  C9  UNL     1     -33.586  15.916  -3.738  1.00 20.00     0.195 C 
BRANCH   8   9
HETATM    9  C3  UNL     1     -33.913  16.656  -2.483  1.00 20.00    -0.005 C 
HETATM   10  C2  UNL     1     -35.115  16.616  -1.887  1.00 20.00    -0.033 C 
HETATM   11  C8  UNL     1     -35.446  17.358  -0.635  1.00 20.00     0.036 C 
ENDBRANCH   8   9
ENDBRANCH   7   8
ENDBRANCH   5   7
TORSDOF 3
ENDMDL
MODEL 5
REMARK VINA RESULT:      -4.4     10.645     11.820
REMARK  3 active torsions:
REMARK  status: ('A' for Active; 'I' for Inactive)
REMARK    1  A    between atoms: C3_3  and  C9_9 
REMARK    2  A    between atoms: C7_7  and  O11_11 
REMARK    3  A    between atoms: C9_9  and  O11_11 
ROOT
HETATM    1  C1  UNL     1     -35.237  13.764  -5.254  1.00 20.00     0.129 C 
HETATM    2  C4  UNL     1     -35.184  14.735  -6.404  1.00 20.00     0.081 C 
HETATM    3  C5  UNL     1     -34.254  14.113  -4.162  1.00 20.00     0.110 C 
HETATM    4  C6  UNL     1     -33.900  15.504  -6.107  1.00 20.00     0.040 C 
HETATM    5  C7  UNL     1     -33.793  15.505  -4.587  1.00 20.00     0.129 C 
HETATM    6  O10 UNL     1     -35.994  12.803  -5.208  1.00 20.00    -0.298 OA
ENDROOT
BRANCH   5   7
HETATM    7  O11 UNL     1     -34.667  16.494  -4.054  1.00 20.00    -0.382 OA
BRANCH   7   8
HETATM    8  C9  UNL     1     -34.895  16.292  -2.667  1.00 20.00     0.195 C 
BRANCH   8   9
HETATM    9  C3  UNL     1     -33.881  17.071  -1.896  1.00 20.00    -0.005 C 
HETATM   10  C2  UNL     1     -34.159  17.744  -0.769  1.00 20.00    -0.033 C 
HETATM   11  C8  UNL     1     -33.149  18.528   0.001  1.00 20.00     0.036 C 
ENDBRANCH   8   9
ENDBRANCH   7   8
ENDBRANCH   5   7
TORSDOF 3
ENDMDL
MODEL 6
REMARK VINA RESULT:      -4.1     11.260     12.050
REMARK  3 active torsions:
REMARK  status: ('A' for Active; 'I' for Inactive)
REMARK    1  A    between atoms: C3_3  and  C9_9 
REMARK    2  A    between atoms: C7_7  and  O11_11 
REMARK    3  A    between atoms: C9_9  and  O11_11 
ROOT
HETATM    1  C1  UNL     1     -35.317  13.311  -6.413  1.00 20.00     0.129 C 
HETATM    2  C4  UNL     1     -36.409  13.683  -5.446  1.00 20.00     0.081 C 
HETATM    3  C5  UNL     1     -34.461  14.494  -6.797  1.00 20.00     0.110 C 
HETATM    4  C6  UNL     1     -36.377  15.208  -5.508  1.00 20.00     0.040 C 
HETATM    5  C7  UNL     1     -34.921  15.553  -5.799  1.00 20.00     0.129 C 
HETATM    6  O10 UNL     1     -35.141  12.176  -6.838  1.00 20.00    -0.298 OA
ENDROOT
BRANCH   5   7
HETATM    7  O11 UNL     1     -34.166  15.453  -4.596  1.00 20.00    -0.382 OA
BRANCH   7   8
HETATM    8  C9  UNL     1     -33.491  16.668  -4.305  1.00 20.00     0.195 C 
BRANCH   8   9
HETATM    9  C3  UNL     1     -33.833  17.086  -2.912  1.00 20.00    -0.005 C 
HETATM   10  C2  UNL     1     -34.907  16.638  -2.244  1.00 20.00    -0.033 C 
HETATM   11  C8  UNL     1     -35.254  17.057  -0.854  1.00 20.00     0.036 C 
ENDBRANCH   8   9
ENDBRANCH   7   8
ENDBRANCH   5   7
TORSDOF 3
ENDMDL
MODEL 7
REMARK VINA RESULT:      -4.0     10.850     11.755
REMARK  3 active torsions:
REMARK  status: ('A' for Active; 'I' for Inactive)
REMARK    1  A    between atoms: C3_3  and  C9_9 
REMARK    2  A    between atoms: C7_7  and  O11_11 
REMARK    3  A    between atoms: C9_9  and  O11_11 
ROOT
HETATM    1  C1  UNL     1     -34.694  14.575  -4.193  1.00 20.00     0.129 C 
HETATM    2  C4  UNL     1     -35.830  15.544  -4.001  1.00 20.00     0.081 C 
HETATM    3  C5  UNL     1     -33.346  15.254  -4.156  1.00 20.00     0.110 C 
HETATM    4  C6  UNL     1     -35.127  16.889  -4.167  1.00 20.00     0.040 C 
HETATM    5  C7  UNL     1     -33.711  16.650  -3.657  1.00 20.00     0.129 C 
HETATM    6  O10 UNL     1     -34.846  13.371  -4.358  1.00 20.00    -0.298 OA
ENDROOT
BRANCH   5   7
HETATM    7  O11 UNL     1     -33.714  16.676  -2.233  1.00 20.00    -0.382 OA
BRANCH   7   8
HETATM    8  C9  UNL     1     -34.170  17.926  -1.738  1.00 20.00     0.195 C 
BRANCH   8   9
HETATM    9  C3  UNL     1     -33.457  18.226  -0.460  1.00 20.00    -0.005 C 
HETATM   10  C2  UNL     1     -32.151  18.524  -0.390  1.00 20.00    -0.033 C 
HETATM   11  C8  UNL     1     -31.434  18.819   0.886  1.00 20.00     0.036 C 
ENDBRANCH   8   9
ENDBRANCH   7   8
ENDBRANCH   5   7
TORSDOF 3
ENDMDL
MODEL 8
REMARK VINA RESULT:      -3.8     11.244     12.529
REMARK  3 active torsions:
REMARK  status: ('A' for Active; 'I' for Inactive)
REMARK    1  A    between atoms: C3_3  and  C9_9 
REMARK    2  A    between atoms: C7_7  and  O11_11 
REMARK    3  A    between atoms: C9_9  and  O11_11 
ROOT
HETATM    1  C1  UNL     1     -34.088  16.715  -5.803  1.00 20.00     0.129 C 
HETATM    2  C4  UNL     1     -33.088  15.602  -5.638  1.00 20.00     0.081 C 
HETATM    3  C5  UNL     1     -35.325  16.505  -4.963  1.00 20.00     0.110 C 
HETATM    4  C6  UNL     1     -33.911  14.546  -4.906  1.00 20.00     0.040 C 
HETATM    5  C7  UNL     1     -34.904  15.342  -4.069  1.00 20.00     0.129 C 
HETATM    6  O10 UNL     1     -33.917  17.683  -6.533  1.00 20.00    -0.298 OA
ENDROOT
BRANCH   5   7
HETATM    7  O11 UNL     1     -34.249  15.832  -2.903  1.00 20.00    -0.382 OA
BRANCH   7   8
HETATM    8  C9  UNL     1     -35.111  16.656  -2.132  1.00 20.00     0.195 C 
BRANCH   8   9
HETATM    9  C3  UNL     1     -34.295  17.387  -1.117  1.00 20.00    -0.005 C 
HETATM   10  C2  UNL     1     -33.076  17.888  -1.364  1.00 20.00    -0.033 C 
HETATM   11  C8  UNL     1     -32.255  18.615  -0.352  1.00 20.00     0.036 C 
ENDBRANCH   8   9
ENDBRANCH   7   8
ENDBRANCH   5   7
TORSDOF 3
ENDMDL
MODEL 9
REMARK VINA RESULT:      -3.8     11.443     12.096
REMARK  3 active torsions:
REMARK  status: ('A' for Active; 'I' for Inactive)
REMARK    1  A    between atoms: C3_3  and  C9_9 
REMARK    2  A    between atoms: C7_7  and  O11_11 
REMARK    3  A    between atoms: C9_9  and  O11_11 
ROOT
HETATM    1  C1  UNL     1     -33.247  18.092  -1.277  1.00 20.00     0.129 C 
HETATM    2  C4  UNL     1     -34.423  18.388  -0.385  1.00 20.00     0.081 C 
HETATM    3  C5  UNL     1     -33.515  16.944  -2.220  1.00 20.00     0.110 C 
HETATM    4  C6  UNL     1     -35.302  17.161  -0.607  1.00 20.00     0.040 C 
HETATM    5  C7  UNL     1     -35.017  16.735  -2.042  1.00 20.00     0.129 C 
HETATM    6  O10 UNL     1     -32.192  18.714  -1.243  1.00 20.00    -0.298 OA
ENDROOT
BRANCH   5   7
HETATM    7  O11 UNL     1     -35.737  17.578  -2.935  1.00 20.00    -0.382 OA
BRANCH   7   8
HETATM    8  C9  UNL     1     -36.771  16.867  -3.600  1.00 20.00     0.195 C 
BRANCH   8   9
HETATM    9  C3  UNL     1     -36.288  15.485  -3.897  1.00 20.00    -0.005 C 
HETATM   10  C2  UNL     1     -36.565  14.828  -5.033  1.00 20.00    -0.033 C 
HETATM   11  C8  UNL     1     -36.088  13.446  -5.331  1.00 20.00     0.036 C 
ENDBRANCH   8   9
ENDBRANCH   7   8
ENDBRANCH   5   7
TORSDOF 3
ENDMDL
