MODEL 1
REMARK VINA RESULT:      -5.0      0.000      0.000
REMARK  4 active torsions:
REMARK  status: ('A' for Active; 'I' for Inactive)
REMARK    1  A    between atoms: C2_2  and  C7_7 
REMARK    2  A    between atoms: C2_2  and  O11_11 
REMARK    3  A    between atoms: C6_6  and  C7_7 
REMARK    4  A    between atoms: C6_6  and  C8_8 
ROOT
HETATM    1  C1  UNL     1     -33.470   7.498   4.958  1.00 20.00     0.074 C 
HETATM    2  C7  UNL     1     -33.507   7.345   3.491  1.00 20.00     0.192 C 
HETATM    3  N9  UNL     1     -33.445   7.619   6.111  1.00 20.00    -0.196 NA
ENDROOT
BRANCH   2   4
HETATM    4  C2  UNL     1     -33.597   5.873   3.118  1.00 20.00     0.276 C 
HETATM    5  O10 UNL     1     -32.805   5.279   2.398  1.00 20.00    -0.264 OA
BRANCH   4   6
HETATM    6  O11 UNL     1     -34.695   5.320   3.717  1.00 20.00    -0.325 OA
HETATM    7  C5  UNL     1     -34.438   4.181   4.546  1.00 20.00     0.213 C 
ENDBRANCH   4   6
ENDBRANCH   2   4
BRANCH   2   8
HETATM    8  C6  UNL     1     -32.256   7.954   2.832  1.00 20.00     0.033 C 
BRANCH   8   9
HETATM    9  C8  UNL     1     -32.508   8.692   1.500  1.00 20.00    -0.021 C 
HETATM   10  C3  UNL     1     -31.287   8.539   0.587  1.00 20.00     0.009 C 
HETATM   11  C4  UNL     1     -32.814  10.177   1.705  1.00 20.00     0.009 C 
ENDBRANCH   8   9
ENDBRANCH   2   8
TORSDOF 4
ENDMDL
MODEL 2
REMARK VINA RESULT:      -4.8      2.393      4.470
REMARK  4 active torsions:
REMARK  status: ('A' for Active; 'I' for Inactive)
REMARK    1  A    between atoms: C2_2  and  C7_7 
REMARK    2  A    between atoms: C2_2  and  O11_11 
REMARK    3  A    between atoms: C6_6  and  C7_7 
REMARK    4  A    between atoms: C6_6  and  C8_8 
ROOT
HETATM    1  C1  UNL     1     -33.023   5.590   2.562  1.00 20.00     0.074 C 
HETATM    2  C7  UNL     1     -33.411   7.011   2.632  1.00 20.00     0.192 C 
HETATM    3  N9  UNL     1     -32.719   4.473   2.502  1.00 20.00    -0.196 NA
ENDROOT
BRANCH   2   4
HETATM    4  C2  UNL     1     -32.173   7.894   2.654  1.00 20.00     0.276 C 
HETATM    5  O10 UNL     1     -31.461   8.086   3.631  1.00 20.00    -0.264 OA
BRANCH   4   6
HETATM    6  O11 UNL     1     -31.979   8.433   1.411  1.00 20.00    -0.325 OA
HETATM    7  C5  UNL     1     -32.570   9.720   1.197  1.00 20.00     0.213 C 
ENDBRANCH   4   6
ENDBRANCH   2   4
BRANCH   2   8
HETATM    8  C6  UNL     1     -34.256   7.300   3.886  1.00 20.00     0.033 C 
BRANCH   8   9
HETATM    9  C8  UNL     1     -33.799   6.574   5.169  1.00 20.00    -0.021 C 
HETATM   10  C3  UNL     1     -34.787   5.453   5.507  1.00 20.00     0.009 C 
HETATM   11  C4  UNL     1     -33.670   7.522   6.362  1.00 20.00     0.009 C 
ENDBRANCH   8   9
ENDBRANCH   2   8
TORSDOF 4
ENDMDL
MODEL 3
REMARK VINA RESULT:      -4.6      2.004      2.566
REMARK  4 active torsions:
REMARK  status: ('A' for Active; 'I' for Inactive)
REMARK    1  A    between atoms: C2_2  and  C7_7 
REMARK    2  A    between atoms: C2_2  and  O11_11 
REMARK    3  A    between atoms: C6_6  and  C7_7 
REMARK    4  A    between atoms: C6_6  and  C8_8 
ROOT
HETATM    1  C1  UNL     1     -32.866   5.700   2.740  1.00 20.00     0.074 C 
HETATM    2  C7  UNL     1     -32.712   7.049   3.316  1.00 20.00     0.192 C 
HETATM    3  N9  UNL     1     -32.983   4.638   2.289  1.00 20.00    -0.196 NA
ENDROOT
BRANCH   2   4
HETATM    4  C2  UNL     1     -33.451   7.143   4.642  1.00 20.00     0.276 C 
HETATM    5  O10 UNL     1     -33.111   7.839   5.591  1.00 20.00    -0.264 OA
BRANCH   4   6
HETATM    6  O11 UNL     1     -34.554   6.334   4.605  1.00 20.00    -0.325 OA
HETATM    7  C5  UNL     1     -34.662   5.388   5.673  1.00 20.00     0.213 C 
ENDBRANCH   4   6
ENDBRANCH   2   4
BRANCH   2   8
HETATM    8  C6  UNL     1     -33.253   8.131   2.363  1.00 20.00     0.033 C 
BRANCH   8   9
HETATM    9  C8  UNL     1     -32.195   9.113   1.814  1.00 20.00    -0.021 C 
HETATM   10  C3  UNL     1     -32.883  10.390   1.322  1.00 20.00     0.009 C 
HETATM   11  C4  UNL     1     -31.369   8.504   0.680  1.00 20.00     0.009 C 
ENDBRANCH   8   9
ENDBRANCH   2   8
TORSDOF 4
ENDMDL
MODEL 4
REMARK VINA RESULT:      -4.4     10.927     12.051
REMARK  4 active torsions:
REMARK  status: ('A' for Active; 'I' for Inactive)
REMARK    1  A    between atoms: C2_2  and  C7_7 
REMARK    2  A    between atoms: C2_2  and  O11_11 
REMARK    3  A    between atoms: C6_6  and  C7_7 
REMARK    4  A    between atoms: C6_6  and  C8_8 
ROOT
HETATM    1  C1  UNL     1     -36.760  14.231  -5.154  1.00 20.00     0.074 C 
HETATM    2  C7  UNL     1     -35.346  14.523  -5.456  1.00 20.00     0.192 C 
HETATM    3  N9  UNL     1     -37.873  14.005  -4.919  1.00 20.00    -0.196 NA
ENDROOT
BRANCH   2   4
HETATM    4  C2  UNL     1     -34.848  13.616  -6.571  1.00 20.00     0.276 C 
HETATM    5  O10 UNL     1     -35.161  12.441  -6.716  1.00 20.00    -0.264 OA
BRANCH   4   6
HETATM    6  O11 UNL     1     -34.003  14.320  -7.384  1.00 20.00    -0.325 OA
HETATM    7  C5  UNL     1     -34.533  15.538  -7.918  1.00 20.00     0.213 C 
ENDBRANCH   4   6
ENDBRANCH   2   4
BRANCH   2   8
HETATM    8  C6  UNL     1     -34.456  14.329  -4.215  1.00 20.00     0.033 C 
BRANCH   8   9
HETATM    9  C8  UNL     1     -33.835  15.621  -3.643  1.00 20.00    -0.021 C 
HETATM   10  C3  UNL     1     -34.813  16.273  -2.661  1.00 20.00     0.009 C 
HETATM   11  C4  UNL     1     -33.460  16.622  -4.737  1.00 20.00     0.009 C 
ENDBRANCH   8   9
ENDBRANCH   2   8
TORSDOF 4
ENDMDL
MODEL 5
REMARK VINA RESULT:      -4.4     10.901     11.699
REMARK  4 active torsions:
REMARK  status: ('A' for Active; 'I' for Inactive)
REMARK    1  A    between atoms: C2_2  and  C7_7 
REMARK    2  A    between atoms: C2_2  and  O11_11 
REMARK    3  A    between atoms: C6_6  and  C7_7 
REMARK    4  A    between atoms: C6_6  and  C8_8 
ROOT
HETATM    1  C1  UNL     1     -37.089  15.045  -4.468  1.00 20.00     0.074 C 
HETATM    2  C7  UNL     1     -35.644  14.989  -4.761  1.00 20.00     0.192 C 
HETATM    3  N9  UNL     1     -38.225  15.091  -4.241  1.00 20.00    -0.196 NA
ENDROOT
BRANCH   2   4
HETATM    4  C2  UNL     1     -35.282  13.642  -5.369  1.00 20.00     0.276 C 
HETATM    5  O10 UNL     1     -35.933  12.614  -5.242  1.00 20.00    -0.264 OA
BRANCH   4   6
HETATM    6  O11 UNL     1     -34.122  13.766  -6.084  1.00 20.00    -0.325 OA
HETATM    7  C5  UNL     1     -34.283  14.076  -7.472  1.00 20.00     0.213 C 
ENDBRANCH   4   6
ENDBRANCH   2   4
BRANCH   2   8
HETATM    8  C6  UNL     1     -34.805  15.206  -3.488  1.00 20.00     0.033 C 
BRANCH   8   9
HETATM    9  C8  UNL     1     -33.644  16.213  -3.629  1.00 20.00    -0.021 C 
HETATM   10  C3  UNL     1     -33.575  17.099  -2.382  1.00 20.00     0.009 C 
HETATM   11  C4  UNL     1     -33.780  17.089  -4.876  1.00 20.00     0.009 C 
ENDBRANCH   8   9
ENDBRANCH   2   8
TORSDOF 4
ENDMDL
MODEL 6
REMARK VINA RESULT:      -4.4     10.961     11.525
REMARK  4 active torsions:
REMARK  status: ('A' for Active; 'I' for Inactive)
REMARK    1  A    between atoms: C2_2  and  C7_7 
REMARK    2  A    between atoms: C2_2  and  O11_11 
REMARK    3  A    between atoms: C6_6  and  C7_7 
REMARK    4  A    between atoms: C6_6  and  C8_8 
ROOT
HETATM    1  C1  UNL     1     -33.436  15.305  -4.885  1.00 20.00     0.074 C 
HETATM    2  C7  UNL     1     -34.473  14.952  -3.897  1.00 20.00     0.192 C 
HETATM    3  N9  UNL     1     -32.619  15.579  -5.661  1.00 20.00    -0.196 NA
ENDROOT
BRANCH   2   4
HETATM    4  C2  UNL     1     -35.594  14.171  -4.566  1.00 20.00     0.276 C 
HETATM    5  O10 UNL     1     -35.496  13.032  -5.003  1.00 20.00    -0.264 OA
BRANCH   4   6
HETATM    6  O11 UNL     1     -36.726  14.939  -4.597  1.00 20.00    -0.325 OA
HETATM    7  C5  UNL     1     -37.859  14.343  -5.236  1.00 20.00     0.213 C 
ENDBRANCH   4   6
ENDBRANCH   2   4
BRANCH   2   8
HETATM    8  C6  UNL     1     -35.064  16.208  -3.232  1.00 20.00     0.033 C 
BRANCH   8   9
HETATM    9  C8  UNL     1     -34.377  16.643  -1.919  1.00 20.00    -0.021 C 
HETATM   10  C3  UNL     1     -35.430  17.150  -0.929  1.00 20.00     0.009 C 
HETATM   11  C4  UNL     1     -33.321  17.726  -2.146  1.00 20.00     0.009 C 
ENDBRANCH   8   9
ENDBRANCH   2   8
TORSDOF 4
ENDMDL
MODEL 7
REMARK VINA RESULT:      -4.2     10.982     11.635
REMARK  4 active torsions:
REMARK  status: ('A' for Active; 'I' for Inactive)
REMARK    1  A    between atoms: C2_2  and  C7_7 
REMARK    2  A    between atoms: C2_2  and  O11_11 
REMARK    3  A    between atoms: C6_6  and  C7_7 
REMARK    4  A    between atoms: C6_6  and  C8_8 
ROOT
HETATM    1  C1  UNL     1     -33.741  16.737  -5.064  1.00 20.00     0.074 C 
HETATM    2  C7  UNL     1     -33.756  15.918  -3.837  1.00 20.00     0.192 C 
HETATM    3  N9  UNL     1     -33.725  17.380  -6.029  1.00 20.00    -0.196 NA
ENDROOT
BRANCH   2   4
HETATM    4  C2  UNL     1     -34.045  14.465  -4.178  1.00 20.00     0.276 C 
HETATM    5  O10 UNL     1     -33.197  13.602  -4.363  1.00 20.00    -0.264 OA
BRANCH   4   6
HETATM    6  O11 UNL     1     -35.399  14.275  -4.239  1.00 20.00    -0.325 OA
HETATM    7  C5  UNL     1     -35.862  13.485  -5.340  1.00 20.00     0.213 C 
ENDBRANCH   4   6
ENDBRANCH   2   4
BRANCH   2   8
HETATM    8  C6  UNL     1     -34.816  16.421  -2.840  1.00 20.00     0.033 C 
BRANCH   8   9
HETATM    9  C8  UNL     1     -34.263  16.922  -1.488  1.00 20.00    -0.021 C 
HETATM   10  C3  UNL     1     -35.421  17.374  -0.593  1.00 20.00     0.009 C 
HETATM   11  C4  UNL     1     -33.264  18.068  -1.656  1.00 20.00     0.009 C 
ENDBRANCH   8   9
ENDBRANCH   2   8
TORSDOF 4
ENDMDL
MODEL 8
REMARK VINA RESULT:      -4.2     11.247     12.268
REMARK  4 active torsions:
REMARK  status: ('A' for Active; 'I' for Inactive)
REMARK    1  A    between atoms: C2_2  and  C7_7 
REMARK    2  A    between atoms: C2_2  and  O11_11 
REMARK    3  A    between atoms: C6_6  and  C7_7 
REMARK    4  A    between atoms: C6_6  and  C8_8 
ROOT
HETATM    1  C1  UNL     1     -35.426  13.937  -5.058  1.00 20.00     0.074 C 
HETATM    2  C7  UNL     1     -34.864  15.278  -4.812  1.00 20.00     0.192 C 
HETATM    3  N9  UNL     1     -35.870  12.884  -5.253  1.00 20.00    -0.196 NA
ENDROOT
BRANCH   2   4
HETATM    4  C2  UNL     1     -33.691  15.536  -5.745  1.00 20.00     0.276 C 
HETATM    5  O10 UNL     1     -32.518  15.609  -5.399  1.00 20.00    -0.264 OA
BRANCH   4   6
HETATM    6  O11 UNL     1     -34.151  15.669  -7.026  1.00 20.00    -0.325 OA
HETATM    7  C5  UNL     1     -34.078  16.989  -7.575  1.00 20.00     0.213 C 
ENDBRANCH   4   6
ENDBRANCH   2   4
BRANCH   2   8
HETATM    8  C6  UNL     1     -34.389  15.429  -3.355  1.00 20.00     0.033 C 
BRANCH   8   9
HETATM    9  C8  UNL     1     -34.558  16.839  -2.750  1.00 20.00    -0.021 C 
HETATM   10  C3  UNL     1     -33.227  17.307  -2.154  1.00 20.00     0.009 C 
HETATM   11  C4  UNL     1     -35.646  16.886  -1.676  1.00 20.00     0.009 C 
ENDBRANCH   8   9
ENDBRANCH   2   8
TORSDOF 4
ENDMDL
MODEL 9
REMARK VINA RESULT:      -4.1      1.685      4.077
REMARK  4 active torsions:
REMARK  status: ('A' for Active; 'I' for Inactive)
REMARK    1  A    between atoms: C2_2  and  C7_7 
REMARK    2  A    between atoms: C2_2  and  O11_11 
REMARK    3  A    between atoms: C6_6  and  C7_7 
REMARK    4  A    between atoms: C6_6  and  C8_8 
ROOT
HETATM    1  C1  UNL     1     -33.396   7.361   5.284  1.00 20.00     0.074 C 
HETATM    2  C7  UNL     1     -32.883   6.856   3.997  1.00 20.00     0.192 C 
HETATM    3  N9  UNL     1     -33.796   7.757   6.298  1.00 20.00    -0.196 NA
ENDROOT
BRANCH   2   4
HETATM    4  C2  UNL     1     -32.177   7.969   3.238  1.00 20.00     0.276 C 
HETATM    5  O10 UNL     1     -31.211   8.599   3.649  1.00 20.00    -0.264 OA
BRANCH   4   6
HETATM    6  O11 UNL     1     -32.786   8.150   2.027  1.00 20.00    -0.325 OA
HETATM    7  C5  UNL     1     -32.110   9.026   1.120  1.00 20.00     0.213 C 
ENDBRANCH   4   6
ENDBRANCH   2   4
BRANCH   2   8
HETATM    8  C6  UNL     1     -34.018   6.294   3.122  1.00 20.00     0.033 C 
BRANCH   8   9
HETATM    9  C8  UNL     1     -34.047   4.756   2.989  1.00 20.00    -0.021 C 
HETATM   10  C3  UNL     1     -34.285   4.124   4.364  1.00 20.00     0.009 C 
HETATM   11  C4  UNL     1     -32.758   4.199   2.383  1.00 20.00     0.009 C 
ENDBRANCH   8   9
ENDBRANCH   2   8
TORSDOF 4
ENDMDL
