MODEL 1
REMARK VINA RESULT:      -6.6      0.000      0.000
REMARK  3 active torsions:
REMARK  status: ('A' for Active; 'I' for Inactive)
REMARK    1  A    between atoms: C7_7  and  C9_9 
REMARK    2  A    between atoms: C8_8  and  O11_11 
REMARK    3  A    between atoms: C9_9  and  O11_11 
ROOT
HETATM    1  C1  UNL     1     -34.289   5.133   4.272  1.00 20.00     0.129 C 
HETATM    2  C2  UNL     1     -34.240   6.132   5.398  1.00 20.00     0.081 C 
HETATM    3  C3  UNL     1     -33.685   5.671   3.002  1.00 20.00     0.110 C 
HETATM    4  C4  UNL     1     -33.914   7.416   4.652  1.00 20.00     0.040 C 
HETATM    5  C8  UNL     1     -33.046   6.970   3.479  1.00 20.00     0.128 C 
HETATM    6  O10 UNL     1     -34.756   4.006   4.381  1.00 20.00    -0.298 OA
ENDROOT
BRANCH   5   7
HETATM    7  O11 UNL     1     -33.057   7.940   2.446  1.00 20.00    -0.385 OA
BRANCH   7   8
HETATM    8  C9  UNL     1     -31.746   8.201   1.967  1.00 20.00     0.172 C 
BRANCH   8   9
HETATM    9  C7  UNL     1     -31.816   9.266   0.893  1.00 20.00     0.009 A 
HETATM   10  C5  UNL     1     -33.013   9.348  -0.014  1.00 20.00     0.007 A 
HETATM   11  C6  UNL     1     -32.783  10.410   1.025  1.00 20.00     0.007 A 
ENDBRANCH   8   9
ENDBRANCH   7   8
ENDBRANCH   5   7
TORSDOF 3
ENDMDL
MODEL 2
REMARK VINA RESULT:      -6.3      0.970      1.664
REMARK  3 active torsions:
REMARK  status: ('A' for Active; 'I' for Inactive)
REMARK    1  A    between atoms: C7_7  and  C9_9 
REMARK    2  A    between atoms: C8_8  and  O11_11 
REMARK    3  A    between atoms: C9_9  and  O11_11 
ROOT
HETATM    1  C1  UNL     1     -34.337   6.008   5.072  1.00 20.00     0.129 C 
HETATM    2  C2  UNL     1     -34.411   5.333   3.727  1.00 20.00     0.081 C 
HETATM    3  C3  UNL     1     -33.473   7.242   5.047  1.00 20.00     0.110 C 
HETATM    4  C4  UNL     1     -33.266   6.005   2.986  1.00 20.00     0.040 C 
HETATM    5  C8  UNL     1     -33.215   7.419   3.555  1.00 20.00     0.128 C 
HETATM    6  O10 UNL     1     -34.923   5.606   6.069  1.00 20.00    -0.298 OA
ENDROOT
BRANCH   5   7
HETATM    7  O11 UNL     1     -31.945   8.007   3.335  1.00 20.00    -0.385 OA
BRANCH   7   8
HETATM    8  C9  UNL     1     -31.724   8.261   1.955  1.00 20.00     0.172 C 
BRANCH   8   9
HETATM    9  C7  UNL     1     -32.829   9.156   1.435  1.00 20.00     0.009 A 
HETATM   10  C5  UNL     1     -32.527  10.570   1.022  1.00 20.00     0.007 A 
HETATM   11  C6  UNL     1     -32.871   9.539  -0.018  1.00 20.00     0.007 A 
ENDBRANCH   8   9
ENDBRANCH   7   8
ENDBRANCH   5   7
TORSDOF 3
ENDMDL
MODEL 3
REMARK VINA RESULT:      -4.8      1.493      4.984
REMARK  3 active torsions:
REMARK  status: ('A' for Active; 'I' for Inactive)
REMARK    1  A    between atoms: C7_7  and  C9_9 
REMARK    2  A    between atoms: C8_8  and  O11_11 
REMARK    3  A    between atoms: C9_9  and  O11_11 
ROOT
HETATM    1  C1  UNL     1     -32.919   9.139   0.399  1.00 20.00     0.129 C 
HETATM    2  C2  UNL     1     -32.231  10.072   1.362  1.00 20.00     0.081 C 
HETATM    3  C3  UNL     1     -33.229   7.802   1.021  1.00 20.00     0.110 C 
HETATM    4  C4  UNL     1     -31.815   9.116   2.468  1.00 20.00     0.040 C 
HETATM    5  C8  UNL     1     -32.908   8.052   2.490  1.00 20.00     0.128 C 
HETATM    6  O10 UNL     1     -33.205   9.438  -0.753  1.00 20.00    -0.298 OA
ENDROOT
BRANCH   5   7
HETATM    7  O11 UNL     1     -32.444   6.865   3.107  1.00 20.00    -0.385 OA
BRANCH   7   8
HETATM    8  C9  UNL     1     -33.446   5.858   3.113  1.00 20.00     0.172 C 
BRANCH   8   9
HETATM    9  C7  UNL     1     -34.472   6.189   4.175  1.00 20.00     0.009 A 
HETATM   10  C5  UNL     1     -34.656   5.279   5.359  1.00 20.00     0.007 A 
HETATM   11  C6  UNL     1     -34.029   6.634   5.542  1.00 20.00     0.007 A 
ENDBRANCH   8   9
ENDBRANCH   7   8
ENDBRANCH   5   7
TORSDOF 3
ENDMDL
MODEL 4
REMARK VINA RESULT:      -4.5     10.322     11.144
REMARK  3 active torsions:
REMARK  status: ('A' for Active; 'I' for Inactive)
REMARK    1  A    between atoms: C7_7  and  C9_9 
REMARK    2  A    between atoms: C8_8  and  O11_11 
REMARK    3  A    between atoms: C9_9  and  O11_11 
ROOT
HETATM    1  C1  UNL     1     -35.707  13.711  -4.905  1.00 20.00     0.129 C 
HETATM    2  C2  UNL     1     -36.788  14.759  -4.876  1.00 20.00     0.081 C 
HETATM    3  C3  UNL     1     -34.418  14.199  -4.296  1.00 20.00     0.110 C 
HETATM    4  C4  UNL     1     -35.988  16.012  -4.557  1.00 20.00     0.040 C 
HETATM    5  C8  UNL     1     -34.843  15.525  -3.675  1.00 20.00     0.128 C 
HETATM    6  O10 UNL     1     -35.861  12.585  -5.361  1.00 20.00    -0.298 OA
ENDROOT
BRANCH   5   7
HETATM    7  O11 UNL     1     -33.768  16.448  -3.688  1.00 20.00    -0.385 OA
BRANCH   7   8
HETATM    8  C9  UNL     1     -34.025  17.555  -2.837  1.00 20.00     0.172 C 
BRANCH   8   9
HETATM    9  C7  UNL     1     -34.196  17.057  -1.417  1.00 20.00     0.009 A 
HETATM   10  C5  UNL     1     -34.139  18.021  -0.265  1.00 20.00     0.007 A 
HETATM   11  C6  UNL     1     -35.446  17.382  -0.647  1.00 20.00     0.007 A 
ENDBRANCH   8   9
ENDBRANCH   7   8
ENDBRANCH   5   7
TORSDOF 3
ENDMDL
MODEL 5
REMARK VINA RESULT:      -4.5      1.464      5.107
REMARK  3 active torsions:
REMARK  status: ('A' for Active; 'I' for Inactive)
REMARK    1  A    between atoms: C7_7  and  C9_9 
REMARK    2  A    between atoms: C8_8  and  O11_11 
REMARK    3  A    between atoms: C9_9  and  O11_11 
ROOT
HETATM    1  C1  UNL     1     -32.417  10.062   1.564  1.00 20.00     0.129 C 
HETATM    2  C2  UNL     1     -32.601   9.152   0.378  1.00 20.00     0.081 C 
HETATM    3  C3  UNL     1     -32.144   9.299   2.834  1.00 20.00     0.110 C 
HETATM    4  C4  UNL     1     -32.790   7.804   1.055  1.00 20.00     0.040 C 
HETATM    5  C8  UNL     1     -31.933   7.882   2.314  1.00 20.00     0.128 C 
HETATM    6  O10 UNL     1     -32.471  11.284   1.500  1.00 20.00    -0.298 OA
ENDROOT
BRANCH   5   7
HETATM    7  O11 UNL     1     -32.359   6.931   3.274  1.00 20.00    -0.385 OA
BRANCH   7   8
HETATM    8  C9  UNL     1     -33.581   6.318   2.890  1.00 20.00     0.172 C 
BRANCH   8   9
HETATM    9  C7  UNL     1     -34.562   6.409   4.040  1.00 20.00     0.009 A 
HETATM   10  C5  UNL     1     -34.591   5.339   5.096  1.00 20.00     0.007 A 
HETATM   11  C6  UNL     1     -34.072   6.711   5.429  1.00 20.00     0.007 A 
ENDBRANCH   8   9
ENDBRANCH   7   8
ENDBRANCH   5   7
TORSDOF 3
ENDMDL
MODEL 6
REMARK VINA RESULT:      -4.5     10.727     11.619
REMARK  3 active torsions:
REMARK  status: ('A' for Active; 'I' for Inactive)
REMARK    1  A    between atoms: C7_7  and  C9_9 
REMARK    2  A    between atoms: C8_8  and  O11_11 
REMARK    3  A    between atoms: C9_9  and  O11_11 
ROOT
HETATM    1  C1  UNL     1     -35.490  13.803  -5.400  1.00 20.00     0.129 C 
HETATM    2  C2  UNL     1     -34.477  14.258  -6.418  1.00 20.00     0.081 C 
HETATM    3  C3  UNL     1     -35.967  14.931  -4.524  1.00 20.00     0.110 C 
HETATM    4  C4  UNL     1     -34.097  15.627  -5.878  1.00 20.00     0.040 C 
HETATM    5  C8  UNL     1     -35.369  16.149  -5.218  1.00 20.00     0.128 C 
HETATM    6  O10 UNL     1     -35.889  12.649  -5.305  1.00 20.00    -0.298 OA
ENDROOT
BRANCH   5   7
HETATM    7  O11 UNL     1     -35.070  17.163  -4.276  1.00 20.00    -0.385 OA
BRANCH   7   8
HETATM    8  C9  UNL     1     -33.716  17.095  -3.853  1.00 20.00     0.172 C 
BRANCH   8   9
HETATM    9  C7  UNL     1     -33.676  16.719  -2.387  1.00 20.00     0.009 A 
HETATM   10  C5  UNL     1     -33.636  17.790  -1.332  1.00 20.00     0.007 A 
HETATM   11  C6  UNL     1     -34.876  16.957  -1.512  1.00 20.00     0.007 A 
ENDBRANCH   8   9
ENDBRANCH   7   8
ENDBRANCH   5   7
TORSDOF 3
ENDMDL
MODEL 7
REMARK VINA RESULT:      -4.4     10.772     11.414
REMARK  3 active torsions:
REMARK  status: ('A' for Active; 'I' for Inactive)
REMARK    1  A    between atoms: C7_7  and  C9_9 
REMARK    2  A    between atoms: C8_8  and  O11_11 
REMARK    3  A    between atoms: C9_9  and  O11_11 
ROOT
HETATM    1  C1  UNL     1     -37.030  14.358  -4.895  1.00 20.00     0.129 C 
HETATM    2  C2  UNL     1     -35.842  13.460  -5.119  1.00 20.00     0.081 C 
HETATM    3  C3  UNL     1     -36.632  15.798  -4.705  1.00 20.00     0.110 C 
HETATM    4  C4  UNL     1     -34.694  14.362  -4.693  1.00 20.00     0.040 C 
HETATM    5  C8  UNL     1     -35.151  15.769  -5.064  1.00 20.00     0.128 C 
HETATM    6  O10 UNL     1     -38.189  13.964  -4.881  1.00 20.00    -0.298 OA
ENDROOT
BRANCH   5   7
HETATM    7  O11 UNL     1     -34.438  16.743  -4.322  1.00 20.00    -0.385 OA
BRANCH   7   8
HETATM    8  C9  UNL     1     -33.730  16.155  -3.241  1.00 20.00     0.172 C 
BRANCH   8   9
HETATM    9  C7  UNL     1     -33.986  16.963  -1.986  1.00 20.00     0.009 A 
HETATM   10  C5  UNL     1     -34.898  18.157  -2.029  1.00 20.00     0.007 A 
HETATM   11  C6  UNL     1     -35.330  16.907  -1.313  1.00 20.00     0.007 A 
ENDBRANCH   8   9
ENDBRANCH   7   8
ENDBRANCH   5   7
TORSDOF 3
ENDMDL
MODEL 8
REMARK VINA RESULT:      -4.4      1.574      2.257
REMARK  3 active torsions:
REMARK  status: ('A' for Active; 'I' for Inactive)
REMARK    1  A    between atoms: C7_7  and  C9_9 
REMARK    2  A    between atoms: C8_8  and  O11_11 
REMARK    3  A    between atoms: C9_9  and  O11_11 
ROOT
HETATM    1  C1  UNL     1     -34.322   6.442   5.798  1.00 20.00     0.129 C 
HETATM    2  C2  UNL     1     -34.585   4.963   5.685  1.00 20.00     0.081 C 
HETATM    3  C3  UNL     1     -34.158   7.099   4.453  1.00 20.00     0.110 C 
HETATM    4  C4  UNL     1     -34.210   4.697   4.236  1.00 20.00     0.040 C 
HETATM    5  C8  UNL     1     -34.574   5.983   3.501  1.00 20.00     0.128 C 
HETATM    6  O10 UNL     1     -34.261   7.043   6.863  1.00 20.00    -0.298 OA
ENDROOT
BRANCH   5   7
HETATM    7  O11 UNL     1     -33.868   6.083   2.277  1.00 20.00    -0.385 OA
BRANCH   7   8
HETATM    8  C9  UNL     1     -32.639   6.776   2.443  1.00 20.00     0.172 C 
BRANCH   8   9
HETATM    9  C7  UNL     1     -32.850   8.238   2.111  1.00 20.00     0.009 A 
HETATM   10  C5  UNL     1     -31.670   9.160   1.973  1.00 20.00     0.007 A 
HETATM   11  C6  UNL     1     -32.465   8.770   0.758  1.00 20.00     0.007 A 
ENDBRANCH   8   9
ENDBRANCH   7   8
ENDBRANCH   5   7
TORSDOF 3
ENDMDL
MODEL 9
REMARK VINA RESULT:      -4.2     10.538     11.352
REMARK  3 active torsions:
REMARK  status: ('A' for Active; 'I' for Inactive)
REMARK    1  A    between atoms: C7_7  and  C9_9 
REMARK    2  A    between atoms: C8_8  and  O11_11 
REMARK    3  A    between atoms: C9_9  and  O11_11 
ROOT
HETATM    1  C1  UNL     1     -32.912  18.053  -0.931  1.00 20.00     0.129 C 
HETATM    2  C2  UNL     1     -34.019  18.298   0.060  1.00 20.00     0.081 C 
HETATM    3  C3  UNL     1     -33.390  17.312  -2.152  1.00 20.00     0.110 C 
HETATM    4  C4  UNL     1     -35.097  17.355  -0.448  1.00 20.00     0.040 C 
HETATM    5  C8  UNL     1     -34.902  17.326  -1.961  1.00 20.00     0.128 C 
HETATM    6  O10 UNL     1     -31.756  18.426  -0.769  1.00 20.00    -0.298 OA
ENDROOT
BRANCH   5   7
HETATM    7  O11 UNL     1     -35.487  16.165  -2.524  1.00 20.00    -0.385 OA
BRANCH   7   8
HETATM    8  C9  UNL     1     -35.202  16.062  -3.911  1.00 20.00     0.172 C 
BRANCH   8   9
HETATM    9  C7  UNL     1     -34.713  14.661  -4.211  1.00 20.00     0.009 A 
HETATM   10  C5  UNL     1     -34.196  14.317  -5.580  1.00 20.00     0.007 A 
HETATM   11  C6  UNL     1     -33.246  14.400  -4.417  1.00 20.00     0.007 A 
ENDBRANCH   8   9
ENDBRANCH   7   8
ENDBRANCH   5   7
TORSDOF 3
ENDMDL
