MODEL 1
REMARK VINA RESULT:      -7.1      0.000      0.000
REMARK  2 active torsions:
REMARK  status: ('A' for Active; 'I' for Inactive)
REMARK    1  A    between atoms: C2_2  and  C8_8 
REMARK    2  A    between atoms: C2_2  and  C9_9 
ROOT
HETATM    1  C1  UNL     1     -34.310   5.153   4.408  1.00 20.00     0.127 C 
HETATM    2  C3  UNL     1     -34.419   6.097   5.574  1.00 20.00     0.079 C 
HETATM    3  C4  UNL     1     -33.738   5.817   3.182  1.00 20.00     0.090 C 
HETATM    4  C5  UNL     1     -33.529   7.248   5.125  1.00 20.00     0.020 C 
HETATM    5  C8  UNL     1     -33.671   7.283   3.604  1.00 20.00     0.063 C 
HETATM    6  O10 UNL     1     -34.664   3.981   4.445  1.00 20.00    -0.298 OA
ENDROOT
BRANCH   5   7
HETATM    7  C2  UNL     1     -32.502   7.968   2.973  1.00 20.00     0.135 C 
HETATM    8  O11 UNL     1     -31.457   8.163   3.591  1.00 20.00    -0.297 OA
BRANCH   7   9
HETATM    9  C9  UNL     1     -32.668   8.409   1.544  1.00 20.00     0.056 A 
HETATM   10  C6  UNL     1     -32.519   9.855   1.234  1.00 20.00     0.013 A 
HETATM   11  C7  UNL     1     -31.461   8.880   0.813  1.00 20.00     0.013 A 
ENDBRANCH   7   9
ENDBRANCH   5   7
TORSDOF 2
ENDMDL
MODEL 2
REMARK VINA RESULT:      -6.0      1.008      1.550
REMARK  2 active torsions:
REMARK  status: ('A' for Active; 'I' for Inactive)
REMARK    1  A    between atoms: C2_2  and  C8_8 
REMARK    2  A    between atoms: C2_2  and  C9_9 
ROOT
HETATM    1  C1  UNL     1     -34.313   6.222   4.939  1.00 20.00     0.127 C 
HETATM    2  C3  UNL     1     -34.613   5.545   3.630  1.00 20.00     0.079 C 
HETATM    3  C4  UNL     1     -33.165   7.192   4.834  1.00 20.00     0.090 C 
HETATM    4  C5  UNL     1     -33.863   6.430   2.644  1.00 20.00     0.020 C 
HETATM    5  C8  UNL     1     -32.649   6.938   3.419  1.00 20.00     0.063 C 
HETATM    6  O10 UNL     1     -34.921   5.997   5.978  1.00 20.00    -0.298 OA
ENDROOT
BRANCH   5   7
HETATM    7  C2  UNL     1     -32.114   8.194   2.812  1.00 20.00     0.135 C 
HETATM    8  O11 UNL     1     -31.195   8.823   3.334  1.00 20.00    -0.297 OA
BRANCH   7   9
HETATM    9  C9  UNL     1     -32.756   8.653   1.530  1.00 20.00     0.056 A 
HETATM   10  C6  UNL     1     -32.697  10.100   1.195  1.00 20.00     0.013 A 
HETATM   11  C7  UNL     1     -31.868   9.113   0.429  1.00 20.00     0.013 A 
ENDBRANCH   7   9
ENDBRANCH   5   7
TORSDOF 2
ENDMDL
MODEL 3
REMARK VINA RESULT:      -5.8      1.776      4.584
REMARK  2 active torsions:
REMARK  status: ('A' for Active; 'I' for Inactive)
REMARK    1  A    between atoms: C2_2  and  C8_8 
REMARK    2  A    between atoms: C2_2  and  C9_9 
ROOT
HETATM    1  C1  UNL     1     -32.573   8.590   1.572  1.00 20.00     0.127 C 
HETATM    2  C3  UNL     1     -31.263   8.699   2.302  1.00 20.00     0.079 C 
HETATM    3  C4  UNL     1     -33.566   7.721   2.299  1.00 20.00     0.090 C 
HETATM    4  C5  UNL     1     -31.636   8.186   3.685  1.00 20.00     0.020 C 
HETATM    5  C8  UNL     1     -32.727   7.145   3.437  1.00 20.00     0.063 C 
HETATM    6  O10 UNL     1     -32.802   9.131   0.497  1.00 20.00    -0.298 OA
ENDROOT
BRANCH   5   7
HETATM    7  C2  UNL     1     -33.557   6.937   4.662  1.00 20.00     0.135 C 
HETATM    8  O11 UNL     1     -33.349   7.568   5.698  1.00 20.00    -0.297 OA
BRANCH   7   9
HETATM    9  C9  UNL     1     -34.658   5.917   4.568  1.00 20.00     0.056 A 
HETATM   10  C6  UNL     1     -34.289   4.514   4.242  1.00 20.00     0.013 A 
HETATM   11  C7  UNL     1     -34.739   4.874   5.626  1.00 20.00     0.013 A 
ENDBRANCH   7   9
ENDBRANCH   5   7
TORSDOF 2
ENDMDL
MODEL 4
REMARK VINA RESULT:      -5.0      1.525      4.547
REMARK  2 active torsions:
REMARK  status: ('A' for Active; 'I' for Inactive)
REMARK    1  A    between atoms: C2_2  and  C8_8 
REMARK    2  A    between atoms: C2_2  and  C9_9 
ROOT
HETATM    1  C1  UNL     1     -32.590   9.136   1.732  1.00 20.00     0.127 C 
HETATM    2  C3  UNL     1     -31.501   9.096   2.768  1.00 20.00     0.079 C 
HETATM    3  C4  UNL     1     -33.326   7.827   1.619  1.00 20.00     0.090 C 
HETATM    4  C5  UNL     1     -31.864   7.841   3.550  1.00 20.00     0.020 C 
HETATM    5  C8  UNL     1     -32.503   6.909   2.521  1.00 20.00     0.063 C 
HETATM    6  O10 UNL     1     -32.840  10.118   1.045  1.00 20.00    -0.298 OA
ENDROOT
BRANCH   5   7
HETATM    7  C2  UNL     1     -33.373   5.893   3.187  1.00 20.00     0.135 C 
HETATM    8  O11 UNL     1     -33.252   4.690   2.958  1.00 20.00    -0.297 OA
BRANCH   7   9
HETATM    9  C9  UNL     1     -34.406   6.413   4.150  1.00 20.00     0.056 A 
HETATM   10  C6  UNL     1     -34.864   5.512   5.241  1.00 20.00     0.013 A 
HETATM   11  C7  UNL     1     -33.982   6.684   5.550  1.00 20.00     0.013 A 
ENDBRANCH   7   9
ENDBRANCH   5   7
TORSDOF 2
ENDMDL
MODEL 5
REMARK VINA RESULT:      -4.9      1.822      4.723
REMARK  2 active torsions:
REMARK  status: ('A' for Active; 'I' for Inactive)
REMARK    1  A    between atoms: C2_2  and  C8_8 
REMARK    2  A    between atoms: C2_2  and  C9_9 
ROOT
HETATM    1  C1  UNL     1     -32.954   9.430   0.042  1.00 20.00     0.127 C 
HETATM    2  C3  UNL     1     -32.382  10.500   0.931  1.00 20.00     0.079 C 
HETATM    3  C4  UNL     1     -32.958   8.076   0.701  1.00 20.00     0.090 C 
HETATM    4  C5  UNL     1     -32.405   9.816   2.291  1.00 20.00     0.020 C 
HETATM    5  C8  UNL     1     -32.181   8.336   1.990  1.00 20.00     0.063 C 
HETATM    6  O10 UNL     1     -33.354   9.634  -1.097  1.00 20.00    -0.298 OA
ENDROOT
BRANCH   5   7
HETATM    7  C2  UNL     1     -32.690   7.480   3.104  1.00 20.00     0.135 C 
HETATM    8  O11 UNL     1     -32.353   7.671   4.271  1.00 20.00    -0.297 OA
BRANCH   7   9
HETATM    9  C9  UNL     1     -33.634   6.370   2.727  1.00 20.00     0.056 A 
HETATM   10  C6  UNL     1     -33.161   4.968   2.869  1.00 20.00     0.013 A 
HETATM   11  C7  UNL     1     -34.184   5.519   3.816  1.00 20.00     0.013 A 
ENDBRANCH   7   9
ENDBRANCH   5   7
TORSDOF 2
ENDMDL
MODEL 6
REMARK VINA RESULT:      -4.8      1.727      2.152
REMARK  2 active torsions:
REMARK  status: ('A' for Active; 'I' for Inactive)
REMARK    1  A    between atoms: C2_2  and  C8_8 
REMARK    2  A    between atoms: C2_2  and  C9_9 
ROOT
HETATM    1  C1  UNL     1     -34.022   6.838   5.580  1.00 20.00     0.127 C 
HETATM    2  C3  UNL     1     -34.573   5.575   4.976  1.00 20.00     0.079 C 
HETATM    3  C4  UNL     1     -33.181   7.621   4.606  1.00 20.00     0.090 C 
HETATM    4  C5  UNL     1     -34.359   5.824   3.490  1.00 20.00     0.020 C 
HETATM    5  C8  UNL     1     -33.091   6.672   3.412  1.00 20.00     0.063 C 
HETATM    6  O10 UNL     1     -34.219   7.181   6.739  1.00 20.00    -0.298 OA
ENDROOT
BRANCH   5   7
HETATM    7  C2  UNL     1     -33.033   7.432   2.128  1.00 20.00     0.135 C 
HETATM    8  O11 UNL     1     -33.754   7.144   1.174  1.00 20.00    -0.297 OA
BRANCH   7   9
HETATM    9  C9  UNL     1     -32.047   8.568   2.057  1.00 20.00     0.056 A 
HETATM   10  C6  UNL     1     -31.445   8.893   0.737  1.00 20.00     0.013 A 
HETATM   11  C7  UNL     1     -32.460   9.810   1.350  1.00 20.00     0.013 A 
ENDBRANCH   7   9
ENDBRANCH   5   7
TORSDOF 2
ENDMDL
MODEL 7
REMARK VINA RESULT:      -4.8     10.794     11.860
REMARK  2 active torsions:
REMARK  status: ('A' for Active; 'I' for Inactive)
REMARK    1  A    between atoms: C2_2  and  C8_8 
REMARK    2  A    between atoms: C2_2  and  C9_9 
ROOT
HETATM    1  C1  UNL     1     -35.164  13.704  -5.291  1.00 20.00     0.127 C 
HETATM    2  C3  UNL     1     -34.564  14.218  -6.571  1.00 20.00     0.079 C 
HETATM    3  C4  UNL     1     -34.685  14.469  -4.084  1.00 20.00     0.090 C 
HETATM    4  C5  UNL     1     -34.012  15.567  -6.134  1.00 20.00     0.020 C 
HETATM    5  C8  UNL     1     -33.604  15.372  -4.675  1.00 20.00     0.063 C 
HETATM    6  O10 UNL     1     -35.941  12.759  -5.234  1.00 20.00    -0.298 OA
ENDROOT
BRANCH   5   7
HETATM    7  C2  UNL     1     -33.547  16.679  -3.955  1.00 20.00     0.135 C 
HETATM    8  O11 UNL     1     -33.441  17.745  -4.559  1.00 20.00    -0.297 OA
BRANCH   7   9
HETATM    9  C9  UNL     1     -33.625  16.629  -2.453  1.00 20.00     0.056 A 
HETATM   10  C6  UNL     1     -33.184  17.824  -1.687  1.00 20.00     0.013 A 
HETATM   11  C7  UNL     1     -34.640  17.479  -1.776  1.00 20.00     0.013 A 
ENDBRANCH   7   9
ENDBRANCH   5   7
TORSDOF 2
ENDMDL
MODEL 8
REMARK VINA RESULT:      -4.7     10.756     11.431
REMARK  2 active torsions:
REMARK  status: ('A' for Active; 'I' for Inactive)
REMARK    1  A    between atoms: C2_2  and  C8_8 
REMARK    2  A    between atoms: C2_2  and  C9_9 
ROOT
HETATM    1  C1  UNL     1     -35.810  13.756  -4.836  1.00 20.00     0.127 C 
HETATM    2  C3  UNL     1     -37.001  14.671  -4.919  1.00 20.00     0.079 C 
HETATM    3  C4  UNL     1     -34.632  14.406  -4.158  1.00 20.00     0.090 C 
HETATM    4  C5  UNL     1     -36.628  15.756  -3.918  1.00 20.00     0.020 C 
HETATM    5  C8  UNL     1     -35.105  15.848  -3.989  1.00 20.00     0.063 C 
HETATM    6  O10 UNL     1     -35.793  12.617  -5.286  1.00 20.00    -0.298 OA
ENDROOT
BRANCH   5   7
HETATM    7  C2  UNL     1     -34.546  16.452  -2.742  1.00 20.00     0.135 C 
HETATM    8  O11 UNL     1     -33.339  16.637  -2.599  1.00 20.00    -0.297 OA
BRANCH   7   9
HETATM    9  C9  UNL     1     -35.534  16.820  -1.668  1.00 20.00     0.056 A 
HETATM   10  C6  UNL     1     -35.013  17.426  -0.414  1.00 20.00     0.013 A 
HETATM   11  C7  UNL     1     -35.770  18.264  -1.400  1.00 20.00     0.013 A 
ENDBRANCH   7   9
ENDBRANCH   5   7
TORSDOF 2
ENDMDL
MODEL 9
REMARK VINA RESULT:      -4.6     10.941     11.820
REMARK  2 active torsions:
REMARK  status: ('A' for Active; 'I' for Inactive)
REMARK    1  A    between atoms: C2_2  and  C8_8 
REMARK    2  A    between atoms: C2_2  and  C9_9 
ROOT
HETATM    1  C1  UNL     1     -33.197  17.882  -1.413  1.00 20.00     0.127 C 
HETATM    2  C3  UNL     1     -34.272  17.789  -0.366  1.00 20.00     0.079 C 
HETATM    3  C4  UNL     1     -33.539  17.108  -2.659  1.00 20.00     0.090 C 
HETATM    4  C5  UNL     1     -35.446  17.256  -1.174  1.00 20.00     0.020 C 
HETATM    5  C8  UNL     1     -34.814  16.373  -2.249  1.00 20.00     0.063 C 
HETATM    6  O10 UNL     1     -32.152  18.503  -1.264  1.00 20.00    -0.298 OA
ENDROOT
BRANCH   5   7
HETATM    7  C2  UNL     1     -35.734  16.207  -3.414  1.00 20.00     0.135 C 
HETATM    8  O11 UNL     1     -36.844  16.738  -3.442  1.00 20.00    -0.297 OA
BRANCH   7   9
HETATM    9  C9  UNL     1     -35.238  15.358  -4.553  1.00 20.00     0.056 A 
HETATM   10  C6  UNL     1     -34.596  14.056  -4.229  1.00 20.00     0.013 A 
HETATM   11  C7  UNL     1     -35.961  14.092  -4.849  1.00 20.00     0.013 A 
ENDBRANCH   7   9
ENDBRANCH   5   7
TORSDOF 2
ENDMDL
