MODEL 1
REMARK VINA RESULT:      -5.6      0.000      0.000
REMARK  0 active torsions:
REMARK  status: ('A' for Active; 'I' for Inactive)
ROOT
HETATM    1  C1  UNL     1     -32.316   8.167   4.725  1.00 20.00     0.009 A 
HETATM    2  C2  UNL     1     -31.705   8.571   3.536  1.00 20.00     0.024 A 
HETATM    3  C3  UNL     1     -33.136   7.089   2.243  1.00 20.00     0.033 A 
HETATM    4  C4  UNL     1     -33.323   7.221   4.656  1.00 20.00    -0.050 A 
HETATM    5  C5  UNL     1     -33.735   6.689   3.427  1.00 20.00    -0.031 A 
HETATM    6  C6  UNL     1     -32.110   8.035   2.304  1.00 20.00     0.034 A 
HETATM    7  C7  UNL     1     -34.134   6.658   5.783  1.00 20.00     0.045 C 
HETATM    8  C8  UNL     1     -34.859   5.716   3.611  1.00 20.00     0.119 C 
HETATM    9  C9  UNL     1     -34.760   5.403   5.125  1.00 20.00     0.009 C 
HETATM   10  C10 UNL     1     -33.886   4.165   5.372  1.00 20.00     0.012 C 
HETATM   11 CL11 UNL     1     -31.341   8.555   0.853  1.00 20.00    -0.084 Cl
HETATM   12 CL12 UNL     1     -36.404   6.512   3.221  1.00 20.00    -0.119 Cl
ENDROOT
TORSDOF 0
ENDMDL
MODEL 2
REMARK VINA RESULT:      -5.2     11.318     12.292
REMARK  0 active torsions:
REMARK  status: ('A' for Active; 'I' for Inactive)
ROOT
HETATM    1  C1  UNL     1     -35.554  17.015  -1.103  1.00 20.00     0.009 A 
HETATM    2  C2  UNL     1     -34.694  17.693  -0.238  1.00 20.00     0.024 A 
HETATM    3  C3  UNL     1     -32.935  17.700  -1.918  1.00 20.00     0.033 A 
HETATM    4  C4  UNL     1     -35.088  16.680  -2.362  1.00 20.00    -0.050 A 
HETATM    5  C5  UNL     1     -33.793  17.023  -2.770  1.00 20.00    -0.031 A 
HETATM    6  C6  UNL     1     -33.393  18.031  -0.641  1.00 20.00     0.034 A 
HETATM    7  C7  UNL     1     -35.830  15.983  -3.462  1.00 20.00     0.045 C 
HETATM    8  C8  UNL     1     -33.539  16.585  -4.181  1.00 20.00     0.119 C 
HETATM    9  C9  UNL     1     -34.675  15.555  -4.399  1.00 20.00     0.009 C 
HETATM   10  C10 UNL     1     -34.197  14.135  -4.063  1.00 20.00     0.012 C 
HETATM   11 CL11 UNL     1     -32.354  18.871   0.447  1.00 20.00    -0.084 Cl
HETATM   12 CL12 UNL     1     -33.719  17.978  -5.276  1.00 20.00    -0.119 Cl
ENDROOT
TORSDOF 0
ENDMDL
MODEL 3
REMARK VINA RESULT:      -4.7     11.600     12.481
REMARK  0 active torsions:
REMARK  status: ('A' for Active; 'I' for Inactive)
ROOT
HETATM    1  C1  UNL     1     -33.705  16.537  -2.460  1.00 20.00     0.009 A 
HETATM    2  C2  UNL     1     -34.722  17.234  -1.805  1.00 20.00     0.024 A 
HETATM    3  C3  UNL     1     -36.338  16.550  -3.490  1.00 20.00     0.033 A 
HETATM    4  C4  UNL     1     -34.017  15.864  -3.628  1.00 20.00    -0.050 A 
HETATM    5  C5  UNL     1     -35.322  15.864  -4.137  1.00 20.00    -0.031 A 
HETATM    6  C6  UNL     1     -36.029  17.242  -2.317  1.00 20.00     0.034 A 
HETATM    7  C7  UNL     1     -33.108  15.035  -4.482  1.00 20.00     0.045 C 
HETATM    8  C8  UNL     1     -35.413  15.038  -5.385  1.00 20.00     0.119 C 
HETATM    9  C9  UNL     1     -33.923  14.921  -5.793  1.00 20.00     0.009 C 
HETATM   10  C10 UNL     1     -33.536  16.036  -6.775  1.00 20.00     0.012 C 
HETATM   11 CL11 UNL     1     -37.265  18.106  -1.486  1.00 20.00    -0.084 Cl
HETATM   12 CL12 UNL     1     -36.097  13.442  -4.991  1.00 20.00    -0.119 Cl
ENDROOT
TORSDOF 0
ENDMDL
MODEL 4
REMARK VINA RESULT:      -4.7     11.250     12.184
REMARK  0 active torsions:
REMARK  status: ('A' for Active; 'I' for Inactive)
ROOT
HETATM    1  C1  UNL     1     -33.374  15.376  -3.582  1.00 20.00     0.009 A 
HETATM    2  C2  UNL     1     -33.983  14.401  -4.374  1.00 20.00     0.024 A 
HETATM    3  C3  UNL     1     -36.163  15.426  -4.038  1.00 20.00     0.033 A 
HETATM    4  C4  UNL     1     -34.171  16.357  -3.020  1.00 20.00    -0.050 A 
HETATM    5  C5  UNL     1     -35.552  16.387  -3.248  1.00 20.00    -0.031 A 
HETATM    6  C6  UNL     1     -35.368  14.424  -4.599  1.00 20.00     0.034 A 
HETATM    7  C7  UNL     1     -33.744  17.510  -2.164  1.00 20.00     0.045 C 
HETATM    8  C8  UNL     1     -36.186  17.561  -2.566  1.00 20.00     0.119 C 
HETATM    9  C9  UNL     1     -35.090  17.961  -1.546  1.00 20.00     0.009 C 
HETATM   10  C10 UNL     1     -35.325  17.274  -0.193  1.00 20.00     0.012 C 
HETATM   11 CL11 UNL     1     -36.092  13.211  -5.584  1.00 20.00    -0.084 Cl
HETATM   12 CL12 UNL     1     -36.461  18.860  -3.752  1.00 20.00    -0.119 Cl
ENDROOT
TORSDOF 0
ENDMDL
MODEL 5
REMARK VINA RESULT:      -4.6     11.444     12.637
REMARK  0 active torsions:
REMARK  status: ('A' for Active; 'I' for Inactive)
ROOT
HETATM    1  C1  UNL     1     -33.108  17.913  -2.330  1.00 20.00     0.009 A 
HETATM    2  C2  UNL     1     -33.723  17.969  -1.077  1.00 20.00     0.024 A 
HETATM    3  C3  UNL     1     -35.538  16.549  -1.856  1.00 20.00     0.033 A 
HETATM    4  C4  UNL     1     -33.724  17.184  -3.331  1.00 20.00    -0.050 A 
HETATM    5  C5  UNL     1     -34.925  16.503  -3.098  1.00 20.00    -0.031 A 
HETATM    6  C6  UNL     1     -34.930  17.293  -0.842  1.00 20.00     0.034 A 
HETATM    7  C7  UNL     1     -33.245  16.961  -4.733  1.00 20.00     0.045 C 
HETATM    8  C8  UNL     1     -35.370  15.760  -4.321  1.00 20.00     0.119 C 
HETATM    9  C9  UNL     1     -34.528  16.445  -5.427  1.00 20.00     0.009 C 
HETATM   10  C10 UNL     1     -35.306  17.603  -6.067  1.00 20.00     0.012 C 
HETATM   11 CL11 UNL     1     -35.664  17.375   0.714  1.00 20.00    -0.084 Cl
HETATM   12 CL12 UNL     1     -34.938  14.040  -4.160  1.00 20.00    -0.119 Cl
ENDROOT
TORSDOF 0
ENDMDL
MODEL 6
REMARK VINA RESULT:      -4.4     11.482     12.634
REMARK  0 active torsions:
REMARK  status: ('A' for Active; 'I' for Inactive)
ROOT
HETATM    1  C1  UNL     1     -33.304  17.936  -4.547  1.00 20.00     0.009 A 
HETATM    2  C2  UNL     1     -33.610  16.720  -5.161  1.00 20.00     0.024 A 
HETATM    3  C3  UNL     1     -34.371  15.792  -3.046  1.00 20.00     0.033 A 
HETATM    4  C4  UNL     1     -33.528  18.059  -3.187  1.00 20.00    -0.050 A 
HETATM    5  C5  UNL     1     -34.061  17.000  -2.442  1.00 20.00    -0.031 A 
HETATM    6  C6  UNL     1     -34.138  15.655  -4.416  1.00 20.00     0.034 A 
HETATM    7  C7  UNL     1     -33.304  19.263  -2.324  1.00 20.00     0.045 C 
HETATM    8  C8  UNL     1     -34.244  17.389  -1.007  1.00 20.00     0.119 C 
HETATM    9  C9  UNL     1     -33.342  18.646  -0.905  1.00 20.00     0.009 C 
HETATM   10  C10 UNL     1     -31.929  18.268  -0.437  1.00 20.00     0.012 C 
HETATM   11 CL11 UNL     1     -34.509  14.166  -5.200  1.00 20.00    -0.084 Cl
HETATM   12 CL12 UNL     1     -35.952  17.802  -0.716  1.00 20.00    -0.119 Cl
ENDROOT
TORSDOF 0
ENDMDL
MODEL 7
REMARK VINA RESULT:      -4.4     11.466     12.907
REMARK  0 active torsions:
REMARK  status: ('A' for Active; 'I' for Inactive)
ROOT
HETATM    1  C1  UNL     1     -33.332  18.615  -4.329  1.00 20.00     0.009 A 
HETATM    2  C2  UNL     1     -33.250  18.976  -2.983  1.00 20.00     0.024 A 
HETATM    3  C3  UNL     1     -33.708  16.689  -2.294  1.00 20.00     0.033 A 
HETATM    4  C4  UNL     1     -33.612  17.296  -4.638  1.00 20.00    -0.050 A 
HETATM    5  C5  UNL     1     -33.793  16.338  -3.632  1.00 20.00    -0.031 A 
HETATM    6  C6  UNL     1     -33.439  18.021  -1.973  1.00 20.00     0.034 A 
HETATM    7  C7  UNL     1     -33.722  16.673  -5.997  1.00 20.00     0.045 C 
HETATM    8  C8  UNL     1     -34.046  14.982  -4.218  1.00 20.00     0.119 C 
HETATM    9  C9  UNL     1     -34.435  15.337  -5.675  1.00 20.00     0.009 C 
HETATM   10  C10 UNL     1     -35.957  15.484  -5.815  1.00 20.00     0.012 C 
HETATM   11 CL11 UNL     1     -33.328  18.494  -0.320  1.00 20.00    -0.084 Cl
HETATM   12 CL12 UNL     1     -32.545  14.026  -4.171  1.00 20.00    -0.119 Cl
ENDROOT
TORSDOF 0
ENDMDL
MODEL 8
REMARK VINA RESULT:      -4.3     11.939     13.227
REMARK  0 active torsions:
REMARK  status: ('A' for Active; 'I' for Inactive)
ROOT
HETATM    1  C1  UNL     1     -36.180  15.829  -3.866  1.00 20.00     0.009 A 
HETATM    2  C2  UNL     1     -35.430  16.337  -2.804  1.00 20.00     0.024 A 
HETATM    3  C3  UNL     1     -33.498  16.634  -4.252  1.00 20.00     0.033 A 
HETATM    4  C4  UNL     1     -35.575  15.722  -5.106  1.00 20.00    -0.050 A 
HETATM    5  C5  UNL     1     -34.248  16.125  -5.301  1.00 20.00    -0.031 A 
HETATM    6  C6  UNL     1     -34.098  16.735  -2.995  1.00 20.00     0.034 A 
HETATM    7  C7  UNL     1     -36.182  15.236  -6.387  1.00 20.00     0.045 C 
HETATM    8  C8  UNL     1     -33.835  15.946  -6.730  1.00 20.00     0.119 C 
HETATM    9  C9  UNL     1     -34.925  14.977  -7.253  1.00 20.00     0.009 C 
HETATM   10  C10 UNL     1     -34.467  13.517  -7.124  1.00 20.00     0.012 C 
HETATM   11 CL11 UNL     1     -33.196  17.361  -1.667  1.00 20.00    -0.084 Cl
HETATM   12 CL12 UNL     1     -33.914  17.513  -7.572  1.00 20.00    -0.119 Cl
ENDROOT
TORSDOF 0
ENDMDL
MODEL 9
REMARK VINA RESULT:      -4.2     11.724     12.886
REMARK  0 active torsions:
REMARK  status: ('A' for Active; 'I' for Inactive)
ROOT
HETATM    1  C1  UNL     1     -33.363  16.899  -4.127  1.00 20.00     0.009 A 
HETATM    2  C2  UNL     1     -33.732  17.148  -2.803  1.00 20.00     0.024 A 
HETATM    3  C3  UNL     1     -35.847  15.991  -3.127  1.00 20.00     0.033 A 
HETATM    4  C4  UNL     1     -34.248  16.208  -4.935  1.00 20.00    -0.050 A 
HETATM    5  C5  UNL     1     -35.477  15.753  -4.441  1.00 20.00    -0.031 A 
HETATM    6  C6  UNL     1     -34.965  16.699  -2.307  1.00 20.00     0.034 A 
HETATM    7  C7  UNL     1     -34.063  15.805  -6.367  1.00 20.00     0.045 C 
HETATM    8  C8  UNL     1     -36.236  15.003  -5.494  1.00 20.00     0.119 C 
HETATM    9  C9  UNL     1     -35.511  15.456  -6.786  1.00 20.00     0.009 C 
HETATM   10  C10 UNL     1     -36.209  16.676  -7.406  1.00 20.00     0.012 C 
HETATM   11 CL11 UNL     1     -35.392  17.016  -0.669  1.00 20.00    -0.084 Cl
HETATM   12 CL12 UNL     1     -36.044  13.252  -5.231  1.00 20.00    -0.119 Cl
ENDROOT
TORSDOF 0
ENDMDL
