MODEL 1
REMARK VINA RESULT:      -5.0      0.000      0.000
REMARK  0 active torsions:
REMARK  status: ('A' for Active; 'I' for Inactive)
ROOT
HETATM    1  C1  UNL     1     -35.968  17.174  -1.717  1.00 20.00     0.009 A 
HETATM    2  C2  UNL     1     -34.989  17.829  -0.969  1.00 20.00     0.019 A 
HETATM    3  C3  UNL     1     -33.236  16.937  -2.400  1.00 20.00     0.028 A 
HETATM    4  C4  UNL     1     -35.564  16.396  -2.790  1.00 20.00    -0.050 A 
HETATM    5  C5  UNL     1     -34.209  16.269  -3.127  1.00 20.00    -0.032 A 
HETATM    6  C6  UNL     1     -33.633  17.714  -1.309  1.00 20.00     0.011 A 
HETATM    7  C7  UNL     1     -36.433  15.651  -3.754  1.00 20.00     0.045 C 
HETATM    8  C8  UNL     1     -34.055  15.425  -4.358  1.00 20.00     0.119 C 
HETATM    9  C9  UNL     1     -35.414  14.685  -4.394  1.00 20.00     0.009 C 
HETATM   10  C10 UNL     1     -35.822  14.259  -5.798  1.00 20.00     0.012 C 
HETATM   11 CL11 UNL     1     -32.703  14.288  -4.269  1.00 20.00    -0.119 Cl
HETATM   12 BR12 UNL     1     -32.329  18.611  -0.273  1.00 20.00    -0.051 Br
ENDROOT
TORSDOF 0
ENDMDL
MODEL 2
REMARK VINA RESULT:      -4.8      1.993      2.632
REMARK  0 active torsions:
REMARK  status: ('A' for Active; 'I' for Inactive)
ROOT
HETATM    1  C1  UNL     1     -32.993  17.651  -1.844  1.00 20.00     0.009 A 
HETATM    2  C2  UNL     1     -33.562  18.018  -0.623  1.00 20.00     0.019 A 
HETATM    3  C3  UNL     1     -35.653  16.929  -1.221  1.00 20.00     0.028 A 
HETATM    4  C4  UNL     1     -33.770  16.939  -2.743  1.00 20.00    -0.050 A 
HETATM    5  C5  UNL     1     -35.092  16.585  -2.441  1.00 20.00    -0.032 A 
HETATM    6  C6  UNL     1     -34.881  17.658  -0.313  1.00 20.00     0.011 A 
HETATM    7  C7  UNL     1     -33.357  16.400  -4.077  1.00 20.00     0.045 C 
HETATM    8  C8  UNL     1     -35.681  15.771  -3.555  1.00 20.00     0.119 C 
HETATM    9  C9  UNL     1     -34.729  16.117  -4.725  1.00 20.00     0.009 C 
HETATM   10  C10 UNL     1     -34.657  15.019  -5.778  1.00 20.00     0.012 C 
HETATM   11 CL11 UNL     1     -37.354  16.201  -3.935  1.00 20.00    -0.119 Cl
HETATM   12 BR12 UNL     1     -35.626  18.174   1.348  1.00 20.00    -0.051 Br
ENDROOT
TORSDOF 0
ENDMDL
MODEL 3
REMARK VINA RESULT:      -4.7      1.041      1.283
REMARK  0 active torsions:
REMARK  status: ('A' for Active; 'I' for Inactive)
ROOT
HETATM    1  C1  UNL     1     -36.465  16.512  -3.114  1.00 20.00     0.009 A 
HETATM    2  C2  UNL     1     -35.916  17.223  -2.045  1.00 20.00     0.019 A 
HETATM    3  C3  UNL     1     -33.674  16.511  -2.667  1.00 20.00     0.028 A 
HETATM    4  C4  UNL     1     -35.609  15.798  -3.937  1.00 20.00    -0.050 A 
HETATM    5  C5  UNL     1     -34.225  15.789  -3.714  1.00 20.00    -0.032 A 
HETATM    6  C6  UNL     1     -34.531  17.224  -1.825  1.00 20.00     0.011 A 
HETATM    7  C7  UNL     1     -35.966  15.013  -5.161  1.00 20.00     0.045 C 
HETATM    8  C8  UNL     1     -33.531  14.993  -4.780  1.00 20.00     0.119 C 
HETATM    9  C9  UNL     1     -34.700  14.148  -5.343  1.00 20.00     0.009 C 
HETATM   10  C10 UNL     1     -34.489  13.730  -6.791  1.00 20.00     0.012 C 
HETATM   11 CL11 UNL     1     -32.232  13.965  -4.160  1.00 20.00    -0.119 Cl
HETATM   12 BR12 UNL     1     -33.817  18.194  -0.365  1.00 20.00    -0.051 Br
ENDROOT
TORSDOF 0
ENDMDL
MODEL 4
REMARK VINA RESULT:      -4.7      2.091      2.837
REMARK  0 active torsions:
REMARK  status: ('A' for Active; 'I' for Inactive)
ROOT
HETATM    1  C1  UNL     1     -33.575  17.973  -4.874  1.00 20.00     0.009 A 
HETATM    2  C2  UNL     1     -33.798  18.168  -3.510  1.00 20.00     0.019 A 
HETATM    3  C3  UNL     1     -34.537  15.865  -3.257  1.00 20.00     0.028 A 
HETATM    4  C4  UNL     1     -33.850  16.727  -5.414  1.00 20.00    -0.050 A 
HETATM    5  C5  UNL     1     -34.336  15.681  -4.617  1.00 20.00    -0.032 A 
HETATM    6  C6  UNL     1     -34.274  17.121  -2.707  1.00 20.00     0.011 A 
HETATM    7  C7  UNL     1     -33.641  16.279  -6.826  1.00 20.00     0.045 C 
HETATM    8  C8  UNL     1     -34.490  14.432  -5.434  1.00 20.00     0.119 C 
HETATM    9  C9  UNL     1     -34.514  15.007  -6.871  1.00 20.00     0.009 C 
HETATM   10  C10 UNL     1     -34.032  14.012  -7.918  1.00 20.00     0.012 C 
HETATM   11 CL11 UNL     1     -35.970  13.533  -5.075  1.00 20.00    -0.119 Cl
HETATM   12 BR12 UNL     1     -34.571  17.417  -0.863  1.00 20.00    -0.051 Br
ENDROOT
TORSDOF 0
ENDMDL
MODEL 5
REMARK VINA RESULT:      -4.6      2.689      4.546
REMARK  0 active torsions:
REMARK  status: ('A' for Active; 'I' for Inactive)
ROOT
HETATM    1  C1  UNL     1     -36.247  16.637  -2.669  1.00 20.00     0.009 A 
HETATM    2  C2  UNL     1     -35.526  16.195  -3.780  1.00 20.00     0.019 A 
HETATM    3  C3  UNL     1     -33.425  16.784  -2.705  1.00 20.00     0.028 A 
HETATM    4  C4  UNL     1     -35.545  17.160  -1.595  1.00 20.00    -0.050 A 
HETATM    5  C5  UNL     1     -34.145  17.242  -1.612  1.00 20.00    -0.032 A 
HETATM    6  C6  UNL     1     -34.125  16.266  -3.797  1.00 20.00     0.011 A 
HETATM    7  C7  UNL     1     -36.099  17.643  -0.292  1.00 20.00     0.045 C 
HETATM    8  C8  UNL     1     -33.640  17.788  -0.309  1.00 20.00     0.119 C 
HETATM    9  C9  UNL     1     -34.912  18.465   0.255  1.00 20.00     0.009 C 
HETATM   10  C10 UNL     1     -34.917  18.549   1.775  1.00 20.00     0.012 C 
HETATM   11 CL11 UNL     1     -32.320  18.951  -0.496  1.00 20.00    -0.119 Cl
HETATM   12 BR12 UNL     1     -33.177  15.663  -5.318  1.00 20.00    -0.051 Br
ENDROOT
TORSDOF 0
ENDMDL
MODEL 6
REMARK VINA RESULT:      -4.5      3.284      4.948
REMARK  0 active torsions:
REMARK  status: ('A' for Active; 'I' for Inactive)
ROOT
HETATM    1  C1  UNL     1     -34.898  14.560  -4.464  1.00 20.00     0.009 A 
HETATM    2  C2  UNL     1     -36.185  14.304  -4.939  1.00 20.00     0.019 A 
HETATM    3  C3  UNL     1     -37.066  16.205  -3.703  1.00 20.00     0.028 A 
HETATM    4  C4  UNL     1     -34.716  15.629  -3.601  1.00 20.00    -0.050 A 
HETATM    5  C5  UNL     1     -35.790  16.443  -3.215  1.00 20.00    -0.032 A 
HETATM    6  C6  UNL     1     -37.261  15.122  -4.563  1.00 20.00     0.011 A 
HETATM    7  C7  UNL     1     -33.429  16.117  -3.013  1.00 20.00     0.045 C 
HETATM    8  C8  UNL     1     -35.310  17.556  -2.331  1.00 20.00     0.119 C 
HETATM    9  C9  UNL     1     -33.943  17.004  -1.859  1.00 20.00     0.009 C 
HETATM   10  C10 UNL     1     -32.954  18.101  -1.488  1.00 20.00     0.012 C 
HETATM   11 CL11 UNL     1     -36.381  17.883  -0.962  1.00 20.00    -0.119 Cl
HETATM   12 BR12 UNL     1     -38.995  14.747  -5.220  1.00 20.00    -0.051 Br
ENDROOT
TORSDOF 0
ENDMDL
MODEL 7
REMARK VINA RESULT:      -4.5      3.315      4.672
REMARK  0 active torsions:
REMARK  status: ('A' for Active; 'I' for Inactive)
ROOT
HETATM    1  C1  UNL     1     -34.422  18.174   2.981  1.00 20.00     0.009 A 
HETATM    2  C2  UNL     1     -33.149  18.513   3.444  1.00 20.00     0.019 A 
HETATM    3  C3  UNL     1     -32.341  18.770   1.163  1.00 20.00     0.028 A 
HETATM    4  C4  UNL     1     -34.632  18.124   1.612  1.00 20.00    -0.050 A 
HETATM    5  C5  UNL     1     -33.601  18.411   0.707  1.00 20.00    -0.032 A 
HETATM    6  C6  UNL     1     -32.117  18.811   2.541  1.00 20.00     0.011 A 
HETATM    7  C7  UNL     1     -35.916  17.837   0.897  1.00 20.00     0.045 C 
HETATM    8  C8  UNL     1     -34.111  18.344  -0.702  1.00 20.00     0.119 C 
HETATM    9  C9  UNL     1     -35.403  17.511  -0.521  1.00 20.00     0.009 C 
HETATM   10  C10 UNL     1     -36.447  17.792  -1.593  1.00 20.00     0.012 C 
HETATM   11 CL11 UNL     1     -32.988  17.559  -1.822  1.00 20.00    -0.119 Cl
HETATM   12 BR12 UNL     1     -30.402  19.262   3.199  1.00 20.00    -0.051 Br
ENDROOT
TORSDOF 0
ENDMDL
MODEL 8
REMARK VINA RESULT:      -4.4     11.679     11.995
REMARK  0 active torsions:
REMARK  status: ('A' for Active; 'I' for Inactive)
ROOT
HETATM    1  C1  UNL     1     -32.198   8.712   4.485  1.00 20.00     0.009 A 
HETATM    2  C2  UNL     1     -31.784   9.093   3.207  1.00 20.00     0.019 A 
HETATM    3  C3  UNL     1     -32.933   7.191   2.219  1.00 20.00     0.028 A 
HETATM    4  C4  UNL     1     -32.963   7.564   4.612  1.00 20.00    -0.050 A 
HETATM    5  C5  UNL     1     -33.324   6.802   3.492  1.00 20.00    -0.032 A 
HETATM    6  C6  UNL     1     -32.151   8.340   2.083  1.00 20.00     0.011 A 
HETATM    7  C7  UNL     1     -33.556   6.998   5.865  1.00 20.00     0.045 C 
HETATM    8  C8  UNL     1     -34.198   5.654   3.902  1.00 20.00     0.119 C 
HETATM    9  C9  UNL     1     -33.891   5.560   5.416  1.00 20.00     0.009 C 
HETATM   10  C10 UNL     1     -35.035   4.955   6.219  1.00 20.00     0.012 C 
HETATM   11 CL11 UNL     1     -33.813   4.142   3.070  1.00 20.00    -0.119 Cl
HETATM   12 BR12 UNL     1     -31.571   8.880   0.365  1.00 20.00    -0.051 Br
ENDROOT
TORSDOF 0
ENDMDL
MODEL 9
REMARK VINA RESULT:      -4.3      3.273      4.454
REMARK  0 active torsions:
REMARK  status: ('A' for Active; 'I' for Inactive)
ROOT
HETATM    1  C1  UNL     1     -37.942  14.355  -5.223  1.00 20.00     0.009 A 
HETATM    2  C2  UNL     1     -38.972  15.251  -4.935  1.00 20.00     0.019 A 
HETATM    3  C3  UNL     1     -37.414  16.750  -3.820  1.00 20.00     0.028 A 
HETATM    4  C4  UNL     1     -36.662  14.663  -4.792  1.00 20.00    -0.050 A 
HETATM    5  C5  UNL     1     -36.397  15.846  -4.089  1.00 20.00    -0.032 A 
HETATM    6  C6  UNL     1     -38.709  16.441  -4.240  1.00 20.00     0.011 A 
HETATM    7  C7  UNL     1     -35.407  13.882  -5.030  1.00 20.00     0.045 C 
HETATM    8  C8  UNL     1     -34.930  15.962  -3.796  1.00 20.00     0.119 C 
HETATM    9  C9  UNL     1     -34.466  14.495  -3.970  1.00 20.00     0.009 C 
HETATM   10  C10 UNL     1     -33.000  14.377  -4.362  1.00 20.00     0.012 C 
HETATM   11 CL11 UNL     1     -34.579  16.560  -2.169  1.00 20.00    -0.119 Cl
HETATM   12 BR12 UNL     1     -40.127  17.635  -3.861  1.00 20.00    -0.051 Br
ENDROOT
TORSDOF 0
ENDMDL
