MODEL 1
REMARK VINA RESULT:      -5.4      0.000      0.000
REMARK  1 active torsions:
REMARK  status: ('A' for Active; 'I' for Inactive)
REMARK    1  A    between atoms: C2_2  and  C3_3 
ROOT
HETATM    1  C1  UNL     1     -35.831  14.428  -4.972  1.00 20.00    -0.034 C 
HETATM    2  C2  UNL     1     -36.053  14.056  -6.241  1.00 20.00     0.194 C 
HETATM    3  C4  UNL     1     -36.839  15.202  -4.166  1.00 20.00     0.038 C 
HETATM    4  C5  UNL     1     -34.544  14.118  -4.252  1.00 20.00     0.042 C 
HETATM    5  C6  UNL     1     -36.216  16.470  -3.577  1.00 20.00     0.009 C 
HETATM    6  C7  UNL     1     -33.890  15.393  -3.680  1.00 20.00    -0.011 C 
HETATM    7  C8  UNL     1     -34.914  16.172  -2.812  1.00 20.00    -0.014 C 
HETATM    8  C9  UNL     1     -33.263  16.231  -4.802  1.00 20.00     0.010 C 
HETATM    9  C10 UNL     1     -34.335  17.458  -2.220  1.00 20.00     0.010 C 
HETATM   10  F13 UNL     1     -37.233  14.396  -6.805  1.00 20.00    -0.199 F 
ENDROOT
BRANCH   2  11
HETATM   11  C3  UNL     1     -35.030  13.267  -7.064  1.00 20.00     0.239 C 
HETATM   12  O11 UNL     1     -35.130  12.012  -6.945  1.00 20.00    -0.642 OA
HETATM   13  O12 UNL     1     -34.215  13.939  -7.758  1.00 20.00    -0.642 OA
ENDBRANCH   2  11
TORSDOF 1
ENDMDL
MODEL 2
REMARK VINA RESULT:      -4.9     11.110     12.125
REMARK  1 active torsions:
REMARK  status: ('A' for Active; 'I' for Inactive)
REMARK    1  A    between atoms: C2_2  and  C3_3 
ROOT
HETATM    1  C1  UNL     1     -33.135   7.988   3.736  1.00 20.00    -0.034 C 
HETATM    2  C2  UNL     1     -32.113   8.635   3.156  1.00 20.00     0.194 C 
HETATM    3  C4  UNL     1     -33.260   7.846   5.228  1.00 20.00     0.038 C 
HETATM    4  C5  UNL     1     -34.235   7.335   2.939  1.00 20.00     0.042 C 
HETATM    5  C6  UNL     1     -33.434   6.378   5.628  1.00 20.00     0.009 C 
HETATM    6  C7  UNL     1     -34.400   5.848   3.311  1.00 20.00    -0.011 C 
HETATM    7  C8  UNL     1     -34.573   5.698   4.846  1.00 20.00    -0.014 C 
HETATM    8  C9  UNL     1     -33.248   5.013   2.732  1.00 20.00     0.010 C 
HETATM    9  C10 UNL     1     -34.731   4.243   5.288  1.00 20.00     0.010 C 
HETATM   10  F13 UNL     1     -31.166   9.173   3.955  1.00 20.00    -0.199 F 
ENDROOT
BRANCH   2  11
HETATM   11  C3  UNL     1     -31.982   8.784   1.637  1.00 20.00     0.239 C 
HETATM   12  O11 UNL     1     -32.701   9.702   1.145  1.00 20.00    -0.642 OA
HETATM   13  O12 UNL     1     -31.190   7.994   1.051  1.00 20.00    -0.642 OA
ENDBRANCH   2  11
TORSDOF 1
ENDMDL
MODEL 3
REMARK VINA RESULT:      -4.7      1.648      2.199
REMARK  1 active torsions:
REMARK  status: ('A' for Active; 'I' for Inactive)
REMARK    1  A    between atoms: C2_2  and  C3_3 
ROOT
HETATM    1  C1  UNL     1     -35.508  15.513  -3.885  1.00 20.00    -0.034 C 
HETATM    2  C2  UNL     1     -36.483  14.808  -4.477  1.00 20.00     0.194 C 
HETATM    3  C4  UNL     1     -35.778  16.508  -2.790  1.00 20.00     0.038 C 
HETATM    4  C5  UNL     1     -34.059  15.379  -4.279  1.00 20.00     0.042 C 
HETATM    5  C6  UNL     1     -35.169  17.873  -3.123  1.00 20.00     0.009 C 
HETATM    6  C7  UNL     1     -33.442  16.743  -4.648  1.00 20.00    -0.011 C 
HETATM    7  C8  UNL     1     -33.680  17.762  -3.502  1.00 20.00    -0.014 C 
HETATM    8  C9  UNL     1     -33.951  17.217  -6.016  1.00 20.00     0.010 C 
HETATM    9  C10 UNL     1     -33.102  19.145  -3.806  1.00 20.00     0.010 C 
HETATM   10  F13 UNL     1     -37.753  15.011  -4.064  1.00 20.00    -0.199 F 
ENDROOT
BRANCH   2  11
HETATM   11  C3  UNL     1     -36.212  13.792  -5.591  1.00 20.00     0.239 C 
HETATM   12  O11 UNL     1     -36.367  14.254  -6.758  1.00 20.00    -0.642 OA
HETATM   13  O12 UNL     1     -35.870  12.630  -5.233  1.00 20.00    -0.642 OA
ENDBRANCH   2  11
TORSDOF 1
ENDMDL
MODEL 4
REMARK VINA RESULT:      -4.6      3.277      4.932
REMARK  1 active torsions:
REMARK  status: ('A' for Active; 'I' for Inactive)
REMARK    1  A    between atoms: C2_2  and  C3_3 
ROOT
HETATM    1  C1  UNL     1     -33.816  15.793  -4.370  1.00 20.00    -0.034 C 
HETATM    2  C2  UNL     1     -33.962  16.891  -3.615  1.00 20.00     0.194 C 
HETATM    3  C4  UNL     1     -33.099  15.810  -5.693  1.00 20.00     0.038 C 
HETATM    4  C5  UNL     1     -34.374  14.453  -3.966  1.00 20.00     0.042 C 
HETATM    5  C6  UNL     1     -33.974  15.220  -6.802  1.00 20.00     0.009 C 
HETATM    6  C7  UNL     1     -35.283  13.861  -5.063  1.00 20.00    -0.011 C 
HETATM    7  C8  UNL     1     -34.532  13.836  -6.421  1.00 20.00    -0.014 C 
HETATM    8  C9  UNL     1     -36.627  14.601  -5.111  1.00 20.00     0.010 C 
HETATM    9  C10 UNL     1     -35.381  13.270  -7.559  1.00 20.00     0.010 C 
HETATM   10  F13 UNL     1     -33.440  18.051  -4.071  1.00 20.00    -0.199 F 
ENDROOT
BRANCH   2  11
HETATM   11  C3  UNL     1     -34.690  16.878  -2.267  1.00 20.00     0.239 C 
HETATM   12  O11 UNL     1     -33.925  17.000  -1.267  1.00 20.00    -0.642 OA
HETATM   13  O12 UNL     1     -35.947  16.750  -2.298  1.00 20.00    -0.642 OA
ENDBRANCH   2  11
TORSDOF 1
ENDMDL
MODEL 5
REMARK VINA RESULT:      -4.5      1.931      2.922
REMARK  1 active torsions:
REMARK  status: ('A' for Active; 'I' for Inactive)
REMARK    1  A    between atoms: C2_2  and  C3_3 
ROOT
HETATM    1  C1  UNL     1     -34.785  15.472  -4.352  1.00 20.00    -0.034 C 
HETATM    2  C2  UNL     1     -35.127  14.182  -4.480  1.00 20.00     0.194 C 
HETATM    3  C4  UNL     1     -33.703  15.934  -3.414  1.00 20.00     0.038 C 
HETATM    4  C5  UNL     1     -35.467  16.571  -5.125  1.00 20.00     0.042 C 
HETATM    5  C6  UNL     1     -34.217  17.031  -2.478  1.00 20.00     0.009 C 
HETATM    6  C7  UNL     1     -36.018  17.668  -4.191  1.00 20.00    -0.011 C 
HETATM    7  C8  UNL     1     -34.894  18.178  -3.250  1.00 20.00    -0.014 C 
HETATM    8  C9  UNL     1     -37.269  17.173  -3.452  1.00 20.00     0.010 C 
HETATM    9  C10 UNL     1     -35.374  19.263  -2.285  1.00 20.00     0.010 C 
HETATM   10  F13 UNL     1     -34.467  13.273  -3.730  1.00 20.00    -0.199 F 
ENDROOT
BRANCH   2  11
HETATM   11  C3  UNL     1     -36.227  13.708  -5.435  1.00 20.00     0.239 C 
HETATM   12  O11 UNL     1     -35.809  13.394  -6.587  1.00 20.00    -0.642 OA
HETATM   13  O12 UNL     1     -37.405  13.682  -4.981  1.00 20.00    -0.642 OA
ENDBRANCH   2  11
TORSDOF 1
ENDMDL
MODEL 6
REMARK VINA RESULT:      -4.4      1.903      2.875
REMARK  1 active torsions:
REMARK  status: ('A' for Active; 'I' for Inactive)
REMARK    1  A    between atoms: C2_2  and  C3_3 
ROOT
HETATM    1  C1  UNL     1     -34.863  15.468  -4.197  1.00 20.00    -0.034 C 
HETATM    2  C2  UNL     1     -34.535  14.189  -4.433  1.00 20.00     0.194 C 
HETATM    3  C4  UNL     1     -34.408  16.207  -2.968  1.00 20.00     0.038 C 
HETATM    4  C5  UNL     1     -35.729  16.268  -5.136  1.00 20.00     0.042 C 
HETATM    5  C6  UNL     1     -35.596  16.829  -2.229  1.00 20.00     0.009 C 
HETATM    6  C7  UNL     1     -36.946  16.874  -4.410  1.00 20.00    -0.011 C 
HETATM    7  C8  UNL     1     -36.479  17.675  -3.165  1.00 20.00    -0.014 C 
HETATM    8  C9  UNL     1     -37.986  15.790  -4.096  1.00 20.00     0.010 C 
HETATM    9  C10 UNL     1     -37.640  18.297  -2.387  1.00 20.00     0.010 C 
HETATM   10  F13 UNL     1     -33.767  13.552  -3.522  1.00 20.00    -0.199 F 
ENDROOT
BRANCH   2  11
HETATM   11  C3  UNL     1     -34.995  13.433  -5.683  1.00 20.00     0.239 C 
HETATM   12  O11 UNL     1     -36.068  12.782  -5.527  1.00 20.00    -0.642 OA
HETATM   13  O12 UNL     1     -34.270  13.539  -6.713  1.00 20.00    -0.642 OA
ENDBRANCH   2  11
TORSDOF 1
ENDMDL
MODEL 7
REMARK VINA RESULT:      -4.4      1.398      1.595
REMARK  1 active torsions:
REMARK  status: ('A' for Active; 'I' for Inactive)
REMARK    1  A    between atoms: C2_2  and  C3_3 
ROOT
HETATM    1  C1  UNL     1     -35.473  15.511  -4.600  1.00 20.00    -0.034 C 
HETATM    2  C2  UNL     1     -35.505  15.512  -5.940  1.00 20.00     0.194 C 
HETATM    3  C4  UNL     1     -36.687  15.799  -3.760  1.00 20.00     0.038 C 
HETATM    4  C5  UNL     1     -34.212  15.237  -3.821  1.00 20.00     0.042 C 
HETATM    5  C6  UNL     1     -36.407  16.918  -2.753  1.00 20.00     0.009 C 
HETATM    6  C7  UNL     1     -33.901  16.372  -2.824  1.00 20.00    -0.011 C 
HETATM    7  C8  UNL     1     -35.137  16.644  -1.926  1.00 20.00    -0.014 C 
HETATM    8  C9  UNL     1     -33.384  17.615  -3.560  1.00 20.00     0.010 C 
HETATM    9  C10 UNL     1     -34.903  17.770  -0.917  1.00 20.00     0.010 C 
HETATM   10  F13 UNL     1     -36.681  15.785  -6.547  1.00 20.00    -0.199 F 
ENDROOT
BRANCH   2  11
HETATM   11  C3  UNL     1     -34.271  15.217  -6.799  1.00 20.00     0.239 C 
HETATM   12  O11 UNL     1     -34.163  14.005  -7.146  1.00 20.00    -0.642 OA
HETATM   13  O12 UNL     1     -33.511  16.191  -7.061  1.00 20.00    -0.642 OA
ENDBRANCH   2  11
TORSDOF 1
ENDMDL
MODEL 8
REMARK VINA RESULT:      -4.4      2.029      2.598
REMARK  1 active torsions:
REMARK  status: ('A' for Active; 'I' for Inactive)
REMARK    1  A    between atoms: C2_2  and  C3_3 
ROOT
HETATM    1  C1  UNL     1     -35.904  16.166  -5.635  1.00 20.00    -0.034 C 
HETATM    2  C2  UNL     1     -36.092  14.950  -6.168  1.00 20.00     0.194 C 
HETATM    3  C4  UNL     1     -35.453  17.347  -6.452  1.00 20.00     0.038 C 
HETATM    4  C5  UNL     1     -36.112  16.448  -4.170  1.00 20.00     0.042 C 
HETATM    5  C6  UNL     1     -34.214  18.001  -5.835  1.00 20.00     0.009 C 
HETATM    6  C7  UNL     1     -34.859  17.080  -3.529  1.00 20.00    -0.011 C 
HETATM    7  C8  UNL     1     -34.415  18.324  -4.342  1.00 20.00    -0.014 C 
HETATM    8  C9  UNL     1     -33.754  16.030  -3.348  1.00 20.00     0.010 C 
HETATM    9  C10 UNL     1     -33.167  18.996  -3.768  1.00 20.00     0.010 C 
HETATM   10  F13 UNL     1     -35.864  14.793  -7.490  1.00 20.00    -0.199 F 
ENDROOT
BRANCH   2  11
HETATM   11  C3  UNL     1     -36.553  13.746  -5.341  1.00 20.00     0.239 C 
HETATM   12  O11 UNL     1     -35.633  12.919  -5.077  1.00 20.00    -0.642 OA
HETATM   13  O12 UNL     1     -37.774  13.707  -5.019  1.00 20.00    -0.642 OA
ENDBRANCH   2  11
TORSDOF 1
ENDMDL
MODEL 9
REMARK VINA RESULT:      -4.4      3.823      5.128
REMARK  1 active torsions:
REMARK  status: ('A' for Active; 'I' for Inactive)
REMARK    1  A    between atoms: C2_2  and  C3_3 
ROOT
HETATM    1  C1  UNL     1     -34.361  15.942  -3.361  1.00 20.00    -0.034 C 
HETATM    2  C2  UNL     1     -34.224  16.749  -2.300  1.00 20.00     0.194 C 
HETATM    3  C4  UNL     1     -33.185  15.323  -4.065  1.00 20.00     0.038 C 
HETATM    4  C5  UNL     1     -35.706  15.601  -3.950  1.00 20.00     0.042 C 
HETATM    5  C6  UNL     1     -33.222  15.621  -5.567  1.00 20.00     0.009 C 
HETATM    6  C7  UNL     1     -35.767  15.926  -5.456  1.00 20.00    -0.011 C 
HETATM    7  C8  UNL     1     -34.579  15.253  -6.194  1.00 20.00    -0.014 C 
HETATM    8  C9  UNL     1     -35.859  17.442  -5.681  1.00 20.00     0.010 C 
HETATM    9  C10 UNL     1     -34.570  15.544  -7.696  1.00 20.00     0.010 C 
HETATM   10  F13 UNL     1     -32.974  17.008  -1.856  1.00 20.00    -0.199 F 
ENDROOT
BRANCH   2  11
HETATM   11  C3  UNL     1     -35.419  17.381  -1.579  1.00 20.00     0.239 C 
HETATM   12  O11 UNL     1     -35.737  16.800  -0.501  1.00 20.00    -0.642 OA
HETATM   13  O12 UNL     1     -35.948  18.390  -2.126  1.00 20.00    -0.642 OA
ENDBRANCH   2  11
TORSDOF 1
ENDMDL
