MODEL 1
REMARK VINA RESULT:      -5.3      0.000      0.000
REMARK  0 active torsions:
REMARK  status: ('A' for Active; 'I' for Inactive)
ROOT
HETATM    1  C1  UNL     1     -35.537  17.200  -0.794  1.00 20.00     0.009 A 
HETATM    2  C2  UNL     1     -34.689  17.979  -0.005  1.00 20.00     0.024 A 
HETATM    3  C3  UNL     1     -32.885  17.735  -1.619  1.00 20.00     0.033 A 
HETATM    4  C4  UNL     1     -35.042  16.689  -1.982  1.00 20.00    -0.050 A 
HETATM    5  C5  UNL     1     -33.731  16.960  -2.396  1.00 20.00    -0.031 A 
HETATM    6  C6  UNL     1     -33.372  18.243  -0.412  1.00 20.00     0.034 A 
HETATM    7  C7  UNL     1     -35.764  15.856  -2.996  1.00 20.00     0.045 C 
HETATM    8  C8  UNL     1     -33.451  16.336  -3.732  1.00 20.00     0.119 C 
HETATM    9  C9  UNL     1     -34.577  15.270  -3.791  1.00 20.00     0.009 C 
HETATM   10  C10 UNL     1     -34.977  14.792  -5.179  1.00 20.00     0.012 C 
HETATM   11 CL11 UNL     1     -32.350  19.211   0.581  1.00 20.00    -0.084 Cl
HETATM   12 CL12 UNL     1     -33.560  17.583  -4.995  1.00 20.00    -0.119 Cl
ENDROOT
TORSDOF 0
ENDMDL
MODEL 2
REMARK VINA RESULT:      -5.2      1.255      1.943
REMARK  0 active torsions:
REMARK  status: ('A' for Active; 'I' for Inactive)
ROOT
HETATM    1  C1  UNL     1     -34.542  18.288   0.904  1.00 20.00     0.009 A 
HETATM    2  C2  UNL     1     -33.380  18.737   1.533  1.00 20.00     0.024 A 
HETATM    3  C3  UNL     1     -32.054  18.214  -0.439  1.00 20.00     0.033 A 
HETATM    4  C4  UNL     1     -34.442  17.797  -0.387  1.00 20.00    -0.050 A 
HETATM    5  C5  UNL     1     -33.211  17.766  -1.056  1.00 20.00    -0.031 A 
HETATM    6  C6  UNL     1     -32.144  18.698   0.868  1.00 20.00     0.034 A 
HETATM    7  C7  UNL     1     -35.544  17.287  -1.264  1.00 20.00     0.045 C 
HETATM    8  C8  UNL     1     -33.373  17.236  -2.451  1.00 20.00     0.119 C 
HETATM    9  C9  UNL     1     -34.735  16.505  -2.323  1.00 20.00     0.009 C 
HETATM   10  C10 UNL     1     -35.509  16.294  -3.617  1.00 20.00     0.012 C 
HETATM   11 CL11 UNL     1     -30.727  19.263   1.668  1.00 20.00    -0.084 Cl
HETATM   12 CL12 UNL     1     -33.380  18.596  -3.597  1.00 20.00    -0.119 Cl
ENDROOT
TORSDOF 0
ENDMDL
MODEL 3
REMARK VINA RESULT:      -5.1     11.628     12.093
REMARK  0 active torsions:
REMARK  status: ('A' for Active; 'I' for Inactive)
ROOT
HETATM    1  C1  UNL     1     -32.042   8.674   4.361  1.00 20.00     0.009 A 
HETATM    2  C2  UNL     1     -31.606   9.033   3.085  1.00 20.00     0.024 A 
HETATM    3  C3  UNL     1     -32.833   7.182   2.092  1.00 20.00     0.033 A 
HETATM    4  C4  UNL     1     -32.861   7.564   4.487  1.00 20.00    -0.050 A 
HETATM    5  C5  UNL     1     -33.260   6.828   3.363  1.00 20.00    -0.031 A 
HETATM    6  C6  UNL     1     -31.997   8.293   1.959  1.00 20.00     0.034 A 
HETATM    7  C7  UNL     1     -33.467   7.005   5.737  1.00 20.00     0.045 C 
HETATM    8  C8  UNL     1     -34.178   5.707   3.754  1.00 20.00     0.119 C 
HETATM    9  C9  UNL     1     -33.852   5.586   5.266  1.00 20.00     0.009 C 
HETATM   10  C10 UNL     1     -34.926   4.948   6.136  1.00 20.00     0.012 C 
HETATM   11 CL11 UNL     1     -31.446   8.762   0.395  1.00 20.00    -0.084 Cl
HETATM   12 CL12 UNL     1     -35.857   6.177   3.405  1.00 20.00    -0.119 Cl
ENDROOT
TORSDOF 0
ENDMDL
MODEL 4
REMARK VINA RESULT:      -5.0      2.061      5.172
REMARK  0 active torsions:
REMARK  status: ('A' for Active; 'I' for Inactive)
ROOT
HETATM    1  C1  UNL     1     -32.908  18.015  -1.275  1.00 20.00     0.009 A 
HETATM    2  C2  UNL     1     -33.310  17.256  -2.374  1.00 20.00     0.024 A 
HETATM    3  C3  UNL     1     -35.458  16.791  -1.328  1.00 20.00     0.033 A 
HETATM    4  C4  UNL     1     -33.784  18.143  -0.209  1.00 20.00    -0.050 A 
HETATM    5  C5  UNL     1     -35.050  17.543  -0.238  1.00 20.00    -0.031 A 
HETATM    6  C6  UNL     1     -34.574  16.647  -2.401  1.00 20.00     0.034 A 
HETATM    7  C7  UNL     1     -33.586  18.919   1.056  1.00 20.00     0.045 C 
HETATM    8  C8  UNL     1     -35.824  17.866   1.007  1.00 20.00     0.119 C 
HETATM    9  C9  UNL     1     -34.674  18.294   1.956  1.00 20.00     0.009 C 
HETATM   10  C10 UNL     1     -35.063  19.193   3.121  1.00 20.00     0.012 C 
HETATM   11 CL11 UNL     1     -35.045  15.719  -3.774  1.00 20.00    -0.084 Cl
HETATM   12 CL12 UNL     1     -36.994  19.158   0.651  1.00 20.00    -0.119 Cl
ENDROOT
TORSDOF 0
ENDMDL
MODEL 5
REMARK VINA RESULT:      -5.0      2.038      4.899
REMARK  0 active torsions:
REMARK  status: ('A' for Active; 'I' for Inactive)
ROOT
HETATM    1  C1  UNL     1     -33.315  15.490  -4.010  1.00 20.00     0.009 A 
HETATM    2  C2  UNL     1     -34.088  14.692  -4.855  1.00 20.00     0.024 A 
HETATM    3  C3  UNL     1     -36.132  15.433  -3.762  1.00 20.00     0.033 A 
HETATM    4  C4  UNL     1     -33.962  16.241  -3.043  1.00 20.00    -0.050 A 
HETATM    5  C5  UNL     1     -35.358  16.220  -2.924  1.00 20.00    -0.031 A 
HETATM    6  C6  UNL     1     -35.486  14.663  -4.732  1.00 20.00     0.034 A 
HETATM    7  C7  UNL     1     -33.352  17.180  -2.048  1.00 20.00     0.045 C 
HETATM    8  C8  UNL     1     -35.818  17.149  -1.839  1.00 20.00     0.119 C 
HETATM    9  C9  UNL     1     -34.505  17.314  -1.029  1.00 20.00     0.009 C 
HETATM   10  C10 UNL     1     -34.394  18.570  -0.176  1.00 20.00     0.012 C 
HETATM   11 CL11 UNL     1     -36.415  13.672  -5.792  1.00 20.00    -0.084 Cl
HETATM   12 CL12 UNL     1     -36.417  18.655  -2.571  1.00 20.00    -0.119 Cl
ENDROOT
TORSDOF 0
ENDMDL
MODEL 6
REMARK VINA RESULT:      -4.9      1.502      2.018
REMARK  0 active torsions:
REMARK  status: ('A' for Active; 'I' for Inactive)
ROOT
HETATM    1  C1  UNL     1     -36.041  17.469   0.202  1.00 20.00     0.009 A 
HETATM    2  C2  UNL     1     -35.599  18.056   1.389  1.00 20.00     0.024 A 
HETATM    3  C3  UNL     1     -33.397  18.448   0.431  1.00 20.00     0.033 A 
HETATM    4  C4  UNL     1     -35.149  17.369  -0.853  1.00 20.00    -0.050 A 
HETATM    5  C5  UNL     1     -33.841  17.860  -0.744  1.00 20.00    -0.031 A 
HETATM    6  C6  UNL     1     -34.287  18.540   1.504  1.00 20.00     0.034 A 
HETATM    7  C7  UNL     1     -35.399  16.806  -2.218  1.00 20.00     0.045 C 
HETATM    8  C8  UNL     1     -33.090  17.677  -2.030  1.00 20.00     0.119 C 
HETATM    9  C9  UNL     1     -33.953  16.581  -2.710  1.00 20.00     0.009 C 
HETATM   10  C10 UNL     1     -33.854  16.493  -4.226  1.00 20.00     0.012 C 
HETATM   11 CL11 UNL     1     -33.770  19.263   2.980  1.00 20.00    -0.084 Cl
HETATM   12 CL12 UNL     1     -33.049  19.222  -2.910  1.00 20.00    -0.119 Cl
ENDROOT
TORSDOF 0
ENDMDL
MODEL 7
REMARK VINA RESULT:      -4.7      1.875      2.571
REMARK  0 active torsions:
REMARK  status: ('A' for Active; 'I' for Inactive)
ROOT
HETATM    1  C1  UNL     1     -33.133  18.059  -2.302  1.00 20.00     0.009 A 
HETATM    2  C2  UNL     1     -33.746  18.091  -1.049  1.00 20.00     0.024 A 
HETATM    3  C3  UNL     1     -35.479  16.559  -1.804  1.00 20.00     0.033 A 
HETATM    4  C4  UNL     1     -33.709  17.284  -3.295  1.00 20.00    -0.050 A 
HETATM    5  C5  UNL     1     -34.867  16.534  -3.048  1.00 20.00    -0.031 A 
HETATM    6  C6  UNL     1     -34.911  17.349  -0.802  1.00 20.00     0.034 A 
HETATM    7  C7  UNL     1     -33.224  17.076  -4.697  1.00 20.00     0.045 C 
HETATM    8  C8  UNL     1     -35.266  15.747  -4.262  1.00 20.00     0.119 C 
HETATM    9  C9  UNL     1     -34.499  16.519  -5.368  1.00 20.00     0.009 C 
HETATM   10  C10 UNL     1     -34.203  15.746  -6.645  1.00 20.00     0.012 C 
HETATM   11 CL11 UNL     1     -35.644  17.405   0.757  1.00 20.00    -0.084 Cl
HETATM   12 CL12 UNL     1     -34.748  14.057  -4.060  1.00 20.00    -0.119 Cl
ENDROOT
TORSDOF 0
ENDMDL
MODEL 8
REMARK VINA RESULT:      -4.7      2.262      5.031
REMARK  0 active torsions:
REMARK  status: ('A' for Active; 'I' for Inactive)
ROOT
HETATM    1  C1  UNL     1     -35.114  14.289  -4.631  1.00 20.00     0.009 A 
HETATM    2  C2  UNL     1     -36.408  14.031  -5.088  1.00 20.00     0.024 A 
HETATM    3  C3  UNL     1     -37.260  15.992  -3.927  1.00 20.00     0.033 A 
HETATM    4  C4  UNL     1     -34.913  15.391  -3.817  1.00 20.00    -0.050 A 
HETATM    5  C5  UNL     1     -35.973  16.240  -3.473  1.00 20.00    -0.031 A 
HETATM    6  C6  UNL     1     -37.473  14.875  -4.738  1.00 20.00     0.034 A 
HETATM    7  C7  UNL     1     -33.624  15.877  -3.230  1.00 20.00     0.045 C 
HETATM    8  C8  UNL     1     -35.493  17.382  -2.626  1.00 20.00     0.119 C 
HETATM    9  C9  UNL     1     -34.144  16.810  -2.115  1.00 20.00     0.009 C 
HETATM   10  C10 UNL     1     -33.107  17.832  -1.670  1.00 20.00     0.012 C 
HETATM   11 CL11 UNL     1     -39.058  14.535  -5.320  1.00 20.00    -0.084 Cl
HETATM   12 CL12 UNL     1     -35.333  18.836  -3.638  1.00 20.00    -0.119 Cl
ENDROOT
TORSDOF 0
ENDMDL
MODEL 9
REMARK VINA RESULT:      -4.6      2.134      3.049
REMARK  0 active torsions:
REMARK  status: ('A' for Active; 'I' for Inactive)
ROOT
HETATM    1  C1  UNL     1     -33.303  16.803  -2.611  1.00 20.00     0.009 A 
HETATM    2  C2  UNL     1     -34.146  17.264  -1.598  1.00 20.00     0.024 A 
HETATM    3  C3  UNL     1     -36.114  16.645  -2.888  1.00 20.00     0.033 A 
HETATM    4  C4  UNL     1     -33.879  16.278  -3.756  1.00 20.00    -0.050 A 
HETATM    5  C5  UNL     1     -35.271  16.192  -3.892  1.00 20.00    -0.031 A 
HETATM    6  C6  UNL     1     -35.540  17.187  -1.736  1.00 20.00     0.034 A 
HETATM    7  C7  UNL     1     -33.186  15.705  -4.954  1.00 20.00     0.045 C 
HETATM    8  C8  UNL     1     -35.644  15.547  -5.194  1.00 20.00     0.119 C 
HETATM    9  C9  UNL     1     -34.328  15.736  -5.994  1.00 20.00     0.009 C 
HETATM   10  C10 UNL     1     -34.099  14.772  -7.149  1.00 20.00     0.012 C 
HETATM   11 CL11 UNL     1     -36.555  17.761  -0.467  1.00 20.00    -0.084 Cl
HETATM   12 CL12 UNL     1     -36.083  13.848  -4.903  1.00 20.00    -0.119 Cl
ENDROOT
TORSDOF 0
ENDMDL
