MODEL 1
REMARK VINA RESULT:      -5.2      0.000      0.000
REMARK  0 active torsions:
REMARK  status: ('A' for Active; 'I' for Inactive)
ROOT
HETATM    1  C1  UNL     1     -35.535  17.206  -0.751  1.00 20.00     0.009 A 
HETATM    2  C2  UNL     1     -34.677  17.985   0.027  1.00 20.00     0.024 A 
HETATM    3  C3  UNL     1     -32.900  17.756  -1.620  1.00 20.00     0.032 A 
HETATM    4  C4  UNL     1     -35.059  16.703  -1.951  1.00 20.00    -0.050 A 
HETATM    5  C5  UNL     1     -33.757  16.983  -2.387  1.00 20.00    -0.035 A 
HETATM    6  C6  UNL     1     -33.369  18.258  -0.404  1.00 20.00     0.034 A 
HETATM    7  C7  UNL     1     -35.795  15.867  -2.952  1.00 20.00     0.045 C 
HETATM    8  C8  UNL     1     -33.498  16.361  -3.727  1.00 20.00     0.095 C 
HETATM    9  C9  UNL     1     -34.619  15.299  -3.779  1.00 20.00     0.005 C 
HETATM   10  C10 UNL     1     -35.043  14.806  -5.155  1.00 20.00     0.011 C 
HETATM   11 CL11 UNL     1     -32.334  19.225   0.577  1.00 20.00    -0.084 Cl
HETATM   12 BR12 UNL     1     -33.657  17.748  -5.079  1.00 20.00    -0.086 Br
ENDROOT
TORSDOF 0
ENDMDL
MODEL 2
REMARK VINA RESULT:      -5.0      2.978      5.138
REMARK  0 active torsions:
REMARK  status: ('A' for Active; 'I' for Inactive)
ROOT
HETATM    1  C1  UNL     1     -32.919  18.026  -1.291  1.00 20.00     0.009 A 
HETATM    2  C2  UNL     1     -33.300  17.278  -2.407  1.00 20.00     0.024 A 
HETATM    3  C3  UNL     1     -35.455  16.777  -1.393  1.00 20.00     0.032 A 
HETATM    4  C4  UNL     1     -33.810  18.130  -0.235  1.00 20.00    -0.050 A 
HETATM    5  C5  UNL     1     -35.070  17.520  -0.288  1.00 20.00    -0.035 A 
HETATM    6  C6  UNL     1     -34.558  16.657  -2.457  1.00 20.00     0.034 A 
HETATM    7  C7  UNL     1     -33.631  18.888   1.044  1.00 20.00     0.045 C 
HETATM    8  C8  UNL     1     -35.858  17.814   0.953  1.00 20.00     0.095 C 
HETATM    9  C9  UNL     1     -34.733  18.247   1.920  1.00 20.00     0.005 C 
HETATM   10  C10 UNL     1     -35.131  19.116   3.104  1.00 20.00     0.011 C 
HETATM   11 CL11 UNL     1     -35.002  15.743  -3.848  1.00 20.00    -0.084 Cl
HETATM   12 BR12 UNL     1     -37.134  19.221   0.542  1.00 20.00    -0.086 Br
ENDROOT
TORSDOF 0
ENDMDL
MODEL 3
REMARK VINA RESULT:      -5.0      1.210      1.627
REMARK  0 active torsions:
REMARK  status: ('A' for Active; 'I' for Inactive)
ROOT
HETATM    1  C1  UNL     1     -36.026  16.961  -2.187  1.00 20.00     0.009 A 
HETATM    2  C2  UNL     1     -35.063  17.646  -1.446  1.00 20.00     0.024 A 
HETATM    3  C3  UNL     1     -33.272  16.588  -2.709  1.00 20.00     0.032 A 
HETATM    4  C4  UNL     1     -35.598  16.089  -3.174  1.00 20.00    -0.050 A 
HETATM    5  C5  UNL     1     -34.234  15.910  -3.440  1.00 20.00    -0.035 A 
HETATM    6  C6  UNL     1     -33.695  17.461  -1.704  1.00 20.00     0.034 A 
HETATM    7  C7  UNL     1     -36.440  15.267  -4.101  1.00 20.00     0.045 C 
HETATM    8  C8  UNL     1     -34.032  14.952  -4.575  1.00 20.00     0.095 C 
HETATM    9  C9  UNL     1     -35.402  14.236  -4.603  1.00 20.00     0.005 C 
HETATM   10  C10 UNL     1     -35.810  13.569  -5.907  1.00 20.00     0.011 C 
HETATM   11 CL11 UNL     1     -32.528  18.323  -0.775  1.00 20.00    -0.084 Cl
HETATM   12 BR12 UNL     1     -33.645  15.982  -6.177  1.00 20.00    -0.086 Br
ENDROOT
TORSDOF 0
ENDMDL
MODEL 4
REMARK VINA RESULT:      -5.0      3.043      4.910
REMARK  0 active torsions:
REMARK  status: ('A' for Active; 'I' for Inactive)
ROOT
HETATM    1  C1  UNL     1     -33.322  15.496  -4.058  1.00 20.00     0.009 A 
HETATM    2  C2  UNL     1     -34.098  14.703  -4.905  1.00 20.00     0.024 A 
HETATM    3  C3  UNL     1     -36.136  15.418  -3.786  1.00 20.00     0.032 A 
HETATM    4  C4  UNL     1     -33.966  16.234  -3.077  1.00 20.00    -0.050 A 
HETATM    5  C5  UNL     1     -35.361  16.204  -2.948  1.00 20.00    -0.035 A 
HETATM    6  C6  UNL     1     -35.494  14.664  -4.770  1.00 20.00     0.034 A 
HETATM    7  C7  UNL     1     -33.352  17.163  -2.076  1.00 20.00     0.045 C 
HETATM    8  C8  UNL     1     -35.815  17.113  -1.846  1.00 20.00     0.095 C 
HETATM    9  C9  UNL     1     -34.501  17.288  -1.050  1.00 20.00     0.005 C 
HETATM   10  C10 UNL     1     -34.382  18.524  -0.171  1.00 20.00     0.011 C 
HETATM   11 CL11 UNL     1     -36.425  13.677  -5.832  1.00 20.00    -0.084 Cl
HETATM   12 BR12 UNL     1     -36.477  18.754  -2.649  1.00 20.00    -0.086 Br
ENDROOT
TORSDOF 0
ENDMDL
MODEL 5
REMARK VINA RESULT:      -4.6      3.114      4.958
REMARK  0 active torsions:
REMARK  status: ('A' for Active; 'I' for Inactive)
ROOT
HETATM    1  C1  UNL     1     -34.751  14.501  -4.497  1.00 20.00     0.009 A 
HETATM    2  C2  UNL     1     -36.008  14.142  -4.984  1.00 20.00     0.024 A 
HETATM    3  C3  UNL     1     -37.053  15.974  -3.770  1.00 20.00     0.032 A 
HETATM    4  C4  UNL     1     -34.663  15.588  -3.642  1.00 20.00    -0.050 A 
HETATM    5  C5  UNL     1     -35.801  16.325  -3.289  1.00 20.00    -0.035 A 
HETATM    6  C6  UNL     1     -37.151  14.873  -4.623  1.00 20.00     0.034 A 
HETATM    7  C7  UNL     1     -33.431  16.165  -3.015  1.00 20.00     0.045 C 
HETATM    8  C8  UNL     1     -35.439  17.470  -2.392  1.00 20.00     0.095 C 
HETATM    9  C9  UNL     1     -34.051  17.017  -1.884  1.00 20.00     0.005 C 
HETATM   10  C10 UNL     1     -33.112  18.100  -1.373  1.00 20.00     0.011 C 
HETATM   11 CL11 UNL     1     -38.690  14.408  -5.244  1.00 20.00    -0.084 Cl
HETATM   12 BR12 UNL     1     -35.399  19.090  -3.464  1.00 20.00    -0.086 Br
ENDROOT
TORSDOF 0
ENDMDL
MODEL 6
REMARK VINA RESULT:      -4.6      1.974      2.647
REMARK  0 active torsions:
REMARK  status: ('A' for Active; 'I' for Inactive)
ROOT
HETATM    1  C1  UNL     1     -33.148  18.140  -2.296  1.00 20.00     0.009 A 
HETATM    2  C2  UNL     1     -33.749  18.098  -1.037  1.00 20.00     0.024 A 
HETATM    3  C3  UNL     1     -35.527  16.668  -1.882  1.00 20.00     0.032 A 
HETATM    4  C4  UNL     1     -33.753  17.452  -3.336  1.00 20.00    -0.050 A 
HETATM    5  C5  UNL     1     -34.926  16.715  -3.130  1.00 20.00    -0.035 A 
HETATM    6  C6  UNL     1     -34.930  17.368  -0.831  1.00 20.00     0.034 A 
HETATM    7  C7  UNL     1     -33.286  17.338  -4.754  1.00 20.00     0.045 C 
HETATM    8  C8  UNL     1     -35.357  16.032  -4.393  1.00 20.00     0.095 C 
HETATM    9  C9  UNL     1     -34.579  16.851  -5.449  1.00 20.00     0.005 C 
HETATM   10  C10 UNL     1     -34.317  16.182  -6.791  1.00 20.00     0.011 C 
HETATM   11 CL11 UNL     1     -35.646  17.331   0.735  1.00 20.00    -0.084 Cl
HETATM   12 BR12 UNL     1     -34.822  14.167  -4.287  1.00 20.00    -0.086 Br
ENDROOT
TORSDOF 0
ENDMDL
MODEL 7
REMARK VINA RESULT:      -4.6      2.197      3.083
REMARK  0 active torsions:
REMARK  status: ('A' for Active; 'I' for Inactive)
ROOT
HETATM    1  C1  UNL     1     -33.323  16.788  -2.554  1.00 20.00     0.009 A 
HETATM    2  C2  UNL     1     -34.190  17.260  -1.567  1.00 20.00     0.024 A 
HETATM    3  C3  UNL     1     -36.121  16.767  -2.962  1.00 20.00     0.032 A 
HETATM    4  C4  UNL     1     -33.868  16.320  -3.738  1.00 20.00    -0.050 A 
HETATM    5  C5  UNL     1     -35.255  16.300  -3.938  1.00 20.00    -0.035 A 
HETATM    6  C6  UNL     1     -35.579  17.250  -1.770  1.00 20.00     0.034 A 
HETATM    7  C7  UNL     1     -33.145  15.753  -4.921  1.00 20.00     0.045 C 
HETATM    8  C8  UNL     1     -35.593  15.713  -5.276  1.00 20.00     0.095 C 
HETATM    9  C9  UNL     1     -34.239  15.853  -6.008  1.00 20.00     0.005 C 
HETATM   10  C10 UNL     1     -33.990  14.925  -7.189  1.00 20.00     0.011 C 
HETATM   11 CL11 UNL     1     -36.624  17.836  -0.532  1.00 20.00    -0.084 Cl
HETATM   12 BR12 UNL     1     -36.161  13.875  -5.005  1.00 20.00    -0.086 Br
ENDROOT
TORSDOF 0
ENDMDL
MODEL 8
REMARK VINA RESULT:      -4.3      3.470      5.503
REMARK  0 active torsions:
REMARK  status: ('A' for Active; 'I' for Inactive)
ROOT
HETATM    1  C1  UNL     1     -33.359  16.219  -6.407  1.00 20.00     0.009 A 
HETATM    2  C2  UNL     1     -33.855  15.090  -7.062  1.00 20.00     0.024 A 
HETATM    3  C3  UNL     1     -35.012  14.371  -5.045  1.00 20.00     0.032 A 
HETATM    4  C4  UNL     1     -33.689  16.402  -5.074  1.00 20.00    -0.050 A 
HETATM    5  C5  UNL     1     -34.515  15.493  -4.401  1.00 20.00    -0.035 A 
HETATM    6  C6  UNL     1     -34.675  14.173  -6.386  1.00 20.00     0.034 A 
HETATM    7  C7  UNL     1     -33.294  17.537  -4.179  1.00 20.00     0.045 C 
HETATM    8  C8  UNL     1     -34.755  15.934  -2.988  1.00 20.00     0.095 C 
HETATM    9  C9  UNL     1     -33.588  16.928  -2.789  1.00 20.00     0.005 C 
HETATM   10  C10 UNL     1     -33.751  17.980  -1.702  1.00 20.00     0.011 C 
HETATM   11 CL11 UNL     1     -35.274  12.790  -7.221  1.00 20.00    -0.084 Cl
HETATM   12 BR12 UNL     1     -36.516  16.752  -2.899  1.00 20.00    -0.086 Br
ENDROOT
TORSDOF 0
ENDMDL
MODEL 9
REMARK VINA RESULT:      -4.3     11.114     11.573
REMARK  0 active torsions:
REMARK  status: ('A' for Active; 'I' for Inactive)
ROOT
HETATM    1  C1  UNL     1     -31.793   7.167   1.544  1.00 20.00     0.009 A 
HETATM    2  C2  UNL     1     -31.765   8.528   1.236  1.00 20.00     0.024 A 
HETATM    3  C3  UNL     1     -33.540   8.976   2.838  1.00 20.00     0.032 A 
HETATM    4  C4  UNL     1     -32.704   6.727   2.491  1.00 20.00    -0.050 A 
HETATM    5  C5  UNL     1     -33.564   7.623   3.139  1.00 20.00    -0.035 A 
HETATM    6  C6  UNL     1     -32.632   9.425   1.877  1.00 20.00     0.034 A 
HETATM    7  C7  UNL     1     -32.903   5.330   2.994  1.00 20.00     0.045 C 
HETATM    8  C8  UNL     1     -34.420   6.911   4.143  1.00 20.00     0.095 C 
HETATM    9  C9  UNL     1     -34.298   5.451   3.650  1.00 20.00     0.005 C 
HETATM   10  C10 UNL     1     -34.575   4.351   4.664  1.00 20.00     0.011 C 
HETATM   11 CL11 UNL     1     -32.572  11.100   1.477  1.00 20.00    -0.084 Cl
HETATM   12 BR12 UNL     1     -33.666   7.216   5.908  1.00 20.00    -0.086 Br
ENDROOT
TORSDOF 0
ENDMDL
