MODEL 1
REMARK VINA RESULT:      -5.4      0.000      0.000
REMARK  1 active torsions:
REMARK  status: ('A' for Active; 'I' for Inactive)
REMARK    1  A    between atoms: C4_4  and  C9_9 
ROOT
HETATM    1  C1  UNL     1     -34.361   6.219   5.404  1.00 20.00     0.001 C 
HETATM    2  C2  UNL     1     -33.331   7.251   4.937  1.00 20.00     0.007 C 
HETATM    3  C3  UNL     1     -35.040   5.689   4.142  1.00 20.00     0.009 C 
HETATM    4  C4  UNL     1     -33.512   7.364   3.418  1.00 20.00     0.011 C 
HETATM    5  C5  UNL     1     -34.055   5.978   2.997  1.00 20.00    -0.043 C 
HETATM    6  C6  UNL     1     -32.972   4.886   2.931  1.00 20.00     0.015 C 
HETATM    7  C7  UNL     1     -34.784   6.035   1.649  1.00 20.00     0.015 C 
ENDROOT
BRANCH   4   8
HETATM    8  C9  UNL     1     -32.246   7.834   2.716  1.00 20.00     0.083 C 
HETATM    9  C8  UNL     1     -32.545   8.915   1.688  1.00 20.00     0.027 C 
HETATM   10 CL10 UNL     1     -31.090   8.463   3.924  1.00 20.00    -0.125 Cl
ENDBRANCH   4   8
TORSDOF 1
ENDMDL
MODEL 2
REMARK VINA RESULT:      -4.6      1.609      2.685
REMARK  1 active torsions:
REMARK  status: ('A' for Active; 'I' for Inactive)
REMARK    1  A    between atoms: C4_4  and  C9_9 
ROOT
HETATM    1  C1  UNL     1     -33.647   3.913   3.068  1.00 20.00     0.001 C 
HETATM    2  C2  UNL     1     -32.912   5.167   2.590  1.00 20.00     0.007 C 
HETATM    3  C3  UNL     1     -34.252   4.261   4.427  1.00 20.00     0.009 C 
HETATM    4  C4  UNL     1     -33.028   6.181   3.734  1.00 20.00     0.011 C 
HETATM    5  C5  UNL     1     -34.344   5.797   4.450  1.00 20.00    -0.043 C 
HETATM    6  C6  UNL     1     -35.608   6.271   3.711  1.00 20.00     0.015 C 
HETATM    7  C7  UNL     1     -34.385   6.321   5.890  1.00 20.00     0.015 C 
ENDROOT
BRANCH   4   8
HETATM    8  C9  UNL     1     -32.920   7.620   3.248  1.00 20.00     0.083 C 
HETATM    9  C8  UNL     1     -31.660   8.294   3.771  1.00 20.00     0.027 C 
HETATM   10 CL10 UNL     1     -32.914   7.650   1.463  1.00 20.00    -0.125 Cl
ENDBRANCH   4   8
TORSDOF 1
ENDMDL
MODEL 3
REMARK VINA RESULT:      -3.8     11.378     12.111
REMARK  1 active torsions:
REMARK  status: ('A' for Active; 'I' for Inactive)
REMARK    1  A    between atoms: C4_4  and  C9_9 
ROOT
HETATM    1  C1  UNL     1     -34.826  17.205  -2.123  1.00 20.00     0.001 C 
HETATM    2  C2  UNL     1     -35.958  16.431  -2.802  1.00 20.00     0.007 C 
HETATM    3  C3  UNL     1     -33.523  16.652  -2.700  1.00 20.00     0.009 C 
HETATM    4  C4  UNL     1     -35.276  15.378  -3.683  1.00 20.00     0.011 C 
HETATM    5  C5  UNL     1     -33.911  16.011  -4.043  1.00 20.00    -0.043 C 
HETATM    6  C6  UNL     1     -34.001  17.083  -5.145  1.00 20.00     0.015 C 
HETATM    7  C7  UNL     1     -32.884  14.954  -4.463  1.00 20.00     0.015 C 
ENDROOT
BRANCH   4   8
HETATM    8  C9  UNL     1     -36.149  14.947  -4.854  1.00 20.00     0.083 C 
HETATM    9  C8  UNL     1     -35.963  13.472  -5.176  1.00 20.00     0.027 C 
HETATM   10 CL10 UNL     1     -37.864  15.261  -4.469  1.00 20.00    -0.125 Cl
ENDBRANCH   4   8
TORSDOF 1
ENDMDL
MODEL 4
REMARK VINA RESULT:      -3.8     11.286     11.937
REMARK  1 active torsions:
REMARK  status: ('A' for Active; 'I' for Inactive)
REMARK    1  A    between atoms: C4_4  and  C9_9 
ROOT
HETATM    1  C1  UNL     1     -33.642  14.458  -4.914  1.00 20.00     0.001 C 
HETATM    2  C2  UNL     1     -33.408  15.407  -3.737  1.00 20.00     0.007 C 
HETATM    3  C3  UNL     1     -35.156  14.380  -5.108  1.00 20.00     0.009 C 
HETATM    4  C4  UNL     1     -34.801  15.778  -3.214  1.00 20.00     0.011 C 
HETATM    5  C5  UNL     1     -35.717  15.655  -4.456  1.00 20.00    -0.043 C 
HETATM    6  C6  UNL     1     -35.605  16.847  -5.423  1.00 20.00     0.015 C 
HETATM    7  C7  UNL     1     -37.188  15.470  -4.065  1.00 20.00     0.015 C 
ENDROOT
BRANCH   4   8
HETATM    8  C9  UNL     1     -34.815  17.120  -2.497  1.00 20.00     0.083 C 
HETATM    9  C8  UNL     1     -35.421  17.005  -1.106  1.00 20.00     0.027 C 
HETATM   10 CL10 UNL     1     -33.148  17.748  -2.370  1.00 20.00    -0.125 Cl
ENDBRANCH   4   8
TORSDOF 1
ENDMDL
MODEL 5
REMARK VINA RESULT:      -3.7     10.945     12.265
REMARK  1 active torsions:
REMARK  status: ('A' for Active; 'I' for Inactive)
REMARK    1  A    between atoms: C4_4  and  C9_9 
ROOT
HETATM    1  C1  UNL     1     -34.646  16.466  -6.446  1.00 20.00     0.001 C 
HETATM    2  C2  UNL     1     -34.877  17.097  -5.071  1.00 20.00     0.007 C 
HETATM    3  C3  UNL     1     -33.693  15.291  -6.225  1.00 20.00     0.009 C 
HETATM    4  C4  UNL     1     -33.969  16.330  -4.101  1.00 20.00     0.011 C 
HETATM    5  C5  UNL     1     -33.835  14.926  -4.737  1.00 20.00    -0.043 C 
HETATM    6  C6  UNL     1     -35.068  14.031  -4.518  1.00 20.00     0.015 C 
HETATM    7  C7  UNL     1     -32.589  14.187  -4.234  1.00 20.00     0.015 C 
ENDROOT
BRANCH   4   8
HETATM    8  C9  UNL     1     -34.481  16.375  -2.668  1.00 20.00     0.083 C 
HETATM    9  C8  UNL     1     -33.612  17.265  -1.792  1.00 20.00     0.027 C 
HETATM   10 CL10 UNL     1     -36.161  16.981  -2.652  1.00 20.00    -0.125 Cl
ENDBRANCH   4   8
TORSDOF 1
ENDMDL
MODEL 6
REMARK VINA RESULT:      -3.7     11.545     12.303
REMARK  1 active torsions:
REMARK  status: ('A' for Active; 'I' for Inactive)
REMARK    1  A    between atoms: C4_4  and  C9_9 
ROOT
HETATM    1  C1  UNL     1     -35.926  17.348  -0.832  1.00 20.00     0.001 C 
HETATM    2  C2  UNL     1     -35.614  16.616  -2.139  1.00 20.00     0.007 C 
HETATM    3  C3  UNL     1     -34.596  17.904  -0.323  1.00 20.00     0.009 C 
HETATM    4  C4  UNL     1     -34.091  16.681  -2.302  1.00 20.00     0.011 C 
HETATM    5  C5  UNL     1     -33.685  17.977  -1.561  1.00 20.00    -0.043 C 
HETATM    6  C6  UNL     1     -33.970  19.260  -2.362  1.00 20.00     0.015 C 
HETATM    7  C7  UNL     1     -32.207  17.965  -1.154  1.00 20.00     0.015 C 
ENDROOT
BRANCH   4   8
HETATM    8  C9  UNL     1     -33.657  16.573  -3.758  1.00 20.00     0.083 C 
HETATM    9  C8  UNL     1     -33.208  15.162  -4.104  1.00 20.00     0.027 C 
HETATM   10 CL10 UNL     1     -35.010  17.047  -4.822  1.00 20.00    -0.125 Cl
ENDBRANCH   4   8
TORSDOF 1
ENDMDL
MODEL 7
REMARK VINA RESULT:      -3.7     10.550     11.921
REMARK  1 active torsions:
REMARK  status: ('A' for Active; 'I' for Inactive)
REMARK    1  A    between atoms: C4_4  and  C9_9 
ROOT
HETATM    1  C1  UNL     1     -36.876  15.434  -4.709  1.00 20.00     0.001 C 
HETATM    2  C2  UNL     1     -36.416  16.159  -3.443  1.00 20.00     0.007 C 
HETATM    3  C3  UNL     1     -35.639  15.288  -5.594  1.00 20.00     0.009 C 
HETATM    4  C4  UNL     1     -34.939  16.505  -3.671  1.00 20.00     0.011 C 
HETATM    5  C5  UNL     1     -34.438  15.407  -4.639  1.00 20.00    -0.043 C 
HETATM    6  C6  UNL     1     -34.165  14.057  -3.950  1.00 20.00     0.015 C 
HETATM    7  C7  UNL     1     -33.178  15.842  -5.395  1.00 20.00     0.015 C 
ENDROOT
BRANCH   4   8
HETATM    8  C9  UNL     1     -34.170  16.657  -2.367  1.00 20.00     0.083 C 
HETATM    9  C8  UNL     1     -33.243  17.863  -2.402  1.00 20.00     0.027 C 
HETATM   10 CL10 UNL     1     -35.318  16.827  -1.010  1.00 20.00    -0.125 Cl
ENDBRANCH   4   8
TORSDOF 1
ENDMDL
MODEL 8
REMARK VINA RESULT:      -3.7     11.241     12.886
REMARK  1 active torsions:
REMARK  status: ('A' for Active; 'I' for Inactive)
REMARK    1  A    between atoms: C4_4  and  C9_9 
ROOT
HETATM    1  C1  UNL     1     -33.756  16.196  -3.318  1.00 20.00     0.001 C 
HETATM    2  C2  UNL     1     -34.226  14.923  -4.024  1.00 20.00     0.007 C 
HETATM    3  C3  UNL     1     -33.576  17.251  -4.410  1.00 20.00     0.009 C 
HETATM    4  C4  UNL     1     -34.211  15.244  -5.523  1.00 20.00     0.011 C 
HETATM    5  C5  UNL     1     -34.446  16.772  -5.585  1.00 20.00    -0.043 C 
HETATM    6  C6  UNL     1     -35.915  17.179  -5.366  1.00 20.00     0.015 C 
HETATM    7  C7  UNL     1     -33.958  17.373  -6.909  1.00 20.00     0.015 C 
ENDROOT
BRANCH   4   8
HETATM    8  C9  UNL     1     -35.184  14.380  -6.312  1.00 20.00     0.083 C 
HETATM    9  C8  UNL     1     -34.470  13.572  -7.385  1.00 20.00     0.027 C 
HETATM   10 CL10 UNL     1     -36.038  13.273  -5.202  1.00 20.00    -0.125 Cl
ENDBRANCH   4   8
TORSDOF 1
ENDMDL
MODEL 9
REMARK VINA RESULT:      -3.7     11.360     12.734
REMARK  1 active torsions:
REMARK  status: ('A' for Active; 'I' for Inactive)
REMARK    1  A    between atoms: C4_4  and  C9_9 
ROOT
HETATM    1  C1  UNL     1     -33.755  16.913  -6.474  1.00 20.00     0.001 C 
HETATM    2  C2  UNL     1     -34.914  15.923  -6.606  1.00 20.00     0.007 C 
HETATM    3  C3  UNL     1     -33.542  17.127  -4.976  1.00 20.00     0.009 C 
HETATM    4  C4  UNL     1     -35.409  15.665  -5.178  1.00 20.00     0.011 C 
HETATM    5  C5  UNL     1     -34.158  15.892  -4.296  1.00 20.00    -0.043 C 
HETATM    6  C6  UNL     1     -33.166  14.715  -4.319  1.00 20.00     0.015 C 
HETATM    7  C7  UNL     1     -34.532  16.197  -2.841  1.00 20.00     0.015 C 
ENDROOT
BRANCH   4   8
HETATM    8  C9  UNL     1     -36.097  14.314  -5.037  1.00 20.00     0.083 C 
HETATM    9  C8  UNL     1     -37.611  14.457  -5.017  1.00 20.00     0.027 C 
HETATM   10 CL10 UNL     1     -35.616  13.253  -6.390  1.00 20.00    -0.125 Cl
ENDBRANCH   4   8
TORSDOF 1
ENDMDL
