MODEL 1
REMARK VINA RESULT:      -6.4      0.000      0.000
REMARK  2 active torsions:
REMARK  status: ('A' for Active; 'I' for Inactive)
REMARK    1  A    between atoms: C6_6  and  N11_11 
REMARK    2  A    between atoms: C10_10  and  N11_11 
ROOT
HETATM    1  C1  UNL     1     -32.637   9.948   0.606  1.00 20.00     0.013 C 
HETATM    2  C2  UNL     1     -32.339   9.163   1.464  1.00 20.00    -0.087 C 
HETATM    3  C10 UNL     1     -31.971   8.209   2.514  1.00 20.00     0.362 C 
ENDROOT
BRANCH   3   4
HETATM    4  N11 UNL     1     -32.936   7.120   2.580  1.00 20.00     0.099 N 
HETATM    5  H28 UNL     1     -33.841   7.454   2.245  1.00 20.00     0.317 HD
BRANCH   4   6
HETATM    6  C6  UNL     1     -33.080   6.632   3.943  1.00 20.00     0.229 C 
HETATM    7  C4  UNL     1     -33.363   7.756   4.940  1.00 20.00     0.036 C 
HETATM    8  C3  UNL     1     -34.022   7.069   6.138  1.00 20.00     0.003 C 
HETATM    9  C5  UNL     1     -34.309   5.626   5.709  1.00 20.00     0.011 C 
HETATM   10  C7  UNL     1     -34.233   5.628   4.171  1.00 20.00    -0.017 C 
HETATM   11  C8  UNL     1     -35.576   6.090   3.572  1.00 20.00     0.017 C 
HETATM   12  C9  UNL     1     -33.902   4.236   3.626  1.00 20.00     0.017 C 
ENDBRANCH   4   6
ENDBRANCH   3   4
TORSDOF 2
ENDMDL
MODEL 2
REMARK VINA RESULT:      -4.2     11.011     11.875
REMARK  2 active torsions:
REMARK  status: ('A' for Active; 'I' for Inactive)
REMARK    1  A    between atoms: C6_6  and  N11_11 
REMARK    2  A    between atoms: C10_10  and  N11_11 
ROOT
HETATM    1  C1  UNL     1     -35.500  17.375  -0.170  1.00 20.00     0.013 C 
HETATM    2  C2  UNL     1     -34.645  17.273  -1.007  1.00 20.00    -0.087 C 
HETATM    3  C10 UNL     1     -33.598  17.148  -2.024  1.00 20.00     0.362 C 
ENDROOT
BRANCH   3   4
HETATM    4  N11 UNL     1     -34.183  17.063  -3.356  1.00 20.00     0.099 N 
HETATM    5  H28 UNL     1     -34.869  17.809  -3.468  1.00 20.00     0.317 HD
BRANCH   4   6
HETATM    6  C6  UNL     1     -34.834  15.778  -3.558  1.00 20.00     0.229 C 
HETATM    7  C4  UNL     1     -36.308  15.923  -3.940  1.00 20.00     0.036 C 
HETATM    8  C3  UNL     1     -36.669  14.611  -4.640  1.00 20.00     0.003 C 
HETATM    9  C5  UNL     1     -35.353  13.852  -4.848  1.00 20.00     0.011 C 
HETATM   10  C7  UNL     1     -34.239  14.902  -4.683  1.00 20.00    -0.017 C 
HETATM   11  C8  UNL     1     -34.026  15.663  -6.006  1.00 20.00     0.017 C 
HETATM   12  C9  UNL     1     -32.915  14.251  -4.269  1.00 20.00     0.017 C 
ENDBRANCH   4   6
ENDBRANCH   3   4
TORSDOF 2
ENDMDL
MODEL 3
REMARK VINA RESULT:      -4.1     11.592     12.308
REMARK  2 active torsions:
REMARK  status: ('A' for Active; 'I' for Inactive)
REMARK    1  A    between atoms: C6_6  and  N11_11 
REMARK    2  A    between atoms: C10_10  and  N11_11 
ROOT
HETATM    1  C1  UNL     1     -34.298  15.178  -7.516  1.00 20.00     0.013 C 
HETATM    2  C2  UNL     1     -33.700  15.367  -6.492  1.00 20.00    -0.087 C 
HETATM    3  C10 UNL     1     -32.968  15.594  -5.243  1.00 20.00     0.362 C 
ENDROOT
BRANCH   3   4
HETATM    4  N11 UNL     1     -33.411  16.826  -4.604  1.00 20.00     0.099 N 
HETATM    5  H28 UNL     1     -32.627  17.475  -4.548  1.00 20.00     0.317 HD
BRANCH   4   6
HETATM    6  C6  UNL     1     -33.914  16.566  -3.264  1.00 20.00     0.229 C 
HETATM    7  C4  UNL     1     -33.213  17.413  -2.201  1.00 20.00     0.036 C 
HETATM    8  C3  UNL     1     -34.183  17.452  -1.018  1.00 20.00     0.003 C 
HETATM    9  C5  UNL     1     -35.495  16.833  -1.511  1.00 20.00     0.011 C 
HETATM   10  C7  UNL     1     -35.416  16.862  -3.049  1.00 20.00    -0.017 C 
HETATM   11  C8  UNL     1     -35.851  18.243  -3.578  1.00 20.00     0.017 C 
HETATM   12  C9  UNL     1     -36.311  15.789  -3.675  1.00 20.00     0.017 C 
ENDBRANCH   4   6
ENDBRANCH   3   4
TORSDOF 2
ENDMDL
MODEL 4
REMARK VINA RESULT:      -4.1     11.221     12.034
REMARK  2 active torsions:
REMARK  status: ('A' for Active; 'I' for Inactive)
REMARK    1  A    between atoms: C6_6  and  N11_11 
REMARK    2  A    between atoms: C10_10  and  N11_11 
ROOT
HETATM    1  C1  UNL     1     -32.943  17.771  -1.391  1.00 20.00     0.013 C 
HETATM    2  C2  UNL     1     -34.053  17.357  -1.586  1.00 20.00    -0.087 C 
HETATM    3  C10 UNL     1     -35.409  16.852  -1.819  1.00 20.00     0.362 C 
ENDROOT
BRANCH   3   4
HETATM    4  N11 UNL     1     -35.715  16.839  -3.243  1.00 20.00     0.099 N 
HETATM    5  H28 UNL     1     -36.533  17.425  -3.415  1.00 20.00     0.317 HD
BRANCH   4   6
HETATM    6  C6  UNL     1     -35.988  15.487  -3.706  1.00 20.00     0.229 C 
HETATM    7  C4  UNL     1     -37.371  15.354  -4.343  1.00 20.00     0.036 C 
HETATM    8  C3  UNL     1     -37.280  14.117  -5.238  1.00 20.00     0.003 C 
HETATM    9  C5  UNL     1     -35.803  13.713  -5.274  1.00 20.00     0.011 C 
HETATM   10  C7  UNL     1     -35.023  14.948  -4.786  1.00 20.00    -0.017 C 
HETATM   11  C8  UNL     1     -34.798  15.930  -5.953  1.00 20.00     0.017 C 
HETATM   12  C9  UNL     1     -33.663  14.555  -4.202  1.00 20.00     0.017 C 
ENDBRANCH   4   6
ENDBRANCH   3   4
TORSDOF 2
ENDMDL
MODEL 5
REMARK VINA RESULT:      -4.1      1.123      2.338
REMARK  2 active torsions:
REMARK  status: ('A' for Active; 'I' for Inactive)
REMARK    1  A    between atoms: C6_6  and  N11_11 
REMARK    2  A    between atoms: C10_10  and  N11_11 
ROOT
HETATM    1  C1  UNL     1     -32.861  10.629   1.377  1.00 20.00     0.013 C 
HETATM    2  C2  UNL     1     -32.352   9.544   1.445  1.00 20.00    -0.087 C 
HETATM    3  C10 UNL     1     -31.727   8.221   1.523  1.00 20.00     0.362 C 
ENDROOT
BRANCH   3   4
HETATM    4  N11 UNL     1     -31.909   7.644   2.848  1.00 20.00     0.099 N 
HETATM    5  H28 UNL     1     -31.096   7.074   3.080  1.00 20.00     0.317 HD
BRANCH   4   6
HETATM    6  C6  UNL     1     -33.105   6.817   2.897  1.00 20.00     0.229 C 
HETATM    7  C4  UNL     1     -32.781   5.328   3.028  1.00 20.00     0.036 C 
HETATM    8  C3  UNL     1     -34.044   4.695   3.615  1.00 20.00     0.003 C 
HETATM    9  C5  UNL     1     -34.963   5.853   4.019  1.00 20.00     0.011 C 
HETATM   10  C7  UNL     1     -34.060   7.098   4.079  1.00 20.00    -0.017 C 
HETATM   11  C8  UNL     1     -33.344   7.171   5.442  1.00 20.00     0.017 C 
HETATM   12  C9  UNL     1     -34.866   8.384   3.876  1.00 20.00     0.017 C 
ENDBRANCH   4   6
ENDBRANCH   3   4
TORSDOF 2
ENDMDL
MODEL 6
REMARK VINA RESULT:      -4.1     11.066     12.477
REMARK  2 active torsions:
REMARK  status: ('A' for Active; 'I' for Inactive)
REMARK    1  A    between atoms: C6_6  and  N11_11 
REMARK    2  A    between atoms: C10_10  and  N11_11 
ROOT
HETATM    1  C1  UNL     1     -35.466  17.169  -0.714  1.00 20.00     0.013 C 
HETATM    2  C2  UNL     1     -34.586  17.142  -1.530  1.00 20.00    -0.087 C 
HETATM    3  C10 UNL     1     -33.510  17.113  -2.524  1.00 20.00     0.362 C 
ENDROOT
BRANCH   3   4
HETATM    4  N11 UNL     1     -33.588  15.903  -3.331  1.00 20.00     0.099 N 
HETATM    5  H28 UNL     1     -32.647  15.537  -3.478  1.00 20.00     0.317 HD
BRANCH   4   6
HETATM    6  C6  UNL     1     -34.203  16.175  -4.621  1.00 20.00     0.229 C 
HETATM    7  C4  UNL     1     -33.254  15.906  -5.790  1.00 20.00     0.036 C 
HETATM    8  C3  UNL     1     -34.165  15.689  -7.001  1.00 20.00     0.003 C 
HETATM    9  C5  UNL     1     -35.596  15.609  -6.459  1.00 20.00     0.011 C 
HETATM   10  C7  UNL     1     -35.455  15.332  -4.951  1.00 20.00    -0.017 C 
HETATM   11  C8  UNL     1     -35.261  13.823  -4.704  1.00 20.00     0.017 C 
HETATM   12  C9  UNL     1     -36.689  15.804  -4.178  1.00 20.00     0.017 C 
ENDBRANCH   4   6
ENDBRANCH   3   4
TORSDOF 2
ENDMDL
MODEL 7
REMARK VINA RESULT:      -4.1     11.124     12.635
REMARK  2 active torsions:
REMARK  status: ('A' for Active; 'I' for Inactive)
REMARK    1  A    between atoms: C6_6  and  N11_11 
REMARK    2  A    between atoms: C10_10  and  N11_11 
ROOT
HETATM    1  C1  UNL     1     -32.805  18.100  -1.151  1.00 20.00     0.013 C 
HETATM    2  C2  UNL     1     -33.861  17.541  -1.275  1.00 20.00    -0.087 C 
HETATM    3  C10 UNL     1     -35.150  16.860  -1.421  1.00 20.00     0.362 C 
ENDROOT
BRANCH   3   4
HETATM    4  N11 UNL     1     -35.504  16.726  -2.828  1.00 20.00     0.099 N 
HETATM    5  H28 UNL     1     -36.304  16.098  -2.913  1.00 20.00     0.317 HD
BRANCH   4   6
HETATM    6  C6  UNL     1     -34.391  16.192  -3.597  1.00 20.00     0.229 C 
HETATM    7  C4  UNL     1     -34.561  14.706  -3.918  1.00 20.00     0.036 C 
HETATM    8  C3  UNL     1     -33.670  14.457  -5.137  1.00 20.00     0.003 C 
HETATM    9  C5  UNL     1     -33.200  15.834  -5.621  1.00 20.00     0.011 C 
HETATM   10  C7  UNL     1     -34.161  16.850  -4.977  1.00 20.00    -0.017 C 
HETATM   11  C8  UNL     1     -35.446  16.975  -5.818  1.00 20.00     0.017 C 
HETATM   12  C9  UNL     1     -33.513  18.232  -4.856  1.00 20.00     0.017 C 
ENDBRANCH   4   6
ENDBRANCH   3   4
TORSDOF 2
ENDMDL
MODEL 8
REMARK VINA RESULT:      -4.0     11.138     12.530
REMARK  2 active torsions:
REMARK  status: ('A' for Active; 'I' for Inactive)
REMARK    1  A    between atoms: C6_6  and  N11_11 
REMARK    2  A    between atoms: C10_10  and  N11_11 
ROOT
HETATM    1  C1  UNL     1     -33.153  17.805  -1.331  1.00 20.00     0.013 C 
HETATM    2  C2  UNL     1     -33.686  17.040  -2.087  1.00 20.00    -0.087 C 
HETATM    3  C10 UNL     1     -34.341  16.105  -3.006  1.00 20.00     0.362 C 
ENDROOT
BRANCH   3   4
HETATM    4  N11 UNL     1     -33.667  16.098  -4.298  1.00 20.00     0.099 N 
HETATM    5  H28 UNL     1     -33.870  16.970  -4.786  1.00 20.00     0.317 HD
BRANCH   4   6
HETATM    6  C6  UNL     1     -34.113  14.978  -5.112  1.00 20.00     0.229 C 
HETATM    7  C4  UNL     1     -35.120  14.088  -4.381  1.00 20.00     0.036 C 
HETATM    8  C3  UNL     1     -35.879  13.353  -5.489  1.00 20.00     0.003 C 
HETATM    9  C5  UNL     1     -35.456  14.003  -6.811  1.00 20.00     0.011 C 
HETATM   10  C7  UNL     1     -34.831  15.357  -6.427  1.00 20.00    -0.017 C 
HETATM   11  C8  UNL     1     -35.934  16.418  -6.240  1.00 20.00     0.017 C 
HETATM   12  C9  UNL     1     -33.853  15.845  -7.499  1.00 20.00     0.017 C 
ENDBRANCH   4   6
ENDBRANCH   3   4
TORSDOF 2
ENDMDL
MODEL 9
REMARK VINA RESULT:      -4.0      8.785     10.781
REMARK  2 active torsions:
REMARK  status: ('A' for Active; 'I' for Inactive)
REMARK    1  A    between atoms: C6_6  and  N11_11 
REMARK    2  A    between atoms: C10_10  and  N11_11 
ROOT
HETATM    1  C1  UNL     1     -42.064   2.103  -3.806  1.00 20.00     0.013 C 
HETATM    2  C2  UNL     1     -42.570   2.999  -3.189  1.00 20.00    -0.087 C 
HETATM    3  C10 UNL     1     -43.194   4.091  -2.437  1.00 20.00     0.362 C 
ENDROOT
BRANCH   3   4
HETATM    4  N11 UNL     1     -42.235   4.699  -1.524  1.00 20.00     0.099 N 
HETATM    5  H28 UNL     1     -41.730   3.963  -1.030  1.00 20.00     0.317 HD
BRANCH   4   6
HETATM    6  C6  UNL     1     -42.907   5.552  -0.555  1.00 20.00     0.229 C 
HETATM    7  C4  UNL     1     -43.263   4.807   0.733  1.00 20.00     0.036 C 
HETATM    8  C3  UNL     1     -43.417   5.898   1.794  1.00 20.00     0.003 C 
HETATM    9  C5  UNL     1     -42.924   7.201   1.155  1.00 20.00     0.011 C 
HETATM   10  C7  UNL     1     -42.094   6.773  -0.070  1.00 20.00    -0.017 C 
HETATM   11  C8  UNL     1     -40.656   6.422   0.360  1.00 20.00     0.017 C 
HETATM   12  C9  UNL     1     -42.037   7.885  -1.122  1.00 20.00     0.017 C 
ENDBRANCH   4   6
ENDBRANCH   3   4
TORSDOF 2
ENDMDL
