MODEL 1
REMARK VINA RESULT:      -4.5      0.000      0.000
REMARK  2 active torsions:
REMARK  status: ('A' for Active; 'I' for Inactive)
REMARK    1  A    between atoms: C5_5  and  C9_9 
REMARK    2  A    between atoms: C5_5  and  O10_10 
ROOT
HETATM    1  C1  UNL     1     -34.463   6.136   5.492  1.00 20.00     0.004 C 
HETATM    2  C2  UNL     1     -35.044   5.675   4.154  1.00 20.00     0.012 C 
HETATM    3  C3  UNL     1     -33.275   7.049   5.166  1.00 20.00     0.038 C 
HETATM    4  C4  UNL     1     -33.943   5.948   3.108  1.00 20.00    -0.017 C 
HETATM    5  C5  UNL     1     -33.331   7.270   3.648  1.00 20.00     0.064 C 
HETATM    6  C6  UNL     1     -34.555   6.085   1.707  1.00 20.00     0.018 C 
HETATM    7  C7  UNL     1     -32.941   4.777   3.088  1.00 20.00     0.018 C 
ENDROOT
BRANCH   5   8
HETATM    8  C9  UNL     1     -31.977   7.659   3.066  1.00 20.00     0.034 C 
HETATM    9  C8  UNL     1     -32.107   8.726   2.027  1.00 20.00     0.008 C 
ENDBRANCH   5   8
BRANCH   5  10
HETATM   10  O10 UNL     1     -34.240   8.350   3.397  1.00 20.00    -0.389 OA
HETATM   11  H28 UNL     1     -34.467   8.716   4.263  1.00 20.00     0.210 HD
ENDBRANCH   5  10
TORSDOF 2
ENDMDL
MODEL 2
REMARK VINA RESULT:      -4.4     10.976     12.477
REMARK  2 active torsions:
REMARK  status: ('A' for Active; 'I' for Inactive)
REMARK    1  A    between atoms: C5_5  and  C9_9 
REMARK    2  A    between atoms: C5_5  and  O10_10 
ROOT
HETATM    1  C1  UNL     1     -35.355  13.986  -7.810  1.00 20.00     0.004 C 
HETATM    2  C2  UNL     1     -36.744  14.333  -7.273  1.00 20.00     0.012 C 
HETATM    3  C3  UNL     1     -34.430  13.864  -6.594  1.00 20.00     0.038 C 
HETATM    4  C4  UNL     1     -36.517  14.843  -5.834  1.00 20.00    -0.017 C 
HETATM    5  C5  UNL     1     -35.352  13.929  -5.368  1.00 20.00     0.064 C 
HETATM    6  C6  UNL     1     -37.795  14.681  -4.999  1.00 20.00     0.018 C 
HETATM    7  C7  UNL     1     -36.143  16.338  -5.864  1.00 20.00     0.018 C 
ENDROOT
BRANCH   5   8
HETATM    8  C9  UNL     1     -34.618  14.380  -4.110  1.00 20.00     0.034 C 
HETATM    9  C8  UNL     1     -33.168  14.625  -4.372  1.00 20.00     0.008 C 
ENDBRANCH   5   8
BRANCH   5  10
HETATM   10  O10 UNL     1     -35.853  12.607  -5.128  1.00 20.00    -0.389 OA
HETATM   11  H28 UNL     1     -36.148  12.595  -4.208  1.00 20.00     0.210 HD
ENDBRANCH   5  10
TORSDOF 2
ENDMDL
MODEL 3
REMARK VINA RESULT:      -4.4     11.273     12.349
REMARK  2 active torsions:
REMARK  status: ('A' for Active; 'I' for Inactive)
REMARK    1  A    between atoms: C5_5  and  C9_9 
REMARK    2  A    between atoms: C5_5  and  O10_10 
ROOT
HETATM    1  C1  UNL     1     -34.330  15.078  -3.881  1.00 20.00     0.004 C 
HETATM    2  C2  UNL     1     -33.668  14.527  -5.144  1.00 20.00     0.012 C 
HETATM    3  C3  UNL     1     -35.844  14.957  -4.087  1.00 20.00     0.038 C 
HETATM    4  C4  UNL     1     -34.773  14.516  -6.221  1.00 20.00    -0.017 C 
HETATM    5  C5  UNL     1     -36.019  14.138  -5.374  1.00 20.00     0.064 C 
HETATM    6  C6  UNL     1     -34.444  13.494  -7.317  1.00 20.00     0.018 C 
HETATM    7  C7  UNL     1     -34.880  15.910  -6.871  1.00 20.00     0.018 C 
ENDROOT
BRANCH   5   8
HETATM    8  C9  UNL     1     -37.369  14.378  -6.039  1.00 20.00     0.034 C 
HETATM    9  C8  UNL     1     -38.435  14.681  -5.036  1.00 20.00     0.008 C 
ENDBRANCH   5   8
BRANCH   5  10
HETATM   10  O10 UNL     1     -35.948  12.750  -5.021  1.00 20.00    -0.389 OA
HETATM   11  H28 UNL     1     -36.854  12.479  -4.818  1.00 20.00     0.210 HD
ENDBRANCH   5  10
TORSDOF 2
ENDMDL
MODEL 4
REMARK VINA RESULT:      -4.1     10.864     12.146
REMARK  2 active torsions:
REMARK  status: ('A' for Active; 'I' for Inactive)
REMARK    1  A    between atoms: C5_5  and  C9_9 
REMARK    2  A    between atoms: C5_5  and  O10_10 
ROOT
HETATM    1  C1  UNL     1     -36.166  15.836  -3.985  1.00 20.00     0.004 C 
HETATM    2  C2  UNL     1     -34.742  15.559  -3.501  1.00 20.00     0.012 C 
HETATM    3  C3  UNL     1     -36.360  15.030  -5.274  1.00 20.00     0.038 C 
HETATM    4  C4  UNL     1     -33.996  14.978  -4.720  1.00 20.00    -0.017 C 
HETATM    5  C5  UNL     1     -35.117  14.136  -5.390  1.00 20.00     0.064 C 
HETATM    6  C6  UNL     1     -32.791  14.143  -4.265  1.00 20.00     0.018 C 
HETATM    7  C7  UNL     1     -33.483  16.126  -5.613  1.00 20.00     0.018 C 
ENDROOT
BRANCH   5   8
HETATM    8  C9  UNL     1     -34.848  13.695  -6.824  1.00 20.00     0.034 C 
HETATM    9  C8  UNL     1     -36.021  13.953  -7.712  1.00 20.00     0.008 C 
ENDBRANCH   5   8
BRANCH   5  10
HETATM   10  O10 UNL     1     -35.353  12.956  -4.609  1.00 20.00    -0.389 OA
HETATM   11  H28 UNL     1     -36.194  13.101  -4.153  1.00 20.00     0.210 HD
ENDBRANCH   5  10
TORSDOF 2
ENDMDL
MODEL 5
REMARK VINA RESULT:      -4.0     11.220     12.492
REMARK  2 active torsions:
REMARK  status: ('A' for Active; 'I' for Inactive)
REMARK    1  A    between atoms: C5_5  and  C9_9 
REMARK    2  A    between atoms: C5_5  and  O10_10 
ROOT
HETATM    1  C1  UNL     1     -33.585  15.744  -7.104  1.00 20.00     0.004 C 
HETATM    2  C2  UNL     1     -34.666  14.662  -7.112  1.00 20.00     0.012 C 
HETATM    3  C3  UNL     1     -33.302  16.076  -5.635  1.00 20.00     0.038 C 
HETATM    4  C4  UNL     1     -35.304  14.704  -5.708  1.00 20.00    -0.017 C 
HETATM    5  C5  UNL     1     -34.069  15.024  -4.822  1.00 20.00     0.064 C 
HETATM    6  C6  UNL     1     -35.964  13.359  -5.377  1.00 20.00     0.018 C 
HETATM    7  C7  UNL     1     -36.387  15.801  -5.661  1.00 20.00     0.018 C 
ENDROOT
BRANCH   5   8
HETATM    8  C9  UNL     1     -34.375  15.492  -3.404  1.00 20.00     0.034 C 
HETATM    9  C8  UNL     1     -33.648  16.754  -3.068  1.00 20.00     0.008 C 
ENDBRANCH   5   8
BRANCH   5  10
HETATM   10  O10 UNL     1     -33.241  13.857  -4.725  1.00 20.00    -0.389 OA
HETATM   11  H28 UNL     1     -32.330  14.167  -4.817  1.00 20.00     0.210 HD
ENDBRANCH   5  10
TORSDOF 2
ENDMDL
MODEL 6
REMARK VINA RESULT:      -4.0     11.217     12.805
REMARK  2 active torsions:
REMARK  status: ('A' for Active; 'I' for Inactive)
REMARK    1  A    between atoms: C5_5  and  C9_9 
REMARK    2  A    between atoms: C5_5  and  O10_10 
ROOT
HETATM    1  C1  UNL     1     -33.402  15.032  -4.139  1.00 20.00     0.004 C 
HETATM    2  C2  UNL     1     -33.005  15.704  -5.454  1.00 20.00     0.012 C 
HETATM    3  C3  UNL     1     -34.685  14.241  -4.416  1.00 20.00     0.038 C 
HETATM    4  C4  UNL     1     -34.271  15.669  -6.336  1.00 20.00    -0.017 C 
HETATM    5  C5  UNL     1     -34.881  14.297  -5.938  1.00 20.00     0.064 C 
HETATM    6  C6  UNL     1     -33.894  15.765  -7.820  1.00 20.00     0.018 C 
HETATM    7  C7  UNL     1     -35.181  16.863  -5.987  1.00 20.00     0.018 C 
ENDROOT
BRANCH   5   8
HETATM    8  C9  UNL     1     -36.332  14.074  -6.348  1.00 20.00     0.034 C 
HETATM    9  C8  UNL     1     -37.252  14.116  -5.171  1.00 20.00     0.008 C 
ENDBRANCH   5   8
BRANCH   5  10
HETATM   10  O10 UNL     1     -34.098  13.244  -6.518  1.00 20.00    -0.389 OA
HETATM   11  H28 UNL     1     -34.135  13.379  -7.474  1.00 20.00     0.210 HD
ENDBRANCH   5  10
TORSDOF 2
ENDMDL
MODEL 7
REMARK VINA RESULT:      -3.7     11.148     12.445
REMARK  2 active torsions:
REMARK  status: ('A' for Active; 'I' for Inactive)
REMARK    1  A    between atoms: C5_5  and  C9_9 
REMARK    2  A    between atoms: C5_5  and  O10_10 
ROOT
HETATM    1  C1  UNL     1     -35.044  16.393  -6.569  1.00 20.00     0.004 C 
HETATM    2  C2  UNL     1     -34.003  15.304  -6.307  1.00 20.00     0.012 C 
HETATM    3  C3  UNL     1     -35.454  16.951  -5.202  1.00 20.00     0.038 C 
HETATM    4  C4  UNL     1     -34.154  14.938  -4.816  1.00 20.00    -0.017 C 
HETATM    5  C5  UNL     1     -34.482  16.323  -4.194  1.00 20.00     0.064 C 
HETATM    6  C6  UNL     1     -32.856  14.318  -4.281  1.00 20.00     0.018 C 
HETATM    7  C7  UNL     1     -35.290  13.909  -4.644  1.00 20.00     0.018 C 
ENDROOT
BRANCH   5   8
HETATM    8  C9  UNL     1     -35.047  16.296  -2.778  1.00 20.00     0.034 C 
HETATM    9  C8  UNL     1     -34.145  16.989  -1.809  1.00 20.00     0.008 C 
ENDBRANCH   5   8
BRANCH   5  10
HETATM   10  O10 UNL     1     -33.295  17.126  -4.173  1.00 20.00    -0.389 OA
HETATM   11  H28 UNL     1     -33.534  17.946  -3.719  1.00 20.00     0.210 HD
ENDBRANCH   5  10
TORSDOF 2
ENDMDL
MODEL 8
REMARK VINA RESULT:      -3.7     11.099     12.706
REMARK  2 active torsions:
REMARK  status: ('A' for Active; 'I' for Inactive)
REMARK    1  A    between atoms: C5_5  and  C9_9 
REMARK    2  A    between atoms: C5_5  and  O10_10 
ROOT
HETATM    1  C1  UNL     1     -36.444  13.936  -5.610  1.00 20.00     0.004 C 
HETATM    2  C2  UNL     1     -35.322  13.667  -4.606  1.00 20.00     0.012 C 
HETATM    3  C3  UNL     1     -35.877  14.898  -6.659  1.00 20.00     0.038 C 
HETATM    4  C4  UNL     1     -34.295  14.798  -4.820  1.00 20.00    -0.017 C 
HETATM    5  C5  UNL     1     -34.374  14.994  -6.359  1.00 20.00     0.064 C 
HETATM    6  C6  UNL     1     -32.907  14.363  -4.328  1.00 20.00     0.018 C 
HETATM    7  C7  UNL     1     -34.722  16.048  -4.025  1.00 20.00     0.018 C 
ENDROOT
BRANCH   5   8
HETATM    8  C9  UNL     1     -33.752  16.278  -6.896  1.00 20.00     0.034 C 
HETATM    9  C8  UNL     1     -34.744  17.096  -7.658  1.00 20.00     0.008 C 
ENDBRANCH   5   8
BRANCH   5  10
HETATM   10  O10 UNL     1     -33.728  13.892  -7.010  1.00 20.00    -0.389 OA
HETATM   11  H28 UNL     1     -34.258  13.696  -7.795  1.00 20.00     0.210 HD
ENDBRANCH   5  10
TORSDOF 2
ENDMDL
MODEL 9
REMARK VINA RESULT:      -3.6     10.909     12.381
REMARK  2 active torsions:
REMARK  status: ('A' for Active; 'I' for Inactive)
REMARK    1  A    between atoms: C5_5  and  C9_9 
REMARK    2  A    between atoms: C5_5  and  O10_10 
ROOT
HETATM    1  C1  UNL     1     -35.634  13.703  -5.392  1.00 20.00     0.004 C 
HETATM    2  C2  UNL     1     -35.994  15.004  -6.111  1.00 20.00     0.012 C 
HETATM    3  C3  UNL     1     -34.806  14.092  -4.162  1.00 20.00     0.038 C 
HETATM    4  C4  UNL     1     -35.017  16.064  -5.562  1.00 20.00    -0.017 C 
HETATM    5  C5  UNL     1     -34.889  15.623  -4.079  1.00 20.00     0.064 C 
HETATM    6  C6  UNL     1     -35.601  17.473  -5.734  1.00 20.00     0.018 C 
HETATM    7  C7  UNL     1     -33.684  15.994  -6.334  1.00 20.00     0.018 C 
ENDROOT
BRANCH   5   8
HETATM    8  C9  UNL     1     -33.724  16.229  -3.305  1.00 20.00     0.034 C 
HETATM    9  C8  UNL     1     -34.179  16.880  -2.039  1.00 20.00     0.008 C 
ENDBRANCH   5   8
BRANCH   5  10
HETATM   10  O10 UNL     1     -36.096  15.956  -3.380  1.00 20.00    -0.389 OA
HETATM   11  H28 UNL     1     -36.771  16.091  -4.059  1.00 20.00     0.210 HD
ENDBRANCH   5  10
TORSDOF 2
ENDMDL
