MODEL 1
REMARK VINA RESULT:      -5.9      0.000      0.000
REMARK  0 active torsions:
REMARK  status: ('A' for Active; 'I' for Inactive)
ROOT
HETATM    1  C1  UNL     1     -33.604   6.885   4.759  1.00 20.00    -0.081 C 
HETATM    2  C2  UNL     1     -33.901   7.297   5.998  1.00 20.00     0.015 C 
HETATM    3  C3  UNL     1     -32.560   7.547   3.900  1.00 20.00     0.034 C 
HETATM    4  C4  UNL     1     -32.861   7.016   2.506  1.00 20.00     0.005 C 
HETATM    5  C5  UNL     1     -33.371   5.604   2.763  1.00 20.00     0.013 C 
HETATM    6  C6  UNL     1     -34.262   5.731   4.017  1.00 20.00    -0.025 C 
HETATM    7  C7  UNL     1     -35.704   6.090   3.624  1.00 20.00     0.019 C 
HETATM    8  C8  UNL     1     -34.254   4.417   4.808  1.00 20.00     0.019 C 
ENDROOT
TORSDOF 0
ENDMDL
MODEL 2
REMARK VINA RESULT:      -5.5      1.058      2.615
REMARK  0 active torsions:
REMARK  status: ('A' for Active; 'I' for Inactive)
ROOT
HETATM    1  C1  UNL     1     -33.242   7.064   3.984  1.00 20.00    -0.081 C 
HETATM    2  C2  UNL     1     -32.314   7.846   3.417  1.00 20.00     0.015 C 
HETATM    3  C3  UNL     1     -33.662   7.197   5.423  1.00 20.00     0.034 C 
HETATM    4  C4  UNL     1     -34.395   5.893   5.699  1.00 20.00     0.005 C 
HETATM    5  C5  UNL     1     -35.052   5.562   4.365  1.00 20.00     0.013 C 
HETATM    6  C6  UNL     1     -33.992   5.928   3.305  1.00 20.00    -0.025 C 
HETATM    7  C7  UNL     1     -33.054   4.738   3.043  1.00 20.00     0.019 C 
HETATM    8  C8  UNL     1     -34.673   6.346   1.996  1.00 20.00     0.019 C 
ENDROOT
TORSDOF 0
ENDMDL
MODEL 3
REMARK VINA RESULT:      -5.0      0.884      2.040
REMARK  0 active torsions:
REMARK  status: ('A' for Active; 'I' for Inactive)
ROOT
HETATM    1  C1  UNL     1     -34.157   5.753   4.992  1.00 20.00    -0.081 C 
HETATM    2  C2  UNL     1     -34.787   4.668   5.460  1.00 20.00     0.015 C 
HETATM    3  C3  UNL     1     -33.703   6.886   5.873  1.00 20.00     0.034 C 
HETATM    4  C4  UNL     1     -33.430   8.012   4.888  1.00 20.00     0.005 C 
HETATM    5  C5  UNL     1     -32.928   7.288   3.646  1.00 20.00     0.013 C 
HETATM    6  C6  UNL     1     -33.822   6.035   3.535  1.00 20.00    -0.025 C 
HETATM    7  C7  UNL     1     -35.097   6.348   2.735  1.00 20.00     0.019 C 
HETATM    8  C8  UNL     1     -33.054   4.894   2.856  1.00 20.00     0.019 C 
ENDROOT
TORSDOF 0
ENDMDL
MODEL 4
REMARK VINA RESULT:      -4.8      0.755      2.507
REMARK  0 active torsions:
REMARK  status: ('A' for Active; 'I' for Inactive)
ROOT
HETATM    1  C1  UNL     1     -33.323   6.068   3.234  1.00 20.00    -0.081 C 
HETATM    2  C2  UNL     1     -32.896   7.184   2.629  1.00 20.00     0.015 C 
HETATM    3  C3  UNL     1     -32.825   4.694   2.871  1.00 20.00     0.034 C 
HETATM    4  C4  UNL     1     -33.850   3.768   3.508  1.00 20.00     0.005 C 
HETATM    5  C5  UNL     1     -34.270   4.511   4.769  1.00 20.00     0.013 C 
HETATM    6  C6  UNL     1     -34.366   5.990   4.339  1.00 20.00    -0.025 C 
HETATM    7  C7  UNL     1     -35.766   6.305   3.786  1.00 20.00     0.019 C 
HETATM    8  C8  UNL     1     -34.061   6.909   5.528  1.00 20.00     0.019 C 
ENDROOT
TORSDOF 0
ENDMDL
MODEL 5
REMARK VINA RESULT:      -4.6      0.951      3.195
REMARK  0 active torsions:
REMARK  status: ('A' for Active; 'I' for Inactive)
ROOT
HETATM    1  C1  UNL     1     -33.570   4.860   3.516  1.00 20.00    -0.081 C 
HETATM    2  C2  UNL     1     -33.031   4.397   2.381  1.00 20.00     0.015 C 
HETATM    3  C3  UNL     1     -33.831   3.991   4.717  1.00 20.00     0.034 C 
HETATM    4  C4  UNL     1     -34.780   4.830   5.559  1.00 20.00     0.005 C 
HETATM    5  C5  UNL     1     -34.334   6.260   5.286  1.00 20.00     0.013 C 
HETATM    6  C6  UNL     1     -34.018   6.291   3.776  1.00 20.00    -0.025 C 
HETATM    7  C7  UNL     1     -35.282   6.618   2.964  1.00 20.00     0.019 C 
HETATM    8  C8  UNL     1     -32.931   7.331   3.482  1.00 20.00     0.019 C 
ENDROOT
TORSDOF 0
ENDMDL
MODEL 6
REMARK VINA RESULT:      -4.5      0.856      2.567
REMARK  0 active torsions:
REMARK  status: ('A' for Active; 'I' for Inactive)
ROOT
HETATM    1  C1  UNL     1     -33.448   6.952   3.802  1.00 20.00    -0.081 C 
HETATM    2  C2  UNL     1     -32.997   7.150   2.557  1.00 20.00     0.015 C 
HETATM    3  C3  UNL     1     -32.978   7.755   4.984  1.00 20.00     0.034 C 
HETATM    4  C4  UNL     1     -33.438   6.930   6.177  1.00 20.00     0.005 C 
HETATM    5  C5  UNL     1     -34.738   6.299   5.695  1.00 20.00     0.013 C 
HETATM    6  C6  UNL     1     -34.462   5.902   4.230  1.00 20.00    -0.025 C 
HETATM    7  C7  UNL     1     -33.849   4.493   4.157  1.00 20.00     0.019 C 
HETATM    8  C8  UNL     1     -35.761   5.943   3.416  1.00 20.00     0.019 C 
ENDROOT
TORSDOF 0
ENDMDL
MODEL 7
REMARK VINA RESULT:      -4.4      0.798      2.483
REMARK  0 active torsions:
REMARK  status: ('A' for Active; 'I' for Inactive)
ROOT
HETATM    1  C1  UNL     1     -33.268   5.967   3.310  1.00 20.00    -0.081 C 
HETATM    2  C2  UNL     1     -33.060   4.979   2.430  1.00 20.00     0.015 C 
HETATM    3  C3  UNL     1     -32.387   7.183   3.404  1.00 20.00     0.034 C 
HETATM    4  C4  UNL     1     -32.756   7.784   4.752  1.00 20.00     0.005 C 
HETATM    5  C5  UNL     1     -34.237   7.458   4.896  1.00 20.00     0.013 C 
HETATM    6  C6  UNL     1     -34.378   6.022   4.350  1.00 20.00    -0.025 C 
HETATM    7  C7  UNL     1     -34.129   4.991   5.464  1.00 20.00     0.019 C 
HETATM    8  C8  UNL     1     -35.776   5.814   3.757  1.00 20.00     0.019 C 
ENDROOT
TORSDOF 0
ENDMDL
MODEL 8
REMARK VINA RESULT:      -4.3      1.103      2.651
REMARK  0 active torsions:
REMARK  status: ('A' for Active; 'I' for Inactive)
ROOT
HETATM    1  C1  UNL     1     -33.888   6.728   5.225  1.00 20.00    -0.081 C 
HETATM    2  C2  UNL     1     -33.378   7.633   6.070  1.00 20.00     0.015 C 
HETATM    3  C3  UNL     1     -34.582   5.474   5.684  1.00 20.00     0.034 C 
HETATM    4  C4  UNL     1     -34.614   4.610   4.432  1.00 20.00     0.005 C 
HETATM    5  C5  UNL     1     -34.757   5.621   3.303  1.00 20.00     0.013 C 
HETATM    6  C6  UNL     1     -33.837   6.792   3.706  1.00 20.00    -0.025 C 
HETATM    7  C7  UNL     1     -32.404   6.555   3.201  1.00 20.00     0.019 C 
HETATM    8  C8  UNL     1     -34.374   8.110   3.135  1.00 20.00     0.019 C 
ENDROOT
TORSDOF 0
ENDMDL
MODEL 9
REMARK VINA RESULT:      -3.5     11.693     12.593
REMARK  0 active torsions:
REMARK  status: ('A' for Active; 'I' for Inactive)
ROOT
HETATM    1  C1  UNL     1     -34.555  14.653  -4.367  1.00 20.00    -0.081 C 
HETATM    2  C2  UNL     1     -33.237  14.422  -4.362  1.00 20.00     0.015 C 
HETATM    3  C3  UNL     1     -35.564  13.646  -4.850  1.00 20.00     0.034 C 
HETATM    4  C4  UNL     1     -36.826  14.474  -5.042  1.00 20.00     0.005 C 
HETATM    5  C5  UNL     1     -36.731  15.530  -3.949  1.00 20.00     0.013 C 
HETATM    6  C6  UNL     1     -35.242  15.936  -3.924  1.00 20.00    -0.025 C 
HETATM    7  C7  UNL     1     -34.973  17.070  -4.928  1.00 20.00     0.019 C 
HETATM    8  C8  UNL     1     -34.838  16.387  -2.516  1.00 20.00     0.019 C 
ENDROOT
TORSDOF 0
ENDMDL
