MODEL 1
REMARK VINA RESULT:      -6.0      0.000      0.000
REMARK  2 active torsions:
REMARK  status: ('A' for Active; 'I' for Inactive)
REMARK    1  A    between atoms: C1_1  and  C5_5 
REMARK    2  A    between atoms: C1_1  and  C10_10 
ROOT
HETATM    1  C2  UNL     1     -34.362   6.033   5.505  1.00 20.00     0.002 C 
HETATM    2  C3  UNL     1     -33.548   7.280   5.163  1.00 20.00     0.013 C 
HETATM    3  C4  UNL     1     -35.006   5.586   4.197  1.00 20.00     0.010 C 
HETATM    4  C5  UNL     1     -33.622   7.438   3.640  1.00 20.00     0.063 C 
HETATM    5  C6  UNL     1     -34.027   6.048   3.105  1.00 20.00    -0.037 C 
HETATM    6  C7  UNL     1     -32.846   5.064   2.993  1.00 20.00     0.015 C 
HETATM    7  C8  UNL     1     -34.726   6.144   1.744  1.00 20.00     0.015 C 
ENDROOT
BRANCH   4   8
HETATM    8  C1  UNL     1     -32.341   7.960   3.067  1.00 20.00     0.131 C 
HETATM    9  O11 UNL     1     -31.336   8.079   3.765  1.00 20.00    -0.298 OA
BRANCH   8  10
HETATM   10  C10 UNL     1     -32.368   8.325   1.593  1.00 20.00     0.074 C 
HETATM   11  C9  UNL     1     -32.509   9.818   1.363  1.00 20.00     0.013 C 
ENDBRANCH   8  10
ENDBRANCH   4   8
TORSDOF 2
ENDMDL
MODEL 2
REMARK VINA RESULT:      -4.8      1.495      2.509
REMARK  2 active torsions:
REMARK  status: ('A' for Active; 'I' for Inactive)
REMARK    1  A    between atoms: C1_1  and  C5_5 
REMARK    2  A    between atoms: C1_1  and  C10_10 
ROOT
HETATM    1  C2  UNL     1     -34.067   3.767   4.060  1.00 20.00     0.002 C 
HETATM    2  C3  UNL     1     -33.164   4.532   3.093  1.00 20.00     0.013 C 
HETATM    3  C4  UNL     1     -34.332   4.720   5.221  1.00 20.00     0.010 C 
HETATM    4  C5  UNL     1     -33.051   5.958   3.644  1.00 20.00     0.063 C 
HETATM    5  C6  UNL     1     -34.255   6.123   4.596  1.00 20.00    -0.037 C 
HETATM    6  C7  UNL     1     -35.572   6.459   3.869  1.00 20.00     0.015 C 
HETATM    7  C8  UNL     1     -33.992   7.189   5.666  1.00 20.00     0.015 C 
ENDROOT
BRANCH   4   8
HETATM    8  C1  UNL     1     -32.995   6.980   2.552  1.00 20.00     0.131 C 
HETATM    9  O11 UNL     1     -33.695   6.874   1.547  1.00 20.00    -0.298 OA
BRANCH   8  10
HETATM   10  C10 UNL     1     -32.033   8.136   2.766  1.00 20.00     0.074 C 
HETATM   11  C9  UNL     1     -32.153   9.203   1.695  1.00 20.00     0.013 C 
ENDBRANCH   8  10
ENDBRANCH   4   8
TORSDOF 2
ENDMDL
MODEL 3
REMARK VINA RESULT:      -4.5     10.589     11.917
REMARK  2 active torsions:
REMARK  status: ('A' for Active; 'I' for Inactive)
REMARK    1  A    between atoms: C1_1  and  C5_5 
REMARK    2  A    between atoms: C1_1  and  C10_10 
ROOT
HETATM    1  C2  UNL     1     -35.023  16.976  -3.423  1.00 20.00     0.002 C 
HETATM    2  C3  UNL     1     -36.036  15.897  -3.804  1.00 20.00     0.013 C 
HETATM    3  C4  UNL     1     -33.664  16.282  -3.407  1.00 20.00     0.010 C 
HETATM    4  C5  UNL     1     -35.224  14.643  -4.144  1.00 20.00     0.063 C 
HETATM    5  C6  UNL     1     -33.796  15.150  -4.440  1.00 20.00    -0.037 C 
HETATM    6  C7  UNL     1     -33.624  15.705  -5.868  1.00 20.00     0.015 C 
HETATM    7  C8  UNL     1     -32.744  14.061  -4.200  1.00 20.00     0.015 C 
ENDROOT
BRANCH   4   8
HETATM    8  C1  UNL     1     -35.836  13.863  -5.266  1.00 20.00     0.131 C 
HETATM    9  O11 UNL     1     -35.484  12.709  -5.503  1.00 20.00    -0.298 OA
BRANCH   8  10
HETATM   10  C10 UNL     1     -36.901  14.581  -6.076  1.00 20.00     0.074 C 
HETATM   11  C9  UNL     1     -36.681  14.457  -7.572  1.00 20.00     0.013 C 
ENDBRANCH   8  10
ENDBRANCH   4   8
TORSDOF 2
ENDMDL
MODEL 4
REMARK VINA RESULT:      -4.4     10.781     12.165
REMARK  2 active torsions:
REMARK  status: ('A' for Active; 'I' for Inactive)
REMARK    1  A    between atoms: C1_1  and  C5_5 
REMARK    2  A    between atoms: C1_1  and  C10_10 
ROOT
HETATM    1  C2  UNL     1     -34.620  15.910  -3.058  1.00 20.00     0.002 C 
HETATM    2  C3  UNL     1     -34.271  14.686  -3.906  1.00 20.00     0.013 C 
HETATM    3  C4  UNL     1     -35.380  16.853  -3.985  1.00 20.00     0.010 C 
HETATM    4  C5  UNL     1     -34.966  14.887  -5.257  1.00 20.00     0.063 C 
HETATM    5  C6  UNL     1     -36.076  15.927  -4.996  1.00 20.00    -0.037 C 
HETATM    6  C7  UNL     1     -37.352  15.322  -4.377  1.00 20.00     0.015 C 
HETATM    7  C8  UNL     1     -36.454  16.688  -6.271  1.00 20.00     0.015 C 
ENDROOT
BRANCH   4   8
HETATM    8  C1  UNL     1     -35.465  13.596  -5.830  1.00 20.00     0.131 C 
HETATM    9  O11 UNL     1     -35.900  12.706  -5.102  1.00 20.00    -0.298 OA
BRANCH   8  10
HETATM   10  C10 UNL     1     -35.398  13.465  -7.341  1.00 20.00     0.074 C 
HETATM   11  C9  UNL     1     -34.103  14.004  -7.918  1.00 20.00     0.013 C 
ENDBRANCH   8  10
ENDBRANCH   4   8
TORSDOF 2
ENDMDL
MODEL 5
REMARK VINA RESULT:      -4.2     11.065     11.939
REMARK  2 active torsions:
REMARK  status: ('A' for Active; 'I' for Inactive)
REMARK    1  A    between atoms: C1_1  and  C5_5 
REMARK    2  A    between atoms: C1_1  and  C10_10 
ROOT
HETATM    1  C2  UNL     1     -36.121  13.638  -5.141  1.00 20.00     0.002 C 
HETATM    2  C3  UNL     1     -36.359  14.955  -4.402  1.00 20.00     0.013 C 
HETATM    3  C4  UNL     1     -35.006  13.920  -6.142  1.00 20.00     0.010 C 
HETATM    4  C5  UNL     1     -35.276  15.924  -4.890  1.00 20.00     0.063 C 
HETATM    5  C6  UNL     1     -34.168  15.030  -5.487  1.00 20.00    -0.037 C 
HETATM    6  C7  UNL     1     -33.222  14.433  -4.426  1.00 20.00     0.015 C 
HETATM    7  C8  UNL     1     -33.334  15.780  -6.531  1.00 20.00     0.015 C 
ENDROOT
BRANCH   4   8
HETATM    8  C1  UNL     1     -34.802  16.833  -3.798  1.00 20.00     0.131 C 
HETATM    9  O11 UNL     1     -34.113  17.820  -4.049  1.00 20.00    -0.298 OA
BRANCH   8  10
HETATM   10  C10 UNL     1     -35.222  16.459  -2.387  1.00 20.00     0.074 C 
HETATM   11  C9  UNL     1     -34.408  17.174  -1.326  1.00 20.00     0.013 C 
ENDBRANCH   8  10
ENDBRANCH   4   8
TORSDOF 2
ENDMDL
MODEL 6
REMARK VINA RESULT:      -4.1     11.205     12.255
REMARK  2 active torsions:
REMARK  status: ('A' for Active; 'I' for Inactive)
REMARK    1  A    between atoms: C1_1  and  C5_5 
REMARK    2  A    between atoms: C1_1  and  C10_10 
ROOT
HETATM    1  C2  UNL     1     -33.494  16.137  -3.925  1.00 20.00     0.002 C 
HETATM    2  C3  UNL     1     -34.805  15.505  -3.458  1.00 20.00     0.013 C 
HETATM    3  C4  UNL     1     -33.123  15.417  -5.218  1.00 20.00     0.010 C 
HETATM    4  C5  UNL     1     -35.237  14.540  -4.568  1.00 20.00     0.063 C 
HETATM    5  C6  UNL     1     -34.472  14.998  -5.828  1.00 20.00    -0.037 C 
HETATM    6  C7  UNL     1     -35.129  16.192  -6.547  1.00 20.00     0.015 C 
HETATM    7  C8  UNL     1     -34.290  13.852  -6.830  1.00 20.00     0.015 C 
ENDROOT
BRANCH   4   8
HETATM    8  C1  UNL     1     -36.725  14.510  -4.738  1.00 20.00     0.131 C 
HETATM    9  O11 UNL     1     -37.277  13.578  -5.321  1.00 20.00    -0.298 OA
BRANCH   8  10
HETATM   10  C10 UNL     1     -37.489  15.684  -4.153  1.00 20.00     0.074 C 
HETATM   11  C9  UNL     1     -38.970  15.637  -4.477  1.00 20.00     0.013 C 
ENDBRANCH   8  10
ENDBRANCH   4   8
TORSDOF 2
ENDMDL
MODEL 7
REMARK VINA RESULT:      -4.1     10.709     12.622
REMARK  2 active torsions:
REMARK  status: ('A' for Active; 'I' for Inactive)
REMARK    1  A    between atoms: C1_1  and  C5_5 
REMARK    2  A    between atoms: C1_1  and  C10_10 
ROOT
HETATM    1  C2  UNL     1     -38.877  15.300  -6.040  1.00 20.00     0.002 C 
HETATM    2  C3  UNL     1     -38.051  14.610  -4.955  1.00 20.00     0.013 C 
HETATM    3  C4  UNL     1     -37.898  16.184  -6.808  1.00 20.00     0.010 C 
HETATM    4  C5  UNL     1     -36.590  14.997  -5.215  1.00 20.00     0.063 C 
HETATM    5  C6  UNL     1     -36.546  15.462  -6.686  1.00 20.00    -0.037 C 
HETATM    6  C7  UNL     1     -36.467  14.300  -7.696  1.00 20.00     0.015 C 
HETATM    7  C8  UNL     1     -35.382  16.425  -6.943  1.00 20.00     0.015 C 
ENDROOT
BRANCH   4   8
HETATM    8  C1  UNL     1     -35.648  13.875  -4.903  1.00 20.00     0.131 C 
HETATM    9  O11 UNL     1     -35.922  12.715  -5.205  1.00 20.00    -0.298 OA
BRANCH   8  10
HETATM   10  C10 UNL     1     -34.357  14.261  -4.204  1.00 20.00     0.074 C 
HETATM   11  C9  UNL     1     -34.470  15.573  -3.451  1.00 20.00     0.013 C 
ENDBRANCH   8  10
ENDBRANCH   4   8
TORSDOF 2
ENDMDL
MODEL 8
REMARK VINA RESULT:      -4.1     11.088     11.915
REMARK  2 active torsions:
REMARK  status: ('A' for Active; 'I' for Inactive)
REMARK    1  A    between atoms: C1_1  and  C5_5 
REMARK    2  A    between atoms: C1_1  and  C10_10 
ROOT
HETATM    1  C2  UNL     1     -33.674  14.952  -5.659  1.00 20.00     0.002 C 
HETATM    2  C3  UNL     1     -33.327  15.290  -4.209  1.00 20.00     0.013 C 
HETATM    3  C4  UNL     1     -35.192  14.806  -5.699  1.00 20.00     0.010 C 
HETATM    4  C5  UNL     1     -34.662  15.476  -3.479  1.00 20.00     0.063 C 
HETATM    5  C6  UNL     1     -35.701  15.741  -4.590  1.00 20.00    -0.037 C 
HETATM    6  C7  UNL     1     -35.714  17.201  -5.084  1.00 20.00     0.015 C 
HETATM    7  C8  UNL     1     -37.117  15.352  -4.150  1.00 20.00     0.015 C 
ENDROOT
BRANCH   4   8
HETATM    8  C1  UNL     1     -34.591  16.556  -2.444  1.00 20.00     0.131 C 
HETATM    9  O11 UNL     1     -35.440  16.642  -1.558  1.00 20.00    -0.298 OA
BRANCH   8  10
HETATM   10  C10 UNL     1     -33.423  17.518  -2.561  1.00 20.00     0.074 C 
HETATM   11  C9  UNL     1     -32.890  17.956  -1.210  1.00 20.00     0.013 C 
ENDBRANCH   8  10
ENDBRANCH   4   8
TORSDOF 2
ENDMDL
MODEL 9
REMARK VINA RESULT:      -4.1     10.741     12.052
REMARK  2 active torsions:
REMARK  status: ('A' for Active; 'I' for Inactive)
REMARK    1  A    between atoms: C1_1  and  C5_5 
REMARK    2  A    between atoms: C1_1  and  C10_10 
ROOT
HETATM    1  C2  UNL     1     -37.258  17.024  -4.173  1.00 20.00     0.002 C 
HETATM    2  C3  UNL     1     -37.091  15.506  -4.234  1.00 20.00     0.013 C 
HETATM    3  C4  UNL     1     -35.988  17.555  -3.516  1.00 20.00     0.010 C 
HETATM    4  C5  UNL     1     -35.668  15.209  -3.748  1.00 20.00     0.063 C 
HETATM    5  C6  UNL     1     -34.899  16.539  -3.900  1.00 20.00    -0.037 C 
HETATM    6  C7  UNL     1     -34.403  16.801  -5.336  1.00 20.00     0.015 C 
HETATM    7  C8  UNL     1     -33.708  16.620  -2.940  1.00 20.00     0.015 C 
ENDROOT
BRANCH   4   8
HETATM    8  C1  UNL     1     -35.050  14.061  -4.485  1.00 20.00     0.131 C 
HETATM    9  O11 UNL     1     -33.950  13.618  -4.160  1.00 20.00    -0.298 OA
BRANCH   8  10
HETATM   10  C10 UNL     1     -35.858  13.494  -5.638  1.00 20.00     0.074 C 
HETATM   11  C9  UNL     1     -35.066  13.427  -6.930  1.00 20.00     0.013 C 
ENDBRANCH   8  10
ENDBRANCH   4   8
TORSDOF 2
ENDMDL
