MODEL 1
REMARK VINA RESULT:      -5.4      0.000      0.000
REMARK  1 active torsions:
REMARK  status: ('A' for Active; 'I' for Inactive)
REMARK    1  A    between atoms: C2_2  and  C5_5 
ROOT
HETATM    1  C1  UNL     1     -33.357   6.669   2.770  1.00 20.00     0.075 A 
HETATM    2  C2  UNL     1     -33.787   6.480   4.023  1.00 20.00     0.039 A 
HETATM    3  C3  UNL     1     -32.354   7.738   2.671  1.00 20.00     0.209 A 
HETATM    4  C4  UNL     1     -33.210   7.349   5.095  1.00 20.00     0.126 A 
HETATM    5  O6  UNL     1     -31.817   8.090   1.634  1.00 20.00    -0.281 OA
HETATM    6  S10 UNL     1     -32.034   8.441   4.243  1.00 20.00    -0.084 SA
ENDROOT
BRANCH   2   7
HETATM    7  C5  UNL     1     -34.806   5.460   4.410  1.00 20.00     0.414 C 
HETATM    8  F7  UNL     1     -36.001   5.723   3.838  1.00 20.00    -0.166 F 
HETATM    9  F8  UNL     1     -34.430   4.221   4.023  1.00 20.00    -0.166 F 
HETATM   10  F9  UNL     1     -34.991   5.431   5.747  1.00 20.00    -0.166 F 
ENDBRANCH   2   7
TORSDOF 1
ENDMDL
MODEL 2
REMARK VINA RESULT:      -5.4      3.442      3.929
REMARK  1 active torsions:
REMARK  status: ('A' for Active; 'I' for Inactive)
REMARK    1  A    between atoms: C2_2  and  C5_5 
ROOT
HETATM    1  C1  UNL     1     -33.450   5.710   3.214  1.00 20.00     0.075 A 
HETATM    2  C2  UNL     1     -33.159   6.955   3.608  1.00 20.00     0.039 A 
HETATM    3  C3  UNL     1     -34.193   4.953   4.231  1.00 20.00     0.209 A 
HETATM    4  C4  UNL     1     -33.611   7.377   4.970  1.00 20.00     0.126 A 
HETATM    5  O6  UNL     1     -34.568   3.800   4.100  1.00 20.00    -0.281 OA
HETATM    6  S10 UNL     1     -34.464   5.930   5.660  1.00 20.00    -0.084 SA
ENDROOT
BRANCH   2   7
HETATM    7  C5  UNL     1     -32.410   7.940   2.772  1.00 20.00     0.414 C 
HETATM    8  F7  UNL     1     -31.447   8.557   3.491  1.00 20.00    -0.166 F 
HETATM    9  F8  UNL     1     -31.813   7.336   1.722  1.00 20.00    -0.166 F 
HETATM   10  F9  UNL     1     -33.230   8.894   2.283  1.00 20.00    -0.166 F 
ENDBRANCH   2   7
TORSDOF 1
ENDMDL
MODEL 3
REMARK VINA RESULT:      -5.4      3.442      3.931
REMARK  1 active torsions:
REMARK  status: ('A' for Active; 'I' for Inactive)
REMARK    1  A    between atoms: C2_2  and  C5_5 
ROOT
HETATM    1  C1  UNL     1     -33.452   5.705   3.213  1.00 20.00     0.075 A 
HETATM    2  C2  UNL     1     -33.161   6.950   3.610  1.00 20.00     0.039 A 
HETATM    3  C3  UNL     1     -34.196   4.947   4.228  1.00 20.00     0.209 A 
HETATM    4  C4  UNL     1     -33.615   7.369   4.971  1.00 20.00     0.126 A 
HETATM    5  O6  UNL     1     -34.572   3.794   4.095  1.00 20.00    -0.281 OA
HETATM    6  S10 UNL     1     -34.470   5.922   5.658  1.00 20.00    -0.084 SA
ENDROOT
BRANCH   2   7
HETATM    7  C5  UNL     1     -32.411   7.936   2.777  1.00 20.00     0.414 C 
HETATM    8  F7  UNL     1     -33.233   8.890   2.291  1.00 20.00    -0.166 F 
HETATM    9  F8  UNL     1     -31.448   8.552   3.496  1.00 20.00    -0.166 F 
HETATM   10  F9  UNL     1     -31.814   7.336   1.724  1.00 20.00    -0.166 F 
ENDBRANCH   2   7
TORSDOF 1
ENDMDL
MODEL 4
REMARK VINA RESULT:      -5.4      3.442      3.935
REMARK  1 active torsions:
REMARK  status: ('A' for Active; 'I' for Inactive)
REMARK    1  A    between atoms: C2_2  and  C5_5 
ROOT
HETATM    1  C1  UNL     1     -33.452   5.706   3.214  1.00 20.00     0.075 A 
HETATM    2  C2  UNL     1     -33.160   6.950   3.611  1.00 20.00     0.039 A 
HETATM    3  C3  UNL     1     -34.196   4.948   4.229  1.00 20.00     0.209 A 
HETATM    4  C4  UNL     1     -33.614   7.370   4.972  1.00 20.00     0.126 A 
HETATM    5  O6  UNL     1     -34.572   3.796   4.097  1.00 20.00    -0.281 OA
HETATM    6  S10 UNL     1     -34.469   5.923   5.659  1.00 20.00    -0.084 SA
ENDROOT
BRANCH   2   7
HETATM    7  C5  UNL     1     -32.410   7.936   2.777  1.00 20.00     0.414 C 
HETATM    8  F7  UNL     1     -31.814   7.333   1.727  1.00 20.00    -0.166 F 
HETATM    9  F8  UNL     1     -33.231   8.891   2.289  1.00 20.00    -0.166 F 
HETATM   10  F9  UNL     1     -31.447   8.554   3.495  1.00 20.00    -0.166 F 
ENDBRANCH   2   7
TORSDOF 1
ENDMDL
MODEL 5
REMARK VINA RESULT:      -5.1      3.683      4.272
REMARK  1 active torsions:
REMARK  status: ('A' for Active; 'I' for Inactive)
REMARK    1  A    between atoms: C2_2  and  C5_5 
ROOT
HETATM    1  C1  UNL     1     -33.361   7.511   4.642  1.00 20.00     0.075 A 
HETATM    2  C2  UNL     1     -33.055   7.309   3.355  1.00 20.00     0.039 A 
HETATM    3  C3  UNL     1     -34.170   6.423   5.208  1.00 20.00     0.209 A 
HETATM    4  C4  UNL     1     -33.561   6.059   2.708  1.00 20.00     0.126 A 
HETATM    5  O6  UNL     1     -34.570   6.384   6.360  1.00 20.00    -0.281 OA
HETATM    6  S10 UNL     1     -34.487   5.190   4.005  1.00 20.00    -0.084 SA
ENDROOT
BRANCH   2   7
HETATM    7  C5  UNL     1     -32.244   8.256   2.533  1.00 20.00     0.414 C 
HETATM    8  F7  UNL     1     -31.317   8.884   3.286  1.00 20.00    -0.166 F 
HETATM    9  F8  UNL     1     -31.597   7.611   1.538  1.00 20.00    -0.166 F 
HETATM   10  F9  UNL     1     -33.022   9.204   1.966  1.00 20.00    -0.166 F 
ENDBRANCH   2   7
TORSDOF 1
ENDMDL
MODEL 6
REMARK VINA RESULT:      -4.9      1.235      1.638
REMARK  1 active torsions:
REMARK  status: ('A' for Active; 'I' for Inactive)
REMARK    1  A    between atoms: C2_2  and  C5_5 
ROOT
HETATM    1  C1  UNL     1     -33.094   7.213   4.700  1.00 20.00     0.075 A 
HETATM    2  C2  UNL     1     -33.842   6.391   3.954  1.00 20.00     0.039 A 
HETATM    3  C3  UNL     1     -32.175   8.029   3.896  1.00 20.00     0.209 A 
HETATM    4  C4  UNL     1     -33.639   6.421   2.473  1.00 20.00     0.126 A 
HETATM    5  O6  UNL     1     -31.397   8.850   4.352  1.00 20.00    -0.281 OA
HETATM    6  S10 UNL     1     -32.345   7.663   2.191  1.00 20.00    -0.084 SA
ENDROOT
BRANCH   2   7
HETATM    7  C5  UNL     1     -34.857   5.450   4.513  1.00 20.00     0.414 C 
HETATM    8  F7  UNL     1     -36.076   5.673   3.978  1.00 20.00    -0.166 F 
HETATM    9  F8  UNL     1     -34.527   4.165   4.257  1.00 20.00    -0.166 F 
HETATM   10  F9  UNL     1     -34.967   5.584   5.852  1.00 20.00    -0.166 F 
ENDBRANCH   2   7
TORSDOF 1
ENDMDL
MODEL 7
REMARK VINA RESULT:      -4.5     11.701     12.277
REMARK  1 active torsions:
REMARK  status: ('A' for Active; 'I' for Inactive)
REMARK    1  A    between atoms: C2_2  and  C5_5 
ROOT
HETATM    1  C1  UNL     1     -34.852  14.445  -4.192  1.00 20.00     0.075 A 
HETATM    2  C2  UNL     1     -35.397  15.546  -3.659  1.00 20.00     0.039 A 
HETATM    3  C3  UNL     1     -35.793  13.705  -5.044  1.00 20.00     0.209 A 
HETATM    4  C4  UNL     1     -36.823  15.846  -3.992  1.00 20.00     0.126 A 
HETATM    5  O6  UNL     1     -35.526  12.672  -5.636  1.00 20.00    -0.281 OA
HETATM    6  S10 UNL     1     -37.352  14.501  -5.092  1.00 20.00    -0.084 SA
ENDROOT
BRANCH   2   7
HETATM    7  C5  UNL     1     -34.667  16.482  -2.753  1.00 20.00     0.414 C 
HETATM    8  F7  UNL     1     -34.826  17.763  -3.146  1.00 20.00    -0.166 F 
HETATM    9  F8  UNL     1     -35.115  16.384  -1.483  1.00 20.00    -0.166 F 
HETATM   10  F9  UNL     1     -33.342  16.219  -2.740  1.00 20.00    -0.166 F 
ENDBRANCH   2   7
TORSDOF 1
ENDMDL
MODEL 8
REMARK VINA RESULT:      -4.5     11.919     12.590
REMARK  1 active torsions:
REMARK  status: ('A' for Active; 'I' for Inactive)
REMARK    1  A    between atoms: C2_2  and  C5_5 
ROOT
HETATM    1  C1  UNL     1     -35.572  14.316  -4.496  1.00 20.00     0.075 A 
HETATM    2  C2  UNL     1     -34.421  14.483  -5.159  1.00 20.00     0.039 A 
HETATM    3  C3  UNL     1     -36.691  13.973  -5.384  1.00 20.00     0.209 A 
HETATM    4  C4  UNL     1     -34.442  14.307  -6.643  1.00 20.00     0.126 A 
HETATM    5  O6  UNL     1     -37.835  13.773  -5.011  1.00 20.00    -0.281 OA
HETATM    6  S10 UNL     1     -36.162  13.894  -7.053  1.00 20.00    -0.084 SA
ENDROOT
BRANCH   2   7
HETATM    7  C5  UNL     1     -33.127  14.837  -4.504  1.00 20.00     0.414 C 
HETATM    8  F7  UNL     1     -32.329  15.531  -5.344  1.00 20.00    -0.166 F 
HETATM    9  F8  UNL     1     -33.326  15.597  -3.405  1.00 20.00    -0.166 F 
HETATM   10  F9  UNL     1     -32.452  13.732  -4.119  1.00 20.00    -0.166 F 
ENDBRANCH   2   7
TORSDOF 1
ENDMDL
MODEL 9
REMARK VINA RESULT:      -4.5     11.919     12.576
REMARK  1 active torsions:
REMARK  status: ('A' for Active; 'I' for Inactive)
REMARK    1  A    between atoms: C2_2  and  C5_5 
ROOT
HETATM    1  C1  UNL     1     -35.570  14.313  -4.497  1.00 20.00     0.075 A 
HETATM    2  C2  UNL     1     -34.418  14.478  -5.158  1.00 20.00     0.039 A 
HETATM    3  C3  UNL     1     -36.687  13.965  -5.385  1.00 20.00     0.209 A 
HETATM    4  C4  UNL     1     -34.435  14.295  -6.642  1.00 20.00     0.126 A 
HETATM    5  O6  UNL     1     -37.831  13.765  -5.014  1.00 20.00    -0.281 OA
HETATM    6  S10 UNL     1     -36.155  13.879  -7.052  1.00 20.00    -0.084 SA
ENDROOT
BRANCH   2   7
HETATM    7  C5  UNL     1     -33.125  14.837  -4.502  1.00 20.00     0.414 C 
HETATM    8  F7  UNL     1     -33.330  15.590  -3.401  1.00 20.00    -0.166 F 
HETATM    9  F8  UNL     1     -32.445  13.733  -4.124  1.00 20.00    -0.166 F 
HETATM   10  F9  UNL     1     -32.329  15.540  -5.337  1.00 20.00    -0.166 F 
ENDBRANCH   2   7
TORSDOF 1
ENDMDL
