MODEL 1
REMARK VINA RESULT:      -4.7      0.000      0.000
REMARK  0 active torsions:
REMARK  status: ('A' for Active; 'I' for Inactive)
ROOT
HETATM    1  C1  UNL     1     -32.009   7.999   2.275  1.00 20.00     0.088 C 
HETATM    2  C2  UNL     1     -33.549   6.705   3.600  1.00 20.00    -0.062 C 
HETATM    3  C3  UNL     1     -32.696   6.796   2.565  1.00 20.00     0.097 C 
HETATM    4  C4  UNL     1     -33.780   7.916   4.479  1.00 20.00     0.036 C 
HETATM    5  C5  UNL     1     -33.541   7.591   5.951  1.00 20.00     0.004 C 
HETATM    6  C6  UNL     1     -34.361   6.387   6.402  1.00 20.00     0.001 C 
HETATM    7  C7  UNL     1     -34.101   5.171   5.512  1.00 20.00     0.013 C 
HETATM    8  C8  UNL     1     -34.317   5.436   3.998  1.00 20.00    -0.024 C 
HETATM    9  C9  UNL     1     -33.861   4.167   3.242  1.00 20.00     0.019 C 
HETATM   10  C10 UNL     1     -35.818   5.628   3.694  1.00 20.00     0.019 C 
HETATM   11  N11 UNL     1     -31.440   8.980   2.029  1.00 20.00    -0.192 NA
ENDROOT
TORSDOF 0
ENDMDL
MODEL 2
REMARK VINA RESULT:      -4.7     11.843     12.558
REMARK  0 active torsions:
REMARK  status: ('A' for Active; 'I' for Inactive)
ROOT
HETATM    1  C1  UNL     1     -31.179  18.736   0.760  1.00 20.00     0.088 C 
HETATM    2  C2  UNL     1     -33.322  18.408  -0.289  1.00 20.00    -0.062 C 
HETATM    3  C3  UNL     1     -31.983  18.298  -0.320  1.00 20.00     0.097 C 
HETATM    4  C4  UNL     1     -33.989  19.014   0.928  1.00 20.00     0.036 C 
HETATM    5  C5  UNL     1     -35.060  18.086   1.496  1.00 20.00     0.004 C 
HETATM    6  C6  UNL     1     -36.071  17.674   0.432  1.00 20.00     0.001 C 
HETATM    7  C7  UNL     1     -35.379  17.050  -0.781  1.00 20.00     0.013 C 
HETATM    8  C8  UNL     1     -34.269  17.939  -1.404  1.00 20.00    -0.024 C 
HETATM    9  C9  UNL     1     -33.575  17.100  -2.502  1.00 20.00     0.019 C 
HETATM   10  C10 UNL     1     -34.891  19.167  -2.101  1.00 20.00     0.019 C 
HETATM   11  N11 UNL     1     -30.512  19.093   1.639  1.00 20.00    -0.192 NA
ENDROOT
TORSDOF 0
ENDMDL
MODEL 3
REMARK VINA RESULT:      -4.6     11.498     12.859
REMARK  0 active torsions:
REMARK  status: ('A' for Active; 'I' for Inactive)
ROOT
HETATM    1  C1  UNL     1     -35.178  13.825  -4.637  1.00 20.00     0.088 C 
HETATM    2  C2  UNL     1     -35.380  15.891  -3.415  1.00 20.00    -0.062 C 
HETATM    3  C3  UNL     1     -34.632  14.857  -3.835  1.00 20.00     0.097 C 
HETATM    4  C4  UNL     1     -36.841  15.959  -3.807  1.00 20.00     0.036 C 
HETATM    5  C5  UNL     1     -37.178  17.290  -4.474  1.00 20.00     0.004 C 
HETATM    6  C6  UNL     1     -36.760  18.475  -3.610  1.00 20.00     0.001 C 
HETATM    7  C7  UNL     1     -35.278  18.396  -3.238  1.00 20.00     0.013 C 
HETATM    8  C8  UNL     1     -34.863  17.061  -2.564  1.00 20.00    -0.024 C 
HETATM    9  C9  UNL     1     -33.326  17.087  -2.404  1.00 20.00     0.019 C 
HETATM   10  C10 UNL     1     -35.463  16.967  -1.144  1.00 20.00     0.019 C 
HETATM   11  N11 UNL     1     -35.617  12.976  -5.294  1.00 20.00    -0.192 NA
ENDROOT
TORSDOF 0
ENDMDL
MODEL 4
REMARK VINA RESULT:      -4.4     11.701     13.629
REMARK  0 active torsions:
REMARK  status: ('A' for Active; 'I' for Inactive)
ROOT
HETATM    1  C1  UNL     1     -37.921  14.675  -5.583  1.00 20.00     0.088 C 
HETATM    2  C2  UNL     1     -35.589  14.889  -6.146  1.00 20.00    -0.062 C 
HETATM    3  C3  UNL     1     -36.872  15.232  -6.354  1.00 20.00     0.097 C 
HETATM    4  C4  UNL     1     -35.255  13.886  -5.063  1.00 20.00     0.036 C 
HETATM    5  C5  UNL     1     -34.213  14.438  -4.094  1.00 20.00     0.004 C 
HETATM    6  C6  UNL     1     -32.969  14.930  -4.825  1.00 20.00     0.001 C 
HETATM    7  C7  UNL     1     -33.326  15.953  -5.904  1.00 20.00     0.013 C 
HETATM    8  C8  UNL     1     -34.391  15.459  -6.920  1.00 20.00    -0.024 C 
HETATM    9  C9  UNL     1     -34.746  16.658  -7.829  1.00 20.00     0.019 C 
HETATM   10  C10 UNL     1     -33.798  14.363  -7.830  1.00 20.00     0.019 C 
HETATM   11  N11 UNL     1     -38.788  14.225  -4.957  1.00 20.00    -0.192 NA
ENDROOT
TORSDOF 0
ENDMDL
MODEL 5
REMARK VINA RESULT:      -4.3     11.563     12.857
REMARK  0 active torsions:
REMARK  status: ('A' for Active; 'I' for Inactive)
ROOT
HETATM    1  C1  UNL     1     -34.047  16.894  -2.096  1.00 20.00     0.088 C 
HETATM    2  C2  UNL     1     -34.807  15.649  -4.012  1.00 20.00    -0.062 C 
HETATM    3  C3  UNL     1     -35.068  16.261  -2.844  1.00 20.00     0.097 C 
HETATM    4  C4  UNL     1     -33.389  15.637  -4.543  1.00 20.00     0.036 C 
HETATM    5  C5  UNL     1     -33.323  16.181  -5.968  1.00 20.00     0.004 C 
HETATM    6  C6  UNL     1     -34.290  15.452  -6.894  1.00 20.00     0.001 C 
HETATM    7  C7  UNL     1     -35.718  15.490  -6.349  1.00 20.00     0.013 C 
HETATM    8  C8  UNL     1     -35.857  14.959  -4.896  1.00 20.00    -0.024 C 
HETATM    9  C9  UNL     1     -37.315  15.216  -4.453  1.00 20.00     0.019 C 
HETATM   10  C10 UNL     1     -35.636  13.432  -4.859  1.00 20.00     0.019 C 
HETATM   11  N11 UNL     1     -33.217  17.416  -1.475  1.00 20.00    -0.192 NA
ENDROOT
TORSDOF 0
ENDMDL
MODEL 6
REMARK VINA RESULT:      -4.3     11.781     12.872
REMARK  0 active torsions:
REMARK  status: ('A' for Active; 'I' for Inactive)
ROOT
HETATM    1  C1  UNL     1     -37.318  14.412  -5.277  1.00 20.00     0.088 C 
HETATM    2  C2  UNL     1     -35.112  15.192  -4.707  1.00 20.00    -0.062 C 
HETATM    3  C3  UNL     1     -35.997  14.778  -5.630  1.00 20.00     0.097 C 
HETATM    4  C4  UNL     1     -35.535  15.271  -3.256  1.00 20.00     0.036 C 
HETATM    5  C5  UNL     1     -35.268  16.655  -2.671  1.00 20.00     0.004 C 
HETATM    6  C6  UNL     1     -33.817  17.080  -2.871  1.00 20.00     0.001 C 
HETATM    7  C7  UNL     1     -33.414  17.009  -4.345  1.00 20.00     0.013 C 
HETATM    8  C8  UNL     1     -33.670  15.628  -5.007  1.00 20.00    -0.024 C 
HETATM    9  C9  UNL     1     -33.362  15.779  -6.514  1.00 20.00     0.019 C 
HETATM   10  C10 UNL     1     -32.688  14.575  -4.449  1.00 20.00     0.019 C 
HETATM   11  N11 UNL     1     -38.403  14.110  -4.997  1.00 20.00    -0.192 NA
ENDROOT
TORSDOF 0
ENDMDL
MODEL 7
REMARK VINA RESULT:      -4.3     11.665     12.556
REMARK  0 active torsions:
REMARK  status: ('A' for Active; 'I' for Inactive)
ROOT
HETATM    1  C1  UNL     1     -35.553  17.053  -1.663  1.00 20.00     0.088 C 
HETATM    2  C2  UNL     1     -35.383  15.836  -3.735  1.00 20.00    -0.062 C 
HETATM    3  C3  UNL     1     -34.834  16.248  -2.579  1.00 20.00     0.097 C 
HETATM    4  C4  UNL     1     -36.804  16.240  -4.066  1.00 20.00     0.036 C 
HETATM    5  C5  UNL     1     -37.668  15.024  -4.390  1.00 20.00     0.004 C 
HETATM    6  C6  UNL     1     -37.044  14.165  -5.484  1.00 20.00     0.001 C 
HETATM    7  C7  UNL     1     -35.615  13.755  -5.123  1.00 20.00     0.013 C 
HETATM    8  C8  UNL     1     -34.683  14.945  -4.772  1.00 20.00    -0.024 C 
HETATM    9  C9  UNL     1     -33.344  14.349  -4.282  1.00 20.00     0.019 C 
HETATM   10  C10 UNL     1     -34.372  15.775  -6.035  1.00 20.00     0.019 C 
HETATM   11  N11 UNL     1     -36.135  17.712  -0.905  1.00 20.00    -0.192 NA
ENDROOT
TORSDOF 0
ENDMDL
MODEL 8
REMARK VINA RESULT:      -4.2     11.685     12.961
REMARK  0 active torsions:
REMARK  status: ('A' for Active; 'I' for Inactive)
ROOT
HETATM    1  C1  UNL     1     -35.150  17.589   0.088  1.00 20.00     0.088 C 
HETATM    2  C2  UNL     1     -34.676  16.994  -2.197  1.00 20.00    -0.062 C 
HETATM    3  C3  UNL     1     -35.495  16.959  -1.132  1.00 20.00     0.097 C 
HETATM    4  C4  UNL     1     -33.355  17.726  -2.094  1.00 20.00     0.036 C 
HETATM    5  C5  UNL     1     -33.201  18.758  -3.207  1.00 20.00     0.004 C 
HETATM    6  C6  UNL     1     -33.408  18.137  -4.584  1.00 20.00     0.001 C 
HETATM    7  C7  UNL     1     -34.754  17.417  -4.673  1.00 20.00     0.013 C 
HETATM    8  C8  UNL     1     -34.982  16.358  -3.562  1.00 20.00    -0.024 C 
HETATM    9  C9  UNL     1     -36.435  15.850  -3.704  1.00 20.00     0.019 C 
HETATM   10  C10 UNL     1     -34.056  15.142  -3.780  1.00 20.00     0.019 C 
HETATM   11  N11 UNL     1     -34.877  18.102   1.092  1.00 20.00    -0.192 NA
ENDROOT
TORSDOF 0
ENDMDL
MODEL 9
REMARK VINA RESULT:      -4.2     11.630     13.639
REMARK  0 active torsions:
REMARK  status: ('A' for Active; 'I' for Inactive)
ROOT
HETATM    1  C1  UNL     1     -35.431  13.751  -4.732  1.00 20.00     0.088 C 
HETATM    2  C2  UNL     1     -34.947  16.089  -4.413  1.00 20.00    -0.062 C 
HETATM    3  C3  UNL     1     -34.935  14.825  -3.955  1.00 20.00     0.097 C 
HETATM    4  C4  UNL     1     -35.503  16.373  -5.792  1.00 20.00     0.036 C 
HETATM    5  C5  UNL     1     -34.499  17.139  -6.650  1.00 20.00     0.004 C 
HETATM    6  C6  UNL     1     -34.015  18.406  -5.953  1.00 20.00     0.001 C 
HETATM    7  C7  UNL     1     -33.443  18.096  -4.569  1.00 20.00     0.013 C 
HETATM    8  C8  UNL     1     -34.410  17.307  -3.646  1.00 20.00    -0.024 C 
HETATM    9  C9  UNL     1     -33.625  16.943  -2.365  1.00 20.00     0.019 C 
HETATM   10  C10 UNL     1     -35.591  18.202  -3.213  1.00 20.00     0.019 C 
HETATM   11  N11 UNL     1     -35.835  12.864  -5.362  1.00 20.00    -0.192 NA
ENDROOT
TORSDOF 0
ENDMDL
