MODEL 1
REMARK VINA RESULT:      -4.1      0.000      0.000
REMARK  2 active torsions:
REMARK  status: ('A' for Active; 'I' for Inactive)
REMARK    1  A    between atoms: C5_5  and  C10_10 
REMARK    2  A    between atoms: C5_5  and  O11_11 
ROOT
HETATM    1  C1  UNL     1     -33.661  15.859  -3.577  1.00 20.00     0.004 C 
HETATM    2  C2  UNL     1     -35.165  15.886  -3.294  1.00 20.00     0.012 C 
HETATM    3  C3  UNL     1     -33.475  15.169  -4.932  1.00 20.00     0.039 C 
HETATM    4  C4  UNL     1     -35.848  15.627  -4.652  1.00 20.00    -0.016 C 
HETATM    5  C5  UNL     1     -34.859  14.629  -5.319  1.00 20.00     0.068 C 
HETATM    6  C6  UNL     1     -35.979  16.956  -5.424  1.00 20.00     0.018 C 
HETATM    7  C7  UNL     1     -37.253  15.046  -4.444  1.00 20.00     0.018 C 
ENDROOT
BRANCH   5   8
HETATM    8  C10 UNL     1     -35.009  14.462  -6.827  1.00 20.00     0.012 C 
HETATM    9  C8  UNL     1     -33.783  15.013  -7.553  1.00 20.00     0.012 C 
HETATM   10  C9  UNL     1     -35.231  12.994  -7.187  1.00 20.00     0.012 C 
ENDBRANCH   5   8
BRANCH   5  11
HETATM   11  O11 UNL     1     -35.004  13.318  -4.757  1.00 20.00    -0.389 OA
HETATM   12  H31 UNL     1     -34.713  12.700  -5.442  1.00 20.00     0.210 HD
ENDBRANCH   5  11
TORSDOF 2
ENDMDL
MODEL 2
REMARK VINA RESULT:      -4.1      1.085      3.245
REMARK  2 active torsions:
REMARK  status: ('A' for Active; 'I' for Inactive)
REMARK    1  A    between atoms: C5_5  and  C10_10 
REMARK    2  A    between atoms: C5_5  and  O11_11 
ROOT
HETATM    1  C1  UNL     1     -37.654  14.839  -5.250  1.00 20.00     0.004 C 
HETATM    2  C2  UNL     1     -36.994  14.256  -6.501  1.00 20.00     0.012 C 
HETATM    3  C3  UNL     1     -36.528  15.167  -4.263  1.00 20.00     0.039 C 
HETATM    4  C4  UNL     1     -35.508  14.658  -6.412  1.00 20.00    -0.016 C 
HETATM    5  C5  UNL     1     -35.250  14.582  -4.881  1.00 20.00     0.068 C 
HETATM    6  C6  UNL     1     -35.323  16.077  -6.988  1.00 20.00     0.018 C 
HETATM    7  C7  UNL     1     -34.639  13.687  -7.225  1.00 20.00     0.018 C 
ENDROOT
BRANCH   5   8
HETATM    8  C10 UNL     1     -33.997  15.298  -4.388  1.00 20.00     0.012 C 
HETATM    9  C8  UNL     1     -34.285  16.058  -3.095  1.00 20.00     0.012 C 
HETATM   10  C9  UNL     1     -32.855  14.303  -4.182  1.00 20.00     0.012 C 
ENDBRANCH   5   8
BRANCH   5  11
HETATM   11  O11 UNL     1     -35.125  13.220  -4.453  1.00 20.00    -0.389 OA
HETATM   12  H31 UNL     1     -35.020  12.695  -5.259  1.00 20.00     0.210 HD
ENDBRANCH   5  11
TORSDOF 2
ENDMDL
MODEL 3
REMARK VINA RESULT:      -4.1      1.900      3.871
REMARK  2 active torsions:
REMARK  status: ('A' for Active; 'I' for Inactive)
REMARK    1  A    between atoms: C5_5  and  C10_10 
REMARK    2  A    between atoms: C5_5  and  O11_11 
ROOT
HETATM    1  C1  UNL     1     -33.575  16.750  -6.356  1.00 20.00     0.004 C 
HETATM    2  C2  UNL     1     -34.195  15.354  -6.275  1.00 20.00     0.012 C 
HETATM    3  C3  UNL     1     -33.665  17.361  -4.954  1.00 20.00     0.039 C 
HETATM    4  C4  UNL     1     -34.229  15.001  -4.775  1.00 20.00    -0.016 C 
HETATM    5  C5  UNL     1     -34.518  16.386  -4.130  1.00 20.00     0.068 C 
HETATM    6  C6  UNL     1     -32.868  14.409  -4.355  1.00 20.00     0.018 C 
HETATM    7  C7  UNL     1     -35.319  13.957  -4.493  1.00 20.00     0.018 C 
ENDROOT
BRANCH   5   8
HETATM    8  C10 UNL     1     -34.227  16.490  -2.636  1.00 20.00     0.012 C 
HETATM    9  C8  UNL     1     -33.238  17.621  -2.360  1.00 20.00     0.012 C 
HETATM   10  C9  UNL     1     -35.520  16.704  -1.850  1.00 20.00     0.012 C 
ENDBRANCH   5   8
BRANCH   5  11
HETATM   11  O11 UNL     1     -35.897  16.744  -4.293  1.00 20.00    -0.389 OA
HETATM   12  H31 UNL     1     -36.022  16.901  -5.239  1.00 20.00     0.210 HD
ENDBRANCH   5  11
TORSDOF 2
ENDMDL
MODEL 4
REMARK VINA RESULT:      -4.0      1.703      2.141
REMARK  2 active torsions:
REMARK  status: ('A' for Active; 'I' for Inactive)
REMARK    1  A    between atoms: C5_5  and  C10_10 
REMARK    2  A    between atoms: C5_5  and  O11_11 
ROOT
HETATM    1  C1  UNL     1     -33.496  17.626  -3.604  1.00 20.00     0.004 C 
HETATM    2  C2  UNL     1     -33.931  16.248  -3.101  1.00 20.00     0.012 C 
HETATM    3  C3  UNL     1     -33.510  17.566  -5.135  1.00 20.00     0.039 C 
HETATM    4  C4  UNL     1     -34.609  15.561  -4.303  1.00 20.00    -0.016 C 
HETATM    5  C5  UNL     1     -33.760  16.094  -5.492  1.00 20.00     0.068 C 
HETATM    6  C6  UNL     1     -36.088  15.991  -4.375  1.00 20.00     0.018 C 
HETATM    7  C7  UNL     1     -34.554  14.034  -4.151  1.00 20.00     0.018 C 
ENDROOT
BRANCH   5   8
HETATM    8  C10 UNL     1     -34.389  15.937  -6.872  1.00 20.00     0.012 C 
HETATM    9  C8  UNL     1     -34.213  17.215  -7.691  1.00 20.00     0.012 C 
HETATM   10  C9  UNL     1     -33.784  14.742  -7.607  1.00 20.00     0.012 C 
ENDBRANCH   5   8
BRANCH   5  11
HETATM   11  O11 UNL     1     -32.494  15.424  -5.553  1.00 20.00    -0.389 OA
HETATM   12  H31 UNL     1     -32.250  15.229  -4.637  1.00 20.00     0.210 HD
ENDBRANCH   5  11
TORSDOF 2
ENDMDL
MODEL 5
REMARK VINA RESULT:      -4.0      1.028      3.631
REMARK  2 active torsions:
REMARK  status: ('A' for Active; 'I' for Inactive)
REMARK    1  A    between atoms: C5_5  and  C10_10 
REMARK    2  A    between atoms: C5_5  and  O11_11 
ROOT
HETATM    1  C1  UNL     1     -35.506  13.042  -6.980  1.00 20.00     0.004 C 
HETATM    2  C2  UNL     1     -34.207  13.829  -7.170  1.00 20.00     0.012 C 
HETATM    3  C3  UNL     1     -36.211  13.634  -5.755  1.00 20.00     0.039 C 
HETATM    4  C4  UNL     1     -34.383  15.124  -6.353  1.00 20.00    -0.016 C 
HETATM    5  C5  UNL     1     -35.211  14.622  -5.137  1.00 20.00     0.068 C 
HETATM    6  C6  UNL     1     -35.130  16.172  -7.203  1.00 20.00     0.018 C 
HETATM    7  C7  UNL     1     -33.015  15.703  -5.962  1.00 20.00     0.018 C 
ENDROOT
BRANCH   5   8
HETATM    8  C10 UNL     1     -35.907  15.706  -4.321  1.00 20.00     0.012 C 
HETATM    9  C8  UNL     1     -37.381  15.360  -4.114  1.00 20.00     0.012 C 
HETATM   10  C9  UNL     1     -35.208  15.900  -2.976  1.00 20.00     0.012 C 
ENDBRANCH   5   8
BRANCH   5  11
HETATM   11  O11 UNL     1     -34.379  13.904  -4.217  1.00 20.00    -0.389 OA
HETATM   12  H31 UNL     1     -33.499  13.877  -4.617  1.00 20.00     0.210 HD
ENDBRANCH   5  11
TORSDOF 2
ENDMDL
MODEL 6
REMARK VINA RESULT:      -3.9      2.157      3.515
REMARK  2 active torsions:
REMARK  status: ('A' for Active; 'I' for Inactive)
REMARK    1  A    between atoms: C5_5  and  C10_10 
REMARK    2  A    between atoms: C5_5  and  O11_11 
ROOT
HETATM    1  C1  UNL     1     -35.956  18.299  -4.399  1.00 20.00     0.004 C 
HETATM    2  C2  UNL     1     -34.997  18.639  -3.257  1.00 20.00     0.012 C 
HETATM    3  C3  UNL     1     -35.660  16.854  -4.815  1.00 20.00     0.039 C 
HETATM    4  C4  UNL     1     -34.478  17.284  -2.732  1.00 20.00    -0.016 C 
HETATM    5  C5  UNL     1     -34.398  16.448  -4.040  1.00 20.00     0.068 C 
HETATM    6  C6  UNL     1     -35.479  16.712  -1.708  1.00 20.00     0.018 C 
HETATM    7  C7  UNL     1     -33.121  17.461  -2.037  1.00 20.00     0.018 C 
ENDROOT
BRANCH   5   8
HETATM    8  C10 UNL     1     -34.302  14.938  -3.852  1.00 20.00     0.012 C 
HETATM    9  C8  UNL     1     -35.440  14.231  -4.586  1.00 20.00     0.012 C 
HETATM   10  C9  UNL     1     -32.948  14.420  -4.336  1.00 20.00     0.012 C 
ENDBRANCH   5   8
BRANCH   5  11
HETATM   11  O11 UNL     1     -33.253  16.826  -4.815  1.00 20.00    -0.389 OA
HETATM   12  H31 UNL     1     -33.453  16.575  -5.728  1.00 20.00     0.210 HD
ENDBRANCH   5  11
TORSDOF 2
ENDMDL
MODEL 7
REMARK VINA RESULT:      -3.9      1.549      2.571
REMARK  2 active torsions:
REMARK  status: ('A' for Active; 'I' for Inactive)
REMARK    1  A    between atoms: C5_5  and  C10_10 
REMARK    2  A    between atoms: C5_5  and  O11_11 
ROOT
HETATM    1  C1  UNL     1     -34.219  17.568  -5.952  1.00 20.00     0.004 C 
HETATM    2  C2  UNL     1     -33.363  16.811  -4.934  1.00 20.00     0.012 C 
HETATM    3  C3  UNL     1     -35.070  16.524  -6.682  1.00 20.00     0.039 C 
HETATM    4  C4  UNL     1     -34.032  15.432  -4.772  1.00 20.00    -0.016 C 
HETATM    5  C5  UNL     1     -34.547  15.158  -6.213  1.00 20.00     0.068 C 
HETATM    6  C6  UNL     1     -35.166  15.529  -3.731  1.00 20.00     0.018 C 
HETATM    7  C7  UNL     1     -33.011  14.394  -4.282  1.00 20.00     0.018 C 
ENDROOT
BRANCH   5   8
HETATM    8  C10 UNL     1     -35.604  14.066  -6.338  1.00 20.00     0.012 C 
HETATM    9  C8  UNL     1     -36.921  14.648  -6.848  1.00 20.00     0.012 C 
HETATM   10  C9  UNL     1     -35.118  12.950  -7.262  1.00 20.00     0.012 C 
ENDBRANCH   5   8
BRANCH   5  11
HETATM   11  O11 UNL     1     -33.469  14.769  -7.073  1.00 20.00    -0.389 OA
HETATM   12  H31 UNL     1     -33.028  14.030  -6.632  1.00 20.00     0.210 HD
ENDBRANCH   5  11
TORSDOF 2
ENDMDL
MODEL 8
REMARK VINA RESULT:      -3.8      1.929      3.145
REMARK  2 active torsions:
REMARK  status: ('A' for Active; 'I' for Inactive)
REMARK    1  A    between atoms: C5_5  and  C10_10 
REMARK    2  A    between atoms: C5_5  and  O11_11 
ROOT
HETATM    1  C1  UNL     1     -35.115  16.517  -2.380  1.00 20.00     0.004 C 
HETATM    2  C2  UNL     1     -33.806  16.379  -3.159  1.00 20.00     0.012 C 
HETATM    3  C3  UNL     1     -36.250  16.171  -3.351  1.00 20.00     0.039 C 
HETATM    4  C4  UNL     1     -34.150  15.541  -4.406  1.00 20.00    -0.016 C 
HETATM    5  C5  UNL     1     -35.589  16.032  -4.730  1.00 20.00     0.068 C 
HETATM    6  C6  UNL     1     -34.087  14.041  -4.053  1.00 20.00     0.018 C 
HETATM    7  C7  UNL     1     -33.144  15.816  -5.533  1.00 20.00     0.018 C 
ENDROOT
BRANCH   5   8
HETATM    8  C10 UNL     1     -36.397  15.136  -5.664  1.00 20.00     0.012 C 
HETATM    9  C8  UNL     1     -37.653  14.622  -4.963  1.00 20.00     0.012 C 
HETATM   10  C9  UNL     1     -36.765  15.886  -6.943  1.00 20.00     0.012 C 
ENDBRANCH   5   8
BRANCH   5  11
HETATM   11  O11 UNL     1     -35.558  17.325  -5.347  1.00 20.00    -0.389 OA
HETATM   12  H31 UNL     1     -35.078  17.902  -4.736  1.00 20.00     0.210 HD
ENDBRANCH   5  11
TORSDOF 2
ENDMDL
MODEL 9
REMARK VINA RESULT:      -3.6      1.777      2.537
REMARK  2 active torsions:
REMARK  status: ('A' for Active; 'I' for Inactive)
REMARK    1  A    between atoms: C5_5  and  C10_10 
REMARK    2  A    between atoms: C5_5  and  O11_11 
ROOT
HETATM    1  C1  UNL     1     -33.750  16.173  -3.399  1.00 20.00     0.004 C 
HETATM    2  C2  UNL     1     -34.376  17.453  -3.955  1.00 20.00     0.012 C 
HETATM    3  C3  UNL     1     -34.681  15.018  -3.783  1.00 20.00     0.039 C 
HETATM    4  C4  UNL     1     -35.399  16.991  -5.012  1.00 20.00    -0.016 C 
HETATM    5  C5  UNL     1     -35.933  15.674  -4.381  1.00 20.00     0.068 C 
HETATM    6  C6  UNL     1     -34.681  16.769  -6.360  1.00 20.00     0.018 C 
HETATM    7  C7  UNL     1     -36.486  18.057  -5.212  1.00 20.00     0.018 C 
ENDROOT
BRANCH   5   8
HETATM    8  C10 UNL     1     -36.671  14.739  -5.334  1.00 20.00     0.012 C 
HETATM    9  C8  UNL     1     -36.008  13.363  -5.356  1.00 20.00     0.012 C 
HETATM   10  C9  UNL     1     -38.142  14.620  -4.940  1.00 20.00     0.012 C 
ENDBRANCH   5   8
BRANCH   5  11
HETATM   11  O11 UNL     1     -36.848  15.957  -3.314  1.00 20.00    -0.389 OA
HETATM   12  H31 UNL     1     -36.323  15.943  -2.502  1.00 20.00     0.210 HD
ENDBRANCH   5  11
TORSDOF 2
ENDMDL
