MODEL 1
REMARK VINA RESULT:      -4.4      0.000      0.000
REMARK  2 active torsions:
REMARK  status: ('A' for Active; 'I' for Inactive)
REMARK    1  A    between atoms: C2_2  and  C6_6 
REMARK    2  A    between atoms: C6_6  and  O10_10 
ROOT
HETATM    1  C3  UNL     1     -37.754  14.883  -6.014  1.00 20.00     0.004 C 
HETATM    2  C4  UNL     1     -36.924  14.827  -4.724  1.00 20.00     0.043 C 
HETATM    3  C5  UNL     1     -36.849  14.380  -7.141  1.00 20.00     0.012 C 
HETATM    4  C6  UNL     1     -35.625  14.099  -5.101  1.00 20.00     0.082 C 
HETATM    5  C7  UNL     1     -35.411  14.491  -6.593  1.00 20.00    -0.013 C 
HETATM    6  C8  UNL     1     -34.471  13.544  -7.353  1.00 20.00     0.018 C 
HETATM    7  C9  UNL     1     -34.897  15.934  -6.781  1.00 20.00     0.018 C 
ENDROOT
BRANCH   4   8
HETATM    8  C2  UNL     1     -34.504  14.422  -4.162  1.00 20.00     0.001 C 
HETATM    9  C1  UNL     1     -34.468  15.509  -3.385  1.00 20.00     0.010 C 
ENDBRANCH   4   8
BRANCH   4  10
HETATM   10  O10 UNL     1     -35.903  12.695  -4.998  1.00 20.00    -0.385 OA
HETATM   11  H26 UNL     1     -36.738  12.622  -4.514  1.00 20.00     0.211 HD
ENDBRANCH   4  10
TORSDOF 2
ENDMDL
MODEL 2
REMARK VINA RESULT:      -4.3      0.979      3.014
REMARK  2 active torsions:
REMARK  status: ('A' for Active; 'I' for Inactive)
REMARK    1  A    between atoms: C2_2  and  C6_6 
REMARK    2  A    between atoms: C6_6  and  O10_10 
ROOT
HETATM    1  C3  UNL     1     -34.616  15.200  -3.802  1.00 20.00     0.004 C 
HETATM    2  C4  UNL     1     -34.197  14.381  -5.031  1.00 20.00     0.043 C 
HETATM    3  C5  UNL     1     -36.140  15.328  -3.857  1.00 20.00     0.012 C 
HETATM    4  C6  UNL     1     -35.507  13.878  -5.656  1.00 20.00     0.082 C 
HETATM    5  C7  UNL     1     -36.526  15.005  -5.315  1.00 20.00    -0.013 C 
HETATM    6  C8  UNL     1     -37.993  14.559  -5.397  1.00 20.00     0.018 C 
HETATM    7  C9  UNL     1     -36.357  16.269  -6.186  1.00 20.00     0.018 C 
ENDROOT
BRANCH   4   8
HETATM    8  C2  UNL     1     -35.347  13.542  -7.106  1.00 20.00     0.001 C 
HETATM    9  C1  UNL     1     -34.268  13.853  -7.833  1.00 20.00     0.010 C 
ENDBRANCH   4   8
BRANCH   4  10
HETATM   10  O10 UNL     1     -35.854  12.675  -4.956  1.00 20.00    -0.385 OA
HETATM   11  H26 UNL     1     -36.671  12.870  -4.475  1.00 20.00     0.211 HD
ENDBRANCH   4  10
TORSDOF 2
ENDMDL
MODEL 3
REMARK VINA RESULT:      -4.2      0.893      2.611
REMARK  2 active torsions:
REMARK  status: ('A' for Active; 'I' for Inactive)
REMARK    1  A    between atoms: C2_2  and  C6_6 
REMARK    2  A    between atoms: C6_6  and  O10_10 
ROOT
HETATM    1  C3  UNL     1     -35.119  13.901  -7.732  1.00 20.00     0.004 C 
HETATM    2  C4  UNL     1     -36.475  13.982  -7.018  1.00 20.00     0.043 C 
HETATM    3  C5  UNL     1     -34.045  14.117  -6.664  1.00 20.00     0.012 C 
HETATM    4  C6  UNL     1     -36.148  14.038  -5.519  1.00 20.00     0.082 C 
HETATM    5  C7  UNL     1     -34.776  14.775  -5.475  1.00 20.00    -0.013 C 
HETATM    6  C8  UNL     1     -33.995  14.551  -4.172  1.00 20.00     0.018 C 
HETATM    7  C9  UNL     1     -34.889  16.296  -5.715  1.00 20.00     0.018 C 
ENDROOT
BRANCH   4   8
HETATM    8  C2  UNL     1     -37.257  14.651  -4.721  1.00 20.00     0.001 C 
HETATM    9  C1  UNL     1     -38.537  14.667  -5.108  1.00 20.00     0.010 C 
ENDBRANCH   4   8
BRANCH   4  10
HETATM   10  O10 UNL     1     -35.988  12.679  -5.088  1.00 20.00    -0.385 OA
HETATM   11  H26 UNL     1     -36.559  12.574  -4.313  1.00 20.00     0.211 HD
ENDBRANCH   4  10
TORSDOF 2
ENDMDL
MODEL 4
REMARK VINA RESULT:      -4.1      1.545      1.747
REMARK  2 active torsions:
REMARK  status: ('A' for Active; 'I' for Inactive)
REMARK    1  A    between atoms: C2_2  and  C6_6 
REMARK    2  A    between atoms: C6_6  and  O10_10 
ROOT
HETATM    1  C3  UNL     1     -36.238  13.575  -5.208  1.00 20.00     0.004 C 
HETATM    2  C4  UNL     1     -35.261  14.431  -4.391  1.00 20.00     0.043 C 
HETATM    3  C5  UNL     1     -35.738  13.595  -6.654  1.00 20.00     0.012 C 
HETATM    4  C6  UNL     1     -34.103  14.757  -5.345  1.00 20.00     0.082 C 
HETATM    5  C7  UNL     1     -34.788  14.808  -6.742  1.00 20.00    -0.013 C 
HETATM    6  C8  UNL     1     -33.813  14.643  -7.916  1.00 20.00     0.018 C 
HETATM    7  C9  UNL     1     -35.612  16.093  -6.975  1.00 20.00     0.018 C 
ENDROOT
BRANCH   4   8
HETATM    8  C2  UNL     1     -33.356  15.985  -4.926  1.00 20.00     0.001 C 
HETATM    9  C1  UNL     1     -33.583  16.649  -3.787  1.00 20.00     0.010 C 
ENDBRANCH   4   8
BRANCH   4  10
HETATM   10  O10 UNL     1     -33.200  13.644  -5.281  1.00 20.00    -0.385 OA
HETATM   11  H26 UNL     1     -33.554  12.976  -5.886  1.00 20.00     0.211 HD
ENDBRANCH   4  10
TORSDOF 2
ENDMDL
MODEL 5
REMARK VINA RESULT:      -4.1      1.673      3.416
REMARK  2 active torsions:
REMARK  status: ('A' for Active; 'I' for Inactive)
REMARK    1  A    between atoms: C2_2  and  C6_6 
REMARK    2  A    between atoms: C6_6  and  O10_10 
ROOT
HETATM    1  C3  UNL     1     -33.856  16.350  -3.494  1.00 20.00     0.004 C 
HETATM    2  C4  UNL     1     -33.245  16.277  -4.900  1.00 20.00     0.043 C 
HETATM    3  C5  UNL     1     -35.030  15.369  -3.473  1.00 20.00     0.012 C 
HETATM    4  C6  UNL     1     -33.953  15.106  -5.596  1.00 20.00     0.082 C 
HETATM    5  C7  UNL     1     -35.371  15.107  -4.954  1.00 20.00    -0.013 C 
HETATM    6  C8  UNL     1     -36.121  13.775  -5.106  1.00 20.00     0.018 C 
HETATM    7  C9  UNL     1     -36.283  16.236  -5.482  1.00 20.00     0.018 C 
ENDROOT
BRANCH   4   8
HETATM    8  C2  UNL     1     -33.898  15.219  -7.088  1.00 20.00     0.001 C 
HETATM    9  C1  UNL     1     -33.816  14.173  -7.917  1.00 20.00     0.010 C 
ENDBRANCH   4   8
BRANCH   4  10
HETATM   10  O10 UNL     1     -33.242  13.919  -5.214  1.00 20.00    -0.385 OA
HETATM   11  H26 UNL     1     -32.872  13.553  -6.030  1.00 20.00     0.211 HD
ENDBRANCH   4  10
TORSDOF 2
ENDMDL
MODEL 6
REMARK VINA RESULT:      -4.1      1.417      3.141
REMARK  2 active torsions:
REMARK  status: ('A' for Active; 'I' for Inactive)
REMARK    1  A    between atoms: C2_2  and  C6_6 
REMARK    2  A    between atoms: C6_6  and  O10_10 
ROOT
HETATM    1  C3  UNL     1     -33.973  16.411  -6.721  1.00 20.00     0.004 C 
HETATM    2  C4  UNL     1     -35.169  15.449  -6.680  1.00 20.00     0.043 C 
HETATM    3  C5  UNL     1     -32.960  15.898  -5.696  1.00 20.00     0.012 C 
HETATM    4  C6  UNL     1     -34.730  14.286  -5.779  1.00 20.00     0.082 C 
HETATM    5  C7  UNL     1     -33.757  14.960  -4.766  1.00 20.00    -0.013 C 
HETATM    6  C8  UNL     1     -32.815  13.973  -4.062  1.00 20.00     0.018 C 
HETATM    7  C9  UNL     1     -34.478  15.794  -3.685  1.00 20.00     0.018 C 
ENDROOT
BRANCH   4   8
HETATM    8  C2  UNL     1     -35.897  13.555  -5.192  1.00 20.00     0.001 C 
HETATM    9  C1  UNL     1     -37.162  13.982  -5.266  1.00 20.00     0.010 C 
ENDBRANCH   4   8
BRANCH   4  10
HETATM   10  O10 UNL     1     -34.008  13.373  -6.618  1.00 20.00    -0.385 OA
HETATM   11  H26 UNL     1     -33.444  12.854  -6.028  1.00 20.00     0.211 HD
ENDBRANCH   4  10
TORSDOF 2
ENDMDL
MODEL 7
REMARK VINA RESULT:      -3.9     11.161     12.590
REMARK  2 active torsions:
REMARK  status: ('A' for Active; 'I' for Inactive)
REMARK    1  A    between atoms: C2_2  and  C6_6 
REMARK    2  A    between atoms: C6_6  and  O10_10 
ROOT
HETATM    1  C3  UNL     1     -33.936   6.924   5.939  1.00 20.00     0.004 C 
HETATM    2  C4  UNL     1     -33.625   8.033   4.924  1.00 20.00     0.043 C 
HETATM    3  C5  UNL     1     -33.843   5.597   5.183  1.00 20.00     0.012 C 
HETATM    4  C6  UNL     1     -33.157   7.309   3.654  1.00 20.00     0.082 C 
HETATM    5  C7  UNL     1     -33.949   5.968   3.689  1.00 20.00    -0.013 C 
HETATM    6  C8  UNL     1     -33.335   4.864   2.816  1.00 20.00     0.018 C 
HETATM    7  C9  UNL     1     -35.434   6.122   3.299  1.00 20.00     0.018 C 
ENDROOT
BRANCH   4   8
HETATM    8  C2  UNL     1     -33.330   8.151   2.428  1.00 20.00     0.001 C 
HETATM    9  C1  UNL     1     -32.318   8.679   1.732  1.00 20.00     0.010 C 
ENDBRANCH   4   8
BRANCH   4  10
HETATM   10  O10 UNL     1     -31.755   7.055   3.825  1.00 20.00    -0.385 OA
HETATM   11  H26 UNL     1     -31.470   7.614   4.562  1.00 20.00     0.211 HD
ENDBRANCH   4  10
TORSDOF 2
ENDMDL
MODEL 8
REMARK VINA RESULT:      -3.9      0.916      1.021
REMARK  2 active torsions:
REMARK  status: ('A' for Active; 'I' for Inactive)
REMARK    1  A    between atoms: C2_2  and  C6_6 
REMARK    2  A    between atoms: C6_6  and  O10_10 
ROOT
HETATM    1  C3  UNL     1     -37.396  14.853  -4.842  1.00 20.00     0.004 C 
HETATM    2  C4  UNL     1     -36.219  15.251  -3.942  1.00 20.00     0.043 C 
HETATM    3  C5  UNL     1     -36.795  14.223  -6.100  1.00 20.00     0.012 C 
HETATM    4  C6  UNL     1     -34.971  14.656  -4.609  1.00 20.00     0.082 C 
HETATM    5  C7  UNL     1     -35.323  14.685  -6.126  1.00 20.00    -0.013 C 
HETATM    6  C8  UNL     1     -34.474  13.729  -6.977  1.00 20.00     0.018 C 
HETATM    7  C9  UNL     1     -35.234  16.094  -6.750  1.00 20.00     0.018 C 
ENDROOT
BRANCH   4   8
HETATM    8  C2  UNL     1     -33.719  15.371  -4.204  1.00 20.00     0.001 C 
HETATM    9  C1  UNL     1     -33.669  16.320  -3.263  1.00 20.00     0.010 C 
ENDBRANCH   4   8
BRANCH   4  10
HETATM   10  O10 UNL     1     -34.876  13.299  -4.153  1.00 20.00    -0.385 OA
HETATM   11  H26 UNL     1     -35.233  13.292  -3.254  1.00 20.00     0.211 HD
ENDBRANCH   4  10
TORSDOF 2
ENDMDL
MODEL 9
REMARK VINA RESULT:      -3.9      1.479      3.085
REMARK  2 active torsions:
REMARK  status: ('A' for Active; 'I' for Inactive)
REMARK    1  A    between atoms: C2_2  and  C6_6 
REMARK    2  A    between atoms: C6_6  and  O10_10 
ROOT
HETATM    1  C3  UNL     1     -33.065  14.792  -4.502  1.00 20.00     0.004 C 
HETATM    2  C4  UNL     1     -34.426  14.191  -4.126  1.00 20.00     0.043 C 
HETATM    3  C5  UNL     1     -33.278  15.593  -5.788  1.00 20.00     0.012 C 
HETATM    4  C6  UNL     1     -35.438  14.829  -5.090  1.00 20.00     0.082 C 
HETATM    5  C7  UNL     1     -34.603  15.072  -6.381  1.00 20.00    -0.013 C 
HETATM    6  C8  UNL     1     -35.216  16.114  -7.327  1.00 20.00     0.018 C 
HETATM    7  C9  UNL     1     -34.335  13.784  -7.190  1.00 20.00     0.018 C 
ENDROOT
BRANCH   4   8
HETATM    8  C2  UNL     1     -36.673  13.996  -5.243  1.00 20.00     0.001 C 
HETATM    9  C1  UNL     1     -37.916  14.484  -5.191  1.00 20.00     0.010 C 
ENDBRANCH   4   8
BRANCH   4  10
HETATM   10  O10 UNL     1     -35.817  16.084  -4.507  1.00 20.00    -0.385 OA
HETATM   11  H26 UNL     1     -35.933  15.916  -3.561  1.00 20.00     0.211 HD
ENDBRANCH   4  10
TORSDOF 2
ENDMDL
