MODEL 1
REMARK VINA RESULT:      -4.1      0.000      0.000
REMARK  0 active torsions:
REMARK  status: ('A' for Active; 'I' for Inactive)
ROOT
HETATM    1  C1  UNL     1     -34.371   4.250   4.484  1.00 20.00     0.035 C 
HETATM    2  C2  UNL     1     -33.316   4.780   3.497  1.00 20.00     0.014 C 
HETATM    3  C3  UNL     1     -34.811   5.456   5.253  1.00 20.00     0.152 A 
HETATM    4  C4  UNL     1     -34.416   6.675   4.500  1.00 20.00     0.158 A 
HETATM    5  C5  UNL     1     -33.719   6.255   3.224  1.00 20.00    -0.019 C 
HETATM    6  C6  UNL     1     -34.696   6.336   2.043  1.00 20.00     0.017 C 
HETATM    7  C7  UNL     1     -32.495   7.126   2.948  1.00 20.00     0.017 C 
HETATM    8  O8  UNL     1     -33.769   6.315   5.730  1.00 20.00    -0.375 OA
ENDROOT
TORSDOF 0
ENDMDL
MODEL 2
REMARK VINA RESULT:      -4.0      1.539      2.900
REMARK  0 active torsions:
REMARK  status: ('A' for Active; 'I' for Inactive)
ROOT
HETATM    1  C1  UNL     1     -33.220   7.802   4.213  1.00 20.00     0.035 C 
HETATM    2  C2  UNL     1     -33.774   6.621   5.029  1.00 20.00     0.014 C 
HETATM    3  C3  UNL     1     -32.893   7.217   2.874  1.00 20.00     0.152 A 
HETATM    4  C4  UNL     1     -33.609   5.923   2.728  1.00 20.00     0.158 A 
HETATM    5  C5  UNL     1     -34.416   5.669   3.983  1.00 20.00    -0.019 C 
HETATM    6  C6  UNL     1     -35.885   6.044   3.745  1.00 20.00     0.017 C 
HETATM    7  C7  UNL     1     -34.315   4.209   4.422  1.00 20.00     0.017 C 
HETATM    8  O8  UNL     1     -32.183   5.974   2.885  1.00 20.00    -0.375 OA
ENDROOT
TORSDOF 0
ENDMDL
MODEL 3
REMARK VINA RESULT:      -3.7     12.038     12.966
REMARK  0 active torsions:
REMARK  status: ('A' for Active; 'I' for Inactive)
ROOT
HETATM    1  C1  UNL     1     -35.705  14.080  -7.249  1.00 20.00     0.035 C 
HETATM    2  C2  UNL     1     -34.279  14.356  -6.738  1.00 20.00     0.014 C 
HETATM    3  C3  UNL     1     -36.473  13.675  -6.029  1.00 20.00     0.152 A 
HETATM    4  C4  UNL     1     -35.722  14.111  -4.823  1.00 20.00     0.158 A 
HETATM    5  C5  UNL     1     -34.457  14.814  -5.265  1.00 20.00    -0.019 C 
HETATM    6  C6  UNL     1     -34.651  16.334  -5.194  1.00 20.00     0.017 C 
HETATM    7  C7  UNL     1     -33.263  14.400  -4.404  1.00 20.00     0.017 C 
HETATM    8  O8  UNL     1     -35.836  12.723  -5.170  1.00 20.00    -0.375 OA
ENDROOT
TORSDOF 0
ENDMDL
MODEL 4
REMARK VINA RESULT:      -3.7      1.177      2.217
REMARK  0 active torsions:
REMARK  status: ('A' for Active; 'I' for Inactive)
ROOT
HETATM    1  C1  UNL     1     -34.455   5.885   5.712  1.00 20.00     0.035 C 
HETATM    2  C2  UNL     1     -34.832   6.650   4.432  1.00 20.00     0.014 C 
HETATM    3  C3  UNL     1     -33.973   4.552   5.229  1.00 20.00     0.152 A 
HETATM    4  C4  UNL     1     -33.642   4.657   3.784  1.00 20.00     0.158 A 
HETATM    5  C5  UNL     1     -33.905   6.075   3.326  1.00 20.00    -0.019 C 
HETATM    6  C6  UNL     1     -32.586   6.859   3.268  1.00 20.00     0.017 C 
HETATM    7  C7  UNL     1     -34.586   6.099   1.958  1.00 20.00     0.017 C 
HETATM    8  O8  UNL     1     -34.781   3.911   4.237  1.00 20.00    -0.375 OA
ENDROOT
TORSDOF 0
ENDMDL
MODEL 5
REMARK VINA RESULT:      -3.7      1.274      2.824
REMARK  0 active torsions:
REMARK  status: ('A' for Active; 'I' for Inactive)
ROOT
HETATM    1  C1  UNL     1     -34.685   6.187   2.222  1.00 20.00     0.035 C 
HETATM    2  C2  UNL     1     -35.404   6.042   3.575  1.00 20.00     0.014 C 
HETATM    3  C3  UNL     1     -33.282   6.569   2.577  1.00 20.00     0.152 A 
HETATM    4  C4  UNL     1     -33.040   6.235   4.005  1.00 20.00     0.158 A 
HETATM    5  C5  UNL     1     -34.297   5.620   4.580  1.00 20.00    -0.019 C 
HETATM    6  C6  UNL     1     -34.162   4.092   4.621  1.00 20.00     0.017 C 
HETATM    7  C7  UNL     1     -34.584   6.155   5.983  1.00 20.00     0.017 C 
HETATM    8  O8  UNL     1     -33.139   7.597   3.564  1.00 20.00    -0.375 OA
ENDROOT
TORSDOF 0
ENDMDL
MODEL 6
REMARK VINA RESULT:      -3.6      8.844     10.047
REMARK  0 active torsions:
REMARK  status: ('A' for Active; 'I' for Inactive)
ROOT
HETATM    1  C1  UNL     1     -41.182   6.850   0.321  1.00 20.00     0.035 C 
HETATM    2  C2  UNL     1     -41.330   5.545  -0.481  1.00 20.00     0.014 C 
HETATM    3  C3  UNL     1     -42.397   7.650  -0.030  1.00 20.00     0.152 A 
HETATM    4  C4  UNL     1     -43.417   6.742  -0.615  1.00 20.00     0.158 A 
HETATM    5  C5  UNL     1     -42.861   5.335  -0.638  1.00 20.00    -0.019 C 
HETATM    6  C6  UNL     1     -43.417   4.534   0.547  1.00 20.00     0.017 C 
HETATM    7  C7  UNL     1     -43.196   4.627  -1.949  1.00 20.00     0.017 C 
HETATM    8  O8  UNL     1     -42.731   7.713  -1.420  1.00 20.00    -0.375 OA
ENDROOT
TORSDOF 0
ENDMDL
MODEL 7
REMARK VINA RESULT:      -3.6      1.683      2.758
REMARK  0 active torsions:
REMARK  status: ('A' for Active; 'I' for Inactive)
ROOT
HETATM    1  C1  UNL     1     -34.138   6.563   4.684  1.00 20.00     0.035 C 
HETATM    2  C2  UNL     1     -33.934   7.920   3.989  1.00 20.00     0.014 C 
HETATM    3  C3  UNL     1     -33.671   5.551   3.685  1.00 20.00     0.152 A 
HETATM    4  C4  UNL     1     -32.829   6.234   2.668  1.00 20.00     0.158 A 
HETATM    5  C5  UNL     1     -32.742   7.704   3.016  1.00 20.00    -0.019 C 
HETATM    6  C6  UNL     1     -31.412   7.998   3.723  1.00 20.00     0.017 C 
HETATM    7  C7  UNL     1     -32.874   8.578   1.770  1.00 20.00     0.017 C 
HETATM    8  O8  UNL     1     -34.132   5.730   2.342  1.00 20.00    -0.375 OA
ENDROOT
TORSDOF 0
ENDMDL
MODEL 8
REMARK VINA RESULT:      -3.6     11.823     12.805
REMARK  0 active torsions:
REMARK  status: ('A' for Active; 'I' for Inactive)
ROOT
HETATM    1  C1  UNL     1     -36.244  15.138  -6.309  1.00 20.00     0.035 C 
HETATM    2  C2  UNL     1     -34.794  15.524  -5.967  1.00 20.00     0.014 C 
HETATM    3  C3  UNL     1     -36.460  13.827  -5.620  1.00 20.00     0.152 A 
HETATM    4  C4  UNL     1     -35.414  13.654  -4.578  1.00 20.00     0.158 A 
HETATM    5  C5  UNL     1     -34.515  14.871  -4.586  1.00 20.00    -0.019 C 
HETATM    6  C6  UNL     1     -34.913  15.824  -3.451  1.00 20.00     0.017 C 
HETATM    7  C7  UNL     1     -33.045  14.476  -4.442  1.00 20.00     0.017 C 
HETATM    8  O8  UNL     1     -35.418  12.856  -5.771  1.00 20.00    -0.375 OA
ENDROOT
TORSDOF 0
ENDMDL
MODEL 9
REMARK VINA RESULT:      -3.4     12.165     13.207
REMARK  0 active torsions:
REMARK  status: ('A' for Active; 'I' for Inactive)
ROOT
HETATM    1  C1  UNL     1     -32.999  14.746  -4.547  1.00 20.00     0.035 C 
HETATM    2  C2  UNL     1     -34.390  14.410  -3.979  1.00 20.00     0.014 C 
HETATM    3  C3  UNL     1     -33.203  16.005  -5.329  1.00 20.00     0.152 A 
HETATM    4  C4  UNL     1     -34.479  16.635  -4.901  1.00 20.00     0.158 A 
HETATM    5  C5  UNL     1     -35.106  15.779  -3.822  1.00 20.00    -0.019 C 
HETATM    6  C6  UNL     1     -34.816  16.381  -2.441  1.00 20.00     0.017 C 
HETATM    7  C7  UNL     1     -36.615  15.645  -4.026  1.00 20.00     0.017 C 
HETATM    8  O8  UNL     1     -34.343  16.032  -6.196  1.00 20.00    -0.375 OA
ENDROOT
TORSDOF 0
ENDMDL
