MODEL 1
REMARK VINA RESULT:      -4.2      0.000      0.000
REMARK  0 active torsions:
REMARK  status: ('A' for Active; 'I' for Inactive)
ROOT
HETATM    1  C1  UNL     1     -32.890   7.621   2.948  1.00 20.00     0.098 C 
HETATM    2  C2  UNL     1     -34.266   5.764   3.757  1.00 20.00     0.160 A 
HETATM    3  C3  UNL     1     -33.570   6.882   3.935  1.00 20.00     0.063 A 
HETATM    4  C4  UNL     1     -33.667   7.179   5.381  1.00 20.00     0.225 A 
HETATM    5  N5  UNL     1     -32.329   8.228   2.135  1.00 20.00    -0.192 NA
HETATM    6  N6  UNL     1     -34.809   5.289   4.921  1.00 20.00    -0.166 NA
HETATM    7  N7  UNL     1     -34.504   6.053   5.882  1.00 20.00    -0.188 NA
ENDROOT
TORSDOF 0
ENDMDL
MODEL 2
REMARK VINA RESULT:      -4.2      0.149      1.376
REMARK  0 active torsions:
REMARK  status: ('A' for Active; 'I' for Inactive)
ROOT
HETATM    1  C1  UNL     1     -32.836   7.629   2.932  1.00 20.00     0.098 C 
HETATM    2  C2  UNL     1     -33.637   7.179   5.203  1.00 20.00     0.160 A 
HETATM    3  C3  UNL     1     -33.534   6.892   3.909  1.00 20.00     0.063 A 
HETATM    4  C4  UNL     1     -34.303   5.642   3.722  1.00 20.00     0.225 A 
HETATM    5  N5  UNL     1     -32.262   8.235   2.128  1.00 20.00    -0.192 NA
HETATM    6  N6  UNL     1     -34.386   6.262   5.889  1.00 20.00    -0.166 NA
HETATM    7  N7  UNL     1     -34.793   5.361   5.100  1.00 20.00    -0.188 NA
ENDROOT
TORSDOF 0
ENDMDL
MODEL 3
REMARK VINA RESULT:      -3.7     11.636     12.578
REMARK  0 active torsions:
REMARK  status: ('A' for Active; 'I' for Inactive)
ROOT
HETATM    1  C1  UNL     1     -33.860  15.841  -5.360  1.00 20.00     0.098 C 
HETATM    2  C2  UNL     1     -35.326  13.975  -4.753  1.00 20.00     0.160 A 
HETATM    3  C3  UNL     1     -34.512  14.613  -5.587  1.00 20.00     0.063 A 
HETATM    4  C4  UNL     1     -34.439  13.760  -6.793  1.00 20.00     0.225 A 
HETATM    5  N5  UNL     1     -33.324  16.852  -5.172  1.00 20.00    -0.192 NA
HETATM    6  N6  UNL     1     -35.799  12.800  -5.272  1.00 20.00    -0.166 NA
HETATM    7  N7  UNL     1     -35.328  12.622  -6.433  1.00 20.00    -0.188 NA
ENDROOT
TORSDOF 0
ENDMDL
MODEL 4
REMARK VINA RESULT:      -3.6     11.634     12.546
REMARK  0 active torsions:
REMARK  status: ('A' for Active; 'I' for Inactive)
ROOT
HETATM    1  C1  UNL     1     -33.856  15.883  -5.429  1.00 20.00     0.098 C 
HETATM    2  C2  UNL     1     -34.429  13.809  -6.598  1.00 20.00     0.160 A 
HETATM    3  C3  UNL     1     -34.525  14.652  -5.576  1.00 20.00     0.063 A 
HETATM    4  C4  UNL     1     -35.479  14.023  -4.637  1.00 20.00     0.225 A 
HETATM    5  N5  UNL     1     -33.305  16.896  -5.307  1.00 20.00    -0.192 NA
HETATM    6  N6  UNL     1     -35.210  12.696  -6.440  1.00 20.00    -0.166 NA
HETATM    7  N7  UNL     1     -35.833  12.760  -5.341  1.00 20.00    -0.188 NA
ENDROOT
TORSDOF 0
ENDMDL
MODEL 5
REMARK VINA RESULT:      -3.4     11.757     12.193
REMARK  0 active torsions:
REMARK  status: ('A' for Active; 'I' for Inactive)
ROOT
HETATM    1  C1  UNL     1     -34.755  15.387  -3.660  1.00 20.00     0.098 C 
HETATM    2  C2  UNL     1     -33.983  14.345  -5.737  1.00 20.00     0.160 A 
HETATM    3  C3  UNL     1     -34.837  14.471  -4.726  1.00 20.00     0.063 A 
HETATM    4  C4  UNL     1     -35.881  13.451  -4.965  1.00 20.00     0.225 A 
HETATM    5  N5  UNL     1     -34.687  16.141  -2.781  1.00 20.00    -0.192 NA
HETATM    6  N6  UNL     1     -34.345  13.358  -6.614  1.00 20.00    -0.166 NA
HETATM    7  N7  UNL     1     -35.420  12.812  -6.228  1.00 20.00    -0.188 NA
ENDROOT
TORSDOF 0
ENDMDL
MODEL 6
REMARK VINA RESULT:      -3.4     11.836     12.917
REMARK  0 active torsions:
REMARK  status: ('A' for Active; 'I' for Inactive)
ROOT
HETATM    1  C1  UNL     1     -35.355  16.304  -5.581  1.00 20.00     0.098 C 
HETATM    2  C2  UNL     1     -36.042  14.041  -4.945  1.00 20.00     0.160 A 
HETATM    3  C3  UNL     1     -35.398  14.904  -5.724  1.00 20.00     0.063 A 
HETATM    4  C4  UNL     1     -34.743  14.079  -6.763  1.00 20.00     0.225 A 
HETATM    5  N5  UNL     1     -35.320  17.457  -5.463  1.00 20.00    -0.192 NA
HETATM    6  N6  UNL     1     -35.887  12.743  -5.352  1.00 20.00    -0.166 NA
HETATM    7  N7  UNL     1     -35.155  12.700  -6.384  1.00 20.00    -0.188 NA
ENDROOT
TORSDOF 0
ENDMDL
MODEL 7
REMARK VINA RESULT:      -3.3     11.753     12.607
REMARK  0 active torsions:
REMARK  status: ('A' for Active; 'I' for Inactive)
ROOT
HETATM    1  C1  UNL     1     -37.539  14.171  -5.127  1.00 20.00     0.098 C 
HETATM    2  C2  UNL     1     -35.148  14.087  -4.606  1.00 20.00     0.160 A 
HETATM    3  C3  UNL     1     -36.182  13.946  -5.428  1.00 20.00     0.063 A 
HETATM    4  C4  UNL     1     -35.602  13.507  -6.716  1.00 20.00     0.225 A 
HETATM    5  N5  UNL     1     -38.656  14.356  -4.878  1.00 20.00    -0.192 NA
HETATM    6  N6  UNL     1     -33.953  13.790  -5.205  1.00 20.00    -0.166 NA
HETATM    7  N7  UNL     1     -34.146  13.453  -6.409  1.00 20.00    -0.188 NA
ENDROOT
TORSDOF 0
ENDMDL
MODEL 8
REMARK VINA RESULT:      -3.3      1.187      3.637
REMARK  0 active torsions:
REMARK  status: ('A' for Active; 'I' for Inactive)
ROOT
HETATM    1  C1  UNL     1     -34.371   6.315   3.800  1.00 20.00     0.098 C 
HETATM    2  C2  UNL     1     -32.404   7.709   4.229  1.00 20.00     0.160 A 
HETATM    3  C3  UNL     1     -33.291   7.136   3.422  1.00 20.00     0.063 A 
HETATM    4  C4  UNL     1     -32.901   7.547   2.055  1.00 20.00     0.225 A 
HETATM    5  N5  UNL     1     -35.259   5.638   4.111  1.00 20.00    -0.192 NA
HETATM    6  N6  UNL     1     -31.473   8.450   3.550  1.00 20.00    -0.166 NA
HETATM    7  N7  UNL     1     -31.704   8.397   2.307  1.00 20.00    -0.188 NA
ENDROOT
TORSDOF 0
ENDMDL
MODEL 9
REMARK VINA RESULT:      -3.3     11.818     12.028
REMARK  0 active torsions:
REMARK  status: ('A' for Active; 'I' for Inactive)
ROOT
HETATM    1  C1  UNL     1     -34.025  14.573  -4.483  1.00 20.00     0.098 C 
HETATM    2  C2  UNL     1     -36.333  15.257  -4.033  1.00 20.00     0.160 A 
HETATM    3  C3  UNL     1     -35.425  14.458  -4.584  1.00 20.00     0.063 A 
HETATM    4  C4  UNL     1     -36.199  13.432  -5.317  1.00 20.00     0.225 A 
HETATM    5  N5  UNL     1     -32.873  14.668  -4.400  1.00 20.00    -0.192 NA
HETATM    6  N6  UNL     1     -37.616  14.875  -4.320  1.00 20.00    -0.166 NA
HETATM    7  N7  UNL     1     -37.605  13.841  -5.048  1.00 20.00    -0.188 NA
ENDROOT
TORSDOF 0
ENDMDL
