MODEL 1
REMARK VINA RESULT:      -4.0      0.000      0.000
REMARK  3 active torsions:
REMARK  status: ('A' for Active; 'I' for Inactive)
REMARK    1  A    between atoms: C1_1  and  C2_2 
REMARK    2  A    between atoms: C1_1  and  C3_3 
REMARK    3  A    between atoms: C3_3  and  O4_4 
ROOT
HETATM    1  C3  UNL     1     -34.018   7.070   4.173  1.00 20.00     0.216 C 
HETATM    2 CL6  UNL     1     -33.579   7.333   5.874  1.00 20.00    -0.096 Cl
ENDROOT
BRANCH   1   3
HETATM    3  C1  UNL     1     -34.833   5.796   3.982  1.00 20.00     0.079 C 
BRANCH   3   4
HETATM    4  C2  UNL     1     -34.624   4.762   5.075  1.00 20.00     0.226 C 
HETATM    5  F5  UNL     1     -34.117   3.634   4.509  1.00 20.00    -0.255 F 
ENDBRANCH   3   4
ENDBRANCH   1   3
BRANCH   1   6
HETATM    6  O4  UNL     1     -32.821   6.966   3.413  1.00 20.00    -0.380 OA
HETATM    7  H12 UNL     1     -32.984   7.425   2.572  1.00 20.00     0.211 HD
ENDBRANCH   1   6
TORSDOF 3
ENDMDL
MODEL 2
REMARK VINA RESULT:      -4.0      2.933      3.209
REMARK  3 active torsions:
REMARK  status: ('A' for Active; 'I' for Inactive)
REMARK    1  A    between atoms: C1_1  and  C2_2 
REMARK    2  A    between atoms: C1_1  and  C3_3 
REMARK    3  A    between atoms: C3_3  and  O4_4 
ROOT
HETATM    1  C3  UNL     1     -34.816   5.297   4.245  1.00 20.00     0.216 C 
HETATM    2 CL6  UNL     1     -33.684   5.661   2.924  1.00 20.00    -0.096 Cl
ENDROOT
BRANCH   1   3
HETATM    3  C1  UNL     1     -34.434   6.008   5.538  1.00 20.00     0.079 C 
BRANCH   3   4
HETATM    4  C2  UNL     1     -33.665   7.300   5.327  1.00 20.00     0.226 C 
HETATM    5  F5  UNL     1     -33.278   7.774   6.542  1.00 20.00    -0.255 F 
ENDBRANCH   3   4
ENDBRANCH   1   3
BRANCH   1   6
HETATM    6  O4  UNL     1     -34.802   3.895   4.473  1.00 20.00    -0.380 OA
HETATM    7  H12 UNL     1     -35.466   3.509   3.877  1.00 20.00     0.211 HD
ENDBRANCH   1   6
TORSDOF 3
ENDMDL
MODEL 3
REMARK VINA RESULT:      -3.9      2.152      2.251
REMARK  3 active torsions:
REMARK  status: ('A' for Active; 'I' for Inactive)
REMARK    1  A    between atoms: C1_1  and  C2_2 
REMARK    2  A    between atoms: C1_1  and  C3_3 
REMARK    3  A    between atoms: C3_3  and  O4_4 
ROOT
HETATM    1  C3  UNL     1     -34.019   7.010   5.087  1.00 20.00     0.216 C 
HETATM    2 CL6  UNL     1     -34.556   5.400   5.614  1.00 20.00    -0.096 Cl
ENDROOT
BRANCH   1   3
HETATM    3  C1  UNL     1     -33.386   6.976   3.700  1.00 20.00     0.079 C 
BRANCH   3   4
HETATM    4  C2  UNL     1     -33.797   5.777   2.865  1.00 20.00     0.226 C 
HETATM    5  F5  UNL     1     -32.690   5.024   2.620  1.00 20.00    -0.255 F 
ENDBRANCH   3   4
ENDBRANCH   1   3
BRANCH   1   6
HETATM    6  O4  UNL     1     -33.058   7.488   6.017  1.00 20.00    -0.380 OA
HETATM    7  H12 UNL     1     -32.184   7.253   5.661  1.00 20.00     0.211 HD
ENDBRANCH   1   6
TORSDOF 3
ENDMDL
MODEL 4
REMARK VINA RESULT:      -3.9      2.057      2.057
REMARK  3 active torsions:
REMARK  status: ('A' for Active; 'I' for Inactive)
REMARK    1  A    between atoms: C1_1  and  C2_2 
REMARK    2  A    between atoms: C1_1  and  C3_3 
REMARK    3  A    between atoms: C3_3  and  O4_4 
ROOT
HETATM    1  C3  UNL     1     -33.978   5.947   3.067  1.00 20.00     0.216 C 
HETATM    2 CL6  UNL     1     -32.850   7.245   3.515  1.00 20.00    -0.096 Cl
ENDROOT
BRANCH   1   3
HETATM    3  C1  UNL     1     -35.067   5.747   4.116  1.00 20.00     0.079 C 
BRANCH   3   4
HETATM    4  C2  UNL     1     -34.542   5.316   5.474  1.00 20.00     0.226 C 
HETATM    5  F5  UNL     1     -34.397   6.424   6.251  1.00 20.00    -0.255 F 
ENDBRANCH   3   4
ENDBRANCH   1   3
BRANCH   1   6
HETATM    6  O4  UNL     1     -33.241   4.738   2.939  1.00 20.00    -0.380 OA
HETATM    7  H12 UNL     1     -32.565   4.749   3.637  1.00 20.00     0.211 HD
ENDBRANCH   1   6
TORSDOF 3
ENDMDL
MODEL 5
REMARK VINA RESULT:      -3.9      2.082      2.341
REMARK  3 active torsions:
REMARK  status: ('A' for Active; 'I' for Inactive)
REMARK    1  A    between atoms: C1_1  and  C2_2 
REMARK    2  A    between atoms: C1_1  and  C3_3 
REMARK    3  A    between atoms: C3_3  and  O4_4 
ROOT
HETATM    1  C3  UNL     1     -34.172   5.702   5.081  1.00 20.00     0.216 C 
HETATM    2 CL6  UNL     1     -33.975   7.185   6.039  1.00 20.00    -0.096 Cl
ENDROOT
BRANCH   1   3
HETATM    3  C1  UNL     1     -34.715   5.990   3.685  1.00 20.00     0.079 C 
BRANCH   3   4
HETATM    4  C2  UNL     1     -33.654   5.986   2.599  1.00 20.00     0.226 C 
HETATM    5  F5  UNL     1     -33.100   4.745   2.544  1.00 20.00    -0.255 F 
ENDBRANCH   3   4
ENDBRANCH   1   3
BRANCH   1   6
HETATM    6  O4  UNL     1     -35.084   4.849   5.759  1.00 20.00    -0.380 OA
HETATM    7  H12 UNL     1     -35.971   5.221   5.618  1.00 20.00     0.211 HD
ENDBRANCH   1   6
TORSDOF 3
ENDMDL
MODEL 6
REMARK VINA RESULT:      -3.8      2.670      2.994
REMARK  3 active torsions:
REMARK  status: ('A' for Active; 'I' for Inactive)
REMARK    1  A    between atoms: C1_1  and  C2_2 
REMARK    2  A    between atoms: C1_1  and  C3_3 
REMARK    3  A    between atoms: C3_3  and  O4_4 
ROOT
HETATM    1  C3  UNL     1     -34.192   5.289   4.607  1.00 20.00     0.216 C 
HETATM    2 CL6  UNL     1     -34.289   6.483   5.919  1.00 20.00    -0.096 Cl
ENDROOT
BRANCH   1   3
HETATM    3  C1  UNL     1     -34.243   5.944   3.231  1.00 20.00     0.079 C 
BRANCH   3   4
HETATM    4  C2  UNL     1     -32.964   6.663   2.844  1.00 20.00     0.226 C 
HETATM    5  F5  UNL     1     -33.178   8.004   2.937  1.00 20.00    -0.255 F 
ENDBRANCH   3   4
ENDBRANCH   1   3
BRANCH   1   6
HETATM    6  O4  UNL     1     -35.292   4.398   4.731  1.00 20.00    -0.380 OA
HETATM    7  H12 UNL     1     -35.933   4.827   5.322  1.00 20.00     0.211 HD
ENDBRANCH   1   6
TORSDOF 3
ENDMDL
MODEL 7
REMARK VINA RESULT:      -3.7      2.795      3.202
REMARK  3 active torsions:
REMARK  status: ('A' for Active; 'I' for Inactive)
REMARK    1  A    between atoms: C1_1  and  C2_2 
REMARK    2  A    between atoms: C1_1  and  C3_3 
REMARK    3  A    between atoms: C3_3  and  O4_4 
ROOT
HETATM    1  C3  UNL     1     -34.406   6.018   4.015  1.00 20.00     0.216 C 
HETATM    2 CL6  UNL     1     -34.533   4.350   4.614  1.00 20.00    -0.096 Cl
ENDROOT
BRANCH   1   3
HETATM    3  C1  UNL     1     -33.322   6.164   2.952  1.00 20.00     0.079 C 
BRANCH   3   4
HETATM    4  C2  UNL     1     -32.837   7.589   2.759  1.00 20.00     0.226 C 
HETATM    5  F5  UNL     1     -31.602   7.703   3.321  1.00 20.00    -0.255 F 
ENDBRANCH   3   4
ENDBRANCH   1   3
BRANCH   1   6
HETATM    6  O4  UNL     1     -34.088   6.865   5.111  1.00 20.00    -0.380 OA
HETATM    7  H12 UNL     1     -33.179   7.177   4.967  1.00 20.00     0.211 HD
ENDBRANCH   1   6
TORSDOF 3
ENDMDL
MODEL 8
REMARK VINA RESULT:      -3.6      2.657      2.762
REMARK  3 active torsions:
REMARK  status: ('A' for Active; 'I' for Inactive)
REMARK    1  A    between atoms: C1_1  and  C2_2 
REMARK    2  A    between atoms: C1_1  and  C3_3 
REMARK    3  A    between atoms: C3_3  and  O4_4 
ROOT
HETATM    1  C3  UNL     1     -32.394   7.476   3.456  1.00 20.00     0.216 C 
HETATM    2 CL6  UNL     1     -32.619   8.353   1.927  1.00 20.00    -0.096 Cl
ENDROOT
BRANCH   1   3
HETATM    3  C1  UNL     1     -33.722   7.173   4.142  1.00 20.00     0.079 C 
BRANCH   3   4
HETATM    4  C2  UNL     1     -33.677   7.302   5.654  1.00 20.00     0.226 C 
HETATM    5  F5  UNL     1     -34.424   6.301   6.194  1.00 20.00    -0.255 F 
ENDBRANCH   3   4
ENDBRANCH   1   3
BRANCH   1   6
HETATM    6  O4  UNL     1     -31.606   8.281   4.322  1.00 20.00    -0.380 OA
HETATM    7  H12 UNL     1     -31.538   9.156   3.904  1.00 20.00     0.211 HD
ENDBRANCH   1   6
TORSDOF 3
ENDMDL
MODEL 9
REMARK VINA RESULT:      -3.6      2.617      2.643
REMARK  3 active torsions:
REMARK  status: ('A' for Active; 'I' for Inactive)
REMARK    1  A    between atoms: C1_1  and  C2_2 
REMARK    2  A    between atoms: C1_1  and  C3_3 
REMARK    3  A    between atoms: C3_3  and  O4_4 
ROOT
HETATM    1  C3  UNL     1     -33.055   6.476   3.341  1.00 20.00     0.216 C 
HETATM    2 CL6  UNL     1     -32.963   4.875   2.575  1.00 20.00    -0.096 Cl
ENDROOT
BRANCH   1   3
HETATM    3  C1  UNL     1     -34.360   6.671   4.106  1.00 20.00     0.079 C 
BRANCH   3   4
HETATM    4  C2  UNL     1     -34.273   6.298   5.575  1.00 20.00     0.226 C 
HETATM    5  F5  UNL     1     -33.945   7.412   6.284  1.00 20.00    -0.255 F 
ENDBRANCH   3   4
ENDBRANCH   1   3
BRANCH   1   6
HETATM    6  O4  UNL     1     -32.969   7.465   2.324  1.00 20.00    -0.380 OA
HETATM    7  H12 UNL     1     -32.100   7.356   1.902  1.00 20.00     0.211 HD
ENDBRANCH   1   6
TORSDOF 3
ENDMDL
