MODEL 1
REMARK VINA RESULT:      -5.8      0.000      0.000
REMARK  2 active torsions:
REMARK  status: ('A' for Active; 'I' for Inactive)
REMARK    1  A    between atoms: C6_6  and  N11_11 
REMARK    2  A    between atoms: C10_10  and  N11_11 
ROOT
HETATM    1  C1  UNL     1     -32.613  10.219   0.767  1.00 20.00     0.013 C 
HETATM    2  C2  UNL     1     -32.364   9.278   1.470  1.00 20.00    -0.087 C 
HETATM    3  C10 UNL     1     -32.053   8.131   2.327  1.00 20.00     0.362 C 
ENDROOT
BRANCH   3   4
HETATM    4  N11 UNL     1     -33.207   7.770   3.140  1.00 20.00     0.099 N 
HETATM    5  H28 UNL     1     -34.056   7.886   2.586  1.00 20.00     0.317 HD
BRANCH   4   6
HETATM    6  C6  UNL     1     -33.115   6.390   3.593  1.00 20.00     0.229 C 
HETATM    7  C4  UNL     1     -32.987   5.402   2.432  1.00 20.00     0.036 C 
HETATM    8  C3  UNL     1     -33.458   4.060   2.998  1.00 20.00     0.003 C 
HETATM    9  C5  UNL     1     -34.055   4.355   4.378  1.00 20.00     0.011 C 
HETATM   10  C7  UNL     1     -34.327   5.871   4.397  1.00 20.00    -0.017 C 
HETATM   11  C8  UNL     1     -34.347   6.418   5.828  1.00 20.00     0.017 C 
HETATM   12  C9  UNL     1     -35.682   6.177   3.729  1.00 20.00     0.017 C 
ENDBRANCH   4   6
ENDBRANCH   3   4
TORSDOF 2
ENDMDL
MODEL 2
REMARK VINA RESULT:      -5.8      1.131      2.311
REMARK  2 active torsions:
REMARK  status: ('A' for Active; 'I' for Inactive)
REMARK    1  A    between atoms: C6_6  and  N11_11 
REMARK    2  A    between atoms: C10_10  and  N11_11 
ROOT
HETATM    1  C1  UNL     1     -32.896   9.480  -0.084  1.00 20.00     0.013 C 
HETATM    2  C2  UNL     1     -32.509   9.301   1.038  1.00 20.00    -0.087 C 
HETATM    3  C10 UNL     1     -32.038   9.088   2.409  1.00 20.00     0.362 C 
ENDROOT
BRANCH   3   4
HETATM    4  N11 UNL     1     -32.087   7.673   2.756  1.00 20.00     0.099 N 
HETATM    5  H28 UNL     1     -31.304   7.452   3.371  1.00 20.00     0.317 HD
BRANCH   4   6
HETATM    6  C6  UNL     1     -33.335   7.345   3.429  1.00 20.00     0.229 C 
HETATM    7  C4  UNL     1     -33.159   7.191   4.941  1.00 20.00     0.036 C 
HETATM    8  C3  UNL     1     -34.344   6.334   5.393  1.00 20.00     0.003 C 
HETATM    9  C5  UNL     1     -35.030   5.831   4.118  1.00 20.00     0.011 C 
HETATM   10  C7  UNL     1     -33.999   6.022   2.990  1.00 20.00    -0.017 C 
HETATM   11  C8  UNL     1     -34.681   6.143   1.624  1.00 20.00     0.017 C 
HETATM   12  C9  UNL     1     -33.024   4.829   2.954  1.00 20.00     0.017 C 
ENDBRANCH   4   6
ENDBRANCH   3   4
TORSDOF 2
ENDMDL
MODEL 3
REMARK VINA RESULT:      -4.3     11.538     12.225
REMARK  2 active torsions:
REMARK  status: ('A' for Active; 'I' for Inactive)
REMARK    1  A    between atoms: C6_6  and  N11_11 
REMARK    2  A    between atoms: C10_10  and  N11_11 
ROOT
HETATM    1  C1  UNL     1     -33.320  18.274   3.634  1.00 20.00     0.013 C 
HETATM    2  C2  UNL     1     -32.782  18.592   2.610  1.00 20.00    -0.087 C 
HETATM    3  C10 UNL     1     -32.120  18.977   1.361  1.00 20.00     0.362 C 
ENDROOT
BRANCH   3   4
HETATM    4  N11 UNL     1     -33.104  19.263   0.325  1.00 20.00     0.099 N 
HETATM    5  H28 UNL     1     -32.681  19.869  -0.380  1.00 20.00     0.317 HD
BRANCH   4   6
HETATM    6  C6  UNL     1     -33.564  18.037  -0.309  1.00 20.00     0.229 C 
HETATM    7  C4  UNL     1     -32.975  17.845  -1.708  1.00 20.00     0.036 C 
HETATM    8  C3  UNL     1     -33.938  16.890  -2.417  1.00 20.00     0.003 C 
HETATM    9  C5  UNL     1     -35.160  16.745  -1.503  1.00 20.00     0.011 C 
HETATM   10  C7  UNL     1     -35.090  17.933  -0.526  1.00 20.00    -0.017 C 
HETATM   11  C8  UNL     1     -35.839  17.630   0.776  1.00 20.00     0.017 C 
HETATM   12  C9  UNL     1     -35.704  19.190  -1.172  1.00 20.00     0.017 C 
ENDBRANCH   4   6
ENDBRANCH   3   4
TORSDOF 2
ENDMDL
MODEL 4
REMARK VINA RESULT:      -4.2     11.237     12.518
REMARK  2 active torsions:
REMARK  status: ('A' for Active; 'I' for Inactive)
REMARK    1  A    between atoms: C6_6  and  N11_11 
REMARK    2  A    between atoms: C10_10  and  N11_11 
ROOT
HETATM    1  C1  UNL     1     -35.163  17.000  -1.349  1.00 20.00     0.013 C 
HETATM    2  C2  UNL     1     -34.511  16.667  -2.300  1.00 20.00    -0.087 C 
HETATM    3  C10 UNL     1     -33.710  16.257  -3.457  1.00 20.00     0.362 C 
ENDROOT
BRANCH   3   4
HETATM    4  N11 UNL     1     -34.485  16.376  -4.686  1.00 20.00     0.099 N 
HETATM    5  H28 UNL     1     -34.261  17.264  -5.137  1.00 20.00     0.317 HD
BRANCH   4   6
HETATM    6  C6  UNL     1     -34.184  15.284  -5.599  1.00 20.00     0.229 C 
HETATM    7  C4  UNL     1     -33.567  15.772  -6.911  1.00 20.00     0.036 C 
HETATM    8  C3  UNL     1     -33.835  14.651  -7.918  1.00 20.00     0.003 C 
HETATM    9  C5  UNL     1     -34.787  13.667  -7.231  1.00 20.00     0.011 C 
HETATM   10  C7  UNL     1     -35.397  14.438  -6.046  1.00 20.00    -0.017 C 
HETATM   11  C8  UNL     1     -35.874  13.486  -4.945  1.00 20.00     0.017 C 
HETATM   12  C9  UNL     1     -36.593  15.286  -6.522  1.00 20.00     0.017 C 
ENDBRANCH   4   6
ENDBRANCH   3   4
TORSDOF 2
ENDMDL
MODEL 5
REMARK VINA RESULT:      -4.2     11.525     12.367
REMARK  2 active torsions:
REMARK  status: ('A' for Active; 'I' for Inactive)
REMARK    1  A    between atoms: C6_6  and  N11_11 
REMARK    2  A    between atoms: C10_10  and  N11_11 
ROOT
HETATM    1  C1  UNL     1     -35.119  13.150  -7.379  1.00 20.00     0.013 C 
HETATM    2  C2  UNL     1     -35.646  13.471  -6.350  1.00 20.00    -0.087 C 
HETATM    3  C10 UNL     1     -36.290  13.858  -5.091  1.00 20.00     0.362 C 
ENDROOT
BRANCH   3   4
HETATM    4  N11 UNL     1     -36.152  15.291  -4.863  1.00 20.00     0.099 N 
HETATM    5  H28 UNL     1     -37.073  15.689  -4.675  1.00 20.00     0.317 HD
BRANCH   4   6
HETATM    6  C6  UNL     1     -35.275  15.557  -3.734  1.00 20.00     0.229 C 
HETATM    7  C4  UNL     1     -35.924  16.468  -2.690  1.00 20.00     0.036 C 
HETATM    8  C3  UNL     1     -34.756  17.082  -1.916  1.00 20.00     0.003 C 
HETATM    9  C5  UNL     1     -33.481  16.697  -2.673  1.00 20.00     0.011 C 
HETATM   10  C7  UNL     1     -33.946  16.266  -4.077  1.00 20.00    -0.017 C 
HETATM   11  C8  UNL     1     -32.938  15.317  -4.733  1.00 20.00     0.017 C 
HETATM   12  C9  UNL     1     -34.127  17.502  -4.980  1.00 20.00     0.017 C 
ENDBRANCH   4   6
ENDBRANCH   3   4
TORSDOF 2
ENDMDL
MODEL 6
REMARK VINA RESULT:      -4.2     11.393     12.291
REMARK  2 active torsions:
REMARK  status: ('A' for Active; 'I' for Inactive)
REMARK    1  A    between atoms: C6_6  and  N11_11 
REMARK    2  A    between atoms: C10_10  and  N11_11 
ROOT
HETATM    1  C1  UNL     1     -34.082  17.328  -1.132  1.00 20.00     0.013 C 
HETATM    2  C2  UNL     1     -34.872  16.984  -1.967  1.00 20.00    -0.087 C 
HETATM    3  C10 UNL     1     -35.840  16.563  -2.984  1.00 20.00     0.362 C 
ENDROOT
BRANCH   3   4
HETATM    4  N11 UNL     1     -35.356  16.888  -4.320  1.00 20.00     0.099 N 
HETATM    5  H28 UNL     1     -34.363  17.118  -4.269  1.00 20.00     0.317 HD
BRANCH   4   6
HETATM    6  C6  UNL     1     -35.545  15.769  -5.229  1.00 20.00     0.229 C 
HETATM    7  C4  UNL     1     -36.353  14.633  -4.598  1.00 20.00     0.036 C 
HETATM    8  C3  UNL     1     -35.988  13.388  -5.409  1.00 20.00     0.003 C 
HETATM    9  C5  UNL     1     -34.822  13.786  -6.320  1.00 20.00     0.011 C 
HETATM   10  C7  UNL     1     -34.250  15.082  -5.717  1.00 20.00    -0.017 C 
HETATM   11  C8  UNL     1     -33.518  15.915  -6.774  1.00 20.00     0.017 C 
HETATM   12  C9  UNL     1     -33.266  14.751  -4.578  1.00 20.00     0.017 C 
ENDBRANCH   4   6
ENDBRANCH   3   4
TORSDOF 2
ENDMDL
MODEL 7
REMARK VINA RESULT:      -4.2     11.353     12.486
REMARK  2 active torsions:
REMARK  status: ('A' for Active; 'I' for Inactive)
REMARK    1  A    between atoms: C6_6  and  N11_11 
REMARK    2  A    between atoms: C10_10  and  N11_11 
ROOT
HETATM    1  C1  UNL     1     -34.143  16.698  -2.537  1.00 20.00     0.013 C 
HETATM    2  C2  UNL     1     -33.691  15.919  -3.330  1.00 20.00    -0.087 C 
HETATM    3  C10 UNL     1     -33.133  14.970  -4.297  1.00 20.00     0.362 C 
ENDROOT
BRANCH   3   4
HETATM    4  N11 UNL     1     -34.148  14.014  -4.723  1.00 20.00     0.099 N 
HETATM    5  H28 UNL     1     -34.528  13.543  -3.901  1.00 20.00     0.317 HD
BRANCH   4   6
HETATM    6  C6  UNL     1     -35.225  14.681  -5.437  1.00 20.00     0.229 C 
HETATM    7  C4  UNL     1     -36.608  14.258  -4.937  1.00 20.00     0.036 C 
HETATM    8  C3  UNL     1     -37.562  14.574  -6.091  1.00 20.00     0.003 C 
HETATM    9  C5  UNL     1     -36.685  14.947  -7.291  1.00 20.00     0.011 C 
HETATM   10  C7  UNL     1     -35.278  14.418  -6.958  1.00 20.00    -0.017 C 
HETATM   11  C8  UNL     1     -34.195  15.192  -7.716  1.00 20.00     0.017 C 
HETATM   12  C9  UNL     1     -35.171  12.925  -7.325  1.00 20.00     0.017 C 
ENDBRANCH   4   6
ENDBRANCH   3   4
TORSDOF 2
ENDMDL
MODEL 8
REMARK VINA RESULT:      -4.1     11.106     12.051
REMARK  2 active torsions:
REMARK  status: ('A' for Active; 'I' for Inactive)
REMARK    1  A    between atoms: C6_6  and  N11_11 
REMARK    2  A    between atoms: C10_10  and  N11_11 
ROOT
HETATM    1  C1  UNL     1     -35.452  17.299  -0.354  1.00 20.00     0.013 C 
HETATM    2  C2  UNL     1     -34.553  17.224  -1.146  1.00 20.00    -0.087 C 
HETATM    3  C10 UNL     1     -33.452  17.131  -2.108  1.00 20.00     0.362 C 
ENDROOT
BRANCH   3   4
HETATM    4  N11 UNL     1     -33.966  17.009  -3.466  1.00 20.00     0.099 N 
HETATM    5  H28 UNL     1     -33.185  16.870  -4.108  1.00 20.00     0.317 HD
BRANCH   4   6
HETATM    6  C6  UNL     1     -34.883  15.885  -3.577  1.00 20.00     0.229 C 
HETATM    7  C4  UNL     1     -34.224  14.650  -4.193  1.00 20.00     0.036 C 
HETATM    8  C3  UNL     1     -35.381  13.813  -4.742  1.00 20.00     0.003 C 
HETATM    9  C5  UNL     1     -36.637  14.684  -4.637  1.00 20.00     0.011 C 
HETATM   10  C7  UNL     1     -36.127  16.126  -4.460  1.00 20.00    -0.017 C 
HETATM   11  C8  UNL     1     -37.170  17.006  -3.762  1.00 20.00     0.017 C 
HETATM   12  C9  UNL     1     -35.794  16.745  -5.832  1.00 20.00     0.017 C 
ENDBRANCH   4   6
ENDBRANCH   3   4
TORSDOF 2
ENDMDL
MODEL 9
REMARK VINA RESULT:      -4.0     11.063     12.577
REMARK  2 active torsions:
REMARK  status: ('A' for Active; 'I' for Inactive)
REMARK    1  A    between atoms: C6_6  and  N11_11 
REMARK    2  A    between atoms: C10_10  and  N11_11 
ROOT
HETATM    1  C1  UNL     1     -34.591  16.972  -1.465  1.00 20.00     0.013 C 
HETATM    2  C2  UNL     1     -34.140  17.145  -2.563  1.00 20.00    -0.087 C 
HETATM    3  C10 UNL     1     -33.587  17.363  -3.903  1.00 20.00     0.362 C 
ENDROOT
BRANCH   3   4
HETATM    4  N11 UNL     1     -33.441  16.096  -4.610  1.00 20.00     0.099 N 
HETATM    5  H28 UNL     1     -32.900  15.452  -4.033  1.00 20.00     0.317 HD
BRANCH   4   6
HETATM    6  C6  UNL     1     -34.740  15.509  -4.899  1.00 20.00     0.229 C 
HETATM    7  C4  UNL     1     -34.847  14.061  -4.416  1.00 20.00     0.036 C 
HETATM    8  C3  UNL     1     -35.970  13.444  -5.252  1.00 20.00     0.003 C 
HETATM    9  C5  UNL     1     -36.317  14.467  -6.339  1.00 20.00     0.011 C 
HETATM   10  C7  UNL     1     -35.119  15.434  -6.394  1.00 20.00    -0.017 C 
HETATM   11  C8  UNL     1     -35.529  16.800  -6.954  1.00 20.00     0.017 C 
HETATM   12  C9  UNL     1     -34.003  14.849  -7.281  1.00 20.00     0.017 C 
ENDBRANCH   4   6
ENDBRANCH   3   4
TORSDOF 2
ENDMDL
