MODEL 1
REMARK VINA RESULT:      -5.1      0.000      0.000
REMARK  1 active torsions:
REMARK  status: ('A' for Active; 'I' for Inactive)
REMARK    1  A    between atoms: C1_1  and  C4_4 
ROOT
HETATM    1  C1  UNL     1     -32.487   8.047   3.038  1.00 20.00    -0.079 C 
HETATM    2  C2  UNL     1     -32.107   8.448   1.972  1.00 20.00    -0.106 C 
HETATM    3  C7  UNL     1     -31.645   8.937   0.674  1.00 20.00     0.112 C 
ENDROOT
BRANCH   1   4
HETATM    4  C4  UNL     1     -32.939   7.574   4.302  1.00 20.00     0.070 C 
HETATM    5  C3  UNL     1     -33.781   6.550   4.412  1.00 20.00    -0.017 C 
HETATM    6  C5  UNL     1     -34.429   5.830   5.562  1.00 20.00     0.306 C 
HETATM    7  C6  UNL     1     -34.469   5.635   3.436  1.00 20.00     0.306 C 
HETATM    8  N8  UNL     1     -35.321   5.225   4.563  1.00 20.00     0.091 N 
HETATM    9  H17 UNL     1     -35.453   4.219   4.658  1.00 20.00     0.316 HD
ENDBRANCH   1   4
TORSDOF 1
ENDMDL
MODEL 2
REMARK VINA RESULT:      -4.6      2.735      4.827
REMARK  1 active torsions:
REMARK  status: ('A' for Active; 'I' for Inactive)
REMARK    1  A    between atoms: C1_1  and  C4_4 
ROOT
HETATM    1  C1  UNL     1     -32.805   7.407   3.630  1.00 20.00    -0.079 C 
HETATM    2  C2  UNL     1     -33.326   7.297   4.706  1.00 20.00    -0.106 C 
HETATM    3  C7  UNL     1     -33.962   7.164   6.016  1.00 20.00     0.112 C 
ENDROOT
BRANCH   1   4
HETATM    4  C4  UNL     1     -32.184   7.535   2.356  1.00 20.00     0.070 C 
HETATM    5  C3  UNL     1     -32.245   8.662   1.652  1.00 20.00    -0.017 C 
HETATM    6  C5  UNL     1     -31.714   9.107   0.317  1.00 20.00     0.306 C 
HETATM    7  C6  UNL     1     -32.867  10.014   1.868  1.00 20.00     0.306 C 
HETATM    8  N8  UNL     1     -32.628  10.251   0.436  1.00 20.00     0.091 N 
HETATM    9  H17 UNL     1     -32.216  11.156   0.214  1.00 20.00     0.316 HD
ENDBRANCH   1   4
TORSDOF 1
ENDMDL
MODEL 3
REMARK VINA RESULT:      -4.3     11.166     11.536
REMARK  1 active torsions:
REMARK  status: ('A' for Active; 'I' for Inactive)
REMARK    1  A    between atoms: C1_1  and  C4_4 
ROOT
HETATM    1  C1  UNL     1     -34.062  16.783  -2.304  1.00 20.00    -0.079 C 
HETATM    2  C2  UNL     1     -33.338  17.501  -1.670  1.00 20.00    -0.106 C 
HETATM    3  C7  UNL     1     -32.457  18.375  -0.897  1.00 20.00     0.112 C 
ENDROOT
BRANCH   1   4
HETATM    4  C4  UNL     1     -34.922  15.934  -3.056  1.00 20.00     0.070 C 
HETATM    5  C3  UNL     1     -34.450  15.039  -3.920  1.00 20.00    -0.017 C 
HETATM    6  C5  UNL     1     -35.072  14.025  -4.839  1.00 20.00     0.306 C 
HETATM    7  C6  UNL     1     -33.077  14.624  -4.371  1.00 20.00     0.306 C 
HETATM    8  N8  UNL     1     -33.752  13.927  -5.477  1.00 20.00     0.091 N 
HETATM    9  H17 UNL     1     -33.426  12.976  -5.647  1.00 20.00     0.316 HD
ENDBRANCH   1   4
TORSDOF 1
ENDMDL
MODEL 4
REMARK VINA RESULT:      -4.2      2.289      4.642
REMARK  1 active torsions:
REMARK  status: ('A' for Active; 'I' for Inactive)
REMARK    1  A    between atoms: C1_1  and  C4_4 
ROOT
HETATM    1  C1  UNL     1     -34.047   6.000   3.679  1.00 20.00    -0.079 C 
HETATM    2  C2  UNL     1     -34.371   5.437   4.689  1.00 20.00    -0.106 C 
HETATM    3  C7  UNL     1     -34.765   4.751   5.919  1.00 20.00     0.112 C 
ENDROOT
BRANCH   1   4
HETATM    4  C4  UNL     1     -33.662   6.670   2.484  1.00 20.00     0.070 C 
HETATM    5  C3  UNL     1     -32.692   7.581   2.467  1.00 20.00    -0.017 C 
HETATM    6  C5  UNL     1     -32.066   8.442   1.405  1.00 20.00     0.306 C 
HETATM    7  C6  UNL     1     -31.769   8.165   3.501  1.00 20.00     0.306 C 
HETATM    8  N8  UNL     1     -31.462   9.204   2.507  1.00 20.00     0.091 N 
HETATM    9  H17 UNL     1     -30.471   9.411   2.394  1.00 20.00     0.316 HD
ENDBRANCH   1   4
TORSDOF 1
ENDMDL
MODEL 5
REMARK VINA RESULT:      -3.9     10.936     11.759
REMARK  1 active torsions:
REMARK  status: ('A' for Active; 'I' for Inactive)
REMARK    1  A    between atoms: C1_1  and  C4_4 
ROOT
HETATM    1  C1  UNL     1     -34.256  17.040  -2.031  1.00 20.00    -0.079 C 
HETATM    2  C2  UNL     1     -34.910  17.169  -1.032  1.00 20.00    -0.106 C 
HETATM    3  C7  UNL     1     -35.705  17.326   0.185  1.00 20.00     0.112 C 
ENDROOT
BRANCH   1   4
HETATM    4  C4  UNL     1     -33.483  16.884  -3.215  1.00 20.00     0.070 C 
HETATM    5  C3  UNL     1     -33.593  15.810  -3.994  1.00 20.00    -0.017 C 
HETATM    6  C5  UNL     1     -32.941  15.356  -5.270  1.00 20.00     0.306 C 
HETATM    7  C6  UNL     1     -34.426  14.558  -3.960  1.00 20.00     0.306 C 
HETATM    8  N8  UNL     1     -33.511  14.032  -4.984  1.00 20.00     0.091 N 
HETATM    9  H17 UNL     1     -33.966  13.580  -5.775  1.00 20.00     0.316 HD
ENDBRANCH   1   4
TORSDOF 1
ENDMDL
MODEL 6
REMARK VINA RESULT:      -3.8     11.259     11.689
REMARK  1 active torsions:
REMARK  status: ('A' for Active; 'I' for Inactive)
REMARK    1  A    between atoms: C1_1  and  C4_4 
ROOT
HETATM    1  C1  UNL     1     -34.363  16.160  -3.028  1.00 20.00    -0.079 C 
HETATM    2  C2  UNL     1     -34.792  16.613  -2.003  1.00 20.00    -0.106 C 
HETATM    3  C7  UNL     1     -35.315  17.164  -0.753  1.00 20.00     0.112 C 
ENDROOT
BRANCH   1   4
HETATM    4  C4  UNL     1     -33.854  15.626  -4.245  1.00 20.00     0.070 C 
HETATM    5  C3  UNL     1     -34.536  14.740  -4.967  1.00 20.00    -0.017 C 
HETATM    6  C5  UNL     1     -34.286  14.007  -6.256  1.00 20.00     0.306 C 
HETATM    7  C6  UNL     1     -35.875  14.068  -4.829  1.00 20.00     0.306 C 
HETATM    8  N8  UNL     1     -35.415  13.145  -5.878  1.00 20.00     0.091 N 
HETATM    9  H17 UNL     1     -36.090  12.969  -6.622  1.00 20.00     0.316 HD
ENDBRANCH   1   4
TORSDOF 1
ENDMDL
MODEL 7
REMARK VINA RESULT:      -3.6      9.287     10.708
REMARK  1 active torsions:
REMARK  status: ('A' for Active; 'I' for Inactive)
REMARK    1  A    between atoms: C1_1  and  C4_4 
ROOT
HETATM    1  C1  UNL     1     -42.766   4.031  -2.192  1.00 20.00    -0.079 C 
HETATM    2  C2  UNL     1     -42.408   3.192  -2.972  1.00 20.00    -0.106 C 
HETATM    3  C7  UNL     1     -41.972   2.170  -3.923  1.00 20.00     0.112 C 
ENDROOT
BRANCH   1   4
HETATM    4  C4  UNL     1     -43.187   5.026  -1.266  1.00 20.00     0.070 C 
HETATM    5  C3  UNL     1     -42.319   5.747  -0.561  1.00 20.00    -0.017 C 
HETATM    6  C5  UNL     1     -42.437   6.839   0.466  1.00 20.00     0.306 C 
HETATM    7  C6  UNL     1     -40.819   5.809  -0.473  1.00 20.00     0.306 C 
HETATM    8  N8  UNL     1     -41.016   6.597   0.753  1.00 20.00     0.091 N 
HETATM    9  H17 UNL     1     -40.442   7.436   0.821  1.00 20.00     0.316 HD
ENDBRANCH   1   4
TORSDOF 1
ENDMDL
MODEL 8
REMARK VINA RESULT:      -3.6     11.173     11.640
REMARK  1 active torsions:
REMARK  status: ('A' for Active; 'I' for Inactive)
REMARK    1  A    between atoms: C1_1  and  C4_4 
ROOT
HETATM    1  C1  UNL     1     -33.982  15.872  -3.216  1.00 20.00    -0.079 C 
HETATM    2  C2  UNL     1     -33.649  16.789  -2.516  1.00 20.00    -0.106 C 
HETATM    3  C7  UNL     1     -33.245  17.906  -1.663  1.00 20.00     0.112 C 
ENDROOT
BRANCH   1   4
HETATM    4  C4  UNL     1     -34.372  14.785  -4.047  1.00 20.00     0.070 C 
HETATM    5  C3  UNL     1     -35.610  14.670  -4.523  1.00 20.00    -0.017 C 
HETATM    6  C5  UNL     1     -36.320  13.674  -5.398  1.00 20.00     0.306 C 
HETATM    7  C6  UNL     1     -36.868  15.487  -4.412  1.00 20.00     0.306 C 
HETATM    8  N8  UNL     1     -37.568  14.314  -4.960  1.00 20.00     0.091 N 
HETATM    9  H17 UNL     1     -38.230  14.520  -5.706  1.00 20.00     0.316 HD
ENDBRANCH   1   4
TORSDOF 1
ENDMDL
MODEL 9
REMARK VINA RESULT:      -3.5     11.574     11.882
REMARK  1 active torsions:
REMARK  status: ('A' for Active; 'I' for Inactive)
REMARK    1  A    between atoms: C1_1  and  C4_4 
ROOT
HETATM    1  C1  UNL     1     -34.084  16.426  -2.735  1.00 20.00    -0.079 C 
HETATM    2  C2  UNL     1     -33.631  15.966  -3.747  1.00 20.00    -0.106 C 
HETATM    3  C7  UNL     1     -33.079  15.405  -4.979  1.00 20.00     0.112 C 
ENDROOT
BRANCH   1   4
HETATM    4  C4  UNL     1     -34.624  16.972  -1.537  1.00 20.00     0.070 C 
HETATM    5  C3  UNL     1     -33.927  17.800  -0.762  1.00 20.00    -0.017 C 
HETATM    6  C5  UNL     1     -34.200  18.526   0.527  1.00 20.00     0.306 C 
HETATM    7  C6  UNL     1     -32.548  18.397  -0.821  1.00 20.00     0.306 C 
HETATM    8  N8  UNL     1     -32.753  18.778   0.585  1.00 20.00     0.091 N 
HETATM    9  H17 UNL     1     -32.492  19.736   0.813  1.00 20.00     0.316 HD
ENDBRANCH   1   4
TORSDOF 1
ENDMDL
