MODEL 1
REMARK VINA RESULT:      -4.9      0.000      0.000
REMARK  3 active torsions:
REMARK  status: ('A' for Active; 'I' for Inactive)
REMARK    1  A    between atoms: C1_1  and  C6_6 
REMARK    2  A    between atoms: C2_2  and  C7_7 
REMARK    3  A    between atoms: C5_5  and  C6_6 
ROOT
HETATM    1  C3  UNL     1     -34.483   5.443   3.778  1.00 20.00     0.124 A 
HETATM    2  C4  UNL     1     -34.796   5.810   5.070  1.00 20.00     0.070 A 
HETATM    3  C5  UNL     1     -32.972   7.009   4.051  1.00 20.00     0.085 A 
HETATM    4  N8  UNL     1     -33.437   6.130   3.192  1.00 20.00    -0.257 NA
HETATM    5  S9  UNL     1     -33.744   7.063   5.583  1.00 20.00    -0.084 SA
ENDROOT
BRANCH   3   6
HETATM    6  C6  UNL     1     -31.826   7.947   3.774  1.00 20.00     0.161 C 
BRANCH   6   7
HETATM    7  C1  UNL     1     -32.060   8.760   2.575  1.00 20.00    -0.099 C 
HETATM    8  C2  UNL     1     -32.253   9.422   1.591  1.00 20.00    -0.091 C 
BRANCH   8   9
HETATM    9  C7  UNL     1     -32.487  10.227   0.394  1.00 20.00     0.208 C 
HETATM   10 CL10 UNL     1     -33.262   9.211  -0.837  1.00 20.00    -0.117 Cl
ENDBRANCH   8   9
ENDBRANCH   6   7
ENDBRANCH   3   6
TORSDOF 3
ENDMDL
MODEL 2
REMARK VINA RESULT:      -4.9      1.199      1.330
REMARK  3 active torsions:
REMARK  status: ('A' for Active; 'I' for Inactive)
REMARK    1  A    between atoms: C1_1  and  C6_6 
REMARK    2  A    between atoms: C2_2  and  C7_7 
REMARK    3  A    between atoms: C5_5  and  C6_6 
ROOT
HETATM    1  C3  UNL     1     -34.493   6.359   5.534  1.00 20.00     0.124 A 
HETATM    2  C4  UNL     1     -34.824   5.687   4.376  1.00 20.00     0.070 A 
HETATM    3  C5  UNL     1     -32.920   7.155   4.229  1.00 20.00     0.085 A 
HETATM    4  N8  UNL     1     -33.401   7.201   5.451  1.00 20.00    -0.257 NA
HETATM    5  S9  UNL     1     -33.733   6.120   3.126  1.00 20.00    -0.084 SA
ENDROOT
BRANCH   3   6
HETATM    6  C6  UNL     1     -31.727   7.941   3.752  1.00 20.00     0.161 C 
BRANCH   6   7
HETATM    7  C1  UNL     1     -32.042   8.752   2.569  1.00 20.00    -0.099 C 
HETATM    8  C2  UNL     1     -32.303   9.416   1.603  1.00 20.00    -0.091 C 
BRANCH   8   9
HETATM    9  C7  UNL     1     -32.622  10.224   0.428  1.00 20.00     0.208 C 
HETATM   10 CL10 UNL     1     -33.182   9.151  -0.871  1.00 20.00    -0.117 Cl
ENDBRANCH   8   9
ENDBRANCH   6   7
ENDBRANCH   3   6
TORSDOF 3
ENDMDL
MODEL 3
REMARK VINA RESULT:      -4.6      1.427      1.655
REMARK  3 active torsions:
REMARK  status: ('A' for Active; 'I' for Inactive)
REMARK    1  A    between atoms: C1_1  and  C6_6 
REMARK    2  A    between atoms: C2_2  and  C7_7 
REMARK    3  A    between atoms: C5_5  and  C6_6 
ROOT
HETATM    1  C3  UNL     1     -34.045   6.993   6.042  1.00 20.00     0.124 A 
HETATM    2  C4  UNL     1     -34.809   5.849   5.944  1.00 20.00     0.070 A 
HETATM    3  C5  UNL     1     -33.410   6.342   4.045  1.00 20.00     0.085 A 
HETATM    4  N8  UNL     1     -33.242   7.277   4.953  1.00 20.00    -0.257 NA
HETATM    5  S9  UNL     1     -34.520   5.091   4.433  1.00 20.00    -0.084 SA
ENDROOT
BRANCH   3   6
HETATM    6  C6  UNL     1     -32.704   6.309   2.715  1.00 20.00     0.161 C 
BRANCH   6   7
HETATM    7  C1  UNL     1     -32.616   7.642   2.107  1.00 20.00    -0.099 C 
HETATM    8  C2  UNL     1     -32.544   8.730   1.604  1.00 20.00    -0.091 C 
BRANCH   8   9
HETATM    9  C7  UNL     1     -32.455  10.054   0.993  1.00 20.00     0.208 C 
HETATM   10 CL10 UNL     1     -33.252  10.009  -0.592  1.00 20.00    -0.117 Cl
ENDBRANCH   8   9
ENDBRANCH   6   7
ENDBRANCH   3   6
TORSDOF 3
ENDMDL
MODEL 4
REMARK VINA RESULT:      -4.0     10.744     10.947
REMARK  3 active torsions:
REMARK  status: ('A' for Active; 'I' for Inactive)
REMARK    1  A    between atoms: C1_1  and  C6_6 
REMARK    2  A    between atoms: C2_2  and  C7_7 
REMARK    3  A    between atoms: C5_5  and  C6_6 
ROOT
HETATM    1  C3  UNL     1     -35.918  13.271  -5.290  1.00 20.00     0.124 A 
HETATM    2  C4  UNL     1     -37.016  14.106  -5.282  1.00 20.00     0.070 A 
HETATM    3  C5  UNL     1     -35.043  14.955  -4.191  1.00 20.00     0.085 A 
HETATM    4  N8  UNL     1     -34.786  13.757  -4.664  1.00 20.00    -0.257 NA
HETATM    5  S9  UNL     1     -36.627  15.560  -4.460  1.00 20.00    -0.084 SA
ENDROOT
BRANCH   3   6
HETATM    6  C6  UNL     1     -34.051  15.807  -3.442  1.00 20.00     0.161 C 
BRANCH   6   7
HETATM    7  C1  UNL     1     -34.657  16.451  -2.271  1.00 20.00    -0.099 C 
HETATM    8  C2  UNL     1     -35.156  16.977  -1.313  1.00 20.00    -0.091 C 
BRANCH   8   9
HETATM    9  C7  UNL     1     -35.764  17.617  -0.149  1.00 20.00     0.208 C 
HETATM   10 CL10 UNL     1     -34.476  18.211   0.918  1.00 20.00    -0.117 Cl
ENDBRANCH   8   9
ENDBRANCH   6   7
ENDBRANCH   3   6
TORSDOF 3
ENDMDL
MODEL 5
REMARK VINA RESULT:      -4.0      3.123      4.974
REMARK  3 active torsions:
REMARK  status: ('A' for Active; 'I' for Inactive)
REMARK    1  A    between atoms: C1_1  and  C6_6 
REMARK    2  A    between atoms: C2_2  and  C7_7 
REMARK    3  A    between atoms: C5_5  and  C6_6 
ROOT
HETATM    1  C3  UNL     1     -32.213   8.921  -0.345  1.00 20.00     0.124 A 
HETATM    2  C4  UNL     1     -32.847  10.106  -0.038  1.00 20.00     0.070 A 
HETATM    3  C5  UNL     1     -32.077   8.811   1.842  1.00 20.00     0.085 A 
HETATM    4  N8  UNL     1     -31.771   8.177   0.732  1.00 20.00    -0.257 NA
HETATM    5  S9  UNL     1     -32.899  10.307   1.664  1.00 20.00    -0.084 SA
ENDROOT
BRANCH   3   6
HETATM    6  C6  UNL     1     -31.758   8.310   3.226  1.00 20.00     0.161 C 
BRANCH   6   7
HETATM    7  C1  UNL     1     -32.815   7.436   3.750  1.00 20.00    -0.099 C 
HETATM    8  C2  UNL     1     -33.679   6.722   4.183  1.00 20.00    -0.091 C 
BRANCH   8   9
HETATM    9  C7  UNL     1     -34.728   5.854   4.711  1.00 20.00     0.208 C 
HETATM   10 CL10 UNL     1     -34.320   4.168   4.337  1.00 20.00    -0.117 Cl
ENDBRANCH   8   9
ENDBRANCH   6   7
ENDBRANCH   3   6
TORSDOF 3
ENDMDL
MODEL 6
REMARK VINA RESULT:      -3.9     10.931     11.217
REMARK  3 active torsions:
REMARK  status: ('A' for Active; 'I' for Inactive)
REMARK    1  A    between atoms: C1_1  and  C6_6 
REMARK    2  A    between atoms: C2_2  and  C7_7 
REMARK    3  A    between atoms: C5_5  and  C6_6 
ROOT
HETATM    1  C3  UNL     1     -35.916  13.264  -5.632  1.00 20.00     0.124 A 
HETATM    2  C4  UNL     1     -35.650  13.830  -6.862  1.00 20.00     0.070 A 
HETATM    3  C5  UNL     1     -34.313  14.632  -5.024  1.00 20.00     0.085 A 
HETATM    4  N8  UNL     1     -35.150  13.723  -4.578  1.00 20.00    -0.257 NA
HETATM    5  S9  UNL     1     -34.393  14.987  -6.702  1.00 20.00    -0.084 SA
ENDROOT
BRANCH   3   6
HETATM    6  C6  UNL     1     -33.314  15.365  -4.168  1.00 20.00     0.161 C 
BRANCH   6   7
HETATM    7  C1  UNL     1     -33.961  16.082  -3.062  1.00 20.00    -0.099 C 
HETATM    8  C2  UNL     1     -34.492  16.664  -2.155  1.00 20.00    -0.091 C 
BRANCH   8   9
HETATM    9  C7  UNL     1     -35.139  17.372  -1.053  1.00 20.00     0.208 C 
HETATM   10 CL10 UNL     1     -33.890  18.139  -0.052  1.00 20.00    -0.117 Cl
ENDBRANCH   8   9
ENDBRANCH   6   7
ENDBRANCH   3   6
TORSDOF 3
ENDMDL
MODEL 7
REMARK VINA RESULT:      -3.8     10.974     11.325
REMARK  3 active torsions:
REMARK  status: ('A' for Active; 'I' for Inactive)
REMARK    1  A    between atoms: C1_1  and  C6_6 
REMARK    2  A    between atoms: C2_2  and  C7_7 
REMARK    3  A    between atoms: C5_5  and  C6_6 
ROOT
HETATM    1  C3  UNL     1     -33.650  14.493  -4.964  1.00 20.00     0.124 A 
HETATM    2  C4  UNL     1     -33.056  15.673  -5.362  1.00 20.00     0.070 A 
HETATM    3  C5  UNL     1     -34.629  15.848  -3.545  1.00 20.00     0.085 A 
HETATM    4  N8  UNL     1     -34.552  14.592  -3.923  1.00 20.00    -0.257 NA
HETATM    5  S9  UNL     1     -33.645  16.965  -4.401  1.00 20.00    -0.084 SA
ENDROOT
BRANCH   3   6
HETATM    6  C6  UNL     1     -35.511  16.352  -2.433  1.00 20.00     0.161 C 
BRANCH   6   7
HETATM    7  C1  UNL     1     -34.759  17.140  -1.449  1.00 20.00    -0.099 C 
HETATM    8  C2  UNL     1     -34.141  17.786  -0.647  1.00 20.00    -0.091 C 
BRANCH   8   9
HETATM    9  C7  UNL     1     -33.388  18.572   0.327  1.00 20.00     0.208 C 
HETATM   10 CL10 UNL     1     -31.661  18.479  -0.071  1.00 20.00    -0.117 Cl
ENDBRANCH   8   9
ENDBRANCH   6   7
ENDBRANCH   3   6
TORSDOF 3
ENDMDL
MODEL 8
REMARK VINA RESULT:      -3.8     10.737     11.800
REMARK  3 active torsions:
REMARK  status: ('A' for Active; 'I' for Inactive)
REMARK    1  A    between atoms: C1_1  and  C6_6 
REMARK    2  A    between atoms: C2_2  and  C7_7 
REMARK    3  A    between atoms: C5_5  and  C6_6 
ROOT
HETATM    1  C3  UNL     1     -34.401  13.954  -7.714  1.00 20.00     0.124 A 
HETATM    2  C4  UNL     1     -34.011  15.261  -7.917  1.00 20.00     0.070 A 
HETATM    3  C5  UNL     1     -33.950  14.490  -5.636  1.00 20.00     0.085 A 
HETATM    4  N8  UNL     1     -34.367  13.510  -6.406  1.00 20.00    -0.257 NA
HETATM    5  S9  UNL     1     -33.583  15.974  -6.417  1.00 20.00    -0.084 SA
ENDROOT
BRANCH   3   6
HETATM    6  C6  UNL     1     -33.782  14.387  -4.142  1.00 20.00     0.161 C 
BRANCH   6   7
HETATM    7  C1  UNL     1     -34.553  15.415  -3.432  1.00 20.00    -0.099 C 
HETATM    8  C2  UNL     1     -35.180  16.257  -2.849  1.00 20.00    -0.091 C 
BRANCH   8   9
HETATM    9  C7  UNL     1     -35.943  17.281  -2.138  1.00 20.00     0.208 C 
HETATM   10 CL10 UNL     1     -35.471  17.264  -0.427  1.00 20.00    -0.117 Cl
ENDBRANCH   8   9
ENDBRANCH   6   7
ENDBRANCH   3   6
TORSDOF 3
ENDMDL
MODEL 9
REMARK VINA RESULT:      -3.8     10.992     11.471
REMARK  3 active torsions:
REMARK  status: ('A' for Active; 'I' for Inactive)
REMARK    1  A    between atoms: C1_1  and  C6_6 
REMARK    2  A    between atoms: C2_2  and  C7_7 
REMARK    3  A    between atoms: C5_5  and  C6_6 
ROOT
HETATM    1  C3  UNL     1     -33.275  15.728  -5.728  1.00 20.00     0.124 A 
HETATM    2  C4  UNL     1     -33.986  14.556  -5.876  1.00 20.00     0.070 A 
HETATM    3  C5  UNL     1     -34.426  15.804  -3.862  1.00 20.00     0.085 A 
HETATM    4  N8  UNL     1     -33.526  16.445  -4.574  1.00 20.00    -0.257 NA
HETATM    5  S9  UNL     1     -35.012  14.330  -4.520  1.00 20.00    -0.084 SA
ENDROOT
BRANCH   3   6
HETATM    6  C6  UNL     1     -34.956  16.275  -2.534  1.00 20.00     0.161 C 
BRANCH   6   7
HETATM    7  C1  UNL     1     -33.980  17.104  -1.816  1.00 20.00    -0.099 C 
HETATM    8  C2  UNL     1     -33.184  17.782  -1.225  1.00 20.00    -0.091 C 
BRANCH   8   9
HETATM    9  C7  UNL     1     -32.217  18.609  -0.507  1.00 20.00     0.208 C 
HETATM   10 CL10 UNL     1     -32.702  18.710   1.198  1.00 20.00    -0.117 Cl
ENDBRANCH   8   9
ENDBRANCH   6   7
ENDBRANCH   3   6
TORSDOF 3
ENDMDL
