MODEL 1
REMARK VINA RESULT:      -4.6      0.000      0.000
REMARK  0 active torsions:
REMARK  status: ('A' for Active; 'I' for Inactive)
ROOT
HETATM    1  C1  UNL     1     -32.855   7.711   4.244  1.00 20.00     0.021 C 
HETATM    2  C2  UNL     1     -33.638   6.803   4.849  1.00 20.00     0.001 C 
HETATM    3  C3  UNL     1     -33.080   6.664   2.068  1.00 20.00     0.003 C 
HETATM    4  C4  UNL     1     -32.705   7.719   2.807  1.00 20.00     0.030 C 
HETATM    5  C5  UNL     1     -33.670   5.415   2.702  1.00 20.00     0.033 C 
HETATM    6  C6  UNL     1     -34.392   5.752   4.055  1.00 20.00     0.058 C 
HETATM    7  C7  UNL     1     -32.532   4.387   2.809  1.00 20.00     0.016 C 
HETATM    8  C8  UNL     1     -35.811   6.284   3.784  1.00 20.00     0.037 C 
HETATM    9 CL9  UNL     1     -31.987   9.104   2.073  1.00 20.00    -0.085 Cl
HETATM   10 CL10 UNL     1     -34.578   4.286   5.088  1.00 20.00    -0.115 Cl
ENDROOT
TORSDOF 0
ENDMDL
MODEL 2
REMARK VINA RESULT:      -4.0     11.444     12.751
REMARK  0 active torsions:
REMARK  status: ('A' for Active; 'I' for Inactive)
ROOT
HETATM    1  C1  UNL     1     -36.062  15.911  -3.570  1.00 20.00     0.021 C 
HETATM    2  C2  UNL     1     -35.872  15.751  -4.890  1.00 20.00     0.001 C 
HETATM    3  C3  UNL     1     -33.713  16.339  -3.140  1.00 20.00     0.003 C 
HETATM    4  C4  UNL     1     -34.987  16.361  -2.717  1.00 20.00     0.030 C 
HETATM    5  C5  UNL     1     -33.342  15.837  -4.525  1.00 20.00     0.033 C 
HETATM    6  C6  UNL     1     -34.528  16.033  -5.537  1.00 20.00     0.058 C 
HETATM    7  C7  UNL     1     -32.858  14.387  -4.362  1.00 20.00     0.016 C 
HETATM    8  C8  UNL     1     -34.545  17.479  -6.065  1.00 20.00     0.037 C 
HETATM    9 CL9  UNL     1     -35.380  16.883  -1.121  1.00 20.00    -0.085 Cl
HETATM   10 CL10 UNL     1     -34.355  14.959  -6.974  1.00 20.00    -0.115 Cl
ENDROOT
TORSDOF 0
ENDMDL
MODEL 3
REMARK VINA RESULT:      -3.9     11.256     12.771
REMARK  0 active torsions:
REMARK  status: ('A' for Active; 'I' for Inactive)
ROOT
HETATM    1  C1  UNL     1     -35.588  14.002  -5.302  1.00 20.00     0.021 C 
HETATM    2  C2  UNL     1     -34.957  14.473  -4.215  1.00 20.00     0.001 C 
HETATM    3  C3  UNL     1     -34.033  15.056  -6.837  1.00 20.00     0.003 C 
HETATM    4  C4  UNL     1     -35.022  14.175  -6.620  1.00 20.00     0.030 C 
HETATM    5  C5  UNL     1     -33.468  15.912  -5.715  1.00 20.00     0.033 C 
HETATM    6  C6  UNL     1     -33.631  15.204  -4.323  1.00 20.00     0.058 C 
HETATM    7  C7  UNL     1     -34.136  17.293  -5.826  1.00 20.00     0.016 C 
HETATM    8  C8  UNL     1     -32.501  14.180  -4.110  1.00 20.00     0.037 C 
HETATM    9 CL9  UNL     1     -35.686  13.253  -7.917  1.00 20.00    -0.085 Cl
HETATM   10 CL10 UNL     1     -33.523  16.384  -2.965  1.00 20.00    -0.115 Cl
ENDROOT
TORSDOF 0
ENDMDL
MODEL 4
REMARK VINA RESULT:      -3.9     11.291     12.648
REMARK  0 active torsions:
REMARK  status: ('A' for Active; 'I' for Inactive)
ROOT
HETATM    1  C1  UNL     1     -33.794  16.527  -2.621  1.00 20.00     0.021 C 
HETATM    2  C2  UNL     1     -33.526  15.943  -3.801  1.00 20.00     0.001 C 
HETATM    3  C3  UNL     1     -36.183  16.600  -3.040  1.00 20.00     0.003 C 
HETATM    4  C4  UNL     1     -35.157  16.713  -2.181  1.00 20.00     0.030 C 
HETATM    5  C5  UNL     1     -35.960  16.279  -4.509  1.00 20.00     0.033 C 
HETATM    6  C6  UNL     1     -34.635  15.460  -4.716  1.00 20.00     0.058 C 
HETATM    7  C7  UNL     1     -36.030  17.610  -5.274  1.00 20.00     0.016 C 
HETATM    8  C8  UNL     1     -34.880  13.968  -4.427  1.00 20.00     0.037 C 
HETATM    9 CL9  UNL     1     -35.428  17.132  -0.531  1.00 20.00    -0.085 Cl
HETATM   10 CL10 UNL     1     -34.052  15.569  -6.419  1.00 20.00    -0.115 Cl
ENDROOT
TORSDOF 0
ENDMDL
MODEL 5
REMARK VINA RESULT:      -3.9     11.535     12.680
REMARK  0 active torsions:
REMARK  status: ('A' for Active; 'I' for Inactive)
ROOT
HETATM    1  C1  UNL     1     -33.692  15.177  -3.707  1.00 20.00     0.021 C 
HETATM    2  C2  UNL     1     -33.717  14.424  -4.818  1.00 20.00     0.001 C 
HETATM    3  C3  UNL     1     -35.683  16.415  -4.331  1.00 20.00     0.003 C 
HETATM    4  C4  UNL     1     -34.781  16.075  -3.397  1.00 20.00     0.030 C 
HETATM    5  C5  UNL     1     -35.601  15.880  -5.751  1.00 20.00     0.033 C 
HETATM    6  C6  UNL     1     -34.880  14.485  -5.791  1.00 20.00     0.058 C 
HETATM    7  C7  UNL     1     -34.945  16.977  -6.606  1.00 20.00     0.016 C 
HETATM    8  C8  UNL     1     -35.870  13.363  -5.426  1.00 20.00     0.037 C 
HETATM    9 CL9  UNL     1     -34.861  16.737  -1.807  1.00 20.00    -0.085 Cl
HETATM   10 CL10 UNL     1     -34.259  14.110  -7.441  1.00 20.00    -0.115 Cl
ENDROOT
TORSDOF 0
ENDMDL
MODEL 6
REMARK VINA RESULT:      -3.8      1.051      2.363
REMARK  0 active torsions:
REMARK  status: ('A' for Active; 'I' for Inactive)
ROOT
HETATM    1  C1  UNL     1     -33.919   7.555   1.790  1.00 20.00     0.021 C 
HETATM    2  C2  UNL     1     -34.440   6.447   2.343  1.00 20.00     0.001 C 
HETATM    3  C3  UNL     1     -32.158   7.727   3.449  1.00 20.00     0.003 C 
HETATM    4  C4  UNL     1     -32.672   8.105   2.268  1.00 20.00     0.030 C 
HETATM    5  C5  UNL     1     -32.861   6.714   4.337  1.00 20.00     0.033 C 
HETATM    6  C6  UNL     1     -33.746   5.733   3.488  1.00 20.00     0.058 C 
HETATM    7  C7  UNL     1     -33.619   7.510   5.412  1.00 20.00     0.016 C 
HETATM    8  C8  UNL     1     -32.877   4.609   2.895  1.00 20.00     0.037 C 
HETATM    9 CL9  UNL     1     -31.886   9.297   1.301  1.00 20.00    -0.085 Cl
HETATM   10 CL10 UNL     1     -35.004   4.933   4.502  1.00 20.00    -0.115 Cl
ENDROOT
TORSDOF 0
ENDMDL
MODEL 7
REMARK VINA RESULT:      -3.8     11.830     12.847
REMARK  0 active torsions:
REMARK  status: ('A' for Active; 'I' for Inactive)
ROOT
HETATM    1  C1  UNL     1     -34.617  15.734  -3.352  1.00 20.00     0.021 C 
HETATM    2  C2  UNL     1     -33.580  16.462  -2.905  1.00 20.00     0.001 C 
HETATM    3  C3  UNL     1     -36.265  17.285  -2.479  1.00 20.00     0.003 C 
HETATM    4  C4  UNL     1     -35.967  16.239  -3.266  1.00 20.00     0.030 C 
HETATM    5  C5  UNL     1     -35.204  17.980  -1.642  1.00 20.00     0.033 C 
HETATM    6  C6  UNL     1     -33.782  17.835  -2.293  1.00 20.00     0.058 C 
HETATM    7  C7  UNL     1     -35.325  17.425  -0.213  1.00 20.00     0.016 C 
HETATM    8  C8  UNL     1     -33.595  18.887  -3.403  1.00 20.00     0.037 C 
HETATM    9 CL9  UNL     1     -37.196  15.430  -4.165  1.00 20.00    -0.085 Cl
HETATM   10 CL10 UNL     1     -32.471  18.117  -1.088  1.00 20.00    -0.115 Cl
ENDROOT
TORSDOF 0
ENDMDL
MODEL 8
REMARK VINA RESULT:      -3.8     11.453     12.954
REMARK  0 active torsions:
REMARK  status: ('A' for Active; 'I' for Inactive)
ROOT
HETATM    1  C1  UNL     1     -35.663  16.937  -4.395  1.00 20.00     0.021 C 
HETATM    2  C2  UNL     1     -35.651  16.703  -5.717  1.00 20.00     0.001 C 
HETATM    3  C3  UNL     1     -34.532  14.854  -3.874  1.00 20.00     0.003 C 
HETATM    4  C4  UNL     1     -34.955  16.067  -3.484  1.00 20.00     0.030 C 
HETATM    5  C5  UNL     1     -34.780  14.339  -5.282  1.00 20.00     0.033 C 
HETATM    6  C6  UNL     1     -34.902  15.523  -6.307  1.00 20.00     0.058 C 
HETATM    7  C7  UNL     1     -36.003  13.411  -5.211  1.00 20.00     0.016 C 
HETATM    8  C8  UNL     1     -33.503  16.007  -6.731  1.00 20.00     0.037 C 
HETATM    9 CL9  UNL     1     -34.712  16.610  -1.865  1.00 20.00    -0.085 Cl
HETATM   10 CL10 UNL     1     -35.749  15.009  -7.813  1.00 20.00    -0.115 Cl
ENDROOT
TORSDOF 0
ENDMDL
MODEL 9
REMARK VINA RESULT:      -3.7     11.882     12.852
REMARK  0 active torsions:
REMARK  status: ('A' for Active; 'I' for Inactive)
ROOT
HETATM    1  C1  UNL     1     -33.165  18.395  -2.864  1.00 20.00     0.021 C 
HETATM    2  C2  UNL     1     -33.952  17.834  -3.796  1.00 20.00     0.001 C 
HETATM    3  C3  UNL     1     -34.296  17.279  -1.031  1.00 20.00     0.003 C 
HETATM    4  C4  UNL     1     -33.248  17.987  -1.481  1.00 20.00     0.030 C 
HETATM    5  C5  UNL     1     -35.441  16.880  -1.948  1.00 20.00     0.033 C 
HETATM    6  C6  UNL     1     -34.958  16.755  -3.438  1.00 20.00     0.058 C 
HETATM    7  C7  UNL     1     -36.576  17.890  -1.714  1.00 20.00     0.016 C 
HETATM    8  C8  UNL     1     -34.295  15.385  -3.670  1.00 20.00     0.037 C 
HETATM    9 CL9  UNL     1     -31.987  18.477  -0.411  1.00 20.00    -0.085 Cl
HETATM   10 CL10 UNL     1     -36.340  16.864  -4.591  1.00 20.00    -0.115 Cl
ENDROOT
TORSDOF 0
ENDMDL
