MODEL 1
REMARK VINA RESULT:      -5.5      0.000      0.000
REMARK  1 active torsions:
REMARK  status: ('A' for Active; 'I' for Inactive)
REMARK    1  A    between atoms: C4_4  and  C9_9 
ROOT
HETATM    1  C1  UNL     1     -34.375   6.171   5.439  1.00 20.00     0.001 C 
HETATM    2  C2  UNL     1     -33.339   7.206   5.000  1.00 20.00     0.007 C 
HETATM    3  C3  UNL     1     -35.054   5.672   4.165  1.00 20.00     0.009 C 
HETATM    4  C4  UNL     1     -33.515   7.354   3.483  1.00 20.00     0.011 C 
HETATM    5  C5  UNL     1     -34.064   5.981   3.029  1.00 20.00    -0.043 C 
HETATM    6  C6  UNL     1     -32.986   4.886   2.941  1.00 20.00     0.015 C 
HETATM    7  C7  UNL     1     -34.789   6.073   1.681  1.00 20.00     0.015 C 
ENDROOT
BRANCH   4   8
HETATM    8  C9  UNL     1     -32.244   7.833   2.794  1.00 20.00     0.083 C 
HETATM    9  C8  UNL     1     -31.244   8.395   3.793  1.00 20.00     0.027 C 
HETATM   10 CL10 UNL     1     -32.655   9.087   1.589  1.00 20.00    -0.125 Cl
ENDBRANCH   4   8
TORSDOF 1
ENDMDL
MODEL 2
REMARK VINA RESULT:      -4.7      1.493      2.655
REMARK  1 active torsions:
REMARK  status: ('A' for Active; 'I' for Inactive)
REMARK    1  A    between atoms: C4_4  and  C9_9 
ROOT
HETATM    1  C1  UNL     1     -33.645   3.889   3.112  1.00 20.00     0.001 C 
HETATM    2  C2  UNL     1     -32.921   5.133   2.596  1.00 20.00     0.007 C 
HETATM    3  C3  UNL     1     -34.243   4.269   4.465  1.00 20.00     0.009 C 
HETATM    4  C4  UNL     1     -33.033   6.175   3.715  1.00 20.00     0.011 C 
HETATM    5  C5  UNL     1     -34.342   5.804   4.450  1.00 20.00    -0.043 C 
HETATM    6  C6  UNL     1     -35.613   6.254   3.707  1.00 20.00     0.015 C 
HETATM    7  C7  UNL     1     -34.377   6.364   5.877  1.00 20.00     0.015 C 
ENDROOT
BRANCH   4   8
HETATM    8  C9  UNL     1     -32.935   7.603   3.193  1.00 20.00     0.083 C 
HETATM    9  C8  UNL     1     -32.760   7.635   1.682  1.00 20.00     0.027 C 
HETATM   10 CL10 UNL     1     -31.556   8.430   3.972  1.00 20.00    -0.125 Cl
ENDBRANCH   4   8
TORSDOF 1
ENDMDL
MODEL 3
REMARK VINA RESULT:      -3.9     11.359     12.098
REMARK  1 active torsions:
REMARK  status: ('A' for Active; 'I' for Inactive)
REMARK    1  A    between atoms: C4_4  and  C9_9 
ROOT
HETATM    1  C1  UNL     1     -34.771  17.217  -2.064  1.00 20.00     0.001 C 
HETATM    2  C2  UNL     1     -35.937  16.491  -2.736  1.00 20.00     0.007 C 
HETATM    3  C3  UNL     1     -33.495  16.634  -2.668  1.00 20.00     0.009 C 
HETATM    4  C4  UNL     1     -35.301  15.430  -3.642  1.00 20.00     0.011 C 
HETATM    5  C5  UNL     1     -33.923  16.025  -4.015  1.00 20.00    -0.043 C 
HETATM    6  C6  UNL     1     -33.996  17.115  -5.099  1.00 20.00     0.015 C 
HETATM    7  C7  UNL     1     -32.935  14.942  -4.465  1.00 20.00     0.015 C 
ENDROOT
BRANCH   4   8
HETATM    8  C9  UNL     1     -36.205  15.042  -4.806  1.00 20.00     0.083 C 
HETATM    9  C8  UNL     1     -37.667  15.328  -4.499  1.00 20.00     0.027 C 
HETATM   10 CL10 UNL     1     -35.998  13.305  -5.169  1.00 20.00    -0.125 Cl
ENDBRANCH   4   8
TORSDOF 1
ENDMDL
MODEL 4
REMARK VINA RESULT:      -3.7     11.329     11.973
REMARK  1 active torsions:
REMARK  status: ('A' for Active; 'I' for Inactive)
REMARK    1  A    between atoms: C4_4  and  C9_9 
ROOT
HETATM    1  C1  UNL     1     -33.728  14.443  -5.003  1.00 20.00     0.001 C 
HETATM    2  C2  UNL     1     -33.428  15.373  -3.827  1.00 20.00     0.007 C 
HETATM    3  C3  UNL     1     -35.248  14.420  -5.157  1.00 20.00     0.009 C 
HETATM    4  C4  UNL     1     -34.793  15.786  -3.263  1.00 20.00     0.011 C 
HETATM    5  C5  UNL     1     -35.746  15.708  -4.480  1.00 20.00    -0.043 C 
HETATM    6  C6  UNL     1     -35.618  16.904  -5.439  1.00 20.00     0.015 C 
HETATM    7  C7  UNL     1     -37.211  15.569  -4.051  1.00 20.00     0.015 C 
ENDROOT
BRANCH   4   8
HETATM    8  C9  UNL     1     -34.741  17.122  -2.534  1.00 20.00     0.083 C 
HETATM    9  C8  UNL     1     -33.316  17.644  -2.423  1.00 20.00     0.027 C 
HETATM   10 CL10 UNL     1     -35.440  16.938  -0.900  1.00 20.00    -0.125 Cl
ENDBRANCH   4   8
TORSDOF 1
ENDMDL
MODEL 5
REMARK VINA RESULT:      -3.7     10.955     12.279
REMARK  1 active torsions:
REMARK  status: ('A' for Active; 'I' for Inactive)
REMARK    1  A    between atoms: C4_4  and  C9_9 
ROOT
HETATM    1  C1  UNL     1     -34.682  16.513  -6.455  1.00 20.00     0.001 C 
HETATM    2  C2  UNL     1     -34.968  17.109  -5.077  1.00 20.00     0.007 C 
HETATM    3  C3  UNL     1     -33.717  15.350  -6.230  1.00 20.00     0.009 C 
HETATM    4  C4  UNL     1     -34.078  16.337  -4.095  1.00 20.00     0.011 C 
HETATM    5  C5  UNL     1     -33.899  14.950  -4.756  1.00 20.00    -0.043 C 
HETATM    6  C6  UNL     1     -35.123  14.030  -4.595  1.00 20.00     0.015 C 
HETATM    7  C7  UNL     1     -32.657  14.222  -4.229  1.00 20.00     0.015 C 
ENDROOT
BRANCH   4   8
HETATM    8  C9  UNL     1     -34.636  16.342  -2.677  1.00 20.00     0.083 C 
HETATM    9  C8  UNL     1     -36.022  16.968  -2.623  1.00 20.00     0.027 C 
HETATM   10 CL10 UNL     1     -33.529  17.243  -1.603  1.00 20.00    -0.125 Cl
ENDBRANCH   4   8
TORSDOF 1
ENDMDL
MODEL 6
REMARK VINA RESULT:      -3.6     11.498     12.849
REMARK  1 active torsions:
REMARK  status: ('A' for Active; 'I' for Inactive)
REMARK    1  A    between atoms: C4_4  and  C9_9 
ROOT
HETATM    1  C1  UNL     1     -33.889  16.245  -3.182  1.00 20.00     0.001 C 
HETATM    2  C2  UNL     1     -34.381  14.969  -3.866  1.00 20.00     0.007 C 
HETATM    3  C3  UNL     1     -33.635  17.260  -4.294  1.00 20.00     0.009 C 
HETATM    4  C4  UNL     1     -34.302  15.247  -5.372  1.00 20.00     0.011 C 
HETATM    5  C5  UNL     1     -34.481  16.779  -5.485  1.00 20.00    -0.043 C 
HETATM    6  C6  UNL     1     -35.940  17.242  -5.330  1.00 20.00     0.015 C 
HETATM    7  C7  UNL     1     -33.925  17.324  -6.807  1.00 20.00     0.015 C 
ENDROOT
BRANCH   4   8
HETATM    8  C9  UNL     1     -35.278  14.394  -6.173  1.00 20.00     0.083 C 
HETATM    9  C8  UNL     1     -36.003  13.393  -5.287  1.00 20.00     0.027 C 
HETATM   10 CL10 UNL     1     -34.394  13.524  -7.459  1.00 20.00    -0.125 Cl
ENDBRANCH   4   8
TORSDOF 1
ENDMDL
MODEL 7
REMARK VINA RESULT:      -3.6     11.029     12.170
REMARK  1 active torsions:
REMARK  status: ('A' for Active; 'I' for Inactive)
REMARK    1  A    between atoms: C4_4  and  C9_9 
ROOT
HETATM    1  C1  UNL     1     -36.962  16.141  -4.787  1.00 20.00     0.001 C 
HETATM    2  C2  UNL     1     -36.515  16.662  -3.421  1.00 20.00     0.007 C 
HETATM    3  C3  UNL     1     -35.688  15.923  -5.603  1.00 20.00     0.009 C 
HETATM    4  C4  UNL     1     -34.993  16.829  -3.515  1.00 20.00     0.011 C 
HETATM    5  C5  UNL     1     -34.561  15.780  -4.566  1.00 20.00    -0.043 C 
HETATM    6  C6  UNL     1     -34.514  14.342  -4.018  1.00 20.00     0.015 C 
HETATM    7  C7  UNL     1     -33.200  16.119  -5.187  1.00 20.00     0.015 C 
ENDROOT
BRANCH   4   8
HETATM    8  C9  UNL     1     -34.313  16.740  -2.155  1.00 20.00     0.083 C 
HETATM    9  C8  UNL     1     -35.293  17.001  -1.021  1.00 20.00     0.027 C 
HETATM   10 CL10 UNL     1     -32.978  17.924  -2.077  1.00 20.00    -0.125 Cl
ENDBRANCH   4   8
TORSDOF 1
ENDMDL
MODEL 8
REMARK VINA RESULT:      -3.6     11.260     12.686
REMARK  1 active torsions:
REMARK  status: ('A' for Active; 'I' for Inactive)
REMARK    1  A    between atoms: C4_4  and  C9_9 
ROOT
HETATM    1  C1  UNL     1     -33.689  16.763  -6.520  1.00 20.00     0.001 C 
HETATM    2  C2  UNL     1     -34.835  15.760  -6.664  1.00 20.00     0.007 C 
HETATM    3  C3  UNL     1     -33.524  17.016  -5.022  1.00 20.00     0.009 C 
HETATM    4  C4  UNL     1     -35.373  15.534  -5.245  1.00 20.00     0.011 C 
HETATM    5  C5  UNL     1     -34.152  15.793  -4.331  1.00 20.00    -0.043 C 
HETATM    6  C6  UNL     1     -33.152  14.624  -4.293  1.00 20.00     0.015 C 
HETATM    7  C7  UNL     1     -34.574  16.133  -2.896  1.00 20.00     0.015 C 
ENDROOT
BRANCH   4   8
HETATM    8  C9  UNL     1     -36.056  14.182  -5.090  1.00 20.00     0.083 C 
HETATM    9  C8  UNL     1     -35.790  13.280  -6.287  1.00 20.00     0.027 C 
HETATM   10 CL10 UNL     1     -37.816  14.420  -4.900  1.00 20.00    -0.125 Cl
ENDBRANCH   4   8
TORSDOF 1
ENDMDL
MODEL 9
REMARK VINA RESULT:      -3.6     11.343     12.139
REMARK  1 active torsions:
REMARK  status: ('A' for Active; 'I' for Inactive)
REMARK    1  A    between atoms: C4_4  and  C9_9 
ROOT
HETATM    1  C1  UNL     1     -36.684  16.159  -3.530  1.00 20.00     0.001 C 
HETATM    2  C2  UNL     1     -35.671  15.338  -4.329  1.00 20.00     0.007 C 
HETATM    3  C3  UNL     1     -35.883  16.924  -2.478  1.00 20.00     0.009 C 
HETATM    4  C4  UNL     1     -34.316  15.572  -3.651  1.00 20.00     0.011 C 
HETATM    5  C5  UNL     1     -34.445  16.978  -3.020  1.00 20.00    -0.043 C 
HETATM    6  C6  UNL     1     -34.296  18.125  -4.037  1.00 20.00     0.015 C 
HETATM    7  C7  UNL     1     -33.439  17.190  -1.883  1.00 20.00     0.015 C 
ENDROOT
BRANCH   4   8
HETATM    8  C9  UNL     1     -33.145  15.365  -4.603  1.00 20.00     0.083 C 
HETATM    9  C8  UNL     1     -33.613  15.237  -6.046  1.00 20.00     0.027 C 
HETATM   10 CL10 UNL     1     -32.246  13.895  -4.133  1.00 20.00    -0.125 Cl
ENDBRANCH   4   8
TORSDOF 1
ENDMDL
