MODEL 1
REMARK VINA RESULT:      -4.6      0.000      0.000
REMARK  0 active torsions:
REMARK  status: ('A' for Active; 'I' for Inactive)
ROOT
HETATM    1  C1  UNL     1     -35.641  13.945  -5.002  1.00 20.00     0.086 C 
HETATM    2  C2  UNL     1     -35.079  16.905  -2.614  1.00 20.00     0.003 C 
HETATM    3  C3  UNL     1     -33.635  17.225  -2.978  1.00 20.00     0.001 C 
HETATM    4  C4  UNL     1     -35.511  15.528  -3.118  1.00 20.00     0.042 C 
HETATM    5  C5  UNL     1     -33.362  17.041  -4.471  1.00 20.00     0.012 C 
HETATM    6  C6  UNL     1     -35.250  15.319  -4.625  1.00 20.00     0.132 C 
HETATM    7  C7  UNL     1     -33.757  15.636  -5.006  1.00 20.00    -0.013 C 
HETATM    8  C8  UNL     1     -32.786  14.586  -4.402  1.00 20.00     0.018 C 
HETATM    9  C9  UNL     1     -33.515  15.624  -6.536  1.00 20.00     0.018 C 
HETATM   10  N10 UNL     1     -35.948  12.867  -5.298  1.00 20.00    -0.195 NA
HETATM   11 CL11 UNL     1     -36.404  16.382  -5.536  1.00 20.00    -0.102 Cl
ENDROOT
TORSDOF 0
ENDMDL
MODEL 2
REMARK VINA RESULT:      -4.5      1.819      2.551
REMARK  0 active torsions:
REMARK  status: ('A' for Active; 'I' for Inactive)
ROOT
HETATM    1  C1  UNL     1     -37.118  14.551  -4.848  1.00 20.00     0.086 C 
HETATM    2  C2  UNL     1     -33.326  14.756  -4.244  1.00 20.00     0.003 C 
HETATM    3  C3  UNL     1     -32.952  15.644  -5.424  1.00 20.00     0.001 C 
HETATM    4  C4  UNL     1     -34.728  14.163  -4.389  1.00 20.00     0.042 C 
HETATM    5  C5  UNL     1     -34.009  16.713  -5.699  1.00 20.00     0.012 C 
HETATM    6  C6  UNL     1     -35.815  15.224  -4.663  1.00 20.00     0.132 C 
HETATM    7  C7  UNL     1     -35.440  16.137  -5.888  1.00 20.00    -0.013 C 
HETATM    8  C8  UNL     1     -35.480  15.339  -7.219  1.00 20.00     0.018 C 
HETATM    9  C9  UNL     1     -36.413  17.329  -6.065  1.00 20.00     0.018 C 
HETATM   10  N10 UNL     1     -38.140  14.023  -4.994  1.00 20.00    -0.195 NA
HETATM   11 CL11 UNL     1     -36.025  16.202  -3.149  1.00 20.00    -0.102 Cl
ENDROOT
TORSDOF 0
ENDMDL
MODEL 3
REMARK VINA RESULT:      -4.4      1.549      2.194
REMARK  0 active torsions:
REMARK  status: ('A' for Active; 'I' for Inactive)
ROOT
HETATM    1  C1  UNL     1     -37.104  14.537  -5.086  1.00 20.00     0.086 C 
HETATM    2  C2  UNL     1     -33.610  15.660  -3.938  1.00 20.00     0.003 C 
HETATM    3  C3  UNL     1     -32.870  15.497  -5.259  1.00 20.00     0.001 C 
HETATM    4  C4  UNL     1     -34.960  14.942  -3.940  1.00 20.00     0.042 C 
HETATM    5  C5  UNL     1     -33.735  15.890  -6.457  1.00 20.00     0.012 C 
HETATM    6  C6  UNL     1     -35.855  15.324  -5.138  1.00 20.00     0.132 C 
HETATM    7  C7  UNL     1     -35.100  15.148  -6.507  1.00 20.00    -0.013 C 
HETATM    8  C8  UNL     1     -34.837  13.649  -6.817  1.00 20.00     0.018 C 
HETATM    9  C9  UNL     1     -35.901  15.708  -7.708  1.00 20.00     0.018 C 
HETATM   10  N10 UNL     1     -38.084  13.919  -5.045  1.00 20.00    -0.195 NA
HETATM   11 CL11 UNL     1     -36.393  17.040  -4.897  1.00 20.00    -0.102 Cl
ENDROOT
TORSDOF 0
ENDMDL
MODEL 4
REMARK VINA RESULT:      -4.4      1.280      1.627
REMARK  0 active torsions:
REMARK  status: ('A' for Active; 'I' for Inactive)
ROOT
HETATM    1  C1  UNL     1     -35.631  13.868  -5.021  1.00 20.00     0.086 C 
HETATM    2  C2  UNL     1     -33.869  16.727  -3.148  1.00 20.00     0.003 C 
HETATM    3  C3  UNL     1     -33.512  17.601  -4.343  1.00 20.00     0.001 C 
HETATM    4  C4  UNL     1     -34.260  15.309  -3.565  1.00 20.00     0.042 C 
HETATM    5  C5  UNL     1     -34.604  17.590  -5.412  1.00 20.00     0.012 C 
HETATM    6  C6  UNL     1     -35.366  15.271  -4.641  1.00 20.00     0.132 C 
HETATM    7  C7  UNL     1     -34.998  16.163  -5.884  1.00 20.00    -0.013 C 
HETATM    8  C8  UNL     1     -33.809  15.559  -6.679  1.00 20.00     0.018 C 
HETATM    9  C9  UNL     1     -36.168  16.300  -6.889  1.00 20.00     0.018 C 
HETATM   10  N10 UNL     1     -35.837  12.767  -5.319  1.00 20.00    -0.195 NA
HETATM   11 CL11 UNL     1     -36.910  15.826  -3.865  1.00 20.00    -0.102 Cl
ENDROOT
TORSDOF 0
ENDMDL
MODEL 5
REMARK VINA RESULT:      -4.3      1.226      1.254
REMARK  0 active torsions:
REMARK  status: ('A' for Active; 'I' for Inactive)
ROOT
HETATM    1  C1  UNL     1     -37.096  14.873  -4.724  1.00 20.00     0.086 C 
HETATM    2  C2  UNL     1     -35.001  17.231  -2.524  1.00 20.00     0.003 C 
HETATM    3  C3  UNL     1     -33.615  16.707  -2.879  1.00 20.00     0.001 C 
HETATM    4  C4  UNL     1     -36.109  16.265  -2.945  1.00 20.00     0.042 C 
HETATM    5  C5  UNL     1     -33.509  16.308  -4.351  1.00 20.00     0.012 C 
HETATM    6  C6  UNL     1     -36.027  15.849  -4.430  1.00 20.00     0.132 C 
HETATM    7  C7  UNL     1     -34.601  15.297  -4.801  1.00 20.00    -0.013 C 
HETATM    8  C8  UNL     1     -34.327  13.934  -4.109  1.00 20.00     0.018 C 
HETATM    9  C9  UNL     1     -34.430  15.057  -6.321  1.00 20.00     0.018 C 
HETATM   10  N10 UNL     1     -37.935  14.107  -4.954  1.00 20.00    -0.195 NA
HETATM   11 CL11 UNL     1     -36.454  17.301  -5.432  1.00 20.00    -0.102 Cl
ENDROOT
TORSDOF 0
ENDMDL
MODEL 6
REMARK VINA RESULT:      -4.3      1.927      3.162
REMARK  0 active torsions:
REMARK  status: ('A' for Active; 'I' for Inactive)
ROOT
HETATM    1  C1  UNL     1     -37.048  14.254  -5.507  1.00 20.00     0.086 C 
HETATM    2  C2  UNL     1     -34.781  16.214  -7.917  1.00 20.00     0.003 C 
HETATM    3  C3  UNL     1     -33.762  16.728  -6.908  1.00 20.00     0.001 C 
HETATM    4  C4  UNL     1     -36.050  15.693  -7.242  1.00 20.00     0.042 C 
HETATM    5  C5  UNL     1     -33.460  15.700  -5.819  1.00 20.00     0.012 C 
HETATM    6  C6  UNL     1     -35.772  14.649  -6.139  1.00 20.00     0.132 C 
HETATM    7  C7  UNL     1     -34.728  15.179  -5.088  1.00 20.00    -0.013 C 
HETATM    8  C8  UNL     1     -35.321  16.336  -4.239  1.00 20.00     0.018 C 
HETATM    9  C9  UNL     1     -34.283  14.086  -4.084  1.00 20.00     0.018 C 
HETATM   10  N10 UNL     1     -38.049  13.944  -5.012  1.00 20.00    -0.195 NA
HETATM   11 CL11 UNL     1     -35.183  13.136  -6.949  1.00 20.00    -0.102 Cl
ENDROOT
TORSDOF 0
ENDMDL
MODEL 7
REMARK VINA RESULT:      -4.3      2.195      3.614
REMARK  0 active torsions:
REMARK  status: ('A' for Active; 'I' for Inactive)
ROOT
HETATM    1  C1  UNL     1     -37.097  14.468  -4.979  1.00 20.00     0.086 C 
HETATM    2  C2  UNL     1     -34.215  13.638  -7.386  1.00 20.00     0.003 C 
HETATM    3  C3  UNL     1     -33.863  15.054  -7.822  1.00 20.00     0.001 C 
HETATM    4  C4  UNL     1     -35.580  13.567  -6.700  1.00 20.00     0.042 C 
HETATM    5  C5  UNL     1     -33.990  16.058  -6.676  1.00 20.00     0.012 C 
HETATM    6  C6  UNL     1     -35.732  14.569  -5.536  1.00 20.00     0.132 C 
HETATM    7  C7  UNL     1     -35.380  16.036  -5.982  1.00 20.00    -0.013 C 
HETATM    8  C8  UNL     1     -36.438  16.592  -6.974  1.00 20.00     0.018 C 
HETATM    9  C9  UNL     1     -35.334  17.028  -4.793  1.00 20.00     0.018 C 
HETATM   10  N10 UNL     1     -38.168  14.388  -4.543  1.00 20.00    -0.195 NA
HETATM   11 CL11 UNL     1     -34.653  14.012  -4.187  1.00 20.00    -0.102 Cl
ENDROOT
TORSDOF 0
ENDMDL
MODEL 8
REMARK VINA RESULT:      -4.1      1.712      3.133
REMARK  0 active torsions:
REMARK  status: ('A' for Active; 'I' for Inactive)
ROOT
HETATM    1  C1  UNL     1     -35.354  13.871  -5.276  1.00 20.00     0.086 C 
HETATM    2  C2  UNL     1     -33.761  16.851  -7.112  1.00 20.00     0.003 C 
HETATM    3  C3  UNL     1     -34.480  17.981  -6.386  1.00 20.00     0.001 C 
HETATM    4  C4  UNL     1     -34.434  15.497  -6.884  1.00 20.00     0.042 C 
HETATM    5  C5  UNL     1     -34.683  17.676  -4.902  1.00 20.00     0.012 C 
HETATM    6  C6  UNL     1     -34.646  15.163  -5.392  1.00 20.00     0.132 C 
HETATM    7  C7  UNL     1     -35.399  16.321  -4.638  1.00 20.00    -0.013 C 
HETATM    8  C8  UNL     1     -36.872  16.440  -5.115  1.00 20.00     0.018 C 
HETATM    9  C9  UNL     1     -35.452  16.102  -3.106  1.00 20.00     0.018 C 
HETATM   10  N10 UNL     1     -35.910  12.858  -5.186  1.00 20.00    -0.195 NA
HETATM   11 CL11 UNL     1     -33.015  14.850  -4.661  1.00 20.00    -0.102 Cl
ENDROOT
TORSDOF 0
ENDMDL
MODEL 9
REMARK VINA RESULT:      -4.1      1.610      1.857
REMARK  0 active torsions:
REMARK  status: ('A' for Active; 'I' for Inactive)
ROOT
HETATM    1  C1  UNL     1     -37.078  14.692  -5.206  1.00 20.00     0.086 C 
HETATM    2  C2  UNL     1     -34.776  17.751  -4.855  1.00 20.00     0.003 C 
HETATM    3  C3  UNL     1     -33.432  17.033  -4.870  1.00 20.00     0.001 C 
HETATM    4  C4  UNL     1     -35.941  16.794  -4.604  1.00 20.00     0.042 C 
HETATM    5  C5  UNL     1     -33.425  15.845  -5.831  1.00 20.00     0.012 C 
HETATM    6  C6  UNL     1     -35.958  15.586  -5.565  1.00 20.00     0.132 C 
HETATM    7  C7  UNL     1     -34.577  14.833  -5.577  1.00 20.00    -0.013 C 
HETATM    8  C8  UNL     1     -34.315  14.115  -4.225  1.00 20.00     0.018 C 
HETATM    9  C9  UNL     1     -34.501  13.741  -6.672  1.00 20.00     0.018 C 
HETATM   10  N10 UNL     1     -37.956  13.990  -4.923  1.00 20.00    -0.195 NA
HETATM   11 CL11 UNL     1     -36.388  16.204  -7.216  1.00 20.00    -0.102 Cl
ENDROOT
TORSDOF 0
ENDMDL
