MODEL 1
REMARK VINA RESULT:      -4.8      0.000      0.000
REMARK  2 active torsions:
REMARK  status: ('A' for Active; 'I' for Inactive)
REMARK    1  A    between atoms: C3_3  and  C9_9 
REMARK    2  A    between atoms: C7_7  and  C9_9 
ROOT
HETATM    1  C4  UNL     1     -31.481   7.880   1.337  1.00 20.00     0.006 C 
HETATM    2  C5  UNL     1     -31.146   9.056   0.418  1.00 20.00     0.020 C 
HETATM    3  C6  UNL     1     -32.756   9.862   1.970  1.00 20.00     0.025 C 
HETATM    4  C7  UNL     1     -32.601   8.368   2.272  1.00 20.00    -0.007 C 
HETATM    5  C8  UNL     1     -32.341   9.998   0.509  1.00 20.00     0.082 C 
HETATM    6 CL12 UNL     1     -33.651   9.468  -0.584  1.00 20.00    -0.125 Cl
ENDROOT
BRANCH   4   7
HETATM    7  C9  UNL     1     -32.315   8.093   3.739  1.00 20.00     0.071 C 
BRANCH   7   8
HETATM    8  C3  UNL     1     -33.286   7.099   4.322  1.00 20.00     0.074 A 
HETATM    9  N10 UNL     1     -33.666   7.080   5.580  1.00 20.00    -0.258 NA
HETATM   10  C1  UNL     1     -34.557   6.041   5.762  1.00 20.00     0.124 A 
HETATM   11  C2  UNL     1     -34.840   5.287   4.642  1.00 20.00     0.070 A 
HETATM   12  S11 UNL     1     -33.961   5.896   3.301  1.00 20.00    -0.085 SA
ENDBRANCH   7   8
ENDBRANCH   4   7
TORSDOF 2
ENDMDL
MODEL 2
REMARK VINA RESULT:      -4.6     10.778     11.658
REMARK  2 active torsions:
REMARK  status: ('A' for Active; 'I' for Inactive)
REMARK    1  A    between atoms: C3_3  and  C9_9 
REMARK    2  A    between atoms: C7_7  and  C9_9 
ROOT
HETATM    1  C4  UNL     1     -33.544  16.913  -2.236  1.00 20.00     0.006 C 
HETATM    2  C5  UNL     1     -34.689  17.184  -1.259  1.00 20.00     0.020 C 
HETATM    3  C6  UNL     1     -35.665  16.114  -3.142  1.00 20.00     0.025 C 
HETATM    4  C7  UNL     1     -34.189  16.319  -3.500  1.00 20.00    -0.007 C 
HETATM    5  C8  UNL     1     -35.956  17.193  -2.105  1.00 20.00     0.082 C 
HETATM    6 CL12 UNL     1     -36.190  18.784  -2.882  1.00 20.00    -0.125 Cl
ENDROOT
BRANCH   4   7
HETATM    7  C9  UNL     1     -33.516  15.038  -3.968  1.00 20.00     0.071 C 
BRANCH   7   8
HETATM    8  C3  UNL     1     -33.830  14.735  -5.410  1.00 20.00     0.074 A 
HETATM    9  N10 UNL     1     -34.286  13.581  -5.845  1.00 20.00    -0.258 NA
HETATM   10  C1  UNL     1     -34.462  13.658  -7.213  1.00 20.00     0.124 A 
HETATM   11  C2  UNL     1     -34.137  14.865  -7.795  1.00 20.00     0.070 A 
HETATM   12  S11 UNL     1     -33.590  15.957  -6.591  1.00 20.00    -0.085 SA
ENDBRANCH   7   8
ENDBRANCH   4   7
TORSDOF 2
ENDMDL
MODEL 3
REMARK VINA RESULT:      -4.5     10.729     11.208
REMARK  2 active torsions:
REMARK  status: ('A' for Active; 'I' for Inactive)
REMARK    1  A    between atoms: C3_3  and  C9_9 
REMARK    2  A    between atoms: C7_7  and  C9_9 
ROOT
HETATM    1  C4  UNL     1     -33.299  17.415  -2.153  1.00 20.00     0.006 C 
HETATM    2  C5  UNL     1     -34.073  17.595  -0.846  1.00 20.00     0.020 C 
HETATM    3  C6  UNL     1     -35.495  16.360  -2.294  1.00 20.00     0.025 C 
HETATM    4  C7  UNL     1     -34.257  16.711  -3.128  1.00 20.00    -0.007 C 
HETATM    5  C8  UNL     1     -35.542  17.437  -1.216  1.00 20.00     0.082 C 
HETATM    6 CL12 UNL     1     -36.202  18.966  -1.863  1.00 20.00    -0.125 Cl
ENDROOT
BRANCH   4   7
HETATM    7  C9  UNL     1     -33.639  15.494  -3.799  1.00 20.00     0.071 C 
BRANCH   7   8
HETATM    8  C3  UNL     1     -34.608  14.818  -4.733  1.00 20.00     0.074 A 
HETATM    9  N10 UNL     1     -35.077  13.601  -4.566  1.00 20.00    -0.258 NA
HETATM   10  C1  UNL     1     -35.937  13.306  -5.605  1.00 20.00     0.124 A 
HETATM   11  C2  UNL     1     -36.108  14.300  -6.546  1.00 20.00     0.070 A 
HETATM   12  S11 UNL     1     -35.160  15.665  -6.120  1.00 20.00    -0.085 SA
ENDBRANCH   7   8
ENDBRANCH   4   7
TORSDOF 2
ENDMDL
MODEL 4
REMARK VINA RESULT:      -4.5      3.093      4.989
REMARK  2 active torsions:
REMARK  status: ('A' for Active; 'I' for Inactive)
REMARK    1  A    between atoms: C3_3  and  C9_9 
REMARK    2  A    between atoms: C7_7  and  C9_9 
ROOT
HETATM    1  C4  UNL     1     -33.270   6.395   2.590  1.00 20.00     0.006 C 
HETATM    2  C5  UNL     1     -34.731   6.171   2.983  1.00 20.00     0.020 C 
HETATM    3  C6  UNL     1     -33.705   7.258   4.831  1.00 20.00     0.025 C 
HETATM    4  C7  UNL     1     -32.579   6.999   3.824  1.00 20.00    -0.007 C 
HETATM    5  C8  UNL     1     -34.753   6.199   4.507  1.00 20.00     0.082 C 
HETATM    6 CL12 UNL     1     -34.289   4.610   5.177  1.00 20.00    -0.125 Cl
ENDROOT
BRANCH   4   7
HETATM    7  C9  UNL     1     -31.778   8.252   3.506  1.00 20.00     0.071 C 
BRANCH   7   8
HETATM    8  C3  UNL     1     -32.052   8.753   2.112  1.00 20.00     0.074 A 
HETATM    9  N10 UNL     1     -31.445   8.315   1.031  1.00 20.00    -0.258 NA
HETATM   10  C1  UNL     1     -31.942   8.991  -0.065  1.00 20.00     0.124 A 
HETATM   11  C2  UNL     1     -32.916   9.931   0.197  1.00 20.00     0.070 A 
HETATM   12  S11 UNL     1     -33.232   9.978   1.882  1.00 20.00    -0.085 SA
ENDBRANCH   7   8
ENDBRANCH   4   7
TORSDOF 2
ENDMDL
MODEL 5
REMARK VINA RESULT:      -4.4     10.945     11.751
REMARK  2 active torsions:
REMARK  status: ('A' for Active; 'I' for Inactive)
REMARK    1  A    between atoms: C3_3  and  C9_9 
REMARK    2  A    between atoms: C7_7  and  C9_9 
ROOT
HETATM    1  C4  UNL     1     -34.723  17.690  -0.232  1.00 20.00     0.006 C 
HETATM    2  C5  UNL     1     -34.188  19.109  -0.030  1.00 20.00     0.020 C 
HETATM    3  C6  UNL     1     -33.218  18.315  -2.048  1.00 20.00     0.025 C 
HETATM    4  C7  UNL     1     -34.014  17.136  -1.478  1.00 20.00    -0.007 C 
HETATM    5  C8  UNL     1     -32.894  19.175  -0.832  1.00 20.00     0.082 C 
HETATM    6 CL12 UNL     1     -31.534  18.488   0.099  1.00 20.00    -0.125 Cl
ENDROOT
BRANCH   4   7
HETATM    7  C9  UNL     1     -34.973  16.531  -2.492  1.00 20.00     0.071 C 
BRANCH   7   8
HETATM    8  C3  UNL     1     -34.301  16.281  -3.817  1.00 20.00     0.074 A 
HETATM    9  N10 UNL     1     -33.332  15.414  -4.008  1.00 20.00    -0.258 NA
HETATM   10  C1  UNL     1     -32.959  15.447  -5.337  1.00 20.00     0.124 A 
HETATM   11  C2  UNL     1     -33.647  16.336  -6.135  1.00 20.00     0.070 A 
HETATM   12  S11 UNL     1     -34.814  17.170  -5.192  1.00 20.00    -0.085 SA
ENDBRANCH   7   8
ENDBRANCH   4   7
TORSDOF 2
ENDMDL
MODEL 6
REMARK VINA RESULT:      -4.3     10.673     11.277
REMARK  2 active torsions:
REMARK  status: ('A' for Active; 'I' for Inactive)
REMARK    1  A    between atoms: C3_3  and  C9_9 
REMARK    2  A    between atoms: C7_7  and  C9_9 
ROOT
HETATM    1  C4  UNL     1     -35.611  17.076  -3.270  1.00 20.00     0.006 C 
HETATM    2  C5  UNL     1     -35.525  18.399  -2.507  1.00 20.00     0.020 C 
HETATM    3  C6  UNL     1     -33.595  17.154  -1.896  1.00 20.00     0.025 C 
HETATM    4  C7  UNL     1     -34.421  16.226  -2.794  1.00 20.00    -0.007 C 
HETATM    5  C8  UNL     1     -34.617  18.124  -1.315  1.00 20.00     0.082 C 
HETATM    6 CL12 UNL     1     -35.533  17.370   0.020  1.00 20.00    -0.125 Cl
ENDROOT
BRANCH   4   7
HETATM    7  C9  UNL     1     -33.609  15.642  -3.939  1.00 20.00     0.071 C 
BRANCH   7   8
HETATM    8  C3  UNL     1     -34.463  14.827  -4.874  1.00 20.00     0.074 A 
HETATM    9  N10 UNL     1     -35.107  13.734  -4.530  1.00 20.00    -0.258 NA
HETATM   10  C1  UNL     1     -35.787  13.250  -5.631  1.00 20.00     0.124 A 
HETATM   11  C2  UNL     1     -35.649  13.981  -6.792  1.00 20.00     0.070 A 
HETATM   12  S11 UNL     1     -34.631  15.332  -6.505  1.00 20.00    -0.085 SA
ENDBRANCH   7   8
ENDBRANCH   4   7
TORSDOF 2
ENDMDL
MODEL 7
REMARK VINA RESULT:      -4.3     10.146     10.856
REMARK  2 active torsions:
REMARK  status: ('A' for Active; 'I' for Inactive)
REMARK    1  A    between atoms: C3_3  and  C9_9 
REMARK    2  A    between atoms: C7_7  and  C9_9 
ROOT
HETATM    1  C4  UNL     1     -34.627  14.051  -4.171  1.00 20.00     0.006 C 
HETATM    2  C5  UNL     1     -35.215  13.844  -5.568  1.00 20.00     0.020 C 
HETATM    3  C6  UNL     1     -35.641  16.111  -4.997  1.00 20.00     0.025 C 
HETATM    4  C7  UNL     1     -34.995  15.485  -3.756  1.00 20.00    -0.007 C 
HETATM    5  C8  UNL     1     -36.269  14.933  -5.732  1.00 20.00     0.082 C 
HETATM    6 CL12 UNL     1     -37.809  14.446  -4.969  1.00 20.00    -0.125 Cl
ENDROOT
BRANCH   4   7
HETATM    7  C9  UNL     1     -33.806  16.284  -3.247  1.00 20.00     0.071 C 
BRANCH   7   8
HETATM    8  C3  UNL     1     -34.115  16.982  -1.948  1.00 20.00     0.074 A 
HETATM    9  N10 UNL     1     -35.226  16.823  -1.264  1.00 20.00    -0.258 NA
HETATM   10  C1  UNL     1     -35.170  17.612  -0.132  1.00 20.00     0.124 A 
HETATM   11  C2  UNL     1     -34.021  18.358   0.027  1.00 20.00     0.070 A 
HETATM   12  S11 UNL     1     -32.959  18.065  -1.288  1.00 20.00    -0.085 SA
ENDBRANCH   7   8
ENDBRANCH   4   7
TORSDOF 2
ENDMDL
MODEL 8
REMARK VINA RESULT:      -4.2      1.388      1.581
REMARK  2 active torsions:
REMARK  status: ('A' for Active; 'I' for Inactive)
REMARK    1  A    between atoms: C3_3  and  C9_9 
REMARK    2  A    between atoms: C7_7  and  C9_9 
ROOT
HETATM    1  C4  UNL     1     -33.690   8.212   0.811  1.00 20.00     0.006 C 
HETATM    2  C5  UNL     1     -32.801   9.091  -0.069  1.00 20.00     0.020 C 
HETATM    3  C6  UNL     1     -31.566   8.679   1.919  1.00 20.00     0.025 C 
HETATM    4  C7  UNL     1     -32.939   8.034   2.141  1.00 20.00    -0.007 C 
HETATM    5  C8  UNL     1     -31.824   9.768   0.884  1.00 20.00     0.082 C 
HETATM    6 CL12 UNL     1     -32.567  11.208   1.638  1.00 20.00    -0.125 Cl
ENDROOT
BRANCH   4   7
HETATM    7  C9  UNL     1     -32.840   6.581   2.580  1.00 20.00     0.071 C 
BRANCH   7   8
HETATM    8  C3  UNL     1     -33.495   6.355   3.918  1.00 20.00     0.074 A 
HETATM    9  N10 UNL     1     -33.479   7.218   4.909  1.00 20.00    -0.258 NA
HETATM   10  C1  UNL     1     -34.175   6.685   5.977  1.00 20.00     0.124 A 
HETATM   11  C2  UNL     1     -34.706   5.428   5.782  1.00 20.00     0.070 A 
HETATM   12  S11 UNL     1     -34.328   4.882   4.200  1.00 20.00    -0.085 SA
ENDBRANCH   7   8
ENDBRANCH   4   7
TORSDOF 2
ENDMDL
MODEL 9
REMARK VINA RESULT:      -4.2     10.569     11.210
REMARK  2 active torsions:
REMARK  status: ('A' for Active; 'I' for Inactive)
REMARK    1  A    between atoms: C3_3  and  C9_9 
REMARK    2  A    between atoms: C7_7  and  C9_9 
ROOT
HETATM    1  C4  UNL     1     -33.387  17.698  -3.977  1.00 20.00     0.006 C 
HETATM    2  C5  UNL     1     -34.042  16.833  -5.055  1.00 20.00     0.020 C 
HETATM    3  C6  UNL     1     -34.730  15.927  -2.969  1.00 20.00     0.025 C 
HETATM    4  C7  UNL     1     -33.743  17.049  -2.629  1.00 20.00    -0.007 C 
HETATM    5  C8  UNL     1     -34.345  15.500  -4.381  1.00 20.00     0.082 C 
HETATM    6 CL12 UNL     1     -32.898  14.453  -4.365  1.00 20.00    -0.125 Cl
ENDROOT
BRANCH   4   7
HETATM    7  C9  UNL     1     -34.305  18.038  -1.620  1.00 20.00     0.071 C 
BRANCH   7   8
HETATM    8  C3  UNL     1     -33.316  18.343  -0.525  1.00 20.00     0.074 A 
HETATM    9  N10 UNL     1     -32.014  18.405  -0.694  1.00 20.00    -0.258 NA
HETATM   10  C1  UNL     1     -31.420  18.705   0.516  1.00 20.00     0.124 A 
HETATM   11  C2  UNL     1     -32.278  18.866   1.585  1.00 20.00     0.070 A 
HETATM   12  S11 UNL     1     -33.896  18.637   1.064  1.00 20.00    -0.085 SA
ENDBRANCH   7   8
ENDBRANCH   4   7
TORSDOF 2
ENDMDL
