MODEL 1
REMARK VINA RESULT:      -5.5      0.000      0.000
REMARK  2 active torsions:
REMARK  status: ('A' for Active; 'I' for Inactive)
REMARK    1  A    between atoms: C3_3  and  C9_9 
REMARK    2  A    between atoms: C7_7  and  C9_9 
ROOT
HETATM    1  C4  UNL     1     -33.238   9.568   2.286  1.00 20.00     0.006 C 
HETATM    2  C5  UNL     1     -32.639  10.576   1.313  1.00 20.00     0.020 C 
HETATM    3  C6  UNL     1     -31.366   8.562   1.052  1.00 20.00     0.025 C 
HETATM    4  C7  UNL     1     -32.223   8.418   2.323  1.00 20.00    -0.007 C 
HETATM    5  C8  UNL     1     -31.982   9.707   0.249  1.00 20.00     0.082 C 
HETATM    6 CL12 UNL     1     -33.199   9.082  -0.902  1.00 20.00    -0.125 Cl
ENDROOT
BRANCH   4   7
HETATM    7  C9  UNL     1     -32.896   7.057   2.431  1.00 20.00     0.071 C 
BRANCH   7   8
HETATM    8  C3  UNL     1     -33.445   6.813   3.811  1.00 20.00     0.074 A 
HETATM    9  N10 UNL     1     -33.131   7.521   4.873  1.00 20.00    -0.258 NA
HETATM   10  C1  UNL     1     -33.816   7.021   5.963  1.00 20.00     0.124 A 
HETATM   11  C2  UNL     1     -34.640   5.943   5.714  1.00 20.00     0.070 A 
HETATM   12  S11 UNL     1     -34.561   5.530   4.051  1.00 20.00    -0.085 SA
ENDBRANCH   7   8
ENDBRANCH   4   7
TORSDOF 2
ENDMDL
MODEL 2
REMARK VINA RESULT:      -5.5      2.927      5.244
REMARK  2 active torsions:
REMARK  status: ('A' for Active; 'I' for Inactive)
REMARK    1  A    between atoms: C3_3  and  C9_9 
REMARK    2  A    between atoms: C7_7  and  C9_9 
ROOT
HETATM    1  C4  UNL     1     -33.437   6.941   5.320  1.00 20.00     0.006 C 
HETATM    2  C5  UNL     1     -34.599   6.105   5.845  1.00 20.00     0.020 C 
HETATM    3  C6  UNL     1     -34.851   6.176   3.462  1.00 20.00     0.025 C 
HETATM    4  C7  UNL     1     -33.798   7.227   3.857  1.00 20.00    -0.007 C 
HETATM    5  C8  UNL     1     -34.983   5.232   4.656  1.00 20.00     0.082 C 
HETATM    6 CL12 UNL     1     -33.857   3.852   4.492  1.00 20.00    -0.125 Cl
ENDROOT
BRANCH   4   7
HETATM    7  C9  UNL     1     -32.577   7.210   2.948  1.00 20.00     0.071 C 
BRANCH   7   8
HETATM    8  C3  UNL     1     -32.538   8.412   2.042  1.00 20.00     0.074 A 
HETATM    9  N10 UNL     1     -33.258   9.497   2.215  1.00 20.00    -0.258 NA
HETATM   10  C1  UNL     1     -32.970  10.391   1.202  1.00 20.00     0.124 A 
HETATM   11  C2  UNL     1     -32.036   9.972   0.277  1.00 20.00     0.070 A 
HETATM   12  S11 UNL     1     -31.490   8.398   0.682  1.00 20.00    -0.085 SA
ENDBRANCH   7   8
ENDBRANCH   4   7
TORSDOF 2
ENDMDL
MODEL 3
REMARK VINA RESULT:      -5.2      2.923      5.237
REMARK  2 active torsions:
REMARK  status: ('A' for Active; 'I' for Inactive)
REMARK    1  A    between atoms: C3_3  and  C9_9 
REMARK    2  A    between atoms: C7_7  and  C9_9 
ROOT
HETATM    1  C4  UNL     1     -33.501   6.949   5.444  1.00 20.00     0.006 C 
HETATM    2  C5  UNL     1     -34.728   6.122   5.809  1.00 20.00     0.020 C 
HETATM    3  C6  UNL     1     -34.687   6.233   3.415  1.00 20.00     0.025 C 
HETATM    4  C7  UNL     1     -33.676   7.262   3.952  1.00 20.00    -0.007 C 
HETATM    5  C8  UNL     1     -34.975   5.273   4.568  1.00 20.00     0.082 C 
HETATM    6 CL12 UNL     1     -33.856   3.879   4.519  1.00 20.00    -0.125 Cl
ENDROOT
BRANCH   4   7
HETATM    7  C9  UNL     1     -32.354   7.241   3.199  1.00 20.00     0.071 C 
BRANCH   7   8
HETATM    8  C3  UNL     1     -32.307   8.293   2.123  1.00 20.00     0.074 A 
HETATM    9  N10 UNL     1     -31.532   8.238   1.062  1.00 20.00    -0.258 NA
HETATM   10  C1  UNL     1     -31.748   9.364   0.293  1.00 20.00     0.124 A 
HETATM   11  C2  UNL     1     -32.682  10.256   0.778  1.00 20.00     0.070 A 
HETATM   12  S11 UNL     1     -33.322   9.670   2.257  1.00 20.00    -0.085 SA
ENDBRANCH   7   8
ENDBRANCH   4   7
TORSDOF 2
ENDMDL
MODEL 4
REMARK VINA RESULT:      -4.9      1.331      1.796
REMARK  2 active torsions:
REMARK  status: ('A' for Active; 'I' for Inactive)
REMARK    1  A    between atoms: C3_3  and  C9_9 
REMARK    2  A    between atoms: C7_7  and  C9_9 
ROOT
HETATM    1  C4  UNL     1     -31.379   8.571   1.115  1.00 20.00     0.006 C 
HETATM    2  C5  UNL     1     -31.992   9.582   0.153  1.00 20.00     0.020 C 
HETATM    3  C6  UNL     1     -33.630   9.212   1.864  1.00 20.00     0.025 C 
HETATM    4  C7  UNL     1     -32.548   8.125   2.003  1.00 20.00    -0.007 C 
HETATM    5  C8  UNL     1     -33.018  10.318   1.006  1.00 20.00     0.082 C 
HETATM    6 CL12 UNL     1     -32.223  11.544   2.037  1.00 20.00    -0.125 Cl
ENDROOT
BRANCH   4   7
HETATM    7  C9  UNL     1     -32.121   7.897   3.447  1.00 20.00     0.071 C 
BRANCH   7   8
HETATM    8  C3  UNL     1     -33.127   7.070   4.203  1.00 20.00     0.074 A 
HETATM    9  N10 UNL     1     -33.435   7.247   5.468  1.00 20.00    -0.258 NA
HETATM   10  C1  UNL     1     -34.389   6.316   5.830  1.00 20.00     0.124 A 
HETATM   11  C2  UNL     1     -34.790   5.447   4.836  1.00 20.00     0.070 A 
HETATM   12  S11 UNL     1     -33.947   5.802   3.386  1.00 20.00    -0.085 SA
ENDBRANCH   7   8
ENDBRANCH   4   7
TORSDOF 2
ENDMDL
MODEL 5
REMARK VINA RESULT:      -4.8     10.710     11.106
REMARK  2 active torsions:
REMARK  status: ('A' for Active; 'I' for Inactive)
REMARK    1  A    between atoms: C3_3  and  C9_9 
REMARK    2  A    between atoms: C7_7  and  C9_9 
ROOT
HETATM    1  C4  UNL     1     -33.631  16.375  -3.097  1.00 20.00     0.006 C 
HETATM    2  C5  UNL     1     -34.935  15.666  -3.446  1.00 20.00     0.020 C 
HETATM    3  C6  UNL     1     -35.429  17.092  -1.584  1.00 20.00     0.025 C 
HETATM    4  C7  UNL     1     -33.898  17.025  -1.733  1.00 20.00    -0.007 C 
HETATM    5  C8  UNL     1     -36.011  16.601  -2.908  1.00 20.00     0.082 C 
HETATM    6 CL12 UNL     1     -36.275  17.973  -4.024  1.00 20.00    -0.125 Cl
ENDROOT
BRANCH   4   7
HETATM    7  C9  UNL     1     -33.231  18.387  -1.603  1.00 20.00     0.071 C 
BRANCH   7   8
HETATM    8  C3  UNL     1     -32.565  18.557  -0.263  1.00 20.00     0.074 A 
HETATM    9  N10 UNL     1     -31.268  18.494  -0.064  1.00 20.00    -0.258 NA
HETATM   10  C1  UNL     1     -31.011  18.695   1.278  1.00 20.00     0.124 A 
HETATM   11  C2  UNL     1     -32.115  18.907   2.077  1.00 20.00     0.070 A 
HETATM   12  S11 UNL     1     -33.537  18.856   1.120  1.00 20.00    -0.085 SA
ENDBRANCH   7   8
ENDBRANCH   4   7
TORSDOF 2
ENDMDL
MODEL 6
REMARK VINA RESULT:      -4.5     10.154     10.789
REMARK  2 active torsions:
REMARK  status: ('A' for Active; 'I' for Inactive)
REMARK    1  A    between atoms: C3_3  and  C9_9 
REMARK    2  A    between atoms: C7_7  and  C9_9 
ROOT
HETATM    1  C4  UNL     1     -33.653  16.768  -4.971  1.00 20.00     0.006 C 
HETATM    2  C5  UNL     1     -33.292  15.837  -6.122  1.00 20.00     0.020 C 
HETATM    3  C6  UNL     1     -33.798  14.422  -4.256  1.00 20.00     0.025 C 
HETATM    4  C7  UNL     1     -33.662  15.863  -3.732  1.00 20.00    -0.007 C 
HETATM    5  C8  UNL     1     -33.992  14.532  -5.767  1.00 20.00     0.082 C 
HETATM    6 CL12 UNL     1     -35.732  14.614  -6.172  1.00 20.00    -0.125 Cl
ENDROOT
BRANCH   4   7
HETATM    7  C9  UNL     1     -34.762  16.242  -2.750  1.00 20.00     0.071 C 
BRANCH   7   8
HETATM    8  C3  UNL     1     -34.247  17.133  -1.651  1.00 20.00     0.074 A 
HETATM    9  N10 UNL     1     -33.035  17.638  -1.609  1.00 20.00    -0.258 NA
HETATM   10  C1  UNL     1     -32.909  18.403  -0.466  1.00 20.00     0.124 A 
HETATM   11  C2  UNL     1     -34.025  18.469   0.341  1.00 20.00     0.070 A 
HETATM   12  S11 UNL     1     -35.290  17.538  -0.349  1.00 20.00    -0.085 SA
ENDBRANCH   7   8
ENDBRANCH   4   7
TORSDOF 2
ENDMDL
MODEL 7
REMARK VINA RESULT:      -4.4     10.411     11.076
REMARK  2 active torsions:
REMARK  status: ('A' for Active; 'I' for Inactive)
REMARK    1  A    between atoms: C3_3  and  C9_9 
REMARK    2  A    between atoms: C7_7  and  C9_9 
ROOT
HETATM    1  C4  UNL     1     -34.456  18.346  -3.228  1.00 20.00     0.006 C 
HETATM    2  C5  UNL     1     -34.492  19.263  -2.012  1.00 20.00     0.020 C 
HETATM    3  C6  UNL     1     -34.771  17.035  -1.175  1.00 20.00     0.025 C 
HETATM    4  C7  UNL     1     -34.945  16.990  -2.704  1.00 20.00    -0.007 C 
HETATM    5  C8  UNL     1     -34.072  18.357  -0.862  1.00 20.00     0.082 C 
HETATM    6 CL12 UNL     1     -32.298  18.138  -0.841  1.00 20.00    -0.125 Cl
ENDROOT
BRANCH   4   7
HETATM    7  C9  UNL     1     -34.209  15.823  -3.348  1.00 20.00     0.071 C 
BRANCH   7   8
HETATM    8  C3  UNL     1     -35.139  14.947  -4.145  1.00 20.00     0.074 A 
HETATM    9  N10 UNL     1     -34.804  13.790  -4.669  1.00 20.00    -0.258 NA
HETATM   10  C1  UNL     1     -35.898  13.264  -5.328  1.00 20.00     0.124 A 
HETATM   11  C2  UNL     1     -37.046  14.028  -5.294  1.00 20.00     0.070 A 
HETATM   12  S11 UNL     1     -36.755  15.464  -4.403  1.00 20.00    -0.085 SA
ENDBRANCH   7   8
ENDBRANCH   4   7
TORSDOF 2
ENDMDL
MODEL 8
REMARK VINA RESULT:      -4.4     10.595     11.411
REMARK  2 active torsions:
REMARK  status: ('A' for Active; 'I' for Inactive)
REMARK    1  A    between atoms: C3_3  and  C9_9 
REMARK    2  A    between atoms: C7_7  and  C9_9 
ROOT
HETATM    1  C4  UNL     1     -33.401  16.386  -3.058  1.00 20.00     0.006 C 
HETATM    2  C5  UNL     1     -33.540  17.752  -2.396  1.00 20.00     0.020 C 
HETATM    3  C6  UNL     1     -35.641  17.312  -3.462  1.00 20.00     0.025 C 
HETATM    4  C7  UNL     1     -34.624  16.277  -3.978  1.00 20.00    -0.007 C 
HETATM    5  C8  UNL     1     -35.041  17.903  -2.187  1.00 20.00     0.082 C 
HETATM    6 CL12 UNL     1     -35.579  16.979  -0.754  1.00 20.00    -0.125 Cl
ENDROOT
BRANCH   4   7
HETATM    7  C9  UNL     1     -35.189  14.864  -4.021  1.00 20.00     0.071 C 
BRANCH   7   8
HETATM    8  C3  UNL     1     -35.025  14.238  -5.381  1.00 20.00     0.074 A 
HETATM    9  N10 UNL     1     -35.522  13.072  -5.728  1.00 20.00    -0.258 NA
HETATM   10  C1  UNL     1     -35.180  12.813  -7.040  1.00 20.00     0.124 A 
HETATM   11  C2  UNL     1     -34.430  13.784  -7.670  1.00 20.00     0.070 A 
HETATM   12  S11 UNL     1     -34.136  15.079  -6.585  1.00 20.00    -0.085 SA
ENDBRANCH   7   8
ENDBRANCH   4   7
TORSDOF 2
ENDMDL
MODEL 9
REMARK VINA RESULT:      -4.4     10.768     11.469
REMARK  2 active torsions:
REMARK  status: ('A' for Active; 'I' for Inactive)
REMARK    1  A    between atoms: C3_3  and  C9_9 
REMARK    2  A    between atoms: C7_7  and  C9_9 
ROOT
HETATM    1  C4  UNL     1     -35.702  16.916  -1.950  1.00 20.00     0.006 C 
HETATM    2  C5  UNL     1     -34.476  17.226  -1.099  1.00 20.00     0.020 C 
HETATM    3  C6  UNL     1     -33.649  16.262  -3.132  1.00 20.00     0.025 C 
HETATM    4  C7  UNL     1     -35.171  16.029  -3.083  1.00 20.00    -0.007 C 
HETATM    5  C8  UNL     1     -33.353  17.367  -2.119  1.00 20.00     0.082 C 
HETATM    6 CL12 UNL     1     -33.407  18.971  -2.907  1.00 20.00    -0.125 Cl
ENDROOT
BRANCH   4   7
HETATM    7  C9  UNL     1     -35.855  16.318  -4.412  1.00 20.00     0.071 C 
BRANCH   7   8
HETATM    8  C3  UNL     1     -35.460  15.324  -5.472  1.00 20.00     0.074 A 
HETATM    9  N10 UNL     1     -34.733  15.614  -6.528  1.00 20.00    -0.258 NA
HETATM   10  C1  UNL     1     -34.565  14.469  -7.282  1.00 20.00     0.124 A 
HETATM   11  C2  UNL     1     -35.165  13.329  -6.789  1.00 20.00     0.070 A 
HETATM   12  S11 UNL     1     -35.974  13.694  -5.321  1.00 20.00    -0.085 SA
ENDBRANCH   7   8
ENDBRANCH   4   7
TORSDOF 2
ENDMDL
