MODEL 1
REMARK VINA RESULT:      -3.9      0.000      0.000
REMARK  0 active torsions:
REMARK  status: ('A' for Active; 'I' for Inactive)
ROOT
HETATM    1  C1  UNL     1     -34.796  15.397  -6.559  1.00 20.00    -0.053 C 
HETATM    2  C2  UNL     1     -35.368  16.338  -7.318  1.00 20.00     0.017 C 
HETATM    3  C3  UNL     1     -33.479  15.542  -5.876  1.00 20.00     0.073 C 
HETATM    4  C4  UNL     1     -35.374  14.068  -6.152  1.00 20.00     0.077 C 
HETATM    5  C5  UNL     1     -33.712  14.720  -4.609  1.00 20.00     0.059 C 
HETATM    6  C6  UNL     1     -36.853  14.108  -5.767  1.00 20.00     0.051 C 
HETATM    7  C7  UNL     1     -35.132  13.005  -7.226  1.00 20.00     0.051 C 
HETATM    8  C8  UNL     1     -32.420  14.081  -4.106  1.00 20.00     0.046 C 
HETATM    9  C9  UNL     1     -34.353  15.545  -3.487  1.00 20.00     0.046 C 
HETATM   10  O10 UNL     1     -34.620  13.664  -4.983  1.00 20.00    -0.366 OA
ENDROOT
TORSDOF 0
ENDMDL
MODEL 2
REMARK VINA RESULT:      -3.8      2.275      3.879
REMARK  0 active torsions:
REMARK  status: ('A' for Active; 'I' for Inactive)
ROOT
HETATM    1  C1  UNL     1     -34.952  16.866  -2.580  1.00 20.00    -0.053 C 
HETATM    2  C2  UNL     1     -35.319  16.945  -1.296  1.00 20.00     0.017 C 
HETATM    3  C3  UNL     1     -33.677  16.265  -3.064  1.00 20.00     0.073 C 
HETATM    4  C4  UNL     1     -35.758  17.256  -3.791  1.00 20.00     0.077 C 
HETATM    5  C5  UNL     1     -34.119  15.672  -4.401  1.00 20.00     0.059 C 
HETATM    6  C6  UNL     1     -37.234  16.864  -3.727  1.00 20.00     0.051 C 
HETATM    7  C7  UNL     1     -35.615  18.749  -4.094  1.00 20.00     0.051 C 
HETATM    8  C8  UNL     1     -32.979  15.659  -5.416  1.00 20.00     0.046 C 
HETATM    9  C9  UNL     1     -34.695  14.258  -4.251  1.00 20.00     0.046 C 
HETATM   10  O10 UNL     1     -35.155  16.543  -4.898  1.00 20.00    -0.366 OA
ENDROOT
TORSDOF 0
ENDMDL
MODEL 3
REMARK VINA RESULT:      -3.8      2.199      3.136
REMARK  0 active torsions:
REMARK  status: ('A' for Active; 'I' for Inactive)
ROOT
HETATM    1  C1  UNL     1     -35.080  16.762  -4.669  1.00 20.00    -0.053 C 
HETATM    2  C2  UNL     1     -36.139  16.706  -5.483  1.00 20.00     0.017 C 
HETATM    3  C3  UNL     1     -34.736  17.923  -3.800  1.00 20.00     0.073 C 
HETATM    4  C4  UNL     1     -34.088  15.668  -4.377  1.00 20.00     0.077 C 
HETATM    5  C5  UNL     1     -34.112  17.217  -2.597  1.00 20.00     0.059 C 
HETATM    6  C6  UNL     1     -34.702  14.278  -4.208  1.00 20.00     0.051 C 
HETATM    7  C7  UNL     1     -32.974  15.634  -5.427  1.00 20.00     0.051 C 
HETATM    8  C8  UNL     1     -33.047  18.082  -1.926  1.00 20.00     0.046 C 
HETATM    9  C9  UNL     1     -35.160  16.788  -1.562  1.00 20.00     0.046 C 
HETATM   10  O10 UNL     1     -33.469  16.036  -3.120  1.00 20.00    -0.366 OA
ENDROOT
TORSDOF 0
ENDMDL
MODEL 4
REMARK VINA RESULT:      -3.8      1.249      2.632
REMARK  0 active torsions:
REMARK  status: ('A' for Active; 'I' for Inactive)
ROOT
HETATM    1  C1  UNL     1     -35.267  14.033  -6.333  1.00 20.00    -0.053 C 
HETATM    2  C2  UNL     1     -35.295  12.966  -7.138  1.00 20.00     0.017 C 
HETATM    3  C3  UNL     1     -35.310  13.977  -4.844  1.00 20.00     0.073 C 
HETATM    4  C4  UNL     1     -35.088  15.475  -6.726  1.00 20.00     0.077 C 
HETATM    5  C5  UNL     1     -34.439  15.176  -4.478  1.00 20.00     0.059 C 
HETATM    6  C6  UNL     1     -34.041  15.714  -7.814  1.00 20.00     0.051 C 
HETATM    7  C7  UNL     1     -36.423  16.112  -7.123  1.00 20.00     0.051 C 
HETATM    8  C8  UNL     1     -34.872  15.804  -3.154  1.00 20.00     0.046 C 
HETATM    9  C9  UNL     1     -32.949  14.821  -4.420  1.00 20.00     0.046 C 
HETATM   10  O10 UNL     1     -34.643  16.149  -5.523  1.00 20.00    -0.366 OA
ENDROOT
TORSDOF 0
ENDMDL
MODEL 5
REMARK VINA RESULT:      -3.8      1.489      3.133
REMARK  0 active torsions:
REMARK  status: ('A' for Active; 'I' for Inactive)
ROOT
HETATM    1  C1  UNL     1     -34.073  14.460  -5.138  1.00 20.00    -0.053 C 
HETATM    2  C2  UNL     1     -32.883  14.426  -4.529  1.00 20.00     0.017 C 
HETATM    3  C3  UNL     1     -35.352  13.993  -4.532  1.00 20.00     0.073 C 
HETATM    4  C4  UNL     1     -34.399  15.050  -6.484  1.00 20.00     0.077 C 
HETATM    5  C5  UNL     1     -36.349  14.967  -5.158  1.00 20.00     0.059 C 
HETATM    6  C6  UNL     1     -33.713  16.385  -6.778  1.00 20.00     0.051 C 
HETATM    7  C7  UNL     1     -34.123  14.051  -7.610  1.00 20.00     0.051 C 
HETATM    8  C8  UNL     1     -37.726  14.330  -5.332  1.00 20.00     0.046 C 
HETATM    9  C9  UNL     1     -36.477  16.268  -4.357  1.00 20.00     0.046 C 
HETATM   10  O10 UNL     1     -35.829  15.279  -6.467  1.00 20.00    -0.366 OA
ENDROOT
TORSDOF 0
ENDMDL
MODEL 6
REMARK VINA RESULT:      -3.7      1.602      3.211
REMARK  0 active torsions:
REMARK  status: ('A' for Active; 'I' for Inactive)
ROOT
HETATM    1  C1  UNL     1     -34.144  15.821  -4.321  1.00 20.00    -0.053 C 
HETATM    2  C2  UNL     1     -33.890  16.169  -3.055  1.00 20.00     0.017 C 
HETATM    3  C3  UNL     1     -33.744  14.527  -4.944  1.00 20.00     0.073 C 
HETATM    4  C4  UNL     1     -34.951  16.582  -5.338  1.00 20.00     0.077 C 
HETATM    5  C5  UNL     1     -34.903  14.294  -5.910  1.00 20.00     0.059 C 
HETATM    6  C6  UNL     1     -36.227  17.221  -4.789  1.00 20.00     0.051 C 
HETATM    7  C7  UNL     1     -34.096  17.630  -6.054  1.00 20.00     0.051 C 
HETATM    8  C8  UNL     1     -34.458  13.517  -7.147  1.00 20.00     0.046 C 
HETATM    9  C9  UNL     1     -36.085  13.577  -5.246  1.00 20.00     0.046 C 
HETATM   10  O10 UNL     1     -35.336  15.603  -6.334  1.00 20.00    -0.366 OA
ENDROOT
TORSDOF 0
ENDMDL
MODEL 7
REMARK VINA RESULT:      -3.7      1.104      3.433
REMARK  0 active torsions:
REMARK  status: ('A' for Active; 'I' for Inactive)
ROOT
HETATM    1  C1  UNL     1     -35.227  15.062  -4.375  1.00 20.00    -0.053 C 
HETATM    2  C2  UNL     1     -35.737  15.784  -3.372  1.00 20.00     0.017 C 
HETATM    3  C3  UNL     1     -35.973  14.019  -5.137  1.00 20.00     0.073 C 
HETATM    4  C4  UNL     1     -33.870  15.203  -5.011  1.00 20.00     0.077 C 
HETATM    5  C5  UNL     1     -35.355  14.170  -6.525  1.00 20.00     0.059 C 
HETATM    6  C6  UNL     1     -33.415  16.646  -5.228  1.00 20.00     0.051 C 
HETATM    7  C7  UNL     1     -32.809  14.422  -4.232  1.00 20.00     0.051 C 
HETATM    8  C8  UNL     1     -35.347  12.845  -7.285  1.00 20.00     0.046 C 
HETATM    9  C9  UNL     1     -36.057  15.244  -7.365  1.00 20.00     0.046 C 
HETATM   10  O10 UNL     1     -33.987  14.572  -6.310  1.00 20.00    -0.366 OA
ENDROOT
TORSDOF 0
ENDMDL
MODEL 8
REMARK VINA RESULT:      -3.7      1.957      3.497
REMARK  0 active torsions:
REMARK  status: ('A' for Active; 'I' for Inactive)
ROOT
HETATM    1  C1  UNL     1     -35.726  15.530  -3.925  1.00 20.00    -0.053 C 
HETATM    2  C2  UNL     1     -37.037  15.598  -4.178  1.00 20.00     0.017 C 
HETATM    3  C3  UNL     1     -34.857  14.364  -4.252  1.00 20.00     0.073 C 
HETATM    4  C4  UNL     1     -34.841  16.613  -3.367  1.00 20.00     0.077 C 
HETATM    5  C5  UNL     1     -33.538  15.062  -4.577  1.00 20.00     0.059 C 
HETATM    6  C6  UNL     1     -35.111  18.009  -3.929  1.00 20.00     0.051 C 
HETATM    7  C7  UNL     1     -34.889  16.635  -1.837  1.00 20.00     0.051 C 
HETATM    8  C8  UNL     1     -32.336  14.185  -4.231  1.00 20.00     0.046 C 
HETATM    9  C9  UNL     1     -33.453  15.501  -6.044  1.00 20.00     0.046 C 
HETATM   10  O10 UNL     1     -33.493  16.236  -3.740  1.00 20.00    -0.366 OA
ENDROOT
TORSDOF 0
ENDMDL
MODEL 9
REMARK VINA RESULT:      -3.7      1.423      3.291
REMARK  0 active torsions:
REMARK  status: ('A' for Active; 'I' for Inactive)
ROOT
HETATM    1  C1  UNL     1     -33.774  15.031  -4.834  1.00 20.00    -0.053 C 
HETATM    2  C2  UNL     1     -33.052  14.319  -3.962  1.00 20.00     0.017 C 
HETATM    3  C3  UNL     1     -33.206  15.966  -5.846  1.00 20.00     0.073 C 
HETATM    4  C4  UNL     1     -35.262  14.974  -5.056  1.00 20.00     0.077 C 
HETATM    5  C5  UNL     1     -34.199  15.799  -6.994  1.00 20.00     0.059 C 
HETATM    6  C6  UNL     1     -35.857  13.566  -5.033  1.00 20.00     0.051 C 
HETATM    7  C7  UNL     1     -36.005  15.882  -4.072  1.00 20.00     0.051 C 
HETATM    8  C8  UNL     1     -34.331  17.080  -7.815  1.00 20.00     0.046 C 
HETATM    9  C9  UNL     1     -33.837  14.628  -7.915  1.00 20.00     0.046 C 
HETATM   10  O10 UNL     1     -35.475  15.526  -6.378  1.00 20.00    -0.366 OA
ENDROOT
TORSDOF 0
ENDMDL
