MODEL 1
REMARK VINA RESULT:      -4.3      0.000      0.000
REMARK  0 active torsions:
REMARK  status: ('A' for Active; 'I' for Inactive)
ROOT
HETATM    1  C1  UNL     1     -37.095  14.176  -5.257  1.00 20.00     0.086 C 
HETATM    2  C2  UNL     1     -33.328  14.462  -4.529  1.00 20.00     0.013 C 
HETATM    3  C3  UNL     1     -34.824  14.216  -4.346  1.00 20.00     0.043 C 
HETATM    4  C4  UNL     1     -33.014  15.869  -5.014  1.00 20.00     0.074 C 
HETATM    5  C5  UNL     1     -35.500  15.808  -6.245  1.00 20.00     0.081 C 
HETATM    6  C6  UNL     1     -35.678  14.398  -5.618  1.00 20.00     0.137 C 
HETATM    7  C7  UNL     1     -36.316  16.052  -7.522  1.00 20.00     0.024 C 
HETATM    8  N8  UNL     1     -38.207  14.002  -4.973  1.00 20.00    -0.195 NA
HETATM    9  S9  UNL     1     -33.749  16.194  -6.637  1.00 20.00    -0.162 SA
HETATM   10 CL10 UNL     1     -35.280  13.090  -6.794  1.00 20.00    -0.102 Cl
ENDROOT
TORSDOF 0
ENDMDL
MODEL 2
REMARK VINA RESULT:      -4.3      2.236      2.439
REMARK  0 active torsions:
REMARK  status: ('A' for Active; 'I' for Inactive)
ROOT
HETATM    1  C1  UNL     1     -35.309  13.840  -4.945  1.00 20.00     0.086 C 
HETATM    2  C2  UNL     1     -34.364  16.783  -2.653  1.00 20.00     0.013 C 
HETATM    3  C3  UNL     1     -35.053  15.532  -3.195  1.00 20.00     0.043 C 
HETATM    4  C4  UNL     1     -34.459  17.969  -3.600  1.00 20.00     0.074 C 
HETATM    5  C5  UNL     1     -34.548  16.100  -5.649  1.00 20.00     0.081 C 
HETATM    6  C6  UNL     1     -34.504  15.013  -4.541  1.00 20.00     0.137 C 
HETATM    7  C7  UNL     1     -34.006  15.651  -7.013  1.00 20.00     0.024 C 
HETATM    8  N8  UNL     1     -35.941  12.919  -5.261  1.00 20.00    -0.195 NA
HETATM    9  S9  UNL     1     -33.645  17.627  -5.181  1.00 20.00    -0.162 SA
HETATM   10 CL10 UNL     1     -32.833  14.377  -4.296  1.00 20.00    -0.102 Cl
ENDROOT
TORSDOF 0
ENDMDL
MODEL 3
REMARK VINA RESULT:      -4.1      2.658      2.921
REMARK  0 active torsions:
REMARK  status: ('A' for Active; 'I' for Inactive)
ROOT
HETATM    1  C1  UNL     1     -35.672  13.850  -5.009  1.00 20.00     0.086 C 
HETATM    2  C2  UNL     1     -33.776  16.530  -2.999  1.00 20.00     0.013 C 
HETATM    3  C3  UNL     1     -34.150  15.195  -3.643  1.00 20.00     0.043 C 
HETATM    4  C4  UNL     1     -34.862  17.069  -2.081  1.00 20.00     0.074 C 
HETATM    5  C5  UNL     1     -36.661  15.729  -3.716  1.00 20.00     0.081 C 
HETATM    6  C6  UNL     1     -35.427  15.221  -4.509  1.00 20.00     0.137 C 
HETATM    7  C7  UNL     1     -37.965  15.789  -4.523  1.00 20.00     0.024 C 
HETATM    8  N8  UNL     1     -35.863  12.775  -5.401  1.00 20.00    -0.195 NA
HETATM    9  S9  UNL     1     -36.399  17.392  -2.984  1.00 20.00    -0.162 SA
HETATM   10 CL10 UNL     1     -35.126  16.215  -5.984  1.00 20.00    -0.102 Cl
ENDROOT
TORSDOF 0
ENDMDL
MODEL 4
REMARK VINA RESULT:      -3.8      1.645      1.992
REMARK  0 active torsions:
REMARK  status: ('A' for Active; 'I' for Inactive)
ROOT
HETATM    1  C1  UNL     1     -37.079  14.373  -5.128  1.00 20.00     0.086 C 
HETATM    2  C2  UNL     1     -34.524  17.244  -4.931  1.00 20.00     0.013 C 
HETATM    3  C3  UNL     1     -35.824  16.449  -4.810  1.00 20.00     0.043 C 
HETATM    4  C4  UNL     1     -33.995  17.299  -6.356  1.00 20.00     0.074 C 
HETATM    5  C5  UNL     1     -35.228  14.839  -6.720  1.00 20.00     0.081 C 
HETATM    6  C6  UNL     1     -35.735  14.976  -5.259  1.00 20.00     0.137 C 
HETATM    7  C7  UNL     1     -35.106  13.396  -7.227  1.00 20.00     0.024 C 
HETATM    8  N8  UNL     1     -38.134  13.900  -5.024  1.00 20.00    -0.195 NA
HETATM    9  S9  UNL     1     -33.600  15.647  -6.985  1.00 20.00    -0.162 SA
HETATM   10 CL10 UNL     1     -34.693  14.064  -4.103  1.00 20.00    -0.102 Cl
ENDROOT
TORSDOF 0
ENDMDL
MODEL 5
REMARK VINA RESULT:      -3.8      2.961      3.791
REMARK  0 active torsions:
REMARK  status: ('A' for Active; 'I' for Inactive)
ROOT
HETATM    1  C1  UNL     1     -33.675  17.029  -5.167  1.00 20.00     0.086 C 
HETATM    2  C2  UNL     1     -34.187  13.923  -7.380  1.00 20.00     0.013 C 
HETATM    3  C3  UNL     1     -33.795  15.326  -6.921  1.00 20.00     0.043 C 
HETATM    4  C4  UNL     1     -35.664  13.624  -7.176  1.00 20.00     0.074 C 
HETATM    5  C5  UNL     1     -35.544  15.393  -5.041  1.00 20.00     0.081 C 
HETATM    6  C6  UNL     1     -34.058  15.625  -5.430  1.00 20.00     0.137 C 
HETATM    7  C7  UNL     1     -35.873  15.663  -3.567  1.00 20.00     0.024 C 
HETATM    8  N8  UNL     1     -33.374  18.130  -4.961  1.00 20.00    -0.195 NA
HETATM    9  S9  UNL     1     -36.121  13.694  -5.425  1.00 20.00    -0.162 SA
HETATM   10 CL10 UNL     1     -32.942  14.633  -4.418  1.00 20.00    -0.102 Cl
ENDROOT
TORSDOF 0
ENDMDL
MODEL 6
REMARK VINA RESULT:      -3.7      2.127      2.599
REMARK  0 active torsions:
REMARK  status: ('A' for Active; 'I' for Inactive)
ROOT
HETATM    1  C1  UNL     1     -35.408  13.938  -5.406  1.00 20.00     0.086 C 
HETATM    2  C2  UNL     1     -35.254  17.747  -4.880  1.00 20.00     0.013 C 
HETATM    3  C3  UNL     1     -35.691  16.286  -4.778  1.00 20.00     0.043 C 
HETATM    4  C4  UNL     1     -35.257  18.268  -6.309  1.00 20.00     0.074 C 
HETATM    5  C5  UNL     1     -34.731  15.653  -7.074  1.00 20.00     0.081 C 
HETATM    6  C6  UNL     1     -34.821  15.286  -5.568  1.00 20.00     0.137 C 
HETATM    7  C7  UNL     1     -33.871  14.702  -7.918  1.00 20.00     0.024 C 
HETATM    8  N8  UNL     1     -35.868  12.881  -5.278  1.00 20.00    -0.195 NA
HETATM    9  S9  UNL     1     -34.096  17.352  -7.355  1.00 20.00    -0.162 SA
HETATM   10 CL10 UNL     1     -33.189  15.186  -4.807  1.00 20.00    -0.102 Cl
ENDROOT
TORSDOF 0
ENDMDL
MODEL 7
REMARK VINA RESULT:      -3.7      2.004      2.459
REMARK  0 active torsions:
REMARK  status: ('A' for Active; 'I' for Inactive)
ROOT
HETATM    1  C1  UNL     1     -37.196  14.623  -5.163  1.00 20.00     0.086 C 
HETATM    2  C2  UNL     1     -33.756  15.380  -6.712  1.00 20.00     0.013 C 
HETATM    3  C3  UNL     1     -35.084  14.693  -6.396  1.00 20.00     0.043 C 
HETATM    4  C4  UNL     1     -32.888  15.586  -5.480  1.00 20.00     0.074 C 
HETATM    5  C5  UNL     1     -35.263  15.721  -4.050  1.00 20.00     0.081 C 
HETATM    6  C6  UNL     1     -35.987  15.443  -5.395  1.00 20.00     0.137 C 
HETATM    7  C7  UNL     1     -36.104  16.474  -3.010  1.00 20.00     0.024 C 
HETATM    8  N8  UNL     1     -38.145  13.979  -4.982  1.00 20.00    -0.195 NA
HETATM    9  S9  UNL     1     -33.699  16.658  -4.266  1.00 20.00    -0.162 SA
HETATM   10 CL10 UNL     1     -36.586  16.964  -6.157  1.00 20.00    -0.102 Cl
ENDROOT
TORSDOF 0
ENDMDL
MODEL 8
REMARK VINA RESULT:      -3.6      2.598      3.544
REMARK  0 active torsions:
REMARK  status: ('A' for Active; 'I' for Inactive)
ROOT
HETATM    1  C1  UNL     1     -33.557  14.307  -4.450  1.00 20.00     0.086 C 
HETATM    2  C2  UNL     1     -37.298  14.216  -5.351  1.00 20.00     0.013 C 
HETATM    3  C3  UNL     1     -35.888  13.769  -4.965  1.00 20.00     0.043 C 
HETATM    4  C4  UNL     1     -37.333  15.007  -6.649  1.00 20.00     0.074 C 
HETATM    5  C5  UNL     1     -34.756  15.820  -6.017  1.00 20.00     0.081 C 
HETATM    6  C6  UNL     1     -34.871  14.911  -4.763  1.00 20.00     0.137 C 
HETATM    7  C7  UNL     1     -33.766  16.984  -5.880  1.00 20.00     0.024 C 
HETATM    8  N8  UNL     1     -32.527  13.833  -4.203  1.00 20.00    -0.195 NA
HETATM    9  S9  UNL     1     -36.369  16.535  -6.525  1.00 20.00    -0.162 SA
HETATM   10 CL10 UNL     1     -35.320  15.855  -3.294  1.00 20.00    -0.102 Cl
ENDROOT
TORSDOF 0
ENDMDL
MODEL 9
REMARK VINA RESULT:      -3.6      2.140      3.167
REMARK  0 active torsions:
REMARK  status: ('A' for Active; 'I' for Inactive)
ROOT
HETATM    1  C1  UNL     1     -35.752  13.954  -5.190  1.00 20.00     0.086 C 
HETATM    2  C2  UNL     1     -36.698  17.603  -5.968  1.00 20.00     0.013 C 
HETATM    3  C3  UNL     1     -36.733  16.076  -5.916  1.00 20.00     0.043 C 
HETATM    4  C4  UNL     1     -35.411  18.146  -6.568  1.00 20.00     0.074 C 
HETATM    5  C5  UNL     1     -34.195  15.851  -5.589  1.00 20.00     0.081 C 
HETATM    6  C6  UNL     1     -35.603  15.423  -5.093  1.00 20.00     0.137 C 
HETATM    7  C7  UNL     1     -33.024  15.244  -4.805  1.00 20.00     0.024 C 
HETATM    8  N8  UNL     1     -35.871  12.802  -5.266  1.00 20.00    -0.195 NA
HETATM    9  S9  UNL     1     -33.965  17.672  -5.585  1.00 20.00    -0.162 SA
HETATM   10 CL10 UNL     1     -35.840  15.807  -3.347  1.00 20.00    -0.102 Cl
ENDROOT
TORSDOF 0
ENDMDL
