MODEL 1
REMARK VINA RESULT:      -4.6      0.000      0.000
REMARK  0 active torsions:
REMARK  status: ('A' for Active; 'I' for Inactive)
ROOT
HETATM    1  C1  UNL     1     -35.478  13.653  -4.793  1.00 20.00     0.067 C 
HETATM    2  C2  UNL     1     -35.596  15.900  -3.740  1.00 20.00     0.059 C 
HETATM    3  C3  UNL     1     -34.774  14.648  -3.979  1.00 20.00     0.129 C 
HETATM    4  C4  UNL     1     -34.534  16.929  -3.350  1.00 20.00     0.056 C 
HETATM    5  C5  UNL     1     -33.495  15.221  -4.608  1.00 20.00     0.071 C 
HETATM    6  C6  UNL     1     -34.892  18.331  -3.833  1.00 20.00     0.045 C 
HETATM    7  C7  UNL     1     -34.276  16.941  -1.842  1.00 20.00     0.045 C 
HETATM    8  C8  UNL     1     -32.268  14.368  -4.282  1.00 20.00     0.047 C 
HETATM    9  C9  UNL     1     -33.572  15.459  -6.123  1.00 20.00     0.047 C 
HETATM   10  N10 UNL     1     -36.035  12.864  -5.436  1.00 20.00    -0.197 NA
HETATM   11  O11 UNL     1     -33.311  16.519  -3.997  1.00 20.00    -0.369 OA
ENDROOT
TORSDOF 0
ENDMDL
MODEL 2
REMARK VINA RESULT:      -4.4      1.057      1.222
REMARK  0 active torsions:
REMARK  status: ('A' for Active; 'I' for Inactive)
ROOT
HETATM    1  C1  UNL     1     -35.441  13.826  -4.775  1.00 20.00     0.067 C 
HETATM    2  C2  UNL     1     -35.529  15.720  -3.170  1.00 20.00     0.059 C 
HETATM    3  C3  UNL     1     -34.721  14.971  -4.212  1.00 20.00     0.129 C 
HETATM    4  C4  UNL     1     -34.832  17.080  -3.119  1.00 20.00     0.056 C 
HETATM    5  C5  UNL     1     -34.379  16.085  -5.213  1.00 20.00     0.071 C 
HETATM    6  C6  UNL     1     -35.813  18.215  -2.840  1.00 20.00     0.045 C 
HETATM    7  C7  UNL     1     -33.695  17.103  -2.095  1.00 20.00     0.045 C 
HETATM    8  C8  UNL     1     -33.043  15.833  -5.912  1.00 20.00     0.047 C 
HETATM    9  C9  UNL     1     -35.466  16.367  -6.260  1.00 20.00     0.047 C 
HETATM   10  N10 UNL     1     -36.011  12.919  -5.220  1.00 20.00    -0.197 NA
HETATM   11  O11 UNL     1     -34.248  17.289  -4.422  1.00 20.00    -0.369 OA
ENDROOT
TORSDOF 0
ENDMDL
MODEL 3
REMARK VINA RESULT:      -4.4      1.952      2.764
REMARK  0 active torsions:
REMARK  status: ('A' for Active; 'I' for Inactive)
ROOT
HETATM    1  C1  UNL     1     -37.315  14.109  -5.096  1.00 20.00     0.067 C 
HETATM    2  C2  UNL     1     -35.220  15.197  -4.324  1.00 20.00     0.059 C 
HETATM    3  C3  UNL     1     -35.851  14.100  -5.158  1.00 20.00     0.129 C 
HETATM    4  C4  UNL     1     -33.819  15.311  -4.925  1.00 20.00     0.056 C 
HETATM    5  C5  UNL     1     -35.255  14.372  -6.548  1.00 20.00     0.071 C 
HETATM    6  C6  UNL     1     -33.296  16.745  -4.888  1.00 20.00     0.045 C 
HETATM    7  C7  UNL     1     -32.824  14.370  -4.243  1.00 20.00     0.045 C 
HETATM    8  C8  UNL     1     -35.107  13.088  -7.366  1.00 20.00     0.047 C 
HETATM    9  C9  UNL     1     -36.002  15.428  -7.375  1.00 20.00     0.047 C 
HETATM   10  N10 UNL     1     -38.475  14.115  -5.045  1.00 20.00    -0.197 NA
HETATM   11  O11 UNL     1     -33.931  14.900  -6.303  1.00 20.00    -0.369 OA
ENDROOT
TORSDOF 0
ENDMDL
MODEL 4
REMARK VINA RESULT:      -4.1      1.548      2.668
REMARK  0 active torsions:
REMARK  status: ('A' for Active; 'I' for Inactive)
ROOT
HETATM    1  C1  UNL     1     -35.366  13.892  -5.284  1.00 20.00     0.067 C 
HETATM    2  C2  UNL     1     -34.510  15.321  -3.441  1.00 20.00     0.059 C 
HETATM    3  C3  UNL     1     -35.073  15.260  -4.848  1.00 20.00     0.129 C 
HETATM    4  C4  UNL     1     -34.766  16.775  -3.042  1.00 20.00     0.056 C 
HETATM    5  C5  UNL     1     -36.293  16.189  -4.746  1.00 20.00     0.071 C 
HETATM    6  C6  UNL     1     -35.067  16.913  -1.552  1.00 20.00     0.045 C 
HETATM    7  C7  UNL     1     -33.601  17.688  -3.430  1.00 20.00     0.045 C 
HETATM    8  C8  UNL     1     -36.595  16.882  -6.074  1.00 20.00     0.047 C 
HETATM    9  C9  UNL     1     -37.567  15.523  -4.208  1.00 20.00     0.047 C 
HETATM   10  N10 UNL     1     -35.597  12.809  -5.630  1.00 20.00    -0.197 NA
HETATM   11  O11 UNL     1     -35.923  17.206  -3.786  1.00 20.00    -0.369 OA
ENDROOT
TORSDOF 0
ENDMDL
MODEL 5
REMARK VINA RESULT:      -4.1      1.666      2.546
REMARK  0 active torsions:
REMARK  status: ('A' for Active; 'I' for Inactive)
ROOT
HETATM    1  C1  UNL     1     -35.766  13.945  -5.192  1.00 20.00     0.067 C 
HETATM    2  C2  UNL     1     -35.539  16.023  -6.534  1.00 20.00     0.059 C 
HETATM    3  C3  UNL     1     -35.643  15.405  -5.153  1.00 20.00     0.129 C 
HETATM    4  C4  UNL     1     -34.929  17.395  -6.241  1.00 20.00     0.056 C 
HETATM    5  C5  UNL     1     -34.374  15.935  -4.468  1.00 20.00     0.071 C 
HETATM    6  C6  UNL     1     -34.006  17.860  -7.364  1.00 20.00     0.045 C 
HETATM    7  C7  UNL     1     -36.000  18.452  -5.967  1.00 20.00     0.045 C 
HETATM    8  C8  UNL     1     -34.567  16.103  -2.961  1.00 20.00     0.047 C 
HETATM    9  C9  UNL     1     -33.104  15.116  -4.740  1.00 20.00     0.047 C 
HETATM   10  N10 UNL     1     -35.866  12.789  -5.223  1.00 20.00    -0.197 NA
HETATM   11  O11 UNL     1     -34.147  17.245  -5.038  1.00 20.00    -0.369 OA
ENDROOT
TORSDOF 0
ENDMDL
MODEL 6
REMARK VINA RESULT:      -4.0      1.727      2.693
REMARK  0 active torsions:
REMARK  status: ('A' for Active; 'I' for Inactive)
ROOT
HETATM    1  C1  UNL     1     -37.285  14.365  -5.105  1.00 20.00     0.067 C 
HETATM    2  C2  UNL     1     -35.224  14.864  -3.811  1.00 20.00     0.059 C 
HETATM    3  C3  UNL     1     -35.867  14.726  -5.177  1.00 20.00     0.129 C 
HETATM    4  C4  UNL     1     -33.981  15.703  -4.109  1.00 20.00     0.056 C 
HETATM    5  C5  UNL     1     -35.574  16.096  -5.809  1.00 20.00     0.071 C 
HETATM    6  C6  UNL     1     -33.631  16.635  -2.953  1.00 20.00     0.045 C 
HETATM    7  C7  UNL     1     -32.776  14.833  -4.468  1.00 20.00     0.045 C 
HETATM    8  C8  UNL     1     -35.431  16.004  -7.329  1.00 20.00     0.047 C 
HETATM    9  C9  UNL     1     -36.578  17.200  -5.449  1.00 20.00     0.047 C 
HETATM   10  N10 UNL     1     -38.408  14.077  -5.047  1.00 20.00    -0.197 NA
HETATM   11  O11 UNL     1     -34.298  16.506  -5.265  1.00 20.00    -0.369 OA
ENDROOT
TORSDOF 0
ENDMDL
MODEL 7
REMARK VINA RESULT:      -3.9      2.406      3.974
REMARK  0 active torsions:
REMARK  status: ('A' for Active; 'I' for Inactive)
ROOT
HETATM    1  C1  UNL     1     -34.036  16.613  -2.646  1.00 20.00     0.067 C 
HETATM    2  C2  UNL     1     -34.241  14.724  -4.247  1.00 20.00     0.059 C 
HETATM    3  C3  UNL     1     -34.904  15.929  -3.608  1.00 20.00     0.129 C 
HETATM    4  C4  UNL     1     -35.080  14.509  -5.507  1.00 20.00     0.056 C 
HETATM    5  C5  UNL     1     -35.304  16.762  -4.836  1.00 20.00     0.071 C 
HETATM    6  C6  UNL     1     -34.241  13.980  -6.668  1.00 20.00     0.045 C 
HETATM    7  C7  UNL     1     -36.269  13.582  -5.252  1.00 20.00     0.045 C 
HETATM    8  C8  UNL     1     -36.563  17.590  -4.578  1.00 20.00     0.047 C 
HETATM    9  C9  UNL     1     -34.194  17.668  -5.389  1.00 20.00     0.047 C 
HETATM   10  N10 UNL     1     -33.349  17.153  -1.883  1.00 20.00    -0.197 NA
HETATM   11  O11 UNL     1     -35.606  15.801  -5.873  1.00 20.00    -0.369 OA
ENDROOT
TORSDOF 0
ENDMDL
MODEL 8
REMARK VINA RESULT:      -3.9      1.710      2.174
REMARK  0 active torsions:
REMARK  status: ('A' for Active; 'I' for Inactive)
ROOT
HETATM    1  C1  UNL     1     -35.830  16.653  -5.809  1.00 20.00     0.067 C 
HETATM    2  C2  UNL     1     -35.068  17.726  -3.703  1.00 20.00     0.059 C 
HETATM    3  C3  UNL     1     -35.441  16.440  -4.413  1.00 20.00     0.129 C 
HETATM    4  C4  UNL     1     -34.249  17.226  -2.512  1.00 20.00     0.056 C 
HETATM    5  C5  UNL     1     -34.181  15.584  -4.208  1.00 20.00     0.071 C 
HETATM    6  C6  UNL     1     -33.134  18.199  -2.137  1.00 20.00     0.045 C 
HETATM    7  C7  UNL     1     -35.128  16.937  -1.294  1.00 20.00     0.045 C 
HETATM    8  C8  UNL     1     -34.509  14.092  -4.145  1.00 20.00     0.047 C 
HETATM    9  C9  UNL     1     -33.065  15.825  -5.235  1.00 20.00     0.047 C 
HETATM   10  N10 UNL     1     -36.140  16.822  -6.915  1.00 20.00    -0.197 NA
HETATM   11  O11 UNL     1     -33.651  15.979  -2.923  1.00 20.00    -0.369 OA
ENDROOT
TORSDOF 0
ENDMDL
MODEL 9
REMARK VINA RESULT:      -3.8      2.464      3.323
REMARK  0 active torsions:
REMARK  status: ('A' for Active; 'I' for Inactive)
ROOT
HETATM    1  C1  UNL     1     -33.306  14.390  -4.516  1.00 20.00     0.067 C 
HETATM    2  C2  UNL     1     -35.744  14.827  -4.337  1.00 20.00     0.059 C 
HETATM    3  C3  UNL     1     -34.430  15.200  -4.994  1.00 20.00     0.129 C 
HETATM    4  C4  UNL     1     -36.778  15.397  -5.309  1.00 20.00     0.056 C 
HETATM    5  C5  UNL     1     -34.762  15.041  -6.486  1.00 20.00     0.071 C 
HETATM    6  C6  UNL     1     -38.038  14.537  -5.372  1.00 20.00     0.045 C 
HETATM    7  C7  UNL     1     -37.144  16.844  -4.971  1.00 20.00     0.045 C 
HETATM    8  C8  UNL     1     -33.950  16.000  -7.356  1.00 20.00     0.047 C 
HETATM    9  C9  UNL     1     -34.627  13.611  -7.028  1.00 20.00     0.047 C 
HETATM   10  N10 UNL     1     -32.415  13.750  -4.137  1.00 20.00    -0.197 NA
HETATM   11  O11 UNL     1     -36.158  15.398  -6.611  1.00 20.00    -0.369 OA
ENDROOT
TORSDOF 0
ENDMDL
