MODEL 1
REMARK VINA RESULT:      -4.6      0.000      0.000
REMARK  1 active torsions:
REMARK  status: ('A' for Active; 'I' for Inactive)
REMARK    1  A    between atoms: C6_6  and  O10_10 
ROOT
HETATM    1  C1  UNL     1     -33.014  14.354  -4.161  1.00 20.00     0.015 C 
HETATM    2  C2  UNL     1     -34.120  14.273  -4.621  1.00 20.00    -0.077 C 
HETATM    3  C3  UNL     1     -36.936  14.483  -7.288  1.00 20.00     0.023 C 
HETATM    4  C4  UNL     1     -37.960  15.379  -6.601  1.00 20.00     0.075 C 
HETATM    5  C5  UNL     1     -36.429  15.030  -4.327  1.00 20.00     0.126 C 
HETATM    6  C6  UNL     1     -35.484  14.170  -5.190  1.00 20.00     0.135 C 
HETATM    7  C7  UNL     1     -35.494  14.559  -6.712  1.00 20.00    -0.004 C 
HETATM    8  C8  UNL     1     -34.632  13.569  -7.539  1.00 20.00     0.019 C 
HETATM    9  C9  UNL     1     -34.922  15.977  -6.953  1.00 20.00     0.019 C 
HETATM   10  S11 UNL     1     -38.168  14.958  -4.853  1.00 20.00    -0.165 SA
ENDROOT
BRANCH   6  11
HETATM   11  O10 UNL     1     -35.897  12.801  -5.066  1.00 20.00    -0.376 OA
HETATM   12  H25 UNL     1     -35.425  12.315  -5.758  1.00 20.00     0.211 HD
ENDBRANCH   6  11
TORSDOF 1
ENDMDL
MODEL 2
REMARK VINA RESULT:      -4.2      2.417      3.632
REMARK  1 active torsions:
REMARK  status: ('A' for Active; 'I' for Inactive)
REMARK    1  A    between atoms: C6_6  and  O10_10 
ROOT
HETATM    1  C1  UNL     1     -33.815  14.422  -7.904  1.00 20.00     0.015 C 
HETATM    2  C2  UNL     1     -33.999  15.086  -6.922  1.00 20.00    -0.077 C 
HETATM    3  C3  UNL     1     -34.485  15.882  -3.151  1.00 20.00     0.023 C 
HETATM    4  C4  UNL     1     -35.811  16.633  -3.152  1.00 20.00     0.075 C 
HETATM    5  C5  UNL     1     -35.534  16.697  -5.900  1.00 20.00     0.126 C 
HETATM    6  C6  UNL     1     -34.225  15.906  -5.708  1.00 20.00     0.135 C 
HETATM    7  C7  UNL     1     -34.211  15.017  -4.413  1.00 20.00    -0.004 C 
HETATM    8  C8  UNL     1     -32.820  14.361  -4.210  1.00 20.00     0.019 C 
HETATM    9  C9  UNL     1     -35.251  13.872  -4.483  1.00 20.00     0.019 C 
HETATM   10  S11 UNL     1     -35.924  17.814  -4.519  1.00 20.00    -0.165 SA
ENDROOT
BRANCH   6  11
HETATM   11  O10 UNL     1     -33.147  16.851  -5.624  1.00 20.00    -0.376 OA
HETATM   12  H25 UNL     1     -33.524  17.709  -5.864  1.00 20.00     0.211 HD
ENDBRANCH   6  11
TORSDOF 1
ENDMDL
MODEL 3
REMARK VINA RESULT:      -4.1      1.678      1.983
REMARK  1 active torsions:
REMARK  status: ('A' for Active; 'I' for Inactive)
REMARK    1  A    between atoms: C6_6  and  O10_10 
ROOT
HETATM    1  C1  UNL     1     -34.077  16.643  -2.271  1.00 20.00     0.015 C 
HETATM    2  C2  UNL     1     -34.530  16.002  -3.179  1.00 20.00    -0.077 C 
HETATM    3  C3  UNL     1     -35.149  14.893  -6.850  1.00 20.00     0.023 C 
HETATM    4  C4  UNL     1     -36.669  14.948  -6.948  1.00 20.00     0.075 C 
HETATM    5  C5  UNL     1     -36.626  15.257  -4.202  1.00 20.00     0.126 C 
HETATM    6  C6  UNL     1     -35.088  15.209  -4.299  1.00 20.00     0.135 C 
HETATM    7  C7  UNL     1     -34.529  15.708  -5.680  1.00 20.00    -0.004 C 
HETATM    8  C8  UNL     1     -32.994  15.502  -5.760  1.00 20.00     0.019 C 
HETATM    9  C9  UNL     1     -34.802  17.214  -5.907  1.00 20.00     0.019 C 
HETATM   10  S11 UNL     1     -37.471  14.269  -5.473  1.00 20.00    -0.165 SA
ENDROOT
BRANCH   6  11
HETATM   11  O10 UNL     1     -34.676  13.847  -4.106  1.00 20.00    -0.376 OA
HETATM   12  H25 UNL     1     -34.103  13.632  -4.855  1.00 20.00     0.211 HD
ENDBRANCH   6  11
TORSDOF 1
ENDMDL
MODEL 4
REMARK VINA RESULT:      -4.0      2.688      3.956
REMARK  1 active torsions:
REMARK  status: ('A' for Active; 'I' for Inactive)
REMARK    1  A    between atoms: C6_6  and  O10_10 
ROOT
HETATM    1  C1  UNL     1     -34.387  14.085  -7.850  1.00 20.00     0.015 C 
HETATM    2  C2  UNL     1     -34.110  14.804  -6.930  1.00 20.00    -0.077 C 
HETATM    3  C3  UNL     1     -34.182  16.215  -3.312  1.00 20.00     0.023 C 
HETATM    4  C4  UNL     1     -34.526  17.681  -3.548  1.00 20.00     0.075 C 
HETATM    5  C5  UNL     1     -34.054  17.146  -6.217  1.00 20.00     0.126 C 
HETATM    6  C6  UNL     1     -33.767  15.692  -5.794  1.00 20.00     0.135 C 
HETATM    7  C7  UNL     1     -34.522  15.256  -4.487  1.00 20.00    -0.004 C 
HETATM    8  C8  UNL     1     -34.082  13.837  -4.043  1.00 20.00     0.019 C 
HETATM    9  C9  UNL     1     -36.056  15.218  -4.687  1.00 20.00     0.019 C 
HETATM   10  S11 UNL     1     -33.617  18.376  -4.951  1.00 20.00    -0.165 SA
ENDROOT
BRANCH   6  11
HETATM   11  O10 UNL     1     -32.355  15.568  -5.567  1.00 20.00    -0.376 OA
HETATM   12  H25 UNL     1     -32.136  16.212  -4.879  1.00 20.00     0.211 HD
ENDBRANCH   6  11
TORSDOF 1
ENDMDL
MODEL 5
REMARK VINA RESULT:      -4.0      1.950      3.559
REMARK  1 active torsions:
REMARK  status: ('A' for Active; 'I' for Inactive)
REMARK    1  A    between atoms: C6_6  and  O10_10 
ROOT
HETATM    1  C1  UNL     1     -38.874  14.713  -4.909  1.00 20.00     0.015 C 
HETATM    2  C2  UNL     1     -37.737  14.497  -5.227  1.00 20.00    -0.077 C 
HETATM    3  C3  UNL     1     -33.901  15.052  -5.490  1.00 20.00     0.023 C 
HETATM    4  C4  UNL     1     -33.677  15.018  -6.997  1.00 20.00     0.075 C 
HETATM    5  C5  UNL     1     -36.279  14.102  -7.154  1.00 20.00     0.126 C 
HETATM    6  C6  UNL     1     -36.333  14.228  -5.619  1.00 20.00     0.135 C 
HETATM    7  C7  UNL     1     -35.365  15.324  -5.043  1.00 20.00    -0.004 C 
HETATM    8  C8  UNL     1     -35.368  15.301  -3.492  1.00 20.00     0.019 C 
HETATM    9  C9  UNL     1     -35.776  16.750  -5.481  1.00 20.00     0.019 C 
HETATM   10  S11 UNL     1     -34.626  13.700  -7.797  1.00 20.00    -0.165 SA
ENDROOT
BRANCH   6  11
HETATM   11  O10 UNL     1     -35.969  12.958  -5.058  1.00 20.00    -0.376 OA
HETATM   12  H25 UNL     1     -35.058  13.054  -4.746  1.00 20.00     0.211 HD
ENDBRANCH   6  11
TORSDOF 1
ENDMDL
MODEL 6
REMARK VINA RESULT:      -4.0      2.039      3.163
REMARK  1 active torsions:
REMARK  status: ('A' for Active; 'I' for Inactive)
REMARK    1  A    between atoms: C6_6  and  O10_10 
ROOT
HETATM    1  C1  UNL     1     -34.283  13.710  -7.608  1.00 20.00     0.015 C 
HETATM    2  C2  UNL     1     -34.485  14.160  -6.514  1.00 20.00    -0.077 C 
HETATM    3  C3  UNL     1     -36.426  15.912  -3.641  1.00 20.00     0.023 C 
HETATM    4  C4  UNL     1     -35.469  17.031  -3.246  1.00 20.00     0.075 C 
HETATM    5  C5  UNL     1     -33.628  15.740  -4.851  1.00 20.00     0.126 C 
HETATM    6  C6  UNL     1     -34.735  14.714  -5.162  1.00 20.00     0.135 C 
HETATM    7  C7  UNL     1     -36.188  15.302  -5.051  1.00 20.00    -0.004 C 
HETATM    8  C8  UNL     1     -37.250  14.187  -5.239  1.00 20.00     0.019 C 
HETATM    9  C9  UNL     1     -36.461  16.381  -6.127  1.00 20.00     0.019 C 
HETATM   10  S11 UNL     1     -33.750  16.467  -3.189  1.00 20.00    -0.165 SA
ENDROOT
BRANCH   6  11
HETATM   11  O10 UNL     1     -34.609  13.631  -4.227  1.00 20.00    -0.376 OA
HETATM   12  H25 UNL     1     -35.409  13.653  -3.682  1.00 20.00     0.211 HD
ENDBRANCH   6  11
TORSDOF 1
ENDMDL
MODEL 7
REMARK VINA RESULT:      -3.8      2.426      2.911
REMARK  1 active torsions:
REMARK  status: ('A' for Active; 'I' for Inactive)
REMARK    1  A    between atoms: C6_6  and  O10_10 
ROOT
HETATM    1  C1  UNL     1     -34.042  17.013  -1.664  1.00 20.00     0.015 C 
HETATM    2  C2  UNL     1     -34.688  16.766  -2.645  1.00 20.00    -0.077 C 
HETATM    3  C3  UNL     1     -35.527  15.232  -6.114  1.00 20.00     0.023 C 
HETATM    4  C4  UNL     1     -35.923  16.463  -6.920  1.00 20.00     0.075 C 
HETATM    5  C5  UNL     1     -35.915  17.793  -4.498  1.00 20.00     0.126 C 
HETATM    6  C6  UNL     1     -35.486  16.460  -3.856  1.00 20.00     0.135 C 
HETATM    7  C7  UNL     1     -34.695  15.517  -4.832  1.00 20.00    -0.004 C 
HETATM    8  C8  UNL     1     -34.417  14.143  -4.168  1.00 20.00     0.019 C 
HETATM    9  C9  UNL     1     -33.326  16.116  -5.235  1.00 20.00     0.019 C 
HETATM   10  S11 UNL     1     -36.969  17.593  -5.967  1.00 20.00    -0.165 SA
ENDROOT
BRANCH   6  11
HETATM   11  O10 UNL     1     -36.672  15.776  -3.424  1.00 20.00    -0.376 OA
HETATM   12  H25 UNL     1     -37.029  15.335  -4.208  1.00 20.00     0.211 HD
ENDBRANCH   6  11
TORSDOF 1
ENDMDL
MODEL 8
REMARK VINA RESULT:      -3.7      2.606      3.484
REMARK  1 active torsions:
REMARK  status: ('A' for Active; 'I' for Inactive)
REMARK    1  A    between atoms: C6_6  and  O10_10 
ROOT
HETATM    1  C1  UNL     1     -34.844  16.649  -1.895  1.00 20.00     0.015 C 
HETATM    2  C2  UNL     1     -34.892  16.555  -3.091  1.00 20.00    -0.077 C 
HETATM    3  C3  UNL     1     -34.487  14.930  -6.596  1.00 20.00     0.023 C 
HETATM    4  C4  UNL     1     -33.645  15.965  -7.332  1.00 20.00     0.075 C 
HETATM    5  C5  UNL     1     -34.161  17.612  -5.174  1.00 20.00     0.126 C 
HETATM    6  C6  UNL     1     -34.953  16.438  -4.567  1.00 20.00     0.135 C 
HETATM    7  C7  UNL     1     -34.452  15.027  -5.045  1.00 20.00    -0.004 C 
HETATM    8  C8  UNL     1     -35.377  13.904  -4.507  1.00 20.00     0.019 C 
HETATM    9  C9  UNL     1     -33.020  14.720  -4.545  1.00 20.00     0.019 C 
HETATM   10  S11 UNL     1     -34.195  17.656  -6.992  1.00 20.00    -0.165 SA
ENDROOT
BRANCH   6  11
HETATM   11  O10 UNL     1     -36.328  16.588  -4.950  1.00 20.00    -0.376 OA
HETATM   12  H25 UNL     1     -36.844  16.087  -4.302  1.00 20.00     0.211 HD
ENDBRANCH   6  11
TORSDOF 1
ENDMDL
MODEL 9
REMARK VINA RESULT:      -3.7      2.504      3.206
REMARK  1 active torsions:
REMARK  status: ('A' for Active; 'I' for Inactive)
REMARK    1  A    between atoms: C6_6  and  O10_10 
ROOT
HETATM    1  C1  UNL     1     -33.724  16.519  -2.778  1.00 20.00     0.015 C 
HETATM    2  C2  UNL     1     -33.772  16.173  -3.926  1.00 20.00    -0.077 C 
HETATM    3  C3  UNL     1     -34.671  16.334  -7.702  1.00 20.00     0.023 C 
HETATM    4  C4  UNL     1     -35.381  15.003  -7.918  1.00 20.00     0.075 C 
HETATM    5  C5  UNL     1     -34.460  14.341  -5.398  1.00 20.00     0.126 C 
HETATM    6  C6  UNL     1     -33.830  15.747  -5.345  1.00 20.00     0.135 C 
HETATM    7  C7  UNL     1     -34.585  16.809  -6.224  1.00 20.00    -0.004 C 
HETATM    8  C8  UNL     1     -33.822  18.159  -6.234  1.00 20.00     0.019 C 
HETATM    9  C9  UNL     1     -36.012  17.092  -5.695  1.00 20.00     0.019 C 
HETATM   10  S11 UNL     1     -34.541  13.639  -7.074  1.00 20.00    -0.165 SA
ENDROOT
BRANCH   6  11
HETATM   11  O10 UNL     1     -32.478  15.644  -5.815  1.00 20.00    -0.376 OA
HETATM   12  H25 UNL     1     -32.007  16.404  -5.445  1.00 20.00     0.211 HD
ENDBRANCH   6  11
TORSDOF 1
ENDMDL
