MODEL 1
REMARK VINA RESULT:      -4.1      0.000      0.000
REMARK  0 active torsions:
REMARK  status: ('A' for Active; 'I' for Inactive)
ROOT
HETATM    1  C1  UNL     1     -35.305  13.799  -4.983  1.00 20.00     0.086 C 
HETATM    2  C2  UNL     1     -35.142  15.669  -3.365  1.00 20.00     0.056 C 
HETATM    3  C3  UNL     1     -34.426  16.000  -5.683  1.00 20.00     0.115 C 
HETATM    4  C4  UNL     1     -34.552  17.075  -3.210  1.00 20.00     0.046 C 
HETATM    5  C5  UNL     1     -34.506  14.961  -4.568  1.00 20.00     0.135 C 
HETATM    6  C6  UNL     1     -33.407  17.170  -2.211  1.00 20.00     0.021 C 
HETATM    7  N7  UNL     1     -35.936  12.882  -5.312  1.00 20.00    -0.195 NA
HETATM    8  S8  UNL     1     -34.001  17.569  -4.875  1.00 20.00    -0.162 SA
HETATM    9 CL9  UNL     1     -32.877  14.323  -4.173  1.00 20.00    -0.102 Cl
ENDROOT
TORSDOF 0
ENDMDL
MODEL 2
REMARK VINA RESULT:      -3.7      1.759      1.931
REMARK  0 active torsions:
REMARK  status: ('A' for Active; 'I' for Inactive)
ROOT
HETATM    1  C1  UNL     1     -35.701  13.882  -4.997  1.00 20.00     0.086 C 
HETATM    2  C2  UNL     1     -34.370  15.346  -3.505  1.00 20.00     0.056 C 
HETATM    3  C3  UNL     1     -36.745  15.817  -3.869  1.00 20.00     0.115 C 
HETATM    4  C4  UNL     1     -34.443  16.681  -2.754  1.00 20.00     0.046 C 
HETATM    5  C5  UNL     1     -35.493  15.266  -4.545  1.00 20.00     0.135 C 
HETATM    6  C6  UNL     1     -33.527  17.764  -3.307  1.00 20.00     0.021 C 
HETATM    7  N7  UNL     1     -35.866  12.789  -5.352  1.00 20.00    -0.195 NA
HETATM    8  S8  UNL     1     -36.187  17.203  -2.838  1.00 20.00    -0.162 SA
HETATM    9 CL9  UNL     1     -35.097  16.209  -6.018  1.00 20.00    -0.102 Cl
ENDROOT
TORSDOF 0
ENDMDL
MODEL 3
REMARK VINA RESULT:      -3.7      2.025      2.302
REMARK  0 active torsions:
REMARK  status: ('A' for Active; 'I' for Inactive)
ROOT
HETATM    1  C1  UNL     1     -37.174  14.323  -5.174  1.00 20.00     0.086 C 
HETATM    2  C2  UNL     1     -34.998  14.564  -4.013  1.00 20.00     0.056 C 
HETATM    3  C3  UNL     1     -35.551  16.047  -5.882  1.00 20.00     0.115 C 
HETATM    4  C4  UNL     1     -33.645  15.274  -4.133  1.00 20.00     0.046 C 
HETATM    5  C5  UNL     1     -35.747  14.630  -5.349  1.00 20.00     0.135 C 
HETATM    6  C6  UNL     1     -32.473  14.348  -4.431  1.00 20.00     0.021 C 
HETATM    7  N7  UNL     1     -38.301  14.081  -5.035  1.00 20.00    -0.195 NA
HETATM    8  S8  UNL     1     -33.847  16.508  -5.459  1.00 20.00    -0.162 SA
HETATM    9 CL9  UNL     1     -35.124  13.419  -6.516  1.00 20.00    -0.102 Cl
ENDROOT
TORSDOF 0
ENDMDL
MODEL 4
REMARK VINA RESULT:      -3.6      2.250      2.592
REMARK  0 active torsions:
REMARK  status: ('A' for Active; 'I' for Inactive)
ROOT
HETATM    1  C1  UNL     1     -37.120  14.570  -4.785  1.00 20.00     0.086 C 
HETATM    2  C2  UNL     1     -35.359  16.041  -5.724  1.00 20.00     0.056 C 
HETATM    3  C3  UNL     1     -34.735  14.162  -4.283  1.00 20.00     0.115 C 
HETATM    4  C4  UNL     1     -33.862  16.346  -5.608  1.00 20.00     0.046 C 
HETATM    5  C5  UNL     1     -35.821  15.207  -4.522  1.00 20.00     0.135 C 
HETATM    6  C6  UNL     1     -33.543  17.702  -4.994  1.00 20.00     0.021 C 
HETATM    7  N7  UNL     1     -38.145  14.067  -4.993  1.00 20.00    -0.195 NA
HETATM    8  S8  UNL     1     -33.157  14.999  -4.603  1.00 20.00    -0.162 SA
HETATM    9 CL9  UNL     1     -36.059  16.224  -3.065  1.00 20.00    -0.102 Cl
ENDROOT
TORSDOF 0
ENDMDL
MODEL 5
REMARK VINA RESULT:      -3.6      2.343      2.783
REMARK  0 active torsions:
REMARK  status: ('A' for Active; 'I' for Inactive)
ROOT
HETATM    1  C1  UNL     1     -37.539  14.625  -4.891  1.00 20.00     0.086 C 
HETATM    2  C2  UNL     1     -35.100  14.271  -4.625  1.00 20.00     0.056 C 
HETATM    3  C3  UNL     1     -36.196  16.121  -3.453  1.00 20.00     0.115 C 
HETATM    4  C4  UNL     1     -33.844  14.941  -4.058  1.00 20.00     0.046 C 
HETATM    5  C5  UNL     1     -36.238  15.293  -4.735  1.00 20.00     0.135 C 
HETATM    6  C6  UNL     1     -32.849  15.406  -5.113  1.00 20.00     0.021 C 
HETATM    7  N7  UNL     1     -38.566  14.098  -5.013  1.00 20.00    -0.195 NA
HETATM    8  S8  UNL     1     -34.438  16.348  -3.064  1.00 20.00    -0.162 SA
HETATM    9 CL9  UNL     1     -36.048  16.341  -6.177  1.00 20.00    -0.102 Cl
ENDROOT
TORSDOF 0
ENDMDL
MODEL 6
REMARK VINA RESULT:      -3.4      3.219      4.226
REMARK  0 active torsions:
REMARK  status: ('A' for Active; 'I' for Inactive)
ROOT
HETATM    1  C1  UNL     1     -32.984  17.914  -1.635  1.00 20.00     0.086 C 
HETATM    2  C2  UNL     1     -33.592  16.269  -3.387  1.00 20.00     0.056 C 
HETATM    3  C3  UNL     1     -34.650  18.477  -3.371  1.00 20.00     0.115 C 
HETATM    4  C4  UNL     1     -34.611  16.028  -4.506  1.00 20.00     0.046 C 
HETATM    5  C5  UNL     1     -34.081  17.391  -2.462  1.00 20.00     0.135 C 
HETATM    6  C6  UNL     1     -35.589  14.894  -4.232  1.00 20.00     0.021 C 
HETATM    7  N7  UNL     1     -32.117  18.327  -0.983  1.00 20.00    -0.195 NA
HETATM    8  S8  UNL     1     -35.495  17.607  -4.721  1.00 20.00    -0.162 SA
HETATM    9 CL9  UNL     1     -35.326  16.804  -1.313  1.00 20.00    -0.102 Cl
ENDROOT
TORSDOF 0
ENDMDL
MODEL 7
REMARK VINA RESULT:      -3.4      1.871      2.488
REMARK  0 active torsions:
REMARK  status: ('A' for Active; 'I' for Inactive)
ROOT
HETATM    1  C1  UNL     1     -35.597  13.919  -5.076  1.00 20.00     0.086 C 
HETATM    2  C2  UNL     1     -34.100  15.769  -5.768  1.00 20.00     0.056 C 
HETATM    3  C3  UNL     1     -34.742  15.537  -3.416  1.00 20.00     0.115 C 
HETATM    4  C4  UNL     1     -33.471  17.065  -5.244  1.00 20.00     0.046 C 
HETATM    5  C5  UNL     1     -35.240  15.326  -4.843  1.00 20.00     0.135 C 
HETATM    6  C6  UNL     1     -34.013  18.332  -5.890  1.00 20.00     0.021 C 
HETATM    7  N7  UNL     1     -35.878  12.808  -5.260  1.00 20.00    -0.195 NA
HETATM    8  S8  UNL     1     -33.775  17.073  -3.447  1.00 20.00    -0.162 SA
HETATM    9 CL9  UNL     1     -36.736  16.269  -5.141  1.00 20.00    -0.102 Cl
ENDROOT
TORSDOF 0
ENDMDL
MODEL 8
REMARK VINA RESULT:      -3.4      2.614      3.462
REMARK  0 active torsions:
REMARK  status: ('A' for Active; 'I' for Inactive)
ROOT
HETATM    1  C1  UNL     1     -33.612  14.275  -4.469  1.00 20.00     0.086 C 
HETATM    2  C2  UNL     1     -35.936  13.707  -5.118  1.00 20.00     0.056 C 
HETATM    3  C3  UNL     1     -34.845  15.670  -6.094  1.00 20.00     0.115 C 
HETATM    4  C4  UNL     1     -37.144  14.272  -5.874  1.00 20.00     0.046 C 
HETATM    5  C5  UNL     1     -34.928  14.825  -4.826  1.00 20.00     0.135 C 
HETATM    6  C6  UNL     1     -38.331  14.625  -4.987  1.00 20.00     0.021 C 
HETATM    7  N7  UNL     1     -32.573  13.840  -4.189  1.00 20.00    -0.195 NA
HETATM    8  S8  UNL     1     -36.534  15.745  -6.756  1.00 20.00    -0.162 SA
HETATM    9 CL9  UNL     1     -35.439  15.825  -3.427  1.00 20.00    -0.102 Cl
ENDROOT
TORSDOF 0
ENDMDL
MODEL 9
REMARK VINA RESULT:      -3.4      1.968      2.079
REMARK  0 active torsions:
REMARK  status: ('A' for Active; 'I' for Inactive)
ROOT
HETATM    1  C1  UNL     1     -35.814  13.878  -5.007  1.00 20.00     0.086 C 
HETATM    2  C2  UNL     1     -37.168  15.711  -4.031  1.00 20.00     0.056 C 
HETATM    3  C3  UNL     1     -35.565  16.200  -5.816  1.00 20.00     0.115 C 
HETATM    4  C4  UNL     1     -37.288  17.239  -4.016  1.00 20.00     0.046 C 
HETATM    5  C5  UNL     1     -35.811  15.295  -4.612  1.00 20.00     0.135 C 
HETATM    6  C6  UNL     1     -36.919  17.885  -2.687  1.00 20.00     0.021 C 
HETATM    7  N7  UNL     1     -35.817  12.761  -5.319  1.00 20.00    -0.195 NA
HETATM    8  S8  UNL     1     -36.199  17.836  -5.349  1.00 20.00    -0.162 SA
HETATM    9 CL9  UNL     1     -34.496  15.467  -3.406  1.00 20.00    -0.102 Cl
ENDROOT
TORSDOF 0
ENDMDL
