MODEL 1
REMARK VINA RESULT:      -5.0      0.000      0.000
REMARK  2 active torsions:
REMARK  status: ('A' for Active; 'I' for Inactive)
REMARK    1  A    between atoms: C5_5  and  N9_9 
REMARK    2  A    between atoms: C8_8  and  N9_9 
ROOT
HETATM    1  C1  UNL     1     -33.004   9.919   0.175  1.00 20.00     0.013 C 
HETATM    2  C2  UNL     1     -32.355   9.232   0.916  1.00 20.00    -0.087 C 
HETATM    3  C8  UNL     1     -31.559   8.394   1.816  1.00 20.00     0.362 C 
ENDROOT
BRANCH   3   4
HETATM    4  N9  UNL     1     -32.147   8.366   3.148  1.00 20.00     0.099 N 
HETATM    5  H23 UNL     1     -31.421   8.152   3.831  1.00 20.00     0.317 HD
BRANCH   4   6
HETATM    6  C5  UNL     1     -33.185   7.374   3.232  1.00 20.00     0.232 C 
HETATM    7  C3  UNL     1     -33.604   7.107   4.675  1.00 20.00     0.051 C 
HETATM    8  C6  UNL     1     -34.575   5.932   4.629  1.00 20.00     0.045 C 
HETATM    9  C7  UNL     1     -34.717   5.233   5.970  1.00 20.00     0.021 C 
HETATM   10  S10 UNL     1     -33.885   4.816   3.363  1.00 20.00    -0.162 SA
HETATM   11  C4  UNL     1     -32.731   6.033   2.669  1.00 20.00     0.109 C 
ENDBRANCH   4   6
ENDBRANCH   3   4
TORSDOF 2
ENDMDL
MODEL 2
REMARK VINA RESULT:      -4.6      1.516      1.810
REMARK  2 active torsions:
REMARK  status: ('A' for Active; 'I' for Inactive)
REMARK    1  A    between atoms: C5_5  and  N9_9 
REMARK    2  A    between atoms: C8_8  and  N9_9 
ROOT
HETATM    1  C1  UNL     1     -33.248   9.602  -0.600  1.00 20.00     0.013 C 
HETATM    2  C2  UNL     1     -32.781   9.491   0.500  1.00 20.00    -0.087 C 
HETATM    3  C8  UNL     1     -32.214   9.360   1.845  1.00 20.00     0.362 C 
ENDROOT
BRANCH   3   4
HETATM    4  N9  UNL     1     -31.526   8.085   1.992  1.00 20.00     0.099 N 
HETATM    5  H23 UNL     1     -31.618   7.553   1.127  1.00 20.00     0.317 HD
BRANCH   4   6
HETATM    6  C5  UNL     1     -32.080   7.322   3.078  1.00 20.00     0.232 C 
HETATM    7  C3  UNL     1     -33.403   6.666   2.698  1.00 20.00     0.051 C 
HETATM    8  C6  UNL     1     -33.953   6.038   3.975  1.00 20.00     0.045 C 
HETATM    9  C7  UNL     1     -35.447   5.769   3.904  1.00 20.00     0.021 C 
HETATM   10  S10 UNL     1     -33.553   7.241   5.286  1.00 20.00    -0.162 SA
HETATM   11  C4  UNL     1     -32.374   8.197   4.290  1.00 20.00     0.109 C 
ENDBRANCH   4   6
ENDBRANCH   3   4
TORSDOF 2
ENDMDL
MODEL 3
REMARK VINA RESULT:      -3.8     10.971     11.714
REMARK  2 active torsions:
REMARK  status: ('A' for Active; 'I' for Inactive)
REMARK    1  A    between atoms: C5_5  and  N9_9 
REMARK    2  A    between atoms: C8_8  and  N9_9 
ROOT
HETATM    1  C1  UNL     1     -34.051  14.229  -7.918  1.00 20.00     0.013 C 
HETATM    2  C2  UNL     1     -34.813  13.822  -7.084  1.00 20.00    -0.087 C 
HETATM    3  C8  UNL     1     -35.746  13.322  -6.071  1.00 20.00     0.362 C 
ENDROOT
BRANCH   3   4
HETATM    4  N9  UNL     1     -35.246  13.599  -4.731  1.00 20.00     0.099 N 
HETATM    5  H23 UNL     1     -35.868  13.171  -4.046  1.00 20.00     0.317 HD
BRANCH   4   6
HETATM    6  C5  UNL     1     -35.177  15.015  -4.489  1.00 20.00     0.232 C 
HETATM    7  C3  UNL     1     -34.100  15.368  -3.468  1.00 20.00     0.051 C 
HETATM    8  C6  UNL     1     -34.249  16.860  -3.186  1.00 20.00     0.045 C 
HETATM    9  C7  UNL     1     -33.604  17.279  -1.876  1.00 20.00     0.021 C 
HETATM   10  S10 UNL     1     -36.050  17.145  -3.166  1.00 20.00    -0.162 SA
HETATM   11  C4  UNL     1     -36.485  15.556  -3.928  1.00 20.00     0.109 C 
ENDBRANCH   4   6
ENDBRANCH   3   4
TORSDOF 2
ENDMDL
MODEL 4
REMARK VINA RESULT:      -3.8     11.160     12.007
REMARK  2 active torsions:
REMARK  status: ('A' for Active; 'I' for Inactive)
REMARK    1  A    between atoms: C5_5  and  N9_9 
REMARK    2  A    between atoms: C8_8  and  N9_9 
ROOT
HETATM    1  C1  UNL     1     -36.667  14.385  -7.918  1.00 20.00     0.013 C 
HETATM    2  C2  UNL     1     -36.005  14.052  -6.973  1.00 20.00    -0.087 C 
HETATM    3  C8  UNL     1     -35.202  13.641  -5.819  1.00 20.00     0.362 C 
ENDROOT
BRANCH   3   4
HETATM    4  N9  UNL     1     -33.807  14.019  -6.002  1.00 20.00     0.099 N 
HETATM    5  H23 UNL     1     -33.215  13.206  -5.840  1.00 20.00     0.317 HD
BRANCH   4   6
HETATM    6  C5  UNL     1     -33.433  15.066  -5.089  1.00 20.00     0.232 C 
HETATM    7  C3  UNL     1     -34.278  15.046  -3.820  1.00 20.00     0.051 C 
HETATM    8  C6  UNL     1     -33.895  16.293  -3.029  1.00 20.00     0.045 C 
HETATM    9  C7  UNL     1     -34.945  16.687  -2.005  1.00 20.00     0.021 C 
HETATM   10  S10 UNL     1     -33.675  17.588  -4.294  1.00 20.00    -0.162 SA
HETATM   11  C4  UNL     1     -33.626  16.447  -5.704  1.00 20.00     0.109 C 
ENDBRANCH   4   6
ENDBRANCH   3   4
TORSDOF 2
ENDMDL
MODEL 5
REMARK VINA RESULT:      -3.7     11.166     11.855
REMARK  2 active torsions:
REMARK  status: ('A' for Active; 'I' for Inactive)
REMARK    1  A    between atoms: C5_5  and  N9_9 
REMARK    2  A    between atoms: C8_8  and  N9_9 
ROOT
HETATM    1  C1  UNL     1     -32.497  18.444  -0.827  1.00 20.00     0.013 C 
HETATM    2  C2  UNL     1     -33.189  17.696  -1.461  1.00 20.00    -0.087 C 
HETATM    3  C8  UNL     1     -34.040  16.784  -2.231  1.00 20.00     0.362 C 
ENDROOT
BRANCH   3   4
HETATM    4  N9  UNL     1     -33.588  16.704  -3.613  1.00 20.00     0.099 N 
HETATM    5  H23 UNL     1     -34.022  17.454  -4.151  1.00 20.00     0.317 HD
BRANCH   4   6
HETATM    6  C5  UNL     1     -33.940  15.437  -4.197  1.00 20.00     0.232 C 
HETATM    7  C3  UNL     1     -33.606  15.383  -5.685  1.00 20.00     0.051 C 
HETATM    8  C6  UNL     1     -34.178  14.067  -6.205  1.00 20.00     0.045 C 
HETATM    9  C7  UNL     1     -34.365  14.061  -7.712  1.00 20.00     0.021 C 
HETATM   10  S10 UNL     1     -35.768  13.882  -5.333  1.00 20.00    -0.162 SA
HETATM   11  C4  UNL     1     -35.434  15.161  -4.089  1.00 20.00     0.109 C 
ENDBRANCH   4   6
ENDBRANCH   3   4
TORSDOF 2
ENDMDL
MODEL 6
REMARK VINA RESULT:      -3.7     10.575     11.436
REMARK  2 active torsions:
REMARK  status: ('A' for Active; 'I' for Inactive)
REMARK    1  A    between atoms: C5_5  and  N9_9 
REMARK    2  A    between atoms: C8_8  and  N9_9 
ROOT
HETATM    1  C1  UNL     1     -33.856  18.196  -0.140  1.00 20.00     0.013 C 
HETATM    2  C2  UNL     1     -34.420  17.498  -0.938  1.00 20.00    -0.087 C 
HETATM    3  C8  UNL     1     -35.115  16.649  -1.909  1.00 20.00     0.362 C 
ENDROOT
BRANCH   3   4
HETATM    4  N9  UNL     1     -34.189  16.166  -2.924  1.00 20.00     0.099 N 
HETATM    5  H23 UNL     1     -33.585  16.933  -3.219  1.00 20.00     0.317 HD
BRANCH   4   6
HETATM    6  C5  UNL     1     -34.897  15.654  -4.066  1.00 20.00     0.232 C 
HETATM    7  C3  UNL     1     -36.406  15.834  -3.930  1.00 20.00     0.051 C 
HETATM    8  C6  UNL     1     -37.033  15.106  -5.115  1.00 20.00     0.045 C 
HETATM    9  C7  UNL     1     -38.498  14.771  -4.892  1.00 20.00     0.021 C 
HETATM   10  S10 UNL     1     -36.026  13.599  -5.312  1.00 20.00    -0.162 SA
HETATM   11  C4  UNL     1     -34.664  14.160  -4.251  1.00 20.00     0.109 C 
ENDBRANCH   4   6
ENDBRANCH   3   4
TORSDOF 2
ENDMDL
MODEL 7
REMARK VINA RESULT:      -3.6     11.005     11.966
REMARK  2 active torsions:
REMARK  status: ('A' for Active; 'I' for Inactive)
REMARK    1  A    between atoms: C5_5  and  N9_9 
REMARK    2  A    between atoms: C8_8  and  N9_9 
ROOT
HETATM    1  C1  UNL     1     -38.715  14.776  -4.965  1.00 20.00     0.013 C 
HETATM    2  C2  UNL     1     -37.753  14.420  -5.589  1.00 20.00    -0.087 C 
HETATM    3  C8  UNL     1     -36.581  13.990  -6.356  1.00 20.00     0.362 C 
ENDROOT
BRANCH   3   4
HETATM    4  N9  UNL     1     -35.603  13.353  -5.485  1.00 20.00     0.099 N 
HETATM    5  H23 UNL     1     -36.057  13.079  -4.614  1.00 20.00     0.317 HD
BRANCH   4   6
HETATM    6  C5  UNL     1     -34.514  14.246  -5.191  1.00 20.00     0.232 C 
HETATM    7  C3  UNL     1     -34.623  14.837  -3.789  1.00 20.00     0.051 C 
HETATM    8  C6  UNL     1     -33.515  15.879  -3.676  1.00 20.00     0.045 C 
HETATM    9  C7  UNL     1     -33.762  16.883  -2.563  1.00 20.00     0.021 C 
HETATM   10  S10 UNL     1     -33.478  16.688  -5.309  1.00 20.00    -0.162 SA
HETATM   11  C4  UNL     1     -34.484  15.431  -6.148  1.00 20.00     0.109 C 
ENDBRANCH   4   6
ENDBRANCH   3   4
TORSDOF 2
ENDMDL
MODEL 8
REMARK VINA RESULT:      -3.6     11.440     12.122
REMARK  2 active torsions:
REMARK  status: ('A' for Active; 'I' for Inactive)
REMARK    1  A    between atoms: C5_5  and  N9_9 
REMARK    2  A    between atoms: C8_8  and  N9_9 
ROOT
HETATM    1  C1  UNL     1     -34.728  17.407  -0.854  1.00 20.00     0.013 C 
HETATM    2  C2  UNL     1     -34.975  16.769  -1.841  1.00 20.00    -0.087 C 
HETATM    3  C8  UNL     1     -35.270  15.989  -3.045  1.00 20.00     0.362 C 
ENDROOT
BRANCH   3   4
HETATM    4  N9  UNL     1     -36.702  15.967  -3.305  1.00 20.00     0.099 N 
HETATM    5  H23 UNL     1     -37.182  15.553  -2.506  1.00 20.00     0.317 HD
BRANCH   4   6
HETATM    6  C5  UNL     1     -37.000  15.200  -4.485  1.00 20.00     0.232 C 
HETATM    7  C3  UNL     1     -35.803  14.376  -4.948  1.00 20.00     0.051 C 
HETATM    8  C6  UNL     1     -36.201  13.754  -6.283  1.00 20.00     0.045 C 
HETATM    9  C7  UNL     1     -35.003  13.310  -7.106  1.00 20.00     0.021 C 
HETATM   10  S10 UNL     1     -37.149  15.059  -7.132  1.00 20.00    -0.162 SA
HETATM   11  C4  UNL     1     -37.377  16.094  -5.659  1.00 20.00     0.109 C 
ENDBRANCH   4   6
ENDBRANCH   3   4
TORSDOF 2
ENDMDL
MODEL 9
REMARK VINA RESULT:      -3.6     11.329     12.047
REMARK  2 active torsions:
REMARK  status: ('A' for Active; 'I' for Inactive)
REMARK    1  A    between atoms: C5_5  and  N9_9 
REMARK    2  A    between atoms: C8_8  and  N9_9 
ROOT
HETATM    1  C1  UNL     1     -33.691  18.086  -0.498  1.00 20.00     0.013 C 
HETATM    2  C2  UNL     1     -34.259  17.393  -1.298  1.00 20.00    -0.087 C 
HETATM    3  C8  UNL     1     -34.956  16.551  -2.273  1.00 20.00     0.362 C 
ENDROOT
BRANCH   3   4
HETATM    4  N9  UNL     1     -34.004  15.870  -3.139  1.00 20.00     0.099 N 
HETATM    5  H23 UNL     1     -33.111  16.361  -3.107  1.00 20.00     0.317 HD
BRANCH   4   6
HETATM    6  C5  UNL     1     -34.476  15.835  -4.498  1.00 20.00     0.232 C 
HETATM    7  C3  UNL     1     -34.793  14.415  -4.955  1.00 20.00     0.051 C 
HETATM    8  C6  UNL     1     -35.116  14.505  -6.443  1.00 20.00     0.045 C 
HETATM    9  C7  UNL     1     -34.985  13.170  -7.156  1.00 20.00     0.021 C 
HETATM   10  S10 UNL     1     -33.934  15.731  -7.095  1.00 20.00    -0.162 SA
HETATM   11  C4  UNL     1     -33.434  16.370  -5.471  1.00 20.00     0.109 C 
ENDBRANCH   4   6
ENDBRANCH   3   4
TORSDOF 2
ENDMDL
