MODEL 1
REMARK VINA RESULT:      -3.2      0.000      0.000
REMARK  1 active torsions:
REMARK  status: ('A' for Active; 'I' for Inactive)
REMARK    1  A    between atoms: C4_4  and  S9_9 
ROOT
HETATM    1  C1  UNL     1     -33.473  15.150  -3.968  1.00 20.00     0.020 C 
HETATM    2  C2  UNL     1     -33.986  14.444  -5.217  1.00 20.00     0.075 C 
HETATM    3  C3  UNL     1     -36.439  15.522  -4.578  1.00 20.00     0.089 C 
HETATM    4  C4  UNL     1     -35.738  16.158  -3.371  1.00 20.00     0.061 C 
HETATM    5  C5  UNL     1     -34.219  16.460  -3.588  1.00 20.00    -0.034 C 
HETATM    6  C6  UNL     1     -33.967  17.528  -4.675  1.00 20.00     0.016 C 
HETATM    7  C7  UNL     1     -33.579  16.972  -2.273  1.00 20.00     0.016 C 
HETATM    8  S8  UNL     1     -35.709  13.923  -5.031  1.00 20.00    -0.168 SA
ENDROOT
BRANCH   4   9
HETATM    9  S9  UNL     1     -36.725  17.636  -2.891  1.00 20.00    -0.176 SA
HETATM   10  H23 UNL     1     -35.661  18.409  -2.652  1.00 20.00     0.102 HD
ENDBRANCH   4   9
TORSDOF 1
ENDMDL
MODEL 2
REMARK VINA RESULT:      -3.2      2.106      2.497
REMARK  1 active torsions:
REMARK  status: ('A' for Active; 'I' for Inactive)
REMARK    1  A    between atoms: C4_4  and  S9_9 
ROOT
HETATM    1  C1  UNL     1     -35.547  14.129  -4.578  1.00 20.00     0.020 C 
HETATM    2  C2  UNL     1     -35.630  13.440  -5.935  1.00 20.00     0.075 C 
HETATM    3  C3  UNL     1     -35.093  15.921  -7.005  1.00 20.00     0.089 C 
HETATM    4  C4  UNL     1     -35.042  16.429  -5.559  1.00 20.00     0.061 C 
HETATM    5  C5  UNL     1     -34.596  15.358  -4.510  1.00 20.00    -0.034 C 
HETATM    6  C6  UNL     1     -33.137  14.890  -4.712  1.00 20.00     0.016 C 
HETATM    7  C7  UNL     1     -34.708  15.929  -3.075  1.00 20.00     0.016 C 
HETATM    8  S8  UNL     1     -36.268  14.553  -7.212  1.00 20.00    -0.168 SA
ENDROOT
BRANCH   4   9
HETATM    9  S9  UNL     1     -34.001  17.947  -5.555  1.00 20.00    -0.176 SA
HETATM   10  H23 UNL     1     -34.139  18.174  -4.245  1.00 20.00     0.102 HD
ENDBRANCH   4   9
TORSDOF 1
ENDMDL
MODEL 3
REMARK VINA RESULT:      -3.2      1.675      3.367
REMARK  1 active torsions:
REMARK  status: ('A' for Active; 'I' for Inactive)
REMARK    1  A    between atoms: C4_4  and  S9_9 
ROOT
HETATM    1  C1  UNL     1     -34.672  15.873  -3.155  1.00 20.00     0.020 C 
HETATM    2  C2  UNL     1     -36.034  16.552  -3.070  1.00 20.00     0.075 C 
HETATM    3  C3  UNL     1     -35.821  16.878  -5.797  1.00 20.00     0.089 C 
HETATM    4  C4  UNL     1     -34.469  16.164  -5.681  1.00 20.00     0.061 C 
HETATM    5  C5  UNL     1     -34.371  15.147  -4.497  1.00 20.00    -0.034 C 
HETATM    6  C6  UNL     1     -35.330  13.945  -4.657  1.00 20.00     0.016 C 
HETATM    7  C7  UNL     1     -32.932  14.584  -4.386  1.00 20.00     0.016 C 
HETATM    8  S8  UNL     1     -36.211  17.852  -4.316  1.00 20.00    -0.168 SA
ENDROOT
BRANCH   4   9
HETATM    9  S9  UNL     1     -34.106  15.422  -7.326  1.00 20.00    -0.176 SA
HETATM   10  H23 UNL     1     -35.374  15.458  -7.748  1.00 20.00     0.102 HD
ENDBRANCH   4   9
TORSDOF 1
ENDMDL
MODEL 4
REMARK VINA RESULT:      -3.2      1.842      2.641
REMARK  1 active torsions:
REMARK  status: ('A' for Active; 'I' for Inactive)
REMARK    1  A    between atoms: C4_4  and  S9_9 
ROOT
HETATM    1  C1  UNL     1     -35.365  13.774  -4.744  1.00 20.00     0.020 C 
HETATM    2  C2  UNL     1     -36.776  14.008  -5.269  1.00 20.00     0.075 C 
HETATM    3  C3  UNL     1     -36.220  16.691  -4.995  1.00 20.00     0.089 C 
HETATM    4  C4  UNL     1     -34.838  16.257  -4.494  1.00 20.00     0.061 C 
HETATM    5  C5  UNL     1     -34.337  14.893  -5.073  1.00 20.00    -0.034 C 
HETATM    6  C6  UNL     1     -34.099  14.940  -6.599  1.00 20.00     0.016 C 
HETATM    7  C7  UNL     1     -33.001  14.482  -4.405  1.00 20.00     0.016 C 
HETATM    8  S8  UNL     1     -37.516  15.498  -4.557  1.00 20.00    -0.168 SA
ENDROOT
BRANCH   4   9
HETATM    9  S9  UNL     1     -33.685  17.659  -4.800  1.00 20.00    -0.176 SA
HETATM   10  H23 UNL     1     -34.639  18.499  -5.216  1.00 20.00     0.102 HD
ENDBRANCH   4   9
TORSDOF 1
ENDMDL
MODEL 5
REMARK VINA RESULT:      -3.2      1.799      3.429
REMARK  1 active torsions:
REMARK  status: ('A' for Active; 'I' for Inactive)
REMARK    1  A    between atoms: C4_4  and  S9_9 
ROOT
HETATM    1  C1  UNL     1     -35.148  16.506  -4.447  1.00 20.00     0.020 C 
HETATM    2  C2  UNL     1     -36.287  16.080  -3.528  1.00 20.00     0.075 C 
HETATM    3  C3  UNL     1     -36.775  14.099  -5.378  1.00 20.00     0.089 C 
HETATM    4  C4  UNL     1     -35.588  14.670  -6.163  1.00 20.00     0.061 C 
HETATM    5  C5  UNL     1     -34.499  15.363  -5.279  1.00 20.00    -0.034 C 
HETATM    6  C6  UNL     1     -33.782  14.380  -4.328  1.00 20.00     0.016 C 
HETATM    7  C7  UNL     1     -33.418  16.021  -6.173  1.00 20.00     0.016 C 
HETATM    8  S8  UNL     1     -37.672  15.382  -4.459  1.00 20.00    -0.168 SA
ENDROOT
BRANCH   4   9
HETATM    9  S9  UNL     1     -34.931  13.310  -7.216  1.00 20.00    -0.176 SA
HETATM   10  H23 UNL     1     -35.458  13.782  -8.350  1.00 20.00     0.102 HD
ENDBRANCH   4   9
TORSDOF 1
ENDMDL
MODEL 6
REMARK VINA RESULT:      -3.2     12.008     12.876
REMARK  1 active torsions:
REMARK  status: ('A' for Active; 'I' for Inactive)
REMARK    1  A    between atoms: C4_4  and  S9_9 
ROOT
HETATM    1  C1  UNL     1     -34.101   4.868   4.393  1.00 20.00     0.020 C 
HETATM    2  C2  UNL     1     -34.857   5.624   5.479  1.00 20.00     0.075 C 
HETATM    3  C3  UNL     1     -33.454   7.840   4.638  1.00 20.00     0.089 C 
HETATM    4  C4  UNL     1     -32.802   6.916   3.602  1.00 20.00     0.061 C 
HETATM    5  C5  UNL     1     -33.695   5.713   3.152  1.00 20.00    -0.034 C 
HETATM    6  C6  UNL     1     -34.966   6.158   2.395  1.00 20.00     0.016 C 
HETATM    7  C7  UNL     1     -32.898   4.772   2.214  1.00 20.00     0.016 C 
HETATM    8  S8  UNL     1     -33.864   6.966   6.176  1.00 20.00    -0.168 SA
ENDROOT
BRANCH   4   9
HETATM    9  S9  UNL     1     -32.236   7.979   2.210  1.00 20.00    -0.176 SA
HETATM   10  H23 UNL     1     -32.659   7.147   1.254  1.00 20.00     0.102 HD
ENDBRANCH   4   9
TORSDOF 1
ENDMDL
MODEL 7
REMARK VINA RESULT:      -3.1      2.009      3.725
REMARK  1 active torsions:
REMARK  status: ('A' for Active; 'I' for Inactive)
REMARK    1  A    between atoms: C4_4  and  S9_9 
ROOT
HETATM    1  C1  UNL     1     -33.764  14.562  -5.125  1.00 20.00     0.020 C 
HETATM    2  C2  UNL     1     -34.028  15.386  -3.871  1.00 20.00     0.075 C 
HETATM    3  C3  UNL     1     -36.029  16.597  -5.326  1.00 20.00     0.089 C 
HETATM    4  C4  UNL     1     -35.619  15.672  -6.479  1.00 20.00     0.061 C 
HETATM    5  C5  UNL     1     -35.004  14.307  -6.028  1.00 20.00    -0.034 C 
HETATM    6  C6  UNL     1     -36.013  13.412  -5.274  1.00 20.00     0.016 C 
HETATM    7  C7  UNL     1     -34.502  13.509  -7.258  1.00 20.00     0.016 C 
HETATM    8  S8  UNL     1     -34.620  17.048  -4.274  1.00 20.00    -0.168 SA
ENDROOT
BRANCH   4   9
HETATM    9  S9  UNL     1     -37.085  15.496  -7.579  1.00 20.00    -0.176 SA
HETATM   10  H23 UNL     1     -36.889  16.656  -8.214  1.00 20.00     0.102 HD
ENDBRANCH   4   9
TORSDOF 1
ENDMDL
MODEL 8
REMARK VINA RESULT:      -3.1      1.749      3.079
REMARK  1 active torsions:
REMARK  status: ('A' for Active; 'I' for Inactive)
REMARK    1  A    between atoms: C4_4  and  S9_9 
ROOT
HETATM    1  C1  UNL     1     -33.424  16.933  -5.002  1.00 20.00     0.020 C 
HETATM    2  C2  UNL     1     -34.352  18.106  -5.293  1.00 20.00     0.075 C 
HETATM    3  C3  UNL     1     -36.198  16.203  -6.042  1.00 20.00     0.089 C 
HETATM    4  C4  UNL     1     -35.129  15.163  -5.687  1.00 20.00     0.061 C 
HETATM    5  C5  UNL     1     -34.128  15.615  -4.572  1.00 20.00    -0.034 C 
HETATM    6  C6  UNL     1     -34.809  15.821  -3.201  1.00 20.00     0.016 C 
HETATM    7  C7  UNL     1     -33.014  14.555  -4.386  1.00 20.00     0.016 C 
HETATM    8  S8  UNL     1     -35.474  17.746  -6.667  1.00 20.00    -0.168 SA
ENDROOT
BRANCH   4   9
HETATM    9  S9  UNL     1     -36.008  13.593  -5.300  1.00 20.00    -0.176 SA
HETATM   10  H23 UNL     1     -35.123  12.811  -5.925  1.00 20.00     0.102 HD
ENDBRANCH   4   9
TORSDOF 1
ENDMDL
MODEL 9
REMARK VINA RESULT:      -3.0      1.653      3.337
REMARK  1 active torsions:
REMARK  status: ('A' for Active; 'I' for Inactive)
REMARK    1  A    between atoms: C4_4  and  S9_9 
ROOT
HETATM    1  C1  UNL     1     -33.485  15.968  -5.760  1.00 20.00     0.020 C 
HETATM    2  C2  UNL     1     -33.475  17.137  -4.782  1.00 20.00     0.075 C 
HETATM    3  C3  UNL     1     -36.188  16.718  -4.559  1.00 20.00     0.089 C 
HETATM    4  C4  UNL     1     -35.996  15.568  -5.555  1.00 20.00     0.061 C 
HETATM    5  C5  UNL     1     -34.584  14.897  -5.508  1.00 20.00    -0.034 C 
HETATM    6  C6  UNL     1     -34.304  14.180  -4.168  1.00 20.00     0.016 C 
HETATM    7  C7  UNL     1     -34.448  13.845  -6.637  1.00 20.00     0.016 C 
HETATM    8  S8  UNL     1     -35.019  18.077  -4.847  1.00 20.00    -0.168 SA
ENDROOT
BRANCH   4   9
HETATM    9  S9  UNL     1     -37.385  14.388  -5.293  1.00 20.00    -0.176 SA
HETATM   10  H23 UNL     1     -36.755  13.348  -5.848  1.00 20.00     0.102 HD
ENDBRANCH   4   9
TORSDOF 1
ENDMDL
