MODEL 1
REMARK VINA RESULT:      -3.4      0.000      0.000
REMARK  1 active torsions:
REMARK  status: ('A' for Active; 'I' for Inactive)
REMARK    1  A    between atoms: C4_4  and  S9_9 
ROOT
HETATM    1  C1  UNL     1     -34.823  14.248  -4.350  1.00 20.00     0.025 C 
HETATM    2  C2  UNL     1     -32.942  15.636  -5.454  1.00 20.00     0.088 C 
HETATM    3  C3  UNL     1     -35.655  15.901  -6.134  1.00 20.00     0.082 C 
HETATM    4  C4  UNL     1     -33.588  15.146  -4.163  1.00 20.00     0.054 C 
HETATM    5  C5  UNL     1     -35.674  14.447  -5.634  1.00 20.00    -0.038 C 
HETATM    6  C6  UNL     1     -37.138  14.078  -5.303  1.00 20.00     0.015 C 
HETATM    7  C7  UNL     1     -35.215  13.476  -6.746  1.00 20.00     0.015 C 
HETATM    8  S8  UNL     1     -34.024  16.579  -6.573  1.00 20.00    -0.167 SA
ENDROOT
BRANCH   4   9
HETATM    9  S9  UNL     1     -33.936  16.545  -3.022  1.00 20.00    -0.177 SA
HETATM   10  H23 UNL     1     -35.033  15.999  -2.486  1.00 20.00     0.102 HD
ENDBRANCH   4   9
TORSDOF 1
ENDMDL
MODEL 2
REMARK VINA RESULT:      -3.4      2.026      3.547
REMARK  1 active torsions:
REMARK  status: ('A' for Active; 'I' for Inactive)
REMARK    1  A    between atoms: C4_4  and  S9_9 
ROOT
HETATM    1  C1  UNL     1     -34.934  14.093  -4.453  1.00 20.00     0.025 C 
HETATM    2  C2  UNL     1     -37.222  14.317  -5.635  1.00 20.00     0.088 C 
HETATM    3  C3  UNL     1     -35.344  16.403  -5.503  1.00 20.00     0.082 C 
HETATM    4  C4  UNL     1     -35.942  13.510  -5.459  1.00 20.00     0.054 C 
HETATM    5  C5  UNL     1     -34.935  15.631  -4.238  1.00 20.00    -0.038 C 
HETATM    6  C6  UNL     1     -33.500  16.064  -3.861  1.00 20.00     0.015 C 
HETATM    7  C7  UNL     1     -35.839  16.011  -3.043  1.00 20.00     0.015 C 
HETATM    8  S8  UNL     1     -37.004  16.046  -6.161  1.00 20.00    -0.167 SA
ENDROOT
BRANCH   4   9
HETATM    9  S9  UNL     1     -35.151  13.158  -7.081  1.00 20.00    -0.177 SA
HETATM   10  H23 UNL     1     -33.923  12.977  -6.585  1.00 20.00     0.102 HD
ENDBRANCH   4   9
TORSDOF 1
ENDMDL
MODEL 3
REMARK VINA RESULT:      -3.3      1.958      3.386
REMARK  1 active torsions:
REMARK  status: ('A' for Active; 'I' for Inactive)
REMARK    1  A    between atoms: C4_4  and  S9_9 
ROOT
HETATM    1  C1  UNL     1     -33.376  15.947  -5.802  1.00 20.00     0.025 C 
HETATM    2  C2  UNL     1     -34.490  13.991  -7.074  1.00 20.00     0.088 C 
HETATM    3  C3  UNL     1     -35.265  14.793  -4.495  1.00 20.00     0.082 C 
HETATM    4  C4  UNL     1     -34.033  15.444  -7.100  1.00 20.00     0.054 C 
HETATM    5  C5  UNL     1     -33.805  15.276  -4.469  1.00 20.00    -0.038 C 
HETATM    6  C6  UNL     1     -33.673  16.324  -3.340  1.00 20.00     0.015 C 
HETATM    7  C7  UNL     1     -32.847  14.118  -4.110  1.00 20.00     0.015 C 
HETATM    8  S8  UNL     1     -35.679  13.557  -5.766  1.00 20.00    -0.167 SA
ENDROOT
BRANCH   4   9
HETATM    9  S9  UNL     1     -35.391  16.558  -7.645  1.00 20.00    -0.177 SA
HETATM   10  H23 UNL     1     -34.643  17.666  -7.668  1.00 20.00     0.102 HD
ENDBRANCH   4   9
TORSDOF 1
ENDMDL
MODEL 4
REMARK VINA RESULT:      -3.3      2.730      4.268
REMARK  1 active torsions:
REMARK  status: ('A' for Active; 'I' for Inactive)
REMARK    1  A    between atoms: C4_4  and  S9_9 
ROOT
HETATM    1  C1  UNL     1     -33.813  16.049  -3.090  1.00 20.00     0.025 C 
HETATM    2  C2  UNL     1     -35.987  16.264  -4.471  1.00 20.00     0.088 C 
HETATM    3  C3  UNL     1     -34.744  18.442  -3.206  1.00 20.00     0.082 C 
HETATM    4  C4  UNL     1     -34.555  15.749  -4.404  1.00 20.00     0.054 C 
HETATM    5  C5  UNL     1     -34.237  17.313  -2.293  1.00 20.00    -0.038 C 
HETATM    6  C6  UNL     1     -32.999  17.839  -1.531  1.00 20.00     0.015 C 
HETATM    7  C7  UNL     1     -35.292  16.952  -1.224  1.00 20.00     0.015 C 
HETATM    8  S8  UNL     1     -36.198  18.055  -4.230  1.00 20.00    -0.167 SA
ENDROOT
BRANCH   4   9
HETATM    9  S9  UNL     1     -33.584  16.293  -5.868  1.00 20.00    -0.177 SA
HETATM   10  H23 UNL     1     -32.403  16.294  -5.241  1.00 20.00     0.102 HD
ENDBRANCH   4   9
TORSDOF 1
ENDMDL
MODEL 5
REMARK VINA RESULT:      -3.3      1.974      3.683
REMARK  1 active torsions:
REMARK  status: ('A' for Active; 'I' for Inactive)
REMARK    1  A    between atoms: C4_4  and  S9_9 
ROOT
HETATM    1  C1  UNL     1     -33.187  15.714  -4.919  1.00 20.00     0.025 C 
HETATM    2  C2  UNL     1     -35.123  14.046  -4.527  1.00 20.00     0.088 C 
HETATM    3  C3  UNL     1     -35.488  16.829  -4.652  1.00 20.00     0.082 C 
HETATM    4  C4  UNL     1     -33.914  14.434  -5.368  1.00 20.00     0.054 C 
HETATM    5  C5  UNL     1     -34.022  16.800  -4.187  1.00 20.00    -0.038 C 
HETATM    6  C6  UNL     1     -33.398  18.179  -4.500  1.00 20.00     0.015 C 
HETATM    7  C7  UNL     1     -33.933  16.612  -2.656  1.00 20.00     0.015 C 
HETATM    8  S8  UNL     1     -36.440  15.297  -4.407  1.00 20.00    -0.167 SA
ENDROOT
BRANCH   4   9
HETATM    9  S9  UNL     1     -34.340  14.492  -7.156  1.00 20.00    -0.177 SA
HETATM   10  H23 UNL     1     -34.237  13.173  -7.352  1.00 20.00     0.102 HD
ENDBRANCH   4   9
TORSDOF 1
ENDMDL
MODEL 6
REMARK VINA RESULT:      -3.2      1.462      3.386
REMARK  1 active torsions:
REMARK  status: ('A' for Active; 'I' for Inactive)
REMARK    1  A    between atoms: C4_4  and  S9_9 
ROOT
HETATM    1  C1  UNL     1     -34.976  14.154  -4.893  1.00 20.00     0.025 C 
HETATM    2  C2  UNL     1     -35.953  16.167  -6.189  1.00 20.00     0.088 C 
HETATM    3  C3  UNL     1     -33.197  15.757  -5.827  1.00 20.00     0.082 C 
HETATM    4  C4  UNL     1     -35.934  14.657  -5.988  1.00 20.00     0.054 C 
HETATM    5  C5  UNL     1     -33.716  15.009  -4.588  1.00 20.00    -0.038 C 
HETATM    6  C6  UNL     1     -32.597  14.058  -4.104  1.00 20.00     0.015 C 
HETATM    7  C7  UNL     1     -33.993  15.990  -3.427  1.00 20.00     0.015 C 
HETATM    8  S8  UNL     1     -34.353  16.933  -6.598  1.00 20.00    -0.167 SA
ENDROOT
BRANCH   4   9
HETATM    9  S9  UNL     1     -35.659  13.778  -7.580  1.00 20.00    -0.177 SA
HETATM   10  H23 UNL     1     -36.187  12.618  -7.176  1.00 20.00     0.102 HD
ENDBRANCH   4   9
TORSDOF 1
ENDMDL
MODEL 7
REMARK VINA RESULT:      -3.2      2.381      3.559
REMARK  1 active torsions:
REMARK  status: ('A' for Active; 'I' for Inactive)
REMARK    1  A    between atoms: C4_4  and  S9_9 
ROOT
HETATM    1  C1  UNL     1     -36.208  16.128  -3.969  1.00 20.00     0.025 C 
HETATM    2  C2  UNL     1     -34.897  15.976  -6.191  1.00 20.00     0.088 C 
HETATM    3  C3  UNL     1     -33.661  15.959  -3.669  1.00 20.00     0.082 C 
HETATM    4  C4  UNL     1     -36.043  15.447  -5.338  1.00 20.00     0.054 C 
HETATM    5  C5  UNL     1     -34.940  16.730  -3.304  1.00 20.00    -0.038 C 
HETATM    6  C6  UNL     1     -35.119  16.654  -1.770  1.00 20.00     0.015 C 
HETATM    7  C7  UNL     1     -34.801  18.228  -3.658  1.00 20.00     0.015 C 
HETATM    8  S8  UNL     1     -33.242  15.888  -5.439  1.00 20.00    -0.167 SA
ENDROOT
BRANCH   4   9
HETATM    9  S9  UNL     1     -35.961  13.617  -5.177  1.00 20.00    -0.177 SA
HETATM   10  H23 UNL     1     -36.501  13.361  -6.374  1.00 20.00     0.102 HD
ENDBRANCH   4   9
TORSDOF 1
ENDMDL
MODEL 8
REMARK VINA RESULT:      -3.1      1.696      2.858
REMARK  1 active torsions:
REMARK  status: ('A' for Active; 'I' for Inactive)
REMARK    1  A    between atoms: C4_4  and  S9_9 
ROOT
HETATM    1  C1  UNL     1     -35.737  15.663  -6.414  1.00 20.00     0.025 C 
HETATM    2  C2  UNL     1     -34.980  14.076  -4.520  1.00 20.00     0.088 C 
HETATM    3  C3  UNL     1     -33.249  15.877  -5.805  1.00 20.00     0.082 C 
HETATM    4  C4  UNL     1     -35.987  15.114  -4.998  1.00 20.00     0.054 C 
HETATM    5  C5  UNL     1     -34.274  15.681  -6.935  1.00 20.00    -0.038 C 
HETATM    6  C6  UNL     1     -34.129  16.865  -7.918  1.00 20.00     0.015 C 
HETATM    7  C7  UNL     1     -33.968  14.398  -7.740  1.00 20.00     0.015 C 
HETATM    8  S8  UNL     1     -33.240  14.609  -4.499  1.00 20.00    -0.167 SA
ENDROOT
BRANCH   4   9
HETATM    9  S9  UNL     1     -36.176  16.471  -3.772  1.00 20.00    -0.177 SA
HETATM   10  H23 UNL     1     -36.595  15.683  -2.776  1.00 20.00     0.102 HD
ENDBRANCH   4   9
TORSDOF 1
ENDMDL
MODEL 9
REMARK VINA RESULT:      -3.1      1.596      2.948
REMARK  1 active torsions:
REMARK  status: ('A' for Active; 'I' for Inactive)
REMARK    1  A    between atoms: C4_4  and  S9_9 
ROOT
HETATM    1  C1  UNL     1     -35.792  15.949  -6.157  1.00 20.00     0.025 C 
HETATM    2  C2  UNL     1     -33.283  15.877  -5.538  1.00 20.00     0.088 C 
HETATM    3  C3  UNL     1     -35.169  14.050  -4.539  1.00 20.00     0.082 C 
HETATM    4  C4  UNL     1     -34.331  15.949  -6.642  1.00 20.00     0.054 C 
HETATM    5  C5  UNL     1     -36.106  15.239  -4.812  1.00 20.00    -0.038 C 
HETATM    6  C6  UNL     1     -37.552  14.697  -4.882  1.00 20.00     0.015 C 
HETATM    7  C7  UNL     1     -36.070  16.249  -3.644  1.00 20.00     0.015 C 
HETATM    8  S8  UNL     1     -33.393  14.436  -4.432  1.00 20.00    -0.167 SA
ENDROOT
BRANCH   4   9
HETATM    9  S9  UNL     1     -34.042  14.657  -7.918  1.00 20.00    -0.177 SA
HETATM   10  H23 UNL     1     -33.717  13.694  -7.050  1.00 20.00     0.102 HD
ENDBRANCH   4   9
TORSDOF 1
ENDMDL
