MODEL 1
REMARK VINA RESULT:      -3.9      0.000      0.000
REMARK  1 active torsions:
REMARK  status: ('A' for Active; 'I' for Inactive)
REMARK    1  A    between atoms: C5_5  and  O9_9 
ROOT
HETATM    1  C1  UNL     1     -35.491  13.424  -5.968  1.00 20.00     0.098 C 
HETATM    2  C2  UNL     1     -34.766  14.742  -3.996  1.00 20.00     0.069 C 
HETATM    3  C3  UNL     1     -35.886  15.861  -5.861  1.00 20.00     0.128 C 
HETATM    4  C4  UNL     1     -35.083  16.061  -3.292  1.00 20.00     0.047 C 
HETATM    5  C5  UNL     1     -35.827  14.548  -5.083  1.00 20.00     0.157 C 
HETATM    6  C6  UNL     1     -33.891  16.624  -2.537  1.00 20.00     0.021 C 
HETATM    7  N8  UNL     1     -35.226  12.538  -6.668  1.00 20.00    -0.194 NA
HETATM    8  S10 UNL     1     -35.608  17.177  -4.631  1.00 20.00    -0.161 SA
ENDROOT
BRANCH   5   9
HETATM    9  O9  UNL     1     -37.102  14.306  -4.488  1.00 20.00    -0.369 OA
HETATM   10  C7  UNL     1     -38.157  14.580  -5.398  1.00 20.00     0.204 C 
ENDBRANCH   5   9
TORSDOF 1
ENDMDL
MODEL 2
REMARK VINA RESULT:      -3.9      1.423      1.515
REMARK  1 active torsions:
REMARK  status: ('A' for Active; 'I' for Inactive)
REMARK    1  A    between atoms: C5_5  and  O9_9 
ROOT
HETATM    1  C1  UNL     1     -35.651  13.943  -5.040  1.00 20.00     0.098 C 
HETATM    2  C2  UNL     1     -34.877  15.560  -3.326  1.00 20.00     0.069 C 
HETATM    3  C3  UNL     1     -34.310  15.918  -5.679  1.00 20.00     0.128 C 
HETATM    4  C4  UNL     1     -34.418  17.013  -3.214  1.00 20.00     0.047 C 
HETATM    5  C5  UNL     1     -35.392  15.361  -4.754  1.00 20.00     0.157 C 
HETATM    6  C6  UNL     1     -33.466  17.240  -2.052  1.00 20.00     0.021 C 
HETATM    7  N8  UNL     1     -35.856  12.824  -5.267  1.00 20.00    -0.194 NA
HETATM    8  S10 UNL     1     -33.613  17.360  -4.810  1.00 20.00    -0.161 SA
ENDROOT
BRANCH   5   9
HETATM    9  O9  UNL     1     -36.595  16.103  -4.951  1.00 20.00    -0.369 OA
HETATM   10  C7  UNL     1     -36.942  16.170  -6.327  1.00 20.00     0.204 C 
ENDBRANCH   5   9
TORSDOF 1
ENDMDL
MODEL 3
REMARK VINA RESULT:      -3.8      1.832      2.368
REMARK  1 active torsions:
REMARK  status: ('A' for Active; 'I' for Inactive)
REMARK    1  A    between atoms: C5_5  and  O9_9 
ROOT
HETATM    1  C1  UNL     1     -35.539  13.883  -4.960  1.00 20.00     0.098 C 
HETATM    2  C2  UNL     1     -36.027  15.723  -3.370  1.00 20.00     0.069 C 
HETATM    3  C3  UNL     1     -33.717  15.274  -4.037  1.00 20.00     0.128 C 
HETATM    4  C4  UNL     1     -35.403  17.021  -2.858  1.00 20.00     0.047 C 
HETATM    5  C5  UNL     1     -35.161  15.238  -4.535  1.00 20.00     0.157 C 
HETATM    6  C6  UNL     1     -35.842  17.365  -1.445  1.00 20.00     0.021 C 
HETATM    7  N8  UNL     1     -35.837  12.813  -5.295  1.00 20.00    -0.194 NA
HETATM    8  S10 UNL     1     -33.608  16.726  -2.942  1.00 20.00    -0.161 SA
ENDROOT
BRANCH   5   9
HETATM    9  O9  UNL     1     -35.288  16.126  -5.646  1.00 20.00    -0.369 OA
HETATM   10  C7  UNL     1     -34.281  15.887  -6.617  1.00 20.00     0.204 C 
ENDBRANCH   5   9
TORSDOF 1
ENDMDL
MODEL 4
REMARK VINA RESULT:      -3.7      2.104      3.054
REMARK  1 active torsions:
REMARK  status: ('A' for Active; 'I' for Inactive)
REMARK    1  A    between atoms: C5_5  and  O9_9 
ROOT
HETATM    1  C1  UNL     1     -36.837  14.195  -5.240  1.00 20.00     0.098 C 
HETATM    2  C2  UNL     1     -35.414  15.680  -6.626  1.00 20.00     0.069 C 
HETATM    3  C3  UNL     1     -34.780  15.201  -4.313  1.00 20.00     0.128 C 
HETATM    4  C4  UNL     1     -33.975  16.191  -6.691  1.00 20.00     0.047 C 
HETATM    5  C5  UNL     1     -35.457  14.599  -5.543  1.00 20.00     0.157 C 
HETATM    6  C6  UNL     1     -33.866  17.555  -7.352  1.00 20.00     0.021 C 
HETATM    7  N8  UNL     1     -37.926  13.876  -5.001  1.00 20.00    -0.194 NA
HETATM    8  S10 UNL     1     -33.435  16.250  -4.953  1.00 20.00    -0.161 SA
ENDROOT
BRANCH   5   9
HETATM    9  O9  UNL     1     -34.718  13.452  -5.962  1.00 20.00    -0.369 OA
HETATM   10  C7  UNL     1     -35.184  12.966  -7.212  1.00 20.00     0.204 C 
ENDBRANCH   5   9
TORSDOF 1
ENDMDL
MODEL 5
REMARK VINA RESULT:      -3.7      1.701      1.872
REMARK  1 active torsions:
REMARK  status: ('A' for Active; 'I' for Inactive)
REMARK    1  A    between atoms: C5_5  and  O9_9 
ROOT
HETATM    1  C1  UNL     1     -34.089  15.086  -6.527  1.00 20.00     0.098 C 
HETATM    2  C2  UNL     1     -33.548  15.862  -4.235  1.00 20.00     0.069 C 
HETATM    3  C3  UNL     1     -35.847  16.011  -5.057  1.00 20.00     0.128 C 
HETATM    4  C4  UNL     1     -34.236  16.115  -2.893  1.00 20.00     0.047 C 
HETATM    5  C5  UNL     1     -34.571  15.174  -5.142  1.00 20.00     0.157 C 
HETATM    6  C6  UNL     1     -33.542  17.187  -2.070  1.00 20.00     0.021 C 
HETATM    7  N8  UNL     1     -33.709  15.017  -7.621  1.00 20.00    -0.194 NA
HETATM    8  S10 UNL     1     -35.930  16.611  -3.338  1.00 20.00    -0.161 SA
ENDROOT
BRANCH   5   9
HETATM    9  O9  UNL     1     -34.849  13.859  -4.661  1.00 20.00    -0.369 OA
HETATM   10  C7  UNL     1     -36.002  13.314  -5.284  1.00 20.00     0.204 C 
ENDBRANCH   5   9
TORSDOF 1
ENDMDL
MODEL 6
REMARK VINA RESULT:      -3.6      2.065      2.449
REMARK  1 active torsions:
REMARK  status: ('A' for Active; 'I' for Inactive)
REMARK    1  A    between atoms: C5_5  and  O9_9 
ROOT
HETATM    1  C1  UNL     1     -37.130  14.557  -4.876  1.00 20.00     0.098 C 
HETATM    2  C2  UNL     1     -34.768  14.259  -4.181  1.00 20.00     0.069 C 
HETATM    3  C3  UNL     1     -35.323  15.854  -5.951  1.00 20.00     0.128 C 
HETATM    4  C4  UNL     1     -33.437  15.010  -4.213  1.00 20.00     0.047 C 
HETATM    5  C5  UNL     1     -35.846  15.237  -4.655  1.00 20.00     0.157 C 
HETATM    6  C6  UNL     1     -32.238  14.077  -4.236  1.00 20.00     0.021 C 
HETATM    7  N8  UNL     1     -38.143  14.020  -5.051  1.00 20.00    -0.194 NA
HETATM    8  S10 UNL     1     -33.522  16.019  -5.726  1.00 20.00    -0.161 SA
ENDROOT
BRANCH   5   9
HETATM    9  O9  UNL     1     -36.029  16.273  -3.691  1.00 20.00    -0.369 OA
HETATM   10  C7  UNL     1     -36.781  17.351  -4.227  1.00 20.00     0.204 C 
ENDBRANCH   5   9
TORSDOF 1
ENDMDL
MODEL 7
REMARK VINA RESULT:      -3.3      2.167      2.833
REMARK  1 active torsions:
REMARK  status: ('A' for Active; 'I' for Inactive)
REMARK    1  A    between atoms: C5_5  and  O9_9 
ROOT
HETATM    1  C1  UNL     1     -35.342  13.877  -5.245  1.00 20.00     0.098 C 
HETATM    2  C2  UNL     1     -35.558  16.330  -5.533  1.00 20.00     0.069 C 
HETATM    3  C3  UNL     1     -34.020  15.434  -3.856  1.00 20.00     0.128 C 
HETATM    4  C4  UNL     1     -34.772  17.612  -5.261  1.00 20.00     0.047 C 
HETATM    5  C5  UNL     1     -34.622  15.157  -5.232  1.00 20.00     0.157 C 
HETATM    6  C6  UNL     1     -35.671  18.819  -5.052  1.00 20.00     0.021 C 
HETATM    7  N8  UNL     1     -35.910  12.865  -5.255  1.00 20.00    -0.194 NA
HETATM    8  S10 UNL     1     -33.799  17.241  -3.768  1.00 20.00    -0.161 SA
ENDROOT
BRANCH   5   9
HETATM    9  O9  UNL     1     -33.569  15.109  -6.195  1.00 20.00    -0.369 OA
HETATM   10  C7  UNL     1     -34.069  14.823  -7.493  1.00 20.00     0.204 C 
ENDBRANCH   5   9
TORSDOF 1
ENDMDL
MODEL 8
REMARK VINA RESULT:      -3.3      2.382      3.392
REMARK  1 active torsions:
REMARK  status: ('A' for Active; 'I' for Inactive)
REMARK    1  A    between atoms: C5_5  and  O9_9 
ROOT
HETATM    1  C1  UNL     1     -33.767  14.214  -4.945  1.00 20.00     0.098 C 
HETATM    2  C2  UNL     1     -36.239  14.045  -5.036  1.00 20.00     0.069 C 
HETATM    3  C3  UNL     1     -35.101  15.861  -6.214  1.00 20.00     0.128 C 
HETATM    4  C4  UNL     1     -37.410  14.497  -5.908  1.00 20.00     0.047 C 
HETATM    5  C5  UNL     1     -34.955  14.401  -5.789  1.00 20.00     0.157 C 
HETATM    6  C6  UNL     1     -38.701  14.653  -5.122  1.00 20.00     0.021 C 
HETATM    7  N8  UNL     1     -32.828  14.067  -4.279  1.00 20.00    -0.194 NA
HETATM    8  S10 UNL     1     -36.865  16.086  -6.611  1.00 20.00    -0.161 SA
ENDROOT
BRANCH   5   9
HETATM    9  O9  UNL     1     -34.829  13.591  -6.957  1.00 20.00    -0.369 OA
HETATM   10  C7  UNL     1     -33.978  14.198  -7.917  1.00 20.00     0.204 C 
ENDBRANCH   5   9
TORSDOF 1
ENDMDL
MODEL 9
REMARK VINA RESULT:      -3.3      1.680      2.139
REMARK  1 active torsions:
REMARK  status: ('A' for Active; 'I' for Inactive)
REMARK    1  A    between atoms: C5_5  and  O9_9 
ROOT
HETATM    1  C1  UNL     1     -33.592  14.389  -4.297  1.00 20.00     0.098 C 
HETATM    2  C2  UNL     1     -35.100  15.931  -3.074  1.00 20.00     0.069 C 
HETATM    3  C3  UNL     1     -34.918  16.086  -5.508  1.00 20.00     0.128 C 
HETATM    4  C4  UNL     1     -36.329  16.805  -3.322  1.00 20.00     0.047 C 
HETATM    5  C5  UNL     1     -34.876  15.101  -4.341  1.00 20.00     0.157 C 
HETATM    6  C6  UNL     1     -36.400  17.998  -2.383  1.00 20.00     0.021 C 
HETATM    7  N8  UNL     1     -32.578  13.826  -4.264  1.00 20.00    -0.194 NA
HETATM    8  S10 UNL     1     -36.167  17.334  -5.057  1.00 20.00    -0.161 SA
ENDROOT
BRANCH   5   9
HETATM    9  O9  UNL     1     -35.930  14.152  -4.500  1.00 20.00    -0.369 OA
HETATM   10  C7  UNL     1     -35.870  13.521  -5.770  1.00 20.00     0.204 C 
ENDBRANCH   5   9
TORSDOF 1
ENDMDL
