MODEL 1
REMARK VINA RESULT:      -3.8      0.000      0.000
REMARK  0 active torsions:
REMARK  status: ('A' for Active; 'I' for Inactive)
ROOT
HETATM    1  C1  UNL     1     -35.797  13.838  -5.128  1.00 20.00     0.086 C 
HETATM    2  C2  UNL     1     -35.593  16.096  -6.182  1.00 20.00     0.056 C 
HETATM    3  C3  UNL     1     -34.465  15.646  -4.057  1.00 20.00     0.115 C 
HETATM    4  C4  UNL     1     -34.159  16.015  -6.719  1.00 20.00     0.046 C 
HETATM    5  C5  UNL     1     -35.693  15.286  -4.887  1.00 20.00     0.135 C 
HETATM    6  C6  UNL     1     -33.929  14.874  -7.702  1.00 20.00     0.021 C 
HETATM    7  N7  UNL     1     -35.880  12.697  -5.320  1.00 20.00    -0.195 NA
HETATM    8  S8  UNL     1     -33.101  15.814  -5.248  1.00 20.00    -0.162 SA
HETATM    9 CL9  UNL     1     -37.182  15.736  -3.998  1.00 20.00    -0.102 Cl
ENDROOT
TORSDOF 0
ENDMDL
MODEL 2
REMARK VINA RESULT:      -3.7      2.110      2.992
REMARK  0 active torsions:
REMARK  status: ('A' for Active; 'I' for Inactive)
ROOT
HETATM    1  C1  UNL     1     -35.202  13.779  -4.999  1.00 20.00     0.086 C 
HETATM    2  C2  UNL     1     -34.836  15.770  -3.532  1.00 20.00     0.056 C 
HETATM    3  C3  UNL     1     -34.072  15.823  -5.857  1.00 20.00     0.115 C 
HETATM    4  C4  UNL     1     -35.911  16.713  -4.084  1.00 20.00     0.046 C 
HETATM    5  C5  UNL     1     -34.301  14.895  -4.668  1.00 20.00     0.135 C 
HETATM    6  C6  UNL     1     -37.327  16.160  -3.996  1.00 20.00     0.021 C 
HETATM    7  N7  UNL     1     -35.912  12.899  -5.258  1.00 20.00    -0.195 NA
HETATM    8  S8  UNL     1     -35.448  17.011  -5.823  1.00 20.00    -0.162 SA
HETATM    9 CL9  UNL     1     -32.753  14.137  -4.180  1.00 20.00    -0.102 Cl
ENDROOT
TORSDOF 0
ENDMDL
MODEL 3
REMARK VINA RESULT:      -3.7      2.116      2.948
REMARK  0 active torsions:
REMARK  status: ('A' for Active; 'I' for Inactive)
ROOT
HETATM    1  C1  UNL     1     -36.691  14.147  -5.415  1.00 20.00     0.086 C 
HETATM    2  C2  UNL     1     -34.231  14.364  -5.025  1.00 20.00     0.056 C 
HETATM    3  C3  UNL     1     -35.279  15.605  -6.855  1.00 20.00     0.115 C 
HETATM    4  C4  UNL     1     -34.181  15.758  -4.388  1.00 20.00     0.046 C 
HETATM    5  C5  UNL     1     -35.371  14.316  -6.045  1.00 20.00     0.135 C 
HETATM    6  C6  UNL     1     -35.001  15.888  -3.112  1.00 20.00     0.021 C 
HETATM    7  N7  UNL     1     -37.730  14.013  -4.918  1.00 20.00    -0.195 NA
HETATM    8  S8  UNL     1     -34.804  16.898  -5.667  1.00 20.00    -0.162 SA
HETATM    9 CL9  UNL     1     -35.167  12.901  -7.124  1.00 20.00    -0.102 Cl
ENDROOT
TORSDOF 0
ENDMDL
MODEL 4
REMARK VINA RESULT:      -3.6      1.636      1.965
REMARK  0 active torsions:
REMARK  status: ('A' for Active; 'I' for Inactive)
ROOT
HETATM    1  C1  UNL     1     -36.012  13.921  -5.242  1.00 20.00     0.086 C 
HETATM    2  C2  UNL     1     -34.948  16.136  -5.705  1.00 20.00     0.056 C 
HETATM    3  C3  UNL     1     -36.509  15.912  -3.833  1.00 20.00     0.115 C 
HETATM    4  C4  UNL     1     -33.920  16.184  -4.568  1.00 20.00     0.046 C 
HETATM    5  C5  UNL     1     -36.192  15.382  -5.228  1.00 20.00     0.135 C 
HETATM    6  C6  UNL     1     -32.927  15.031  -4.580  1.00 20.00     0.021 C 
HETATM    7  N7  UNL     1     -35.869  12.770  -5.254  1.00 20.00    -0.195 NA
HETATM    8  S8  UNL     1     -34.898  16.169  -3.029  1.00 20.00    -0.162 SA
HETATM    9 CL9  UNL     1     -37.565  15.709  -6.331  1.00 20.00    -0.102 Cl
ENDROOT
TORSDOF 0
ENDMDL
MODEL 5
REMARK VINA RESULT:      -3.6      2.635      3.164
REMARK  0 active torsions:
REMARK  status: ('A' for Active; 'I' for Inactive)
ROOT
HETATM    1  C1  UNL     1     -34.608  16.327  -5.337  1.00 20.00     0.086 C 
HETATM    2  C2  UNL     1     -34.869  14.061  -4.312  1.00 20.00     0.056 C 
HETATM    3  C3  UNL     1     -36.652  15.718  -4.055  1.00 20.00     0.115 C 
HETATM    4  C4  UNL     1     -35.874  13.438  -5.287  1.00 20.00     0.046 C 
HETATM    5  C5  UNL     1     -35.142  15.564  -4.197  1.00 20.00     0.135 C 
HETATM    6  C6  UNL     1     -35.391  13.389  -6.730  1.00 20.00     0.021 C 
HETATM    7  N7  UNL     1     -34.186  16.928  -6.235  1.00 20.00    -0.195 NA
HETATM    8  S8  UNL     1     -37.378  14.461  -5.152  1.00 20.00    -0.162 SA
HETATM    9 CL9  UNL     1     -34.323  16.225  -2.748  1.00 20.00    -0.102 Cl
ENDROOT
TORSDOF 0
ENDMDL
MODEL 6
REMARK VINA RESULT:      -3.6      1.573      1.872
REMARK  0 active torsions:
REMARK  status: ('A' for Active; 'I' for Inactive)
ROOT
HETATM    1  C1  UNL     1     -35.437  13.898  -5.164  1.00 20.00     0.086 C 
HETATM    2  C2  UNL     1     -35.889  16.318  -5.601  1.00 20.00     0.056 C 
HETATM    3  C3  UNL     1     -33.624  15.437  -5.897  1.00 20.00     0.115 C 
HETATM    4  C4  UNL     1     -35.860  16.325  -7.134  1.00 20.00     0.046 C 
HETATM    5  C5  UNL     1     -34.903  15.267  -5.084  1.00 20.00     0.135 C 
HETATM    6  C6  UNL     1     -36.884  15.401  -7.778  1.00 20.00     0.021 C 
HETATM    7  N7  UNL     1     -35.859  12.819  -5.227  1.00 20.00    -0.195 NA
HETATM    8  S8  UNL     1     -34.168  15.820  -7.590  1.00 20.00    -0.162 SA
HETATM    9 CL9  UNL     1     -34.563  15.551  -3.348  1.00 20.00    -0.102 Cl
ENDROOT
TORSDOF 0
ENDMDL
MODEL 7
REMARK VINA RESULT:      -3.5      2.026      2.277
REMARK  0 active torsions:
REMARK  status: ('A' for Active; 'I' for Inactive)
ROOT
HETATM    1  C1  UNL     1     -33.189  14.481  -4.330  1.00 20.00     0.086 C 
HETATM    2  C2  UNL     1     -35.450  15.015  -5.255  1.00 20.00     0.056 C 
HETATM    3  C3  UNL     1     -33.680  16.703  -5.338  1.00 20.00     0.115 C 
HETATM    4  C4  UNL     1     -35.152  14.932  -6.757  1.00 20.00     0.046 C 
HETATM    5  C5  UNL     1     -34.207  15.527  -4.523  1.00 20.00     0.135 C 
HETATM    6  C6  UNL     1     -34.625  13.579  -7.213  1.00 20.00     0.021 C 
HETATM    7  N7  UNL     1     -32.387  13.657  -4.177  1.00 20.00    -0.195 NA
HETATM    8  S8  UNL     1     -33.922  16.239  -7.080  1.00 20.00    -0.162 SA
HETATM    9 CL9  UNL     1     -34.651  16.077  -2.877  1.00 20.00    -0.102 Cl
ENDROOT
TORSDOF 0
ENDMDL
MODEL 8
REMARK VINA RESULT:      -3.5      2.025      3.100
REMARK  0 active torsions:
REMARK  status: ('A' for Active; 'I' for Inactive)
ROOT
HETATM    1  C1  UNL     1     -36.933  14.859  -4.624  1.00 20.00     0.086 C 
HETATM    2  C2  UNL     1     -34.512  14.601  -4.052  1.00 20.00     0.056 C 
HETATM    3  C3  UNL     1     -35.155  15.857  -6.052  1.00 20.00     0.115 C 
HETATM    4  C4  UNL     1     -34.209  16.008  -3.523  1.00 20.00     0.046 C 
HETATM    5  C5  UNL     1     -35.570  14.695  -5.155  1.00 20.00     0.135 C 
HETATM    6  C6  UNL     1     -35.064  16.420  -2.332  1.00 20.00     0.021 C 
HETATM    7  N7  UNL     1     -38.006  14.987  -4.205  1.00 20.00    -0.195 NA
HETATM    8  S8  UNL     1     -34.495  17.129  -4.932  1.00 20.00    -0.162 SA
HETATM    9 CL9  UNL     1     -35.601  13.175  -6.103  1.00 20.00    -0.102 Cl
ENDROOT
TORSDOF 0
ENDMDL
MODEL 9
REMARK VINA RESULT:      -3.4      2.578      3.072
REMARK  0 active torsions:
REMARK  status: ('A' for Active; 'I' for Inactive)
ROOT
HETATM    1  C1  UNL     1     -34.022  14.829  -4.124  1.00 20.00     0.086 C 
HETATM    2  C2  UNL     1     -36.063  16.033  -3.326  1.00 20.00     0.056 C 
HETATM    3  C3  UNL     1     -34.583  17.107  -4.953  1.00 20.00     0.115 C 
HETATM    4  C4  UNL     1     -36.963  15.883  -4.558  1.00 20.00     0.046 C 
HETATM    5  C5  UNL     1     -34.604  16.136  -3.777  1.00 20.00     0.135 C 
HETATM    6  C6  UNL     1     -37.238  14.439  -4.955  1.00 20.00     0.021 C 
HETATM    7  N7  UNL     1     -33.564  13.798  -4.396  1.00 20.00    -0.195 NA
HETATM    8  S8  UNL     1     -36.095  16.760  -5.901  1.00 20.00    -0.162 SA
HETATM    9 CL9  UNL     1     -33.595  16.774  -2.441  1.00 20.00    -0.102 Cl
ENDROOT
TORSDOF 0
ENDMDL
