MODEL 1
REMARK VINA RESULT:      -5.1      0.000      0.000
REMARK  3 active torsions:
REMARK  status: ('A' for Active; 'I' for Inactive)
REMARK    1  A    between atoms: C6_6  and  C9_9 
REMARK    2  A    between atoms: C6_6  and  O10_10 
REMARK    3  A    between atoms: C8_8  and  C9_9 
ROOT
HETATM    1  C1  UNL     1     -32.524  10.304   0.664  1.00 20.00     0.012 C 
HETATM    2  C2  UNL     1     -32.153   9.296   1.199  1.00 20.00    -0.117 C 
HETATM    3  C8  UNL     1     -31.697   8.060   1.850  1.00 20.00     0.096 C 
ENDROOT
BRANCH   3   4
HETATM    4  C9  UNL     1     -31.863   8.168   3.355  1.00 20.00     0.050 C 
BRANCH   4   5
HETATM    5  C6  UNL     1     -33.133   7.459   3.812  1.00 20.00     0.068 C 
HETATM    6  C3  UNL     1     -33.143   5.988   3.386  1.00 20.00     0.053 C 
HETATM    7  C5  UNL     1     -34.321   5.315   4.088  1.00 20.00     0.046 C 
HETATM    8  C7  UNL     1     -34.161   3.807   4.183  1.00 20.00     0.021 C 
HETATM    9  S11 UNL     1     -34.373   6.082   5.739  1.00 20.00    -0.162 SA
HETATM   10  C4  UNL     1     -33.266   7.470   5.335  1.00 20.00     0.112 C 
BRANCH   5  11
HETATM   11  O10 UNL     1     -34.233   8.152   3.219  1.00 20.00    -0.389 OA
HETATM   12  H25 UNL     1     -34.961   7.514   3.167  1.00 20.00     0.210 HD
ENDBRANCH   5  11
ENDBRANCH   4   5
ENDBRANCH   3   4
TORSDOF 3
ENDMDL
MODEL 2
REMARK VINA RESULT:      -4.7     11.372     12.017
REMARK  3 active torsions:
REMARK  status: ('A' for Active; 'I' for Inactive)
REMARK    1  A    between atoms: C6_6  and  C9_9 
REMARK    2  A    between atoms: C6_6  and  O10_10 
REMARK    3  A    between atoms: C8_8  and  C9_9 
ROOT
HETATM    1  C1  UNL     1     -34.967  17.379  -0.527  1.00 20.00     0.012 C 
HETATM    2  C2  UNL     1     -35.006  16.856  -1.606  1.00 20.00    -0.117 C 
HETATM    3  C8  UNL     1     -35.059  16.216  -2.927  1.00 20.00     0.096 C 
ENDROOT
BRANCH   3   4
HETATM    4  C9  UNL     1     -33.668  15.792  -3.362  1.00 20.00     0.050 C 
BRANCH   4   5
HETATM    5  C6  UNL     1     -33.721  15.027  -4.680  1.00 20.00     0.068 C 
HETATM    6  C3  UNL     1     -35.151  14.614  -5.035  1.00 20.00     0.053 C 
HETATM    7  C5  UNL     1     -35.132  14.076  -6.465  1.00 20.00     0.046 C 
HETATM    8  C7  UNL     1     -36.501  14.117  -7.123  1.00 20.00     0.021 C 
HETATM    9  S11 UNL     1     -33.942  15.141  -7.341  1.00 20.00    -0.162 SA
HETATM   10  C4  UNL     1     -33.212  15.877  -5.844  1.00 20.00     0.112 C 
BRANCH   5  11
HETATM   11  O10 UNL     1     -32.897  13.870  -4.522  1.00 20.00    -0.389 OA
HETATM   12  H25 UNL     1     -32.098  14.165  -4.061  1.00 20.00     0.210 HD
ENDBRANCH   5  11
ENDBRANCH   4   5
ENDBRANCH   3   4
TORSDOF 3
ENDMDL
MODEL 3
REMARK VINA RESULT:      -4.3     11.795     12.452
REMARK  3 active torsions:
REMARK  status: ('A' for Active; 'I' for Inactive)
REMARK    1  A    between atoms: C6_6  and  C9_9 
REMARK    2  A    between atoms: C6_6  and  O10_10 
REMARK    3  A    between atoms: C8_8  and  C9_9 
ROOT
HETATM    1  C1  UNL     1     -34.784  17.722  -0.187  1.00 20.00     0.012 C 
HETATM    2  C2  UNL     1     -34.910  17.140  -1.229  1.00 20.00    -0.117 C 
HETATM    3  C8  UNL     1     -35.069  16.426  -2.502  1.00 20.00     0.096 C 
ENDROOT
BRANCH   3   4
HETATM    4  C9  UNL     1     -33.756  16.413  -3.264  1.00 20.00     0.050 C 
BRANCH   4   5
HETATM    5  C6  UNL     1     -34.002  16.337  -4.767  1.00 20.00     0.068 C 
HETATM    6  C3  UNL     1     -33.727  14.933  -5.313  1.00 20.00     0.053 C 
HETATM    7  C5  UNL     1     -34.226  14.896  -6.757  1.00 20.00     0.046 C 
HETATM    8  C7  UNL     1     -34.498  13.484  -7.246  1.00 20.00     0.021 C 
HETATM    9  S11 UNL     1     -35.747  15.899  -6.744  1.00 20.00    -0.162 SA
HETATM   10  C4  UNL     1     -35.453  16.662  -5.117  1.00 20.00     0.112 C 
BRANCH   5  11
HETATM   11  O10 UNL     1     -33.126  17.285  -5.380  1.00 20.00    -0.389 OA
HETATM   12  H25 UNL     1     -33.669  17.800  -5.995  1.00 20.00     0.210 HD
ENDBRANCH   5  11
ENDBRANCH   4   5
ENDBRANCH   3   4
TORSDOF 3
ENDMDL
MODEL 4
REMARK VINA RESULT:      -4.1     11.450     12.264
REMARK  3 active torsions:
REMARK  status: ('A' for Active; 'I' for Inactive)
REMARK    1  A    between atoms: C6_6  and  C9_9 
REMARK    2  A    between atoms: C6_6  and  O10_10 
REMARK    3  A    between atoms: C8_8  and  C9_9 
ROOT
HETATM    1  C1  UNL     1     -34.318  13.961  -7.875  1.00 20.00     0.012 C 
HETATM    2  C2  UNL     1     -34.941  13.706  -6.881  1.00 20.00    -0.117 C 
HETATM    3  C8  UNL     1     -35.699  13.391  -5.663  1.00 20.00     0.096 C 
ENDROOT
BRANCH   3   4
HETATM    4  C9  UNL     1     -36.993  14.184  -5.630  1.00 20.00     0.050 C 
BRANCH   4   5
HETATM    5  C6  UNL     1     -36.925  15.289  -4.581  1.00 20.00     0.068 C 
HETATM    6  C3  UNL     1     -35.658  15.180  -3.729  1.00 20.00     0.053 C 
HETATM    7  C5  UNL     1     -35.564  16.450  -2.884  1.00 20.00     0.046 C 
HETATM    8  C7  UNL     1     -34.151  16.725  -2.397  1.00 20.00     0.021 C 
HETATM    9  S11 UNL     1     -36.159  17.778  -3.979  1.00 20.00    -0.162 SA
HETATM   10  C4  UNL     1     -36.899  16.675  -5.225  1.00 20.00     0.112 C 
BRANCH   5  11
HETATM   11  O10 UNL     1     -38.086  15.153  -3.759  1.00 20.00    -0.389 OA
HETATM   12  H25 UNL     1     -37.836  14.569  -3.028  1.00 20.00     0.210 HD
ENDBRANCH   5  11
ENDBRANCH   4   5
ENDBRANCH   3   4
TORSDOF 3
ENDMDL
MODEL 5
REMARK VINA RESULT:      -4.0      1.651      2.037
REMARK  3 active torsions:
REMARK  status: ('A' for Active; 'I' for Inactive)
REMARK    1  A    between atoms: C6_6  and  C9_9 
REMARK    2  A    between atoms: C6_6  and  O10_10 
REMARK    3  A    between atoms: C8_8  and  C9_9 
ROOT
HETATM    1  C1  UNL     1     -33.255   9.612  -0.825  1.00 20.00     0.012 C 
HETATM    2  C2  UNL     1     -32.749   9.465   0.254  1.00 20.00    -0.117 C 
HETATM    3  C8  UNL     1     -32.123   9.287   1.571  1.00 20.00     0.096 C 
ENDROOT
BRANCH   3   4
HETATM    4  C9  UNL     1     -33.177   8.947   2.610  1.00 20.00     0.050 C 
BRANCH   4   5
HETATM    5  C6  UNL     1     -32.899   7.586   3.239  1.00 20.00     0.068 C 
HETATM    6  C3  UNL     1     -33.823   7.317   4.430  1.00 20.00     0.053 C 
HETATM    7  C5  UNL     1     -33.636   5.854   4.833  1.00 20.00     0.046 C 
HETATM    8  C7  UNL     1     -34.815   5.310   5.622  1.00 20.00     0.021 C 
HETATM    9  S11 UNL     1     -33.423   4.966   3.258  1.00 20.00    -0.162 SA
HETATM   10  C4  UNL     1     -33.128   6.449   2.244  1.00 20.00     0.112 C 
BRANCH   5  11
HETATM   11  O10 UNL     1     -31.535   7.596   3.665  1.00 20.00    -0.389 OA
HETATM   12  H25 UNL     1     -31.433   6.848   4.272  1.00 20.00     0.210 HD
ENDBRANCH   5  11
ENDBRANCH   4   5
ENDBRANCH   3   4
TORSDOF 3
ENDMDL
MODEL 6
REMARK VINA RESULT:      -4.0     11.160     11.759
REMARK  3 active torsions:
REMARK  status: ('A' for Active; 'I' for Inactive)
REMARK    1  A    between atoms: C6_6  and  C9_9 
REMARK    2  A    between atoms: C6_6  and  O10_10 
REMARK    3  A    between atoms: C8_8  and  C9_9 
ROOT
HETATM    1  C1  UNL     1     -35.151  14.073  -4.577  1.00 20.00     0.012 C 
HETATM    2  C2  UNL     1     -34.670  14.949  -3.912  1.00 20.00    -0.117 C 
HETATM    3  C8  UNL     1     -34.078  16.021  -3.100  1.00 20.00     0.096 C 
ENDROOT
BRANCH   3   4
HETATM    4  C9  UNL     1     -35.139  16.668  -2.230  1.00 20.00     0.050 C 
BRANCH   4   5
HETATM    5  C6  UNL     1     -34.554  17.829  -1.433  1.00 20.00     0.068 C 
HETATM    6  C3  UNL     1     -34.917  17.735   0.051  1.00 20.00     0.053 C 
HETATM    7  C5  UNL     1     -34.097  18.791   0.792  1.00 20.00     0.046 C 
HETATM    8  C7  UNL     1     -33.953  18.485   2.273  1.00 20.00     0.021 C 
HETATM    9  S11 UNL     1     -32.480  18.789  -0.047  1.00 20.00    -0.162 SA
HETATM   10  C4  UNL     1     -33.028  17.848  -1.506  1.00 20.00     0.112 C 
BRANCH   5  11
HETATM   11  O10 UNL     1     -35.086  19.030  -1.997  1.00 20.00    -0.389 OA
HETATM   12  H25 UNL     1     -35.115  18.891  -2.956  1.00 20.00     0.210 HD
ENDBRANCH   5  11
ENDBRANCH   4   5
ENDBRANCH   3   4
TORSDOF 3
ENDMDL
MODEL 7
REMARK VINA RESULT:      -4.0     11.535     11.958
REMARK  3 active torsions:
REMARK  status: ('A' for Active; 'I' for Inactive)
REMARK    1  A    between atoms: C6_6  and  C9_9 
REMARK    2  A    between atoms: C6_6  and  O10_10 
REMARK    3  A    between atoms: C8_8  and  C9_9 
ROOT
HETATM    1  C1  UNL     1     -30.835  18.782   2.029  1.00 20.00     0.012 C 
HETATM    2  C2  UNL     1     -31.384  18.657   0.969  1.00 20.00    -0.117 C 
HETATM    3  C8  UNL     1     -32.050  18.503  -0.331  1.00 20.00     0.096 C 
ENDROOT
BRANCH   3   4
HETATM    4  C9  UNL     1     -33.549  18.358  -0.138  1.00 20.00     0.050 C 
BRANCH   4   5
HETATM    5  C6  UNL     1     -34.236  18.023  -1.457  1.00 20.00     0.068 C 
HETATM    6  C3  UNL     1     -33.300  17.263  -2.402  1.00 20.00     0.053 C 
HETATM    7  C5  UNL     1     -34.141  16.768  -3.579  1.00 20.00     0.046 C 
HETATM    8  C7  UNL     1     -33.497  15.598  -4.304  1.00 20.00     0.021 C 
HETATM    9  S11 UNL     1     -35.736  16.295  -2.838  1.00 20.00    -0.162 SA
HETATM   10  C4  UNL     1     -35.457  17.129  -1.244  1.00 20.00     0.112 C 
BRANCH   5  11
HETATM   11  O10 UNL     1     -34.632  19.262  -2.046  1.00 20.00    -0.389 OA
HETATM   12  H25 UNL     1     -34.481  19.944  -1.375  1.00 20.00     0.210 HD
ENDBRANCH   5  11
ENDBRANCH   4   5
ENDBRANCH   3   4
TORSDOF 3
ENDMDL
MODEL 8
REMARK VINA RESULT:      -3.9     11.234     12.725
REMARK  3 active torsions:
REMARK  status: ('A' for Active; 'I' for Inactive)
REMARK    1  A    between atoms: C6_6  and  C9_9 
REMARK    2  A    between atoms: C6_6  and  O10_10 
REMARK    3  A    between atoms: C8_8  and  C9_9 
ROOT
HETATM    1  C1  UNL     1     -40.808  15.545  -5.401  1.00 20.00     0.012 C 
HETATM    2  C2  UNL     1     -39.644  15.367  -5.634  1.00 20.00    -0.117 C 
HETATM    3  C8  UNL     1     -38.220  15.151  -5.924  1.00 20.00     0.096 C 
ENDROOT
BRANCH   3   4
HETATM    4  C9  UNL     1     -37.566  14.376  -4.794  1.00 20.00     0.050 C 
BRANCH   4   5
HETATM    5  C6  UNL     1     -36.110  14.064  -5.123  1.00 20.00     0.068 C 
HETATM    6  C3  UNL     1     -35.772  14.415  -6.574  1.00 20.00     0.053 C 
HETATM    7  C5  UNL     1     -34.256  14.297  -6.733  1.00 20.00     0.046 C 
HETATM    8  C7  UNL     1     -33.730  15.089  -7.918  1.00 20.00     0.021 C 
HETATM    9  S11 UNL     1     -33.578  14.921  -5.162  1.00 20.00    -0.162 SA
HETATM   10  C4  UNL     1     -35.151  14.870  -4.247  1.00 20.00     0.112 C 
BRANCH   5  11
HETATM   11  O10 UNL     1     -35.922  12.666  -4.896  1.00 20.00    -0.389 OA
HETATM   12  H25 UNL     1     -36.225  12.494  -3.991  1.00 20.00     0.210 HD
ENDBRANCH   5  11
ENDBRANCH   4   5
ENDBRANCH   3   4
TORSDOF 3
ENDMDL
MODEL 9
REMARK VINA RESULT:      -3.9     10.985     12.270
REMARK  3 active torsions:
REMARK  status: ('A' for Active; 'I' for Inactive)
REMARK    1  A    between atoms: C6_6  and  C9_9 
REMARK    2  A    between atoms: C6_6  and  O10_10 
REMARK    3  A    between atoms: C8_8  and  C9_9 
ROOT
HETATM    1  C1  UNL     1     -34.018  18.362   0.417  1.00 20.00     0.012 C 
HETATM    2  C2  UNL     1     -34.519  17.700  -0.450  1.00 20.00    -0.117 C 
HETATM    3  C8  UNL     1     -35.136  16.890  -1.508  1.00 20.00     0.096 C 
ENDROOT
BRANCH   3   4
HETATM    4  C9  UNL     1     -34.094  16.483  -2.534  1.00 20.00     0.050 C 
BRANCH   4   5
HETATM    5  C6  UNL     1     -34.757  15.958  -3.802  1.00 20.00     0.068 C 
HETATM    6  C3  UNL     1     -34.404  16.817  -5.020  1.00 20.00     0.053 C 
HETATM    7  C5  UNL     1     -34.910  16.082  -6.261  1.00 20.00     0.046 C 
HETATM    8  C7  UNL     1     -34.203  16.525  -7.531  1.00 20.00     0.021 C 
HETATM    9  S11 UNL     1     -34.605  14.321  -5.910  1.00 20.00    -0.162 SA
HETATM   10  C4  UNL     1     -34.302  14.536  -4.127  1.00 20.00     0.112 C 
BRANCH   5  11
HETATM   11  O10 UNL     1     -36.167  15.981  -3.574  1.00 20.00    -0.389 OA
HETATM   12  H25 UNL     1     -36.456  15.056  -3.556  1.00 20.00     0.210 HD
ENDBRANCH   5  11
ENDBRANCH   4   5
ENDBRANCH   3   4
TORSDOF 3
ENDMDL
