MODEL 1
REMARK VINA RESULT:      -4.5      0.000      0.000
REMARK  1 active torsions:
REMARK  status: ('A' for Active; 'I' for Inactive)
REMARK    1  A    between atoms: C7_7  and  C11_11 
ROOT
HETATM    1  C1  UNL     1     -35.477  13.366  -6.513  1.00 20.00     0.030 C 
HETATM    2  C2  UNL     1     -34.224  14.199  -6.713  1.00 20.00     0.036 C 
HETATM    3  C3  UNL     1     -33.335  16.191  -5.382  1.00 20.00     0.305 C 
HETATM    4  C4  UNL     1     -35.868  13.691  -5.087  1.00 20.00     0.235 C 
HETATM    5  C5  UNL     1     -35.277  15.650  -3.593  1.00 20.00     0.271 C 
HETATM    6  C6  UNL     1     -34.548  15.525  -6.029  1.00 20.00     0.216 C 
HETATM    7  C7  UNL     1     -34.858  17.123  -3.679  1.00 20.00     0.251 C 
HETATM    8  C10 UNL     1     -33.784  18.575  -5.304  1.00 20.00     0.310 C 
HETATM    9  N12 UNL     1     -33.670  17.339  -4.530  1.00 20.00     0.092 N 
HETATM   10  N13 UNL     1     -35.593  15.174  -4.982  1.00 20.00    -0.063 N 
HETATM   11  H36 UNL     1     -36.485  15.692  -5.264  1.00 20.00     0.280 HD
ENDROOT
BRANCH   7  12
HETATM   12  C11 UNL     1     -34.557  17.654  -2.277  1.00 20.00     0.012 C 
HETATM   13  C8  UNL     1     -35.432  16.950  -1.246  1.00 20.00     0.012 C 
HETATM   14  C9  UNL     1     -33.079  17.476  -1.950  1.00 20.00     0.012 C 
ENDBRANCH   7  12
TORSDOF 1
ENDMDL
MODEL 2
REMARK VINA RESULT:      -4.5      1.437      4.523
REMARK  1 active torsions:
REMARK  status: ('A' for Active; 'I' for Inactive)
REMARK    1  A    between atoms: C7_7  and  C11_11 
ROOT
HETATM    1  C1  UNL     1     -33.673  18.247  -0.396  1.00 20.00     0.030 C 
HETATM    2  C2  UNL     1     -33.127  18.563  -1.777  1.00 20.00     0.036 C 
HETATM    3  C3  UNL     1     -33.659  17.510  -4.043  1.00 20.00     0.305 C 
HETATM    4  C4  UNL     1     -34.931  17.465  -0.706  1.00 20.00     0.235 C 
HETATM    5  C5  UNL     1     -35.647  16.199  -2.781  1.00 20.00     0.271 C 
HETATM    6  C6  UNL     1     -33.350  17.276  -2.567  1.00 20.00     0.216 C 
HETATM    7  C7  UNL     1     -35.049  15.472  -3.992  1.00 20.00     0.251 C 
HETATM    8  C10 UNL     1     -32.969  15.519  -5.245  1.00 20.00     0.310 C 
HETATM    9  N12 UNL     1     -34.101  16.307  -4.758  1.00 20.00     0.092 N 
HETATM   10  N13 UNL     1     -34.519  16.595  -1.871  1.00 20.00    -0.063 N 
HETATM   11  H36 UNL     1     -34.138  15.677  -1.475  1.00 20.00     0.280 HD
ENDROOT
BRANCH   7  12
HETATM   12  C11 UNL     1     -36.172  15.024  -4.929  1.00 20.00     0.012 C 
HETATM   13  C8  UNL     1     -36.055  13.533  -5.219  1.00 20.00     0.012 C 
HETATM   14  C9  UNL     1     -37.530  15.356  -4.321  1.00 20.00     0.012 C 
ENDBRANCH   7  12
TORSDOF 1
ENDMDL
MODEL 3
REMARK VINA RESULT:      -4.4      1.766      2.532
REMARK  1 active torsions:
REMARK  status: ('A' for Active; 'I' for Inactive)
REMARK    1  A    between atoms: C7_7  and  C11_11 
ROOT
HETATM    1  C1  UNL     1     -37.851  15.618  -6.898  1.00 20.00     0.030 C 
HETATM    2  C2  UNL     1     -37.053  14.411  -6.437  1.00 20.00     0.036 C 
HETATM    3  C3  UNL     1     -35.288  14.203  -4.602  1.00 20.00     0.305 C 
HETATM    4  C4  UNL     1     -37.694  16.583  -5.742  1.00 20.00     0.235 C 
HETATM    5  C5  UNL     1     -35.969  16.712  -3.892  1.00 20.00     0.271 C 
HETATM    6  C6  UNL     1     -35.813  15.015  -5.784  1.00 20.00     0.216 C 
HETATM    7  C7  UNL     1     -34.516  16.319  -3.595  1.00 20.00     0.251 C 
HETATM    8  C10 UNL     1     -32.916  14.679  -4.403  1.00 20.00     0.310 C 
HETATM    9  N12 UNL     1     -34.245  14.885  -3.826  1.00 20.00     0.092 N 
HETATM   10  N13 UNL     1     -36.250  16.401  -5.334  1.00 20.00    -0.063 N 
HETATM   11  H36 UNL     1     -35.662  17.097  -5.895  1.00 20.00     0.280 HD
ENDROOT
BRANCH   7  12
HETATM   12  C11 UNL     1     -34.181  16.650  -2.140  1.00 20.00     0.012 C 
HETATM   13  C8  UNL     1     -33.185  17.802  -2.076  1.00 20.00     0.012 C 
HETATM   14  C9  UNL     1     -35.452  16.986  -1.368  1.00 20.00     0.012 C 
ENDBRANCH   7  12
TORSDOF 1
ENDMDL
MODEL 4
REMARK VINA RESULT:      -4.1      1.442      4.573
REMARK  1 active torsions:
REMARK  status: ('A' for Active; 'I' for Inactive)
REMARK    1  A    between atoms: C7_7  and  C11_11 
ROOT
HETATM    1  C1  UNL     1     -34.291  17.920  -0.219  1.00 20.00     0.030 C 
HETATM    2  C2  UNL     1     -33.400  18.134  -1.429  1.00 20.00     0.036 C 
HETATM    3  C3  UNL     1     -33.595  17.217  -3.806  1.00 20.00     0.305 C 
HETATM    4  C4  UNL     1     -35.570  17.396  -0.836  1.00 20.00     0.235 C 
HETATM    5  C5  UNL     1     -36.023  16.304  -3.076  1.00 20.00     0.271 C 
HETATM    6  C6  UNL     1     -33.674  16.918  -2.311  1.00 20.00     0.216 C 
HETATM    7  C7  UNL     1     -35.314  15.483  -4.161  1.00 20.00     0.251 C 
HETATM    8  C10 UNL     1     -33.034  15.138  -4.924  1.00 20.00     0.310 C 
HETATM    9  N12 UNL     1     -34.080  16.125  -4.659  1.00 20.00     0.092 N 
HETATM   10  N13 UNL     1     -35.075  16.470  -1.923  1.00 20.00    -0.063 N 
HETATM   11  H36 UNL     1     -34.971  15.494  -1.498  1.00 20.00     0.280 HD
ENDROOT
BRANCH   7  12
HETATM   12  C11 UNL     1     -36.262  15.265  -5.342  1.00 20.00     0.012 C 
HETATM   13  C8  UNL     1     -35.919  16.222  -6.478  1.00 20.00     0.012 C 
HETATM   14  C9  UNL     1     -36.196  13.817  -5.812  1.00 20.00     0.012 C 
ENDBRANCH   7  12
TORSDOF 1
ENDMDL
MODEL 5
REMARK VINA RESULT:      -4.1      1.833      5.211
REMARK  1 active torsions:
REMARK  status: ('A' for Active; 'I' for Inactive)
REMARK    1  A    between atoms: C7_7  and  C11_11 
ROOT
HETATM    1  C1  UNL     1     -32.995  18.942   0.234  1.00 20.00     0.030 C 
HETATM    2  C2  UNL     1     -34.344  18.250   0.314  1.00 20.00     0.036 C 
HETATM    3  C3  UNL     1     -35.611  16.895  -1.443  1.00 20.00     0.305 C 
HETATM    4  C4  UNL     1     -32.356  18.288  -0.972  1.00 20.00     0.235 C 
HETATM    5  C5  UNL     1     -33.367  17.035  -2.929  1.00 20.00     0.271 C 
HETATM    6  C6  UNL     1     -34.796  18.151  -1.141  1.00 20.00     0.216 C 
HETATM    7  C7  UNL     1     -34.674  16.934  -3.725  1.00 20.00     0.251 C 
HETATM    8  C10 UNL     1     -37.027  17.402  -3.347  1.00 20.00     0.310 C 
HETATM    9  N12 UNL     1     -35.852  16.671  -2.874  1.00 20.00     0.092 N 
HETATM   10  N13 UNL     1     -33.506  18.163  -1.946  1.00 20.00    -0.063 N 
HETATM   11  H36 UNL     1     -33.530  19.054  -2.538  1.00 20.00     0.280 HD
ENDROOT
BRANCH   7  12
HETATM   12  C11 UNL     1     -34.559  15.814  -4.760  1.00 20.00     0.012 C 
HETATM   13  C8  UNL     1     -33.333  16.030  -5.639  1.00 20.00     0.012 C 
HETATM   14  C9  UNL     1     -34.501  14.458  -4.067  1.00 20.00     0.012 C 
ENDBRANCH   7  12
TORSDOF 1
ENDMDL
MODEL 6
REMARK VINA RESULT:      -4.1      1.432      4.312
REMARK  1 active torsions:
REMARK  status: ('A' for Active; 'I' for Inactive)
REMARK    1  A    between atoms: C7_7  and  C11_11 
ROOT
HETATM    1  C1  UNL     1     -32.879  18.424  -1.563  1.00 20.00     0.030 C 
HETATM    2  C2  UNL     1     -33.238  19.058  -2.895  1.00 20.00     0.036 C 
HETATM    3  C3  UNL     1     -34.509  18.097  -4.891  1.00 20.00     0.305 C 
HETATM    4  C4  UNL     1     -33.818  17.239  -1.494  1.00 20.00     0.235 C 
HETATM    5  C5  UNL     1     -35.076  15.992  -3.306  1.00 20.00     0.271 C 
HETATM    6  C6  UNL     1     -33.435  17.868  -3.830  1.00 20.00     0.216 C 
HETATM    7  C7  UNL     1     -34.995  15.680  -4.806  1.00 20.00     0.251 C 
HETATM    8  C10 UNL     1     -33.970  16.665  -6.775  1.00 20.00     0.310 C 
HETATM    9  N12 UNL     1     -34.870  16.890  -5.644  1.00 20.00     0.092 N 
HETATM   10  N13 UNL     1     -33.820  16.717  -2.913  1.00 20.00    -0.063 N 
HETATM   11  H36 UNL     1     -33.037  15.994  -2.995  1.00 20.00     0.280 HD
ENDROOT
BRANCH   7  12
HETATM   12  C11 UNL     1     -36.245  14.912  -5.239  1.00 20.00     0.012 C 
HETATM   13  C8  UNL     1     -35.982  13.411  -5.202  1.00 20.00     0.012 C 
HETATM   14  C9  UNL     1     -37.425  15.280  -4.349  1.00 20.00     0.012 C 
ENDBRANCH   7  12
TORSDOF 1
ENDMDL
MODEL 7
REMARK VINA RESULT:      -4.0      1.241      4.647
REMARK  1 active torsions:
REMARK  status: ('A' for Active; 'I' for Inactive)
REMARK    1  A    between atoms: C7_7  and  C11_11 
ROOT
HETATM    1  C1  UNL     1     -34.311  17.722  -0.866  1.00 20.00     0.030 C 
HETATM    2  C2  UNL     1     -35.493  16.894  -1.338  1.00 20.00     0.036 C 
HETATM    3  C3  UNL     1     -35.954  15.821  -3.610  1.00 20.00     0.305 C 
HETATM    4  C4  UNL     1     -33.250  17.408  -1.899  1.00 20.00     0.235 C 
HETATM    5  C5  UNL     1     -33.428  16.502  -4.258  1.00 20.00     0.271 C 
HETATM    6  C6  UNL     1     -35.478  17.060  -2.855  1.00 20.00     0.216 C 
HETATM    7  C7  UNL     1     -34.412  16.439  -5.434  1.00 20.00     0.251 C 
HETATM    8  C10 UNL     1     -36.817  16.572  -5.750  1.00 20.00     0.310 C 
HETATM    9  N12 UNL     1     -35.728  15.882  -5.059  1.00 20.00     0.092 N 
HETATM   10  N13 UNL     1     -34.030  17.375  -3.194  1.00 20.00    -0.063 N 
HETATM   11  H36 UNL     1     -34.025  18.364  -3.603  1.00 20.00     0.280 HD
ENDROOT
BRANCH   7  12
HETATM   12  C11 UNL     1     -33.820  15.581  -6.554  1.00 20.00     0.012 C 
HETATM   13  C8  UNL     1     -34.363  14.159  -6.474  1.00 20.00     0.012 C 
HETATM   14  C9  UNL     1     -34.121  16.204  -7.911  1.00 20.00     0.012 C 
ENDBRANCH   7  12
TORSDOF 1
ENDMDL
MODEL 8
REMARK VINA RESULT:      -4.0      1.582      2.035
REMARK  1 active torsions:
REMARK  status: ('A' for Active; 'I' for Inactive)
REMARK    1  A    between atoms: C7_7  and  C11_11 
ROOT
HETATM    1  C1  UNL     1     -34.728  14.069  -6.215  1.00 20.00     0.030 C 
HETATM    2  C2  UNL     1     -35.416  15.401  -6.457  1.00 20.00     0.036 C 
HETATM    3  C3  UNL     1     -35.912  17.320  -4.846  1.00 20.00     0.305 C 
HETATM    4  C4  UNL     1     -34.004  14.302  -4.906  1.00 20.00     0.235 C 
HETATM    5  C5  UNL     1     -34.377  16.002  -3.065  1.00 20.00     0.271 C 
HETATM    6  C6  UNL     1     -35.925  15.811  -5.078  1.00 20.00     0.216 C 
HETATM    7  C7  UNL     1     -35.488  16.868  -2.458  1.00 20.00     0.251 C 
HETATM    8  C10 UNL     1     -37.610  17.803  -3.180  1.00 20.00     0.310 C 
HETATM    9  N12 UNL     1     -36.176  17.712  -3.456  1.00 20.00     0.092 N 
HETATM   10  N13 UNL     1     -34.997  15.107  -4.100  1.00 20.00    -0.063 N 
HETATM   11  H36 UNL     1     -35.606  14.419  -3.552  1.00 20.00     0.280 HD
ENDROOT
BRANCH   7  12
HETATM   12  C11 UNL     1     -34.899  17.774  -1.375  1.00 20.00     0.012 C 
HETATM   13  C8  UNL     1     -35.488  17.421  -0.014  1.00 20.00     0.012 C 
HETATM   14  C9  UNL     1     -33.380  17.658  -1.358  1.00 20.00     0.012 C 
ENDBRANCH   7  12
TORSDOF 1
ENDMDL
MODEL 9
REMARK VINA RESULT:      -3.8      2.178      3.879
REMARK  1 active torsions:
REMARK  status: ('A' for Active; 'I' for Inactive)
REMARK    1  A    between atoms: C7_7  and  C11_11 
ROOT
HETATM    1  C1  UNL     1     -39.507  15.885  -5.210  1.00 20.00     0.030 C 
HETATM    2  C2  UNL     1     -38.878  14.503  -5.173  1.00 20.00     0.036 C 
HETATM    3  C3  UNL     1     -36.430  13.799  -5.357  1.00 20.00     0.305 C 
HETATM    4  C4  UNL     1     -38.328  16.795  -4.940  1.00 20.00     0.235 C 
HETATM    5  C5  UNL     1     -35.834  16.422  -5.186  1.00 20.00     0.271 C 
HETATM    6  C6  UNL     1     -37.549  14.682  -5.903  1.00 20.00     0.216 C 
HETATM    7  C7  UNL     1     -34.834  15.574  -5.983  1.00 20.00     0.251 C 
HETATM    8  C10 UNL     1     -34.846  13.451  -7.163  1.00 20.00     0.310 C 
HETATM    9  N12 UNL     1     -35.101  14.124  -5.889  1.00 20.00     0.092 N 
HETATM   10  N13 UNL     1     -37.209  16.154  -5.729  1.00 20.00    -0.063 N 
HETATM   11  H36 UNL     1     -37.215  16.581  -6.709  1.00 20.00     0.280 HD
ENDROOT
BRANCH   7  12
HETATM   12  C11 UNL     1     -33.416  15.843  -5.478  1.00 20.00     0.012 C 
HETATM   13  C8  UNL     1     -33.318  17.251  -4.902  1.00 20.00     0.012 C 
HETATM   14  C9  UNL     1     -33.017  14.801  -4.440  1.00 20.00     0.012 C 
ENDBRANCH   7  12
TORSDOF 1
ENDMDL
