MODEL 1
REMARK VINA RESULT:      -4.5      0.000      0.000
REMARK  1 active torsions:
REMARK  status: ('A' for Active; 'I' for Inactive)
REMARK    1  A    between atoms: C5_5  and  O9_9 
ROOT
HETATM    1  C1  UNL     1     -34.773  15.933  -6.711  1.00 20.00     0.022 C 
HETATM    2  C2  UNL     1     -33.469  16.167  -5.953  1.00 20.00     0.075 C 
HETATM    3  C3  UNL     1     -34.368  14.225  -4.216  1.00 20.00     0.112 C 
HETATM    4  C4  UNL     1     -35.364  14.504  -6.592  1.00 20.00    -0.015 C 
HETATM    5  C5  UNL     1     -35.632  14.111  -5.091  1.00 20.00     0.069 C 
HETATM    6  C6  UNL     1     -36.673  14.466  -7.419  1.00 20.00     0.018 C 
HETATM    7  C7  UNL     1     -34.403  13.493  -7.269  1.00 20.00     0.018 C 
HETATM    8  C8  UNL     1     -36.793  14.896  -4.451  1.00 20.00     0.047 C 
HETATM    9  S10 UNL     1     -33.643  15.888  -4.172  1.00 20.00    -0.166 SA
ENDROOT
BRANCH   5  10
HETATM   10  O9  UNL     1     -36.029  12.727  -5.060  1.00 20.00    -0.389 OA
HETATM   11  H26 UNL     1     -35.721  12.385  -4.210  1.00 20.00     0.210 HD
ENDBRANCH   5  10
TORSDOF 1
ENDMDL
MODEL 2
REMARK VINA RESULT:      -4.1      1.625      2.150
REMARK  1 active torsions:
REMARK  status: ('A' for Active; 'I' for Inactive)
REMARK    1  A    between atoms: C5_5  and  O9_9 
ROOT
HETATM    1  C1  UNL     1     -36.004  15.491  -6.466  1.00 20.00     0.022 C 
HETATM    2  C2  UNL     1     -35.288  16.627  -7.192  1.00 20.00     0.075 C 
HETATM    3  C3  UNL     1     -33.101  15.959  -5.653  1.00 20.00     0.112 C 
HETATM    4  C4  UNL     1     -35.093  14.333  -5.981  1.00 20.00    -0.015 C 
HETATM    5  C5  UNL     1     -33.963  14.852  -5.015  1.00 20.00     0.069 C 
HETATM    6  C6  UNL     1     -35.994  13.291  -5.274  1.00 20.00     0.018 C 
HETATM    7  C7  UNL     1     -34.485  13.609  -7.210  1.00 20.00     0.018 C 
HETATM    8  C8  UNL     1     -34.496  15.318  -3.645  1.00 20.00     0.047 C 
HETATM    9  S10 UNL     1     -34.036  17.430  -6.158  1.00 20.00    -0.166 SA
ENDROOT
BRANCH   5  10
HETATM   10  O9  UNL     1     -33.078  13.751  -4.738  1.00 20.00    -0.389 OA
HETATM   11  H26 UNL     1     -33.311  13.443  -3.851  1.00 20.00     0.210 HD
ENDBRANCH   5  10
TORSDOF 1
ENDMDL
MODEL 3
REMARK VINA RESULT:      -4.1      1.765      3.038
REMARK  1 active torsions:
REMARK  status: ('A' for Active; 'I' for Inactive)
REMARK    1  A    between atoms: C5_5  and  O9_9 
ROOT
HETATM    1  C1  UNL     1     -34.623  16.225  -5.893  1.00 20.00     0.022 C 
HETATM    2  C2  UNL     1     -35.900  16.897  -6.388  1.00 20.00     0.075 C 
HETATM    3  C3  UNL     1     -36.991  14.366  -6.390  1.00 20.00     0.112 C 
HETATM    4  C4  UNL     1     -34.831  14.926  -5.071  1.00 20.00    -0.015 C 
HETATM    5  C5  UNL     1     -35.629  13.844  -5.889  1.00 20.00     0.069 C 
HETATM    6  C6  UNL     1     -33.432  14.397  -4.665  1.00 20.00     0.018 C 
HETATM    7  C7  UNL     1     -35.558  15.269  -3.745  1.00 20.00     0.018 C 
HETATM    8  C8  UNL     1     -34.825  13.249  -7.063  1.00 20.00     0.047 C 
HETATM    9  S10 UNL     1     -36.877  15.821  -7.468  1.00 20.00    -0.166 SA
ENDROOT
BRANCH   5  10
HETATM   10  O9  UNL     1     -35.911  12.741  -5.008  1.00 20.00    -0.389 OA
HETATM   11  H26 UNL     1     -35.308  12.033  -5.273  1.00 20.00     0.210 HD
ENDBRANCH   5  10
TORSDOF 1
ENDMDL
MODEL 4
REMARK VINA RESULT:      -4.0      1.582      2.547
REMARK  1 active torsions:
REMARK  status: ('A' for Active; 'I' for Inactive)
REMARK    1  A    between atoms: C5_5  and  O9_9 
ROOT
HETATM    1  C1  UNL     1     -35.772  16.379  -6.140  1.00 20.00     0.022 C 
HETATM    2  C2  UNL     1     -35.292  16.198  -7.578  1.00 20.00     0.075 C 
HETATM    3  C3  UNL     1     -34.781  13.586  -6.864  1.00 20.00     0.112 C 
HETATM    4  C4  UNL     1     -36.347  15.106  -5.466  1.00 20.00    -0.015 C 
HETATM    5  C5  UNL     1     -35.298  13.933  -5.453  1.00 20.00     0.069 C 
HETATM    6  C6  UNL     1     -36.773  15.488  -4.027  1.00 20.00     0.018 C 
HETATM    7  C7  UNL     1     -37.648  14.682  -6.197  1.00 20.00     0.018 C 
HETATM    8  C8  UNL     1     -34.112  14.184  -4.501  1.00 20.00     0.047 C 
HETATM    9  S10 UNL     1     -33.972  14.966  -7.719  1.00 20.00    -0.166 SA
ENDROOT
BRANCH   5  10
HETATM   10  O9  UNL     1     -35.958  12.754  -4.956  1.00 20.00    -0.389 OA
HETATM   11  H26 UNL     1     -36.617  13.069  -4.322  1.00 20.00     0.210 HD
ENDBRANCH   5  10
TORSDOF 1
ENDMDL
MODEL 5
REMARK VINA RESULT:      -3.9      1.844      2.998
REMARK  1 active torsions:
REMARK  status: ('A' for Active; 'I' for Inactive)
REMARK    1  A    between atoms: C5_5  and  O9_9 
ROOT
HETATM    1  C1  UNL     1     -35.447  16.367  -4.957  1.00 20.00     0.022 C 
HETATM    2  C2  UNL     1     -36.575  15.786  -4.109  1.00 20.00     0.075 C 
HETATM    3  C3  UNL     1     -36.162  13.456  -5.522  1.00 20.00     0.112 C 
HETATM    4  C4  UNL     1     -34.389  15.344  -5.448  1.00 20.00    -0.015 C 
HETATM    5  C5  UNL     1     -35.047  14.190  -6.293  1.00 20.00     0.069 C 
HETATM    6  C6  UNL     1     -33.340  16.118  -6.285  1.00 20.00     0.018 C 
HETATM    7  C7  UNL     1     -33.623  14.773  -4.227  1.00 20.00     0.018 C 
HETATM    8  C8  UNL     1     -35.570  14.660  -7.665  1.00 20.00     0.047 C 
HETATM    9  S10 UNL     1     -37.529  14.525  -4.994  1.00 20.00    -0.166 SA
ENDROOT
BRANCH   5  10
HETATM   10  O9  UNL     1     -34.029  13.212  -6.574  1.00 20.00    -0.389 OA
HETATM   11  H26 UNL     1     -33.666  12.956  -5.715  1.00 20.00     0.210 HD
ENDBRANCH   5  10
TORSDOF 1
ENDMDL
MODEL 6
REMARK VINA RESULT:      -3.8      1.335      2.024
REMARK  1 active torsions:
REMARK  status: ('A' for Active; 'I' for Inactive)
REMARK    1  A    between atoms: C5_5  and  O9_9 
ROOT
HETATM    1  C1  UNL     1     -34.491  16.181  -6.191  1.00 20.00     0.022 C 
HETATM    2  C2  UNL     1     -34.910  17.116  -5.060  1.00 20.00     0.075 C 
HETATM    3  C3  UNL     1     -36.571  15.069  -4.256  1.00 20.00     0.112 C 
HETATM    4  C4  UNL     1     -34.584  14.666  -5.871  1.00 20.00    -0.015 C 
HETATM    5  C5  UNL     1     -36.044  14.251  -5.452  1.00 20.00     0.069 C 
HETATM    6  C6  UNL     1     -34.125  13.890  -7.130  1.00 20.00     0.018 C 
HETATM    7  C7  UNL     1     -33.565  14.314  -4.757  1.00 20.00     0.018 C 
HETATM    8  C8  UNL     1     -37.052  14.305  -6.617  1.00 20.00     0.047 C 
HETATM    9  S10 UNL     1     -36.628  16.859  -4.548  1.00 20.00    -0.166 SA
ENDROOT
BRANCH   5  10
HETATM   10  O9  UNL     1     -36.008  12.877  -5.026  1.00 20.00    -0.389 OA
HETATM   11  H26 UNL     1     -35.924  12.902  -4.063  1.00 20.00     0.210 HD
ENDBRANCH   5  10
TORSDOF 1
ENDMDL
MODEL 7
REMARK VINA RESULT:      -3.8      2.400      3.619
REMARK  1 active torsions:
REMARK  status: ('A' for Active; 'I' for Inactive)
REMARK    1  A    between atoms: C5_5  and  O9_9 
ROOT
HETATM    1  C1  UNL     1     -35.659  14.289  -4.596  1.00 20.00     0.022 C 
HETATM    2  C2  UNL     1     -35.706  13.466  -5.881  1.00 20.00     0.075 C 
HETATM    3  C3  UNL     1     -34.346  15.567  -7.036  1.00 20.00     0.112 C 
HETATM    4  C4  UNL     1     -34.447  15.250  -4.466  1.00 20.00    -0.015 C 
HETATM    5  C5  UNL     1     -34.384  16.269  -5.664  1.00 20.00     0.069 C 
HETATM    6  C6  UNL     1     -34.577  15.990  -3.112  1.00 20.00     0.018 C 
HETATM    7  C7  UNL     1     -33.141  14.418  -4.373  1.00 20.00     0.018 C 
HETATM    8  C8  UNL     1     -35.515  17.316  -5.635  1.00 20.00     0.047 C 
HETATM    9  S10 UNL     1     -35.777  14.501  -7.365  1.00 20.00    -0.166 SA
ENDROOT
BRANCH   5  10
HETATM   10  O9  UNL     1     -33.157  17.012  -5.549  1.00 20.00    -0.389 OA
HETATM   11  H26 UNL     1     -33.385  17.825  -5.078  1.00 20.00     0.210 HD
ENDBRANCH   5  10
TORSDOF 1
ENDMDL
MODEL 8
REMARK VINA RESULT:      -3.7      1.506      2.185
REMARK  1 active torsions:
REMARK  status: ('A' for Active; 'I' for Inactive)
REMARK    1  A    between atoms: C5_5  and  O9_9 
ROOT
HETATM    1  C1  UNL     1     -36.223  16.314  -5.209  1.00 20.00     0.022 C 
HETATM    2  C2  UNL     1     -35.402  17.554  -5.553  1.00 20.00     0.075 C 
HETATM    3  C3  UNL     1     -33.298  15.812  -5.918  1.00 20.00     0.112 C 
HETATM    4  C4  UNL     1     -35.759  14.999  -5.891  1.00 20.00    -0.015 C 
HETATM    5  C5  UNL     1     -34.260  14.666  -5.546  1.00 20.00     0.069 C 
HETATM    6  C6  UNL     1     -36.704  13.866  -5.419  1.00 20.00     0.018 C 
HETATM    7  C7  UNL     1     -35.965  15.116  -7.423  1.00 20.00     0.018 C 
HETATM    8  C8  UNL     1     -34.048  14.252  -4.076  1.00 20.00     0.047 C 
HETATM    9  S10 UNL     1     -33.660  17.384  -5.089  1.00 20.00    -0.166 SA
ENDROOT
BRANCH   5  10
HETATM   10  O9  UNL     1     -33.867  13.527  -6.335  1.00 20.00    -0.389 OA
HETATM   11  H26 UNL     1     -34.184  12.752  -5.853  1.00 20.00     0.210 HD
ENDBRANCH   5  10
TORSDOF 1
ENDMDL
MODEL 9
REMARK VINA RESULT:      -3.7      1.420      1.686
REMARK  1 active torsions:
REMARK  status: ('A' for Active; 'I' for Inactive)
REMARK    1  A    between atoms: C5_5  and  O9_9 
ROOT
HETATM    1  C1  UNL     1     -35.593  16.704  -5.691  1.00 20.00     0.022 C 
HETATM    2  C2  UNL     1     -34.573  17.261  -4.703  1.00 20.00     0.075 C 
HETATM    3  C3  UNL     1     -33.477  14.733  -4.719  1.00 20.00     0.112 C 
HETATM    4  C4  UNL     1     -35.087  15.539  -6.583  1.00 20.00    -0.015 C 
HETATM    5  C5  UNL     1     -34.579  14.326  -5.718  1.00 20.00     0.069 C 
HETATM    6  C6  UNL     1     -36.255  15.113  -7.507  1.00 20.00     0.018 C 
HETATM    7  C7  UNL     1     -33.969  16.061  -7.522  1.00 20.00     0.018 C 
HETATM    8  C8  UNL     1     -35.712  13.581  -4.984  1.00 20.00     0.047 C 
HETATM    9  S10 UNL     1     -33.983  16.009  -3.534  1.00 20.00    -0.166 SA
ENDROOT
BRANCH   5  10
HETATM   10  O9  UNL     1     -33.989  13.363  -6.610  1.00 20.00    -0.389 OA
HETATM   11  H26 UNL     1     -33.931  13.802  -7.470  1.00 20.00     0.210 HD
ENDBRANCH   5  10
TORSDOF 1
ENDMDL
