MODEL 1
REMARK VINA RESULT:      -5.1      0.000      0.000
REMARK  3 active torsions:
REMARK  status: ('A' for Active; 'I' for Inactive)
REMARK    1  A    between atoms: C6_6  and  C9_9 
REMARK    2  A    between atoms: C6_6  and  O10_10 
REMARK    3  A    between atoms: C8_8  and  C9_9 
ROOT
HETATM    1  C1  UNL     1     -32.533  10.628   0.725  1.00 20.00     0.012 C 
HETATM    2  C2  UNL     1     -32.281   9.558   1.208  1.00 20.00    -0.117 C 
HETATM    3  C8  UNL     1     -31.968   8.251   1.802  1.00 20.00     0.096 C 
ENDROOT
BRANCH   3   4
HETATM    4  C9  UNL     1     -33.204   7.372   1.811  1.00 20.00     0.050 C 
BRANCH   4   5
HETATM    5  C6  UNL     1     -33.345   6.649   3.148  1.00 20.00     0.068 C 
HETATM    6  C3  UNL     1     -34.772   6.136   3.367  1.00 20.00     0.053 C 
HETATM    7  C5  UNL     1     -34.926   5.713   4.830  1.00 20.00     0.046 C 
HETATM    8  C7  UNL     1     -34.540   4.264   5.098  1.00 20.00     0.021 C 
HETATM    9  S11 UNL     1     -33.848   6.841   5.768  1.00 20.00    -0.162 SA
HETATM   10  C4  UNL     1     -33.031   7.576   4.318  1.00 20.00     0.112 C 
BRANCH   5  11
HETATM   11  O10 UNL     1     -32.416   5.566   3.153  1.00 20.00    -0.389 OA
HETATM   12  H25 UNL     1     -32.924   4.767   2.942  1.00 20.00     0.210 HD
ENDBRANCH   5  11
ENDBRANCH   4   5
ENDBRANCH   3   4
TORSDOF 3
ENDMDL
MODEL 2
REMARK VINA RESULT:      -4.6     10.983     11.964
REMARK  3 active torsions:
REMARK  status: ('A' for Active; 'I' for Inactive)
REMARK    1  A    between atoms: C6_6  and  C9_9 
REMARK    2  A    between atoms: C6_6  and  O10_10 
REMARK    3  A    between atoms: C8_8  and  C9_9 
ROOT
HETATM    1  C1  UNL     1     -34.071  17.752  -0.660  1.00 20.00     0.012 C 
HETATM    2  C2  UNL     1     -34.403  17.077  -1.595  1.00 20.00    -0.117 C 
HETATM    3  C8  UNL     1     -34.814  16.253  -2.740  1.00 20.00     0.096 C 
ENDROOT
BRANCH   3   4
HETATM    4  C9  UNL     1     -33.606  15.881  -3.578  1.00 20.00     0.050 C 
BRANCH   4   5
HETATM    5  C6  UNL     1     -34.009  14.970  -4.735  1.00 20.00     0.068 C 
HETATM    6  C3  UNL     1     -34.297  15.768  -6.010  1.00 20.00     0.053 C 
HETATM    7  C5  UNL     1     -34.990  14.851  -7.022  1.00 20.00     0.046 C 
HETATM    8  C7  UNL     1     -34.028  14.081  -7.918  1.00 20.00     0.021 C 
HETATM    9  S11 UNL     1     -35.982  13.701  -6.019  1.00 20.00    -0.162 SA
HETATM   10  C4  UNL     1     -35.279  14.189  -4.413  1.00 20.00     0.112 C 
BRANCH   5  11
HETATM   11  O10 UNL     1     -32.940  14.049  -4.950  1.00 20.00    -0.389 OA
HETATM   12  H25 UNL     1     -32.818  13.989  -5.910  1.00 20.00     0.210 HD
ENDBRANCH   5  11
ENDBRANCH   4   5
ENDBRANCH   3   4
TORSDOF 3
ENDMDL
MODEL 3
REMARK VINA RESULT:      -4.3     11.240     11.917
REMARK  3 active torsions:
REMARK  status: ('A' for Active; 'I' for Inactive)
REMARK    1  A    between atoms: C6_6  and  C9_9 
REMARK    2  A    between atoms: C6_6  and  O10_10 
REMARK    3  A    between atoms: C8_8  and  C9_9 
ROOT
HETATM    1  C1  UNL     1     -32.754  18.650  -0.289  1.00 20.00     0.012 C 
HETATM    2  C2  UNL     1     -33.071  17.922  -1.190  1.00 20.00    -0.117 C 
HETATM    3  C8  UNL     1     -33.453  17.031  -2.293  1.00 20.00     0.096 C 
ENDROOT
BRANCH   3   4
HETATM    4  C9  UNL     1     -34.911  16.633  -2.164  1.00 20.00     0.050 C 
BRANCH   4   5
HETATM    5  C6  UNL     1     -35.441  16.078  -3.484  1.00 20.00     0.068 C 
HETATM    6  C3  UNL     1     -34.713  14.793  -3.890  1.00 20.00     0.053 C 
HETATM    7  C5  UNL     1     -35.059  14.468  -5.346  1.00 20.00     0.046 C 
HETATM    8  C7  UNL     1     -36.311  13.616  -5.509  1.00 20.00     0.021 C 
HETATM    9  S11 UNL     1     -35.282  16.085  -6.153  1.00 20.00    -0.162 SA
HETATM   10  C4  UNL     1     -35.242  17.070  -4.625  1.00 20.00     0.112 C 
BRANCH   5  11
HETATM   11  O10 UNL     1     -36.837  15.835  -3.319  1.00 20.00    -0.389 OA
HETATM   12  H25 UNL     1     -37.230  15.874  -4.205  1.00 20.00     0.210 HD
ENDBRANCH   5  11
ENDBRANCH   4   5
ENDBRANCH   3   4
TORSDOF 3
ENDMDL
MODEL 4
REMARK VINA RESULT:      -4.1     11.313     12.422
REMARK  3 active torsions:
REMARK  status: ('A' for Active; 'I' for Inactive)
REMARK    1  A    between atoms: C6_6  and  C9_9 
REMARK    2  A    between atoms: C6_6  and  O10_10 
REMARK    3  A    between atoms: C8_8  and  C9_9 
ROOT
HETATM    1  C1  UNL     1     -33.097  18.017  -0.925  1.00 20.00     0.012 C 
HETATM    2  C2  UNL     1     -33.739  17.343  -1.683  1.00 20.00    -0.117 C 
HETATM    3  C8  UNL     1     -34.530  16.521  -2.609  1.00 20.00     0.096 C 
ENDROOT
BRANCH   3   4
HETATM    4  C9  UNL     1     -33.624  15.567  -3.364  1.00 20.00     0.050 C 
BRANCH   4   5
HETATM    5  C6  UNL     1     -34.190  15.266  -4.750  1.00 20.00     0.068 C 
HETATM    6  C3  UNL     1     -33.250  15.744  -5.861  1.00 20.00     0.053 C 
HETATM    7  C5  UNL     1     -34.000  15.704  -7.195  1.00 20.00     0.046 C 
HETATM    8  C7  UNL     1     -33.907  14.366  -7.918  1.00 20.00     0.021 C 
HETATM    9  S11 UNL     1     -35.731  16.081  -6.778  1.00 20.00    -0.162 SA
HETATM   10  C4  UNL     1     -35.523  15.973  -4.974  1.00 20.00     0.112 C 
BRANCH   5  11
HETATM   11  O10 UNL     1     -34.393  13.856  -4.836  1.00 20.00    -0.389 OA
HETATM   12  H25 UNL     1     -33.511  13.452  -4.849  1.00 20.00     0.210 HD
ENDBRANCH   5  11
ENDBRANCH   4   5
ENDBRANCH   3   4
TORSDOF 3
ENDMDL
MODEL 5
REMARK VINA RESULT:      -4.1     11.189     11.917
REMARK  3 active torsions:
REMARK  status: ('A' for Active; 'I' for Inactive)
REMARK    1  A    between atoms: C6_6  and  C9_9 
REMARK    2  A    between atoms: C6_6  and  O10_10 
REMARK    3  A    between atoms: C8_8  and  C9_9 
ROOT
HETATM    1  C1  UNL     1     -32.883  18.516  -0.885  1.00 20.00     0.012 C 
HETATM    2  C2  UNL     1     -33.470  17.680  -1.515  1.00 20.00    -0.117 C 
HETATM    3  C8  UNL     1     -34.194  16.657  -2.283  1.00 20.00     0.096 C 
ENDROOT
BRANCH   3   4
HETATM    4  C9  UNL     1     -33.394  16.260  -3.509  1.00 20.00     0.050 C 
BRANCH   4   5
HETATM    5  C6  UNL     1     -34.305  15.676  -4.586  1.00 20.00     0.068 C 
HETATM    6  C3  UNL     1     -34.877  14.317  -4.168  1.00 20.00     0.053 C 
HETATM    7  C5  UNL     1     -35.511  13.650  -5.392  1.00 20.00     0.046 C 
HETATM    8  C7  UNL     1     -36.974  14.015  -5.606  1.00 20.00     0.021 C 
HETATM    9  S11 UNL     1     -34.505  14.199  -6.806  1.00 20.00    -0.162 SA
HETATM   10  C4  UNL     1     -33.550  15.448  -5.891  1.00 20.00     0.112 C 
BRANCH   5  11
HETATM   11  O10 UNL     1     -35.356  16.614  -4.815  1.00 20.00    -0.389 OA
HETATM   12  H25 UNL     1     -35.779  16.354  -5.649  1.00 20.00     0.210 HD
ENDBRANCH   5  11
ENDBRANCH   4   5
ENDBRANCH   3   4
TORSDOF 3
ENDMDL
MODEL 6
REMARK VINA RESULT:      -4.1      1.473      1.659
REMARK  3 active torsions:
REMARK  status: ('A' for Active; 'I' for Inactive)
REMARK    1  A    between atoms: C6_6  and  C9_9 
REMARK    2  A    between atoms: C6_6  and  O10_10 
REMARK    3  A    between atoms: C8_8  and  C9_9 
ROOT
HETATM    1  C1  UNL     1     -32.539  10.333   0.700  1.00 20.00     0.012 C 
HETATM    2  C2  UNL     1     -32.216   9.298   1.215  1.00 20.00    -0.117 C 
HETATM    3  C8  UNL     1     -31.818   8.030   1.840  1.00 20.00     0.096 C 
ENDROOT
BRANCH   3   4
HETATM    4  C9  UNL     1     -31.926   8.134   3.349  1.00 20.00     0.050 C 
BRANCH   4   5
HETATM    5  C6  UNL     1     -32.996   7.185   3.884  1.00 20.00     0.068 C 
HETATM    6  C3  UNL     1     -32.837   5.773   3.311  1.00 20.00     0.053 C 
HETATM    7  C5  UNL     1     -34.100   4.967   3.626  1.00 20.00     0.046 C 
HETATM    8  C7  UNL     1     -34.055   4.249   4.969  1.00 20.00     0.021 C 
HETATM    9  S11 UNL     1     -35.457   6.179   3.598  1.00 20.00    -0.162 SA
HETATM   10  C4  UNL     1     -34.396   7.654   3.504  1.00 20.00     0.112 C 
BRANCH   5  11
HETATM   11  O10 UNL     1     -32.883   7.166   5.306  1.00 20.00    -0.389 OA
HETATM   12  H25 UNL     1     -31.963   6.931   5.505  1.00 20.00     0.210 HD
ENDBRANCH   5  11
ENDBRANCH   4   5
ENDBRANCH   3   4
TORSDOF 3
ENDMDL
MODEL 7
REMARK VINA RESULT:      -4.0     11.438     12.120
REMARK  3 active torsions:
REMARK  status: ('A' for Active; 'I' for Inactive)
REMARK    1  A    between atoms: C6_6  and  C9_9 
REMARK    2  A    between atoms: C6_6  and  O10_10 
REMARK    3  A    between atoms: C8_8  and  C9_9 
ROOT
HETATM    1  C1  UNL     1     -31.119  18.824   1.448  1.00 20.00     0.012 C 
HETATM    2  C2  UNL     1     -31.790  18.712   0.459  1.00 20.00    -0.117 C 
HETATM    3  C8  UNL     1     -32.607  18.577  -0.755  1.00 20.00     0.096 C 
ENDROOT
BRANCH   3   4
HETATM    4  C9  UNL     1     -33.968  18.006  -0.408  1.00 20.00     0.050 C 
BRANCH   4   5
HETATM    5  C6  UNL     1     -34.655  17.448  -1.652  1.00 20.00     0.068 C 
HETATM    6  C3  UNL     1     -33.666  16.713  -2.563  1.00 20.00     0.053 C 
HETATM    7  C5  UNL     1     -34.335  16.460  -3.917  1.00 20.00     0.046 C 
HETATM    8  C7  UNL     1     -35.116  15.154  -3.986  1.00 20.00     0.021 C 
HETATM    9  S11 UNL     1     -35.446  17.879  -4.170  1.00 20.00    -0.162 SA
HETATM   10  C4  UNL     1     -35.275  18.560  -2.492  1.00 20.00     0.112 C 
BRANCH   5  11
HETATM   11  O10 UNL     1     -35.687  16.565  -1.215  1.00 20.00    -0.389 OA
HETATM   12  H25 UNL     1     -36.515  16.904  -1.590  1.00 20.00     0.210 HD
ENDBRANCH   5  11
ENDBRANCH   4   5
ENDBRANCH   3   4
TORSDOF 3
ENDMDL
MODEL 8
REMARK VINA RESULT:      -3.9     11.384     12.223
REMARK  3 active torsions:
REMARK  status: ('A' for Active; 'I' for Inactive)
REMARK    1  A    between atoms: C6_6  and  C9_9 
REMARK    2  A    between atoms: C6_6  and  O10_10 
REMARK    3  A    between atoms: C8_8  and  C9_9 
ROOT
HETATM    1  C1  UNL     1     -35.210  16.966  -1.220  1.00 20.00     0.012 C 
HETATM    2  C2  UNL     1     -34.548  16.697  -2.184  1.00 20.00    -0.117 C 
HETATM    3  C8  UNL     1     -33.735  16.373  -3.364  1.00 20.00     0.096 C 
ENDROOT
BRANCH   3   4
HETATM    4  C9  UNL     1     -34.060  14.976  -3.856  1.00 20.00     0.050 C 
BRANCH   4   5
HETATM    5  C6  UNL     1     -34.918  15.031  -5.118  1.00 20.00     0.068 C 
HETATM    6  C3  UNL     1     -36.338  14.518  -4.859  1.00 20.00     0.053 C 
HETATM    7  C5  UNL     1     -37.038  14.302  -6.203  1.00 20.00     0.046 C 
HETATM    8  C7  UNL     1     -37.757  15.537  -6.732  1.00 20.00     0.021 C 
HETATM    9  S11 UNL     1     -35.719  13.795  -7.350  1.00 20.00    -0.162 SA
HETATM   10  C4  UNL     1     -34.336  14.159  -6.226  1.00 20.00     0.112 C 
BRANCH   5  11
HETATM   11  O10 UNL     1     -34.946  16.387  -5.560  1.00 20.00    -0.389 OA
HETATM   12  H25 UNL     1     -34.926  16.937  -4.762  1.00 20.00     0.210 HD
ENDBRANCH   5  11
ENDBRANCH   4   5
ENDBRANCH   3   4
TORSDOF 3
ENDMDL
MODEL 9
REMARK VINA RESULT:      -3.8     11.644     12.642
REMARK  3 active torsions:
REMARK  status: ('A' for Active; 'I' for Inactive)
REMARK    1  A    between atoms: C6_6  and  C9_9 
REMARK    2  A    between atoms: C6_6  and  O10_10 
REMARK    3  A    between atoms: C8_8  and  C9_9 
ROOT
HETATM    1  C1  UNL     1     -35.122  12.988  -7.247  1.00 20.00     0.012 C 
HETATM    2  C2  UNL     1     -34.847  14.156  -7.287  1.00 20.00    -0.117 C 
HETATM    3  C8  UNL     1     -34.515  15.586  -7.340  1.00 20.00     0.096 C 
ENDROOT
BRANCH   3   4
HETATM    4  C9  UNL     1     -33.350  15.887  -6.417  1.00 20.00     0.050 C 
BRANCH   4   5
HETATM    5  C6  UNL     1     -33.832  16.580  -5.144  1.00 20.00     0.068 C 
HETATM    6  C3  UNL     1     -33.656  15.686  -3.912  1.00 20.00     0.053 C 
HETATM    7  C5  UNL     1     -34.434  16.297  -2.744  1.00 20.00     0.046 C 
HETATM    8  C7  UNL     1     -33.634  17.302  -1.925  1.00 20.00     0.021 C 
HETATM    9  S11 UNL     1     -35.878  17.104  -3.504  1.00 20.00    -0.162 SA
HETATM   10  C4  UNL     1     -35.316  16.924  -5.225  1.00 20.00     0.112 C 
BRANCH   5  11
HETATM   11  O10 UNL     1     -33.084  17.786  -5.001  1.00 20.00    -0.389 OA
HETATM   12  H25 UNL     1     -32.210  17.616  -5.386  1.00 20.00     0.210 HD
ENDBRANCH   5  11
ENDBRANCH   4   5
ENDBRANCH   3   4
TORSDOF 3
ENDMDL
