MODEL 1
REMARK VINA RESULT:      -4.6      0.000      0.000
REMARK  2 active torsions:
REMARK  status: ('A' for Active; 'I' for Inactive)
REMARK    1  A    between atoms: C1_1  and  C5_5 
REMARK    2  A    between atoms: C1_1  and  C8_8 
ROOT
HETATM    1  C2  UNL     1     -34.501   5.402   5.322  1.00 20.00     0.084 C 
HETATM    2  C3  UNL     1     -34.935   5.482   3.866  1.00 20.00     0.085 C 
HETATM    3  C4  UNL     1     -32.806   7.557   4.938  1.00 20.00     0.096 C 
HETATM    4  C5  UNL     1     -33.244   7.641   3.482  1.00 20.00     0.126 C 
HETATM    5  S10 UNL     1     -34.151   7.032   6.044  1.00 20.00    -0.167 SA
HETATM    6  S11 UNL     1     -33.593   6.007   2.758  1.00 20.00    -0.155 SA
ENDROOT
BRANCH   4   7
HETATM    7  C1  UNL     1     -32.143   8.238   2.663  1.00 20.00     0.144 C 
HETATM    8  O9  UNL     1     -30.989   8.271   3.090  1.00 20.00    -0.296 OA
BRANCH   7   9
HETATM    9  C8  UNL     1     -32.531   8.824   1.309  1.00 20.00     0.048 C 
HETATM   10  C6  UNL     1     -32.826  10.313   1.452  1.00 20.00     0.017 C 
HETATM   11  C7  UNL     1     -31.433   8.586   0.275  1.00 20.00     0.017 C 
ENDBRANCH   7   9
ENDBRANCH   4   7
TORSDOF 2
ENDMDL
MODEL 2
REMARK VINA RESULT:      -4.1     10.813     11.771
REMARK  2 active torsions:
REMARK  status: ('A' for Active; 'I' for Inactive)
REMARK    1  A    between atoms: C1_1  and  C5_5 
REMARK    2  A    between atoms: C1_1  and  C8_8 
ROOT
HETATM    1  C2  UNL     1     -35.229  16.652  -2.500  1.00 20.00     0.084 C 
HETATM    2  C3  UNL     1     -36.427  16.840  -3.419  1.00 20.00     0.085 C 
HETATM    3  C4  UNL     1     -34.222  14.715  -4.203  1.00 20.00     0.096 C 
HETATM    4  C5  UNL     1     -35.419  14.907  -5.127  1.00 20.00     0.126 C 
HETATM    5  S10 UNL     1     -33.701  16.263  -3.404  1.00 20.00    -0.167 SA
HETATM    6  S11 UNL     1     -36.950  15.295  -4.221  1.00 20.00    -0.155 SA
ENDROOT
BRANCH   4   7
HETATM    7  C1  UNL     1     -35.682  13.637  -5.874  1.00 20.00     0.144 C 
HETATM    8  O9  UNL     1     -35.914  12.590  -5.270  1.00 20.00    -0.296 OA
BRANCH   7   9
HETATM    9  C8  UNL     1     -35.613  13.706  -7.396  1.00 20.00     0.048 C 
HETATM   10  C6  UNL     1     -36.636  14.710  -7.918  1.00 20.00     0.017 C 
HETATM   11  C7  UNL     1     -34.207  14.071  -7.865  1.00 20.00     0.017 C 
ENDBRANCH   7   9
ENDBRANCH   4   7
TORSDOF 2
ENDMDL
MODEL 3
REMARK VINA RESULT:      -3.9     11.033     12.435
REMARK  2 active torsions:
REMARK  status: ('A' for Active; 'I' for Inactive)
REMARK    1  A    between atoms: C1_1  and  C5_5 
REMARK    2  A    between atoms: C1_1  and  C8_8 
ROOT
HETATM    1  C2  UNL     1     -38.809  16.114  -7.237  1.00 20.00     0.084 C 
HETATM    2  C3  UNL     1     -37.412  16.711  -7.312  1.00 20.00     0.085 C 
HETATM    3  C4  UNL     1     -37.977  14.416  -5.214  1.00 20.00     0.096 C 
HETATM    4  C5  UNL     1     -36.580  15.018  -5.285  1.00 20.00     0.126 C 
HETATM    5  S10 UNL     1     -39.282  15.638  -5.548  1.00 20.00    -0.167 SA
HETATM    6  S11 UNL     1     -36.105  15.493  -6.977  1.00 20.00    -0.155 SA
ENDROOT
BRANCH   4   7
HETATM    7  C1  UNL     1     -35.576  14.004  -4.834  1.00 20.00     0.144 C 
HETATM    8  O9  UNL     1     -35.665  12.829  -5.193  1.00 20.00    -0.296 OA
BRANCH   7   9
HETATM    9  C8  UNL     1     -34.476  14.491  -3.896  1.00 20.00     0.048 C 
HETATM   10  C6  UNL     1     -33.142  14.527  -4.634  1.00 20.00     0.017 C 
HETATM   11  C7  UNL     1     -34.815  15.863  -3.321  1.00 20.00     0.017 C 
ENDBRANCH   7   9
ENDBRANCH   4   7
TORSDOF 2
ENDMDL
MODEL 4
REMARK VINA RESULT:      -3.8     10.865     11.866
REMARK  2 active torsions:
REMARK  status: ('A' for Active; 'I' for Inactive)
REMARK    1  A    between atoms: C1_1  and  C5_5 
REMARK    2  A    between atoms: C1_1  and  C8_8 
ROOT
HETATM    1  C2  UNL     1     -34.400  13.742  -7.127  1.00 20.00     0.084 C 
HETATM    2  C3  UNL     1     -33.997  15.203  -7.263  1.00 20.00     0.085 C 
HETATM    3  C4  UNL     1     -35.233  14.210  -4.529  1.00 20.00     0.096 C 
HETATM    4  C5  UNL     1     -34.836  15.674  -4.666  1.00 20.00     0.126 C 
HETATM    5  S10 UNL     1     -35.868  13.510  -6.082  1.00 20.00    -0.167 SA
HETATM    6  S11 UNL     1     -33.364  15.907  -5.711  1.00 20.00    -0.155 SA
ENDROOT
BRANCH   4   7
HETATM    7  C1  UNL     1     -34.487  16.225  -3.319  1.00 20.00     0.144 C 
HETATM    8  O9  UNL     1     -33.312  16.409  -3.000  1.00 20.00    -0.296 OA
BRANCH   7   9
HETATM    9  C8  UNL     1     -35.646  16.508  -2.368  1.00 20.00     0.048 C 
HETATM   10  C6  UNL     1     -35.115  17.078  -1.057  1.00 20.00     0.017 C 
HETATM   11  C7  UNL     1     -36.656  17.459  -3.003  1.00 20.00     0.017 C 
ENDBRANCH   7   9
ENDBRANCH   4   7
TORSDOF 2
ENDMDL
MODEL 5
REMARK VINA RESULT:      -3.8     11.015     11.894
REMARK  2 active torsions:
REMARK  status: ('A' for Active; 'I' for Inactive)
REMARK    1  A    between atoms: C1_1  and  C5_5 
REMARK    2  A    between atoms: C1_1  and  C8_8 
ROOT
HETATM    1  C2  UNL     1     -34.676  17.688  -3.024  1.00 20.00     0.084 C 
HETATM    2  C3  UNL     1     -33.737  16.507  -2.828  1.00 20.00     0.085 C 
HETATM    3  C4  UNL     1     -36.404  16.080  -4.471  1.00 20.00     0.096 C 
HETATM    4  C5  UNL     1     -35.467  14.895  -4.270  1.00 20.00     0.126 C 
HETATM    5  S10 UNL     1     -36.427  17.202  -3.040  1.00 20.00    -0.167 SA
HETATM    6  S11 UNL     1     -33.713  15.382  -4.255  1.00 20.00    -0.155 SA
ENDROOT
BRANCH   4   7
HETATM    7  C1  UNL     1     -35.628  13.933  -5.405  1.00 20.00     0.144 C 
HETATM    8  O9  UNL     1     -35.881  12.747  -5.193  1.00 20.00    -0.296 OA
BRANCH   7   9
HETATM    9  C8  UNL     1     -35.430  14.487  -6.813  1.00 20.00     0.048 C 
HETATM   10  C6  UNL     1     -34.337  13.703  -7.531  1.00 20.00     0.017 C 
HETATM   11  C7  UNL     1     -36.734  14.450  -7.605  1.00 20.00     0.017 C 
ENDBRANCH   7   9
ENDBRANCH   4   7
TORSDOF 2
ENDMDL
MODEL 6
REMARK VINA RESULT:      -3.8     11.105     11.697
REMARK  2 active torsions:
REMARK  status: ('A' for Active; 'I' for Inactive)
REMARK    1  A    between atoms: C1_1  and  C5_5 
REMARK    2  A    between atoms: C1_1  and  C8_8 
ROOT
HETATM    1  C2  UNL     1     -35.833  13.517  -5.187  1.00 20.00     0.084 C 
HETATM    2  C3  UNL     1     -34.536  14.206  -5.583  1.00 20.00     0.085 C 
HETATM    3  C4  UNL     1     -36.623  15.788  -3.814  1.00 20.00     0.096 C 
HETATM    4  C5  UNL     1     -35.327  16.480  -4.216  1.00 20.00     0.126 C 
HETATM    5  S10 UNL     1     -37.242  14.662  -5.101  1.00 20.00    -0.167 SA
HETATM    6  S11 UNL     1     -33.916  15.334  -4.300  1.00 20.00    -0.155 SA
ENDROOT
BRANCH   4   7
HETATM    7  C1  UNL     1     -34.973  17.511  -3.190  1.00 20.00     0.144 C 
HETATM    8  O9  UNL     1     -35.143  18.709  -3.418  1.00 20.00    -0.296 OA
BRANCH   7   9
HETATM    9  C8  UNL     1     -34.367  17.004  -1.885  1.00 20.00     0.048 C 
HETATM   10  C6  UNL     1     -33.061  17.738  -1.599  1.00 20.00     0.017 C 
HETATM   11  C7  UNL     1     -35.346  17.169  -0.726  1.00 20.00     0.017 C 
ENDBRANCH   7   9
ENDBRANCH   4   7
TORSDOF 2
ENDMDL
MODEL 7
REMARK VINA RESULT:      -3.8     11.023     12.102
REMARK  2 active torsions:
REMARK  status: ('A' for Active; 'I' for Inactive)
REMARK    1  A    between atoms: C1_1  and  C5_5 
REMARK    2  A    between atoms: C1_1  and  C8_8 
ROOT
HETATM    1  C2  UNL     1     -36.276  14.424  -6.838  1.00 20.00     0.084 C 
HETATM    2  C3  UNL     1     -36.758  15.855  -6.660  1.00 20.00     0.085 C 
HETATM    3  C4  UNL     1     -34.657  14.688  -4.608  1.00 20.00     0.096 C 
HETATM    4  C5  UNL     1     -35.144  16.119  -4.425  1.00 20.00     0.126 C 
HETATM    5  S10 UNL     1     -35.951  13.587  -5.258  1.00 20.00    -0.167 SA
HETATM    6  S11 UNL     1     -35.468  16.958  -6.009  1.00 20.00    -0.155 SA
ENDROOT
BRANCH   4   7
HETATM    7  C1  UNL     1     -34.087  16.922  -3.732  1.00 20.00     0.144 C 
HETATM    8  O9  UNL     1     -33.338  17.660  -4.373  1.00 20.00    -0.296 OA
BRANCH   7   9
HETATM    9  C8  UNL     1     -33.971  16.750  -2.221  1.00 20.00     0.048 C 
HETATM   10  C6  UNL     1     -33.018  17.796  -1.651  1.00 20.00     0.017 C 
HETATM   11  C7  UNL     1     -35.340  16.843  -1.553  1.00 20.00     0.017 C 
ENDBRANCH   7   9
ENDBRANCH   4   7
TORSDOF 2
ENDMDL
MODEL 8
REMARK VINA RESULT:      -3.7     11.230     11.810
REMARK  2 active torsions:
REMARK  status: ('A' for Active; 'I' for Inactive)
REMARK    1  A    between atoms: C1_1  and  C5_5 
REMARK    2  A    between atoms: C1_1  and  C8_8 
ROOT
HETATM    1  C2  UNL     1     -35.989  14.180  -6.428  1.00 20.00     0.084 C 
HETATM    2  C3  UNL     1     -36.877  14.012  -5.205  1.00 20.00     0.085 C 
HETATM    3  C4  UNL     1     -34.383  15.945  -5.023  1.00 20.00     0.096 C 
HETATM    4  C5  UNL     1     -35.269  15.772  -3.796  1.00 20.00     0.126 C 
HETATM    5  S10 UNL     1     -34.238  14.418  -6.000  1.00 20.00    -0.167 SA
HETATM    6  S11 UNL     1     -37.023  15.535  -4.224  1.00 20.00    -0.155 SA
ENDROOT
BRANCH   4   7
HETATM    7  C1  UNL     1     -35.205  17.008  -2.955  1.00 20.00     0.144 C 
HETATM    8  O9  UNL     1     -35.669  18.072  -3.365  1.00 20.00    -0.296 OA
BRANCH   7   9
HETATM    9  C8  UNL     1     -34.514  16.886  -1.600  1.00 20.00     0.048 C 
HETATM   10  C6  UNL     1     -33.222  17.695  -1.601  1.00 20.00     0.017 C 
HETATM   11  C7  UNL     1     -35.436  17.339  -0.472  1.00 20.00     0.017 C 
ENDBRANCH   7   9
ENDBRANCH   4   7
TORSDOF 2
ENDMDL
MODEL 9
REMARK VINA RESULT:      -3.7     10.761     11.816
REMARK  2 active torsions:
REMARK  status: ('A' for Active; 'I' for Inactive)
REMARK    1  A    between atoms: C1_1  and  C5_5 
REMARK    2  A    between atoms: C1_1  and  C8_8 
ROOT
HETATM    1  C2  UNL     1     -34.527  18.754  -3.132  1.00 20.00     0.084 C 
HETATM    2  C3  UNL     1     -33.424  18.578  -4.164  1.00 20.00     0.085 C 
HETATM    3  C4  UNL     1     -34.738  16.004  -2.885  1.00 20.00     0.096 C 
HETATM    4  C5  UNL     1     -33.629  15.828  -3.914  1.00 20.00     0.126 C 
HETATM    5  S10 UNL     1     -34.495  17.474  -1.842  1.00 20.00    -0.167 SA
HETATM    6  S11 UNL     1     -33.661  17.109  -5.208  1.00 20.00    -0.155 SA
ENDROOT
BRANCH   4   7
HETATM    7  C1  UNL     1     -33.802  14.517  -4.616  1.00 20.00     0.144 C 
HETATM    8  O9  UNL     1     -33.067  13.564  -4.357  1.00 20.00    -0.296 OA
BRANCH   7   9
HETATM    9  C8  UNL     1     -34.897  14.441  -5.675  1.00 20.00     0.048 C 
HETATM   10  C6  UNL     1     -34.314  13.937  -6.990  1.00 20.00     0.017 C 
HETATM   11  C7  UNL     1     -36.044  13.546  -5.212  1.00 20.00     0.017 C 
ENDBRANCH   7   9
ENDBRANCH   4   7
TORSDOF 2
ENDMDL
