MODEL 1
REMARK VINA RESULT:      -3.9      0.000      0.000
REMARK  0 active torsions:
REMARK  status: ('A' for Active; 'I' for Inactive)
ROOT
HETATM    1  C1  UNL     1     -34.810  14.015  -4.389  1.00 20.00     0.056 C 
HETATM    2  C2  UNL     1     -35.847  13.776  -5.470  1.00 20.00     0.094 C 
HETATM    3  C3  UNL     1     -34.581  15.532  -4.408  1.00 20.00     0.056 C 
HETATM    4  C4  UNL     1     -36.621  15.094  -5.514  1.00 20.00     0.068 C 
HETATM    5  C5  UNL     1     -34.544  16.114  -2.993  1.00 20.00     0.045 C 
HETATM    6  C6  UNL     1     -33.300  15.927  -5.147  1.00 20.00     0.045 C 
HETATM    7  C7  UNL     1     -37.226  15.498  -6.860  1.00 20.00     0.047 C 
HETATM    8  C8  UNL     1     -37.755  15.074  -4.471  1.00 20.00     0.047 C 
HETATM    9  O9  UNL     1     -35.691  16.120  -5.113  1.00 20.00    -0.369 OA
HETATM   10 BR10 UNL     1     -34.946  13.300  -7.137  1.00 20.00    -0.088 Br
ENDROOT
TORSDOF 0
ENDMDL
MODEL 2
REMARK VINA RESULT:      -3.9      2.883      4.214
REMARK  0 active torsions:
REMARK  status: ('A' for Active; 'I' for Inactive)
ROOT
HETATM    1  C1  UNL     1     -35.049  16.907  -4.644  1.00 20.00     0.056 C 
HETATM    2  C2  UNL     1     -34.646  17.987  -3.658  1.00 20.00     0.094 C 
HETATM    3  C3  UNL     1     -34.131  15.724  -4.312  1.00 20.00     0.056 C 
HETATM    4  C4  UNL     1     -34.117  17.193  -2.463  1.00 20.00     0.068 C 
HETATM    5  C5  UNL     1     -34.904  14.403  -4.282  1.00 20.00     0.045 C 
HETATM    6  C6  UNL     1     -32.957  15.596  -5.285  1.00 20.00     0.045 C 
HETATM    7  C7  UNL     1     -33.024  17.854  -1.621  1.00 20.00     0.047 C 
HETATM    8  C8  UNL     1     -35.279  16.818  -1.524  1.00 20.00     0.047 C 
HETATM    9  O9  UNL     1     -33.588  15.964  -3.000  1.00 20.00    -0.369 OA
HETATM   10 BR10 UNL     1     -33.340  19.174  -4.496  1.00 20.00    -0.088 Br
ENDROOT
TORSDOF 0
ENDMDL
MODEL 3
REMARK VINA RESULT:      -3.7      2.313      3.563
REMARK  0 active torsions:
REMARK  status: ('A' for Active; 'I' for Inactive)
ROOT
HETATM    1  C1  UNL     1     -35.117  17.736  -3.721  1.00 20.00     0.056 C 
HETATM    2  C2  UNL     1     -35.449  16.564  -4.625  1.00 20.00     0.094 C 
HETATM    3  C3  UNL     1     -34.388  17.104  -2.528  1.00 20.00     0.056 C 
HETATM    4  C4  UNL     1     -34.351  15.550  -4.306  1.00 20.00     0.068 C 
HETATM    5  C5  UNL     1     -33.145  17.906  -2.137  1.00 20.00     0.045 C 
HETATM    6  C6  UNL     1     -35.290  16.947  -1.302  1.00 20.00     0.045 C 
HETATM    7  C7  UNL     1     -34.710  14.070  -4.451  1.00 20.00     0.047 C 
HETATM    8  C8  UNL     1     -33.110  15.825  -5.177  1.00 20.00     0.047 C 
HETATM    9  O9  UNL     1     -33.971  15.787  -2.935  1.00 20.00    -0.369 OA
HETATM   10 BR10 UNL     1     -37.265  15.951  -4.248  1.00 20.00    -0.088 Br
ENDROOT
TORSDOF 0
ENDMDL
MODEL 4
REMARK VINA RESULT:      -3.7      2.435      3.587
REMARK  0 active torsions:
REMARK  status: ('A' for Active; 'I' for Inactive)
ROOT
HETATM    1  C1  UNL     1     -33.257  15.023  -5.162  1.00 20.00     0.056 C 
HETATM    2  C2  UNL     1     -33.481  16.475  -4.784  1.00 20.00     0.094 C 
HETATM    3  C3  UNL     1     -34.601  14.570  -5.748  1.00 20.00     0.056 C 
HETATM    4  C4  UNL     1     -34.565  16.931  -5.761  1.00 20.00     0.068 C 
HETATM    5  C5  UNL     1     -34.411  13.756  -7.030  1.00 20.00     0.045 C 
HETATM    6  C6  UNL     1     -35.432  13.754  -4.756  1.00 20.00     0.045 C 
HETATM    7  C7  UNL     1     -35.517  18.026  -5.277  1.00 20.00     0.047 C 
HETATM    8  C8  UNL     1     -33.922  17.408  -7.077  1.00 20.00     0.047 C 
HETATM    9  O9  UNL     1     -35.347  15.759  -6.069  1.00 20.00    -0.369 OA
HETATM   10 BR10 UNL     1     -33.978  16.584  -2.899  1.00 20.00    -0.088 Br
ENDROOT
TORSDOF 0
ENDMDL
MODEL 5
REMARK VINA RESULT:      -3.6      2.034      3.641
REMARK  0 active torsions:
REMARK  status: ('A' for Active; 'I' for Inactive)
ROOT
HETATM    1  C1  UNL     1     -35.953  13.928  -5.014  1.00 20.00     0.056 C 
HETATM    2  C2  UNL     1     -35.340  14.963  -4.090  1.00 20.00     0.094 C 
HETATM    3  C3  UNL     1     -35.466  14.328  -6.412  1.00 20.00     0.056 C 
HETATM    4  C4  UNL     1     -34.071  15.389  -4.829  1.00 20.00     0.068 C 
HETATM    5  C5  UNL     1     -34.992  13.113  -7.213  1.00 20.00     0.045 C 
HETATM    6  C6  UNL     1     -36.532  15.074  -7.217  1.00 20.00     0.045 C 
HETATM    7  C7  UNL     1     -33.588  16.823  -4.608  1.00 20.00     0.047 C 
HETATM    8  C8  UNL     1     -32.911  14.437  -4.476  1.00 20.00     0.047 C 
HETATM    9  O9  UNL     1     -34.349  15.219  -6.234  1.00 20.00    -0.369 OA
HETATM   10 BR10 UNL     1     -36.628  16.398  -3.781  1.00 20.00    -0.088 Br
ENDROOT
TORSDOF 0
ENDMDL
MODEL 6
REMARK VINA RESULT:      -3.6      2.019      2.756
REMARK  0 active torsions:
REMARK  status: ('A' for Active; 'I' for Inactive)
ROOT
HETATM    1  C1  UNL     1     -33.302  15.868  -5.868  1.00 20.00     0.056 C 
HETATM    2  C2  UNL     1     -34.521  15.859  -6.771  1.00 20.00     0.094 C 
HETATM    3  C3  UNL     1     -33.731  15.057  -4.639  1.00 20.00     0.056 C 
HETATM    4  C4  UNL     1     -35.228  14.557  -6.394  1.00 20.00     0.068 C 
HETATM    5  C5  UNL     1     -32.643  14.072  -4.206  1.00 20.00     0.045 C 
HETATM    6  C6  UNL     1     -34.107  15.943  -3.449  1.00 20.00     0.045 C 
HETATM    7  C7  UNL     1     -36.751  14.529  -6.537  1.00 20.00     0.047 C 
HETATM    8  C8  UNL     1     -34.653  13.388  -7.217  1.00 20.00     0.047 C 
HETATM    9  O9  UNL     1     -34.902  14.307  -5.012  1.00 20.00    -0.369 OA
HETATM   10 BR10 UNL     1     -35.567  17.479  -6.462  1.00 20.00    -0.088 Br
ENDROOT
TORSDOF 0
ENDMDL
MODEL 7
REMARK VINA RESULT:      -3.6      1.870      2.934
REMARK  0 active torsions:
REMARK  status: ('A' for Active; 'I' for Inactive)
ROOT
HETATM    1  C1  UNL     1     -35.675  13.717  -4.817  1.00 20.00     0.056 C 
HETATM    2  C2  UNL     1     -34.466  14.059  -5.668  1.00 20.00     0.094 C 
HETATM    3  C3  UNL     1     -36.609  14.923  -4.979  1.00 20.00     0.056 C 
HETATM    4  C4  UNL     1     -35.042  14.980  -6.744  1.00 20.00     0.068 C 
HETATM    5  C5  UNL     1     -38.058  14.486  -5.206  1.00 20.00     0.045 C 
HETATM    6  C6  UNL     1     -36.554  15.877  -3.784  1.00 20.00     0.045 C 
HETATM    7  C7  UNL     1     -34.105  16.043  -7.320  1.00 20.00     0.047 C 
HETATM    8  C8  UNL     1     -35.587  14.142  -7.917  1.00 20.00     0.047 C 
HETATM    9  O9  UNL     1     -36.166  15.651  -6.140  1.00 20.00    -0.369 OA
HETATM   10 BR10 UNL     1     -33.092  14.873  -4.543  1.00 20.00    -0.088 Br
ENDROOT
TORSDOF 0
ENDMDL
MODEL 8
REMARK VINA RESULT:      -3.6      1.676      1.889
REMARK  0 active torsions:
REMARK  status: ('A' for Active; 'I' for Inactive)
ROOT
HETATM    1  C1  UNL     1     -35.435  14.675  -4.604  1.00 20.00     0.056 C 
HETATM    2  C2  UNL     1     -35.691  14.917  -6.080  1.00 20.00     0.094 C 
HETATM    3  C3  UNL     1     -34.097  15.374  -4.329  1.00 20.00     0.056 C 
HETATM    4  C4  UNL     1     -34.958  16.232  -6.353  1.00 20.00     0.068 C 
HETATM    5  C5  UNL     1     -34.142  16.183  -3.030  1.00 20.00     0.045 C 
HETATM    6  C6  UNL     1     -32.921  14.397  -4.270  1.00 20.00     0.045 C 
HETATM    7  C7  UNL     1     -34.400  16.433  -7.763  1.00 20.00     0.047 C 
HETATM    8  C8  UNL     1     -35.880  17.425  -6.033  1.00 20.00     0.047 C 
HETATM    9  O9  UNL     1     -33.858  16.280  -5.422  1.00 20.00    -0.369 OA
HETATM   10 BR10 UNL     1     -35.042  13.389  -7.109  1.00 20.00    -0.088 Br
ENDROOT
TORSDOF 0
ENDMDL
MODEL 9
REMARK VINA RESULT:      -3.5      2.226      3.133
REMARK  0 active torsions:
REMARK  status: ('A' for Active; 'I' for Inactive)
ROOT
HETATM    1  C1  UNL     1     -33.695  17.257  -4.376  1.00 20.00     0.056 C 
HETATM    2  C2  UNL     1     -33.342  16.369  -5.554  1.00 20.00     0.094 C 
HETATM    3  C3  UNL     1     -34.966  16.629  -3.791  1.00 20.00     0.056 C 
HETATM    4  C4  UNL     1     -33.923  15.011  -5.158  1.00 20.00     0.068 C 
HETATM    5  C5  UNL     1     -34.905  16.551  -2.264  1.00 20.00     0.045 C 
HETATM    6  C6  UNL     1     -36.237  17.376  -4.204  1.00 20.00     0.045 C 
HETATM    7  C7  UNL     1     -34.387  14.098  -6.294  1.00 20.00     0.047 C 
HETATM    8  C8  UNL     1     -32.902  14.229  -4.308  1.00 20.00     0.047 C 
HETATM    9  O9  UNL     1     -35.057  15.290  -4.313  1.00 20.00    -0.369 OA
HETATM   10 BR10 UNL     1     -34.090  17.134  -7.188  1.00 20.00    -0.088 Br
ENDROOT
TORSDOF 0
ENDMDL
