MODEL 1
REMARK VINA RESULT:      -5.2      0.000      0.000
REMARK  0 active torsions:
REMARK  status: ('A' for Active; 'I' for Inactive)
ROOT
HETATM    1  C1  UNL     1     -35.518  13.935  -4.992  1.00 20.00     0.064 C 
HETATM    2  C2  UNL     1     -33.541  18.503  -0.436  1.00 20.00     0.000 C 
HETATM    3  C3  UNL     1     -35.056  18.345  -0.471  1.00 20.00     0.003 C 
HETATM    4  C4  UNL     1     -32.922  18.301  -1.814  1.00 20.00     0.003 C 
HETATM    5  C5  UNL     1     -35.471  17.013  -1.098  1.00 20.00     0.038 C 
HETATM    6  C6  UNL     1     -33.338  16.962  -2.424  1.00 20.00     0.038 C 
HETATM    7  C7  UNL     1     -35.608  16.381  -5.303  1.00 20.00     0.045 C 
HETATM    8  C8  UNL     1     -35.283  15.409  -3.023  1.00 20.00     0.057 C 
HETATM    9  C9  UNL     1     -35.165  17.721  -4.734  1.00 20.00     0.170 C 
HETATM   10  C10 UNL     1     -34.992  15.224  -4.516  1.00 20.00     0.097 C 
HETATM   11  C11 UNL     1     -34.875  16.807  -2.509  1.00 20.00     0.062 C 
HETATM   12  N12 UNL     1     -35.934  12.918  -5.367  1.00 20.00    -0.197 NA
HETATM   13  O13 UNL     1     -35.461  17.821  -3.343  1.00 20.00    -0.380 OA
ENDROOT
TORSDOF 0
ENDMDL
MODEL 2
REMARK VINA RESULT:      -5.1      2.536      5.012
REMARK  0 active torsions:
REMARK  status: ('A' for Active; 'I' for Inactive)
ROOT
HETATM    1  C1  UNL     1     -32.963  17.705  -1.613  1.00 20.00     0.064 C 
HETATM    2  C2  UNL     1     -35.303  13.674  -6.493  1.00 20.00     0.000 C 
HETATM    3  C3  UNL     1     -35.257  15.134  -6.926  1.00 20.00     0.003 C 
HETATM    4  C4  UNL     1     -35.612  13.538  -5.006  1.00 20.00     0.003 C 
HETATM    5  C5  UNL     1     -34.295  15.950  -6.062  1.00 20.00     0.038 C 
HETATM    6  C6  UNL     1     -34.637  14.352  -4.154  1.00 20.00     0.038 C 
HETATM    7  C7  UNL     1     -35.342  17.437  -2.214  1.00 20.00     0.045 C 
HETATM    8  C8  UNL     1     -33.549  16.634  -3.762  1.00 20.00     0.057 C 
HETATM    9  C9  UNL     1     -36.331  16.609  -3.022  1.00 20.00     0.170 C 
HETATM   10  C10 UNL     1     -33.938  16.837  -2.293  1.00 20.00     0.097 C 
HETATM   11  C11 UNL     1     -34.616  15.846  -4.553  1.00 20.00     0.062 C 
HETATM   12  N12 UNL     1     -32.195  18.390  -1.077  1.00 20.00    -0.197 NA
HETATM   13  O13 UNL     1     -35.904  16.458  -4.373  1.00 20.00    -0.380 OA
ENDROOT
TORSDOF 0
ENDMDL
MODEL 3
REMARK VINA RESULT:      -5.0      2.537      5.033
REMARK  0 active torsions:
REMARK  status: ('A' for Active; 'I' for Inactive)
ROOT
HETATM    1  C1  UNL     1     -34.696  17.064  -1.388  1.00 20.00     0.064 C 
HETATM    2  C2  UNL     1     -34.541  13.483  -7.105  1.00 20.00     0.000 C 
HETATM    3  C3  UNL     1     -34.012  14.899  -7.299  1.00 20.00     0.003 C 
HETATM    4  C4  UNL     1     -35.649  13.434  -6.058  1.00 20.00     0.003 C 
HETATM    5  C5  UNL     1     -33.579  15.527  -5.974  1.00 20.00     0.038 C 
HETATM    6  C6  UNL     1     -35.198  14.058  -4.737  1.00 20.00     0.038 C 
HETATM    7  C7  UNL     1     -36.332  17.253  -3.226  1.00 20.00     0.045 C 
HETATM    8  C8  UNL     1     -34.148  16.092  -3.593  1.00 20.00     0.057 C 
HETATM    9  C9  UNL     1     -36.821  16.620  -4.520  1.00 20.00     0.170 C 
HETATM   10  C10 UNL     1     -35.252  16.390  -2.572  1.00 20.00     0.097 C 
HETATM   11  C11 UNL     1     -34.703  15.512  -4.912  1.00 20.00     0.062 C 
HETATM   12  N12 UNL     1     -34.257  17.596  -0.454  1.00 20.00    -0.197 NA
HETATM   13  O13 UNL     1     -35.743  16.365  -5.418  1.00 20.00    -0.380 OA
ENDROOT
TORSDOF 0
ENDMDL
MODEL 4
REMARK VINA RESULT:      -4.9      1.562      2.262
REMARK  0 active torsions:
REMARK  status: ('A' for Active; 'I' for Inactive)
ROOT
HETATM    1  C1  UNL     1     -37.094  14.421  -4.678  1.00 20.00     0.064 C 
HETATM    2  C2  UNL     1     -33.020  19.072  -1.976  1.00 20.00     0.000 C 
HETATM    3  C3  UNL     1     -33.193  19.263  -3.477  1.00 20.00     0.003 C 
HETATM    4  C4  UNL     1     -33.064  17.599  -1.586  1.00 20.00     0.003 C 
HETATM    5  C5  UNL     1     -34.455  18.569  -3.993  1.00 20.00     0.038 C 
HETATM    6  C6  UNL     1     -34.335  16.922  -2.101  1.00 20.00     0.038 C 
HETATM    7  C7  UNL     1     -34.629  14.396  -4.805  1.00 20.00     0.045 C 
HETATM    8  C8  UNL     1     -35.838  16.476  -4.123  1.00 20.00     0.057 C 
HETATM    9  C9  UNL     1     -33.354  15.030  -4.270  1.00 20.00     0.170 C 
HETATM   10  C10 UNL     1     -35.856  14.944  -4.076  1.00 20.00     0.097 C 
HETATM   11  C11 UNL     1     -34.499  17.067  -3.632  1.00 20.00     0.062 C 
HETATM   12  N12 UNL     1     -38.070  14.009  -5.153  1.00 20.00    -0.197 NA
HETATM   13  O13 UNL     1     -33.408  16.452  -4.339  1.00 20.00    -0.380 OA
ENDROOT
TORSDOF 0
ENDMDL
MODEL 5
REMARK VINA RESULT:      -4.9      1.205      1.293
REMARK  0 active torsions:
REMARK  status: ('A' for Active; 'I' for Inactive)
ROOT
HETATM    1  C1  UNL     1     -34.258  14.089  -6.267  1.00 20.00     0.064 C 
HETATM    2  C2  UNL     1     -34.263  17.836  -0.654  1.00 20.00     0.000 C 
HETATM    3  C3  UNL     1     -35.642  17.766  -1.299  1.00 20.00     0.003 C 
HETATM    4  C4  UNL     1     -33.152  17.802  -1.696  1.00 20.00     0.003 C 
HETATM    5  C5  UNL     1     -35.767  16.563  -2.236  1.00 20.00     0.038 C 
HETATM    6  C6  UNL     1     -33.285  16.590  -2.619  1.00 20.00     0.038 C 
HETATM    7  C7  UNL     1     -34.238  16.556  -6.206  1.00 20.00     0.045 C 
HETATM    8  C8  UNL     1     -34.826  15.247  -4.159  1.00 20.00     0.057 C 
HETATM    9  C9  UNL     1     -34.064  17.773  -5.310  1.00 20.00     0.170 C 
HETATM   10  C10 UNL     1     -33.971  15.266  -5.430  1.00 20.00     0.097 C 
HETATM   11  C11 UNL     1     -34.663  16.532  -3.317  1.00 20.00     0.062 C 
HETATM   12  N12 UNL     1     -34.485  13.161  -6.926  1.00 20.00    -0.197 NA
HETATM   13  O13 UNL     1     -34.882  17.686  -4.146  1.00 20.00    -0.380 OA
ENDROOT
TORSDOF 0
ENDMDL
MODEL 6
REMARK VINA RESULT:      -4.9      2.702      4.799
REMARK  0 active torsions:
REMARK  status: ('A' for Active; 'I' for Inactive)
ROOT
HETATM    1  C1  UNL     1     -32.832  18.146  -1.744  1.00 20.00     0.064 C 
HETATM    2  C2  UNL     1     -37.028  14.031  -5.060  1.00 20.00     0.000 C 
HETATM    3  C3  UNL     1     -35.566  13.719  -5.355  1.00 20.00     0.003 C 
HETATM    4  C4  UNL     1     -37.250  15.520  -4.824  1.00 20.00     0.003 C 
HETATM    5  C5  UNL     1     -34.640  14.274  -4.272  1.00 20.00     0.038 C 
HETATM    6  C6  UNL     1     -36.325  16.058  -3.732  1.00 20.00     0.038 C 
HETATM    7  C7  UNL     1     -33.434  18.352  -4.129  1.00 20.00     0.045 C 
HETATM    8  C8  UNL     1     -33.917  16.239  -2.883  1.00 20.00     0.057 C 
HETATM    9  C9  UNL     1     -34.376  17.859  -5.217  1.00 20.00     0.170 C 
HETATM   10  C10 UNL     1     -33.816  17.764  -2.770  1.00 20.00     0.097 C 
HETATM   11  C11 UNL     1     -34.833  15.791  -4.042  1.00 20.00     0.062 C 
HETATM   12  N12 UNL     1     -32.055  18.446  -0.935  1.00 20.00    -0.197 NA
HETATM   13  O13 UNL     1     -34.425  16.436  -5.261  1.00 20.00    -0.380 OA
ENDROOT
TORSDOF 0
ENDMDL
MODEL 7
REMARK VINA RESULT:      -4.8     10.919     11.963
REMARK  0 active torsions:
REMARK  status: ('A' for Active; 'I' for Inactive)
ROOT
HETATM    1  C1  UNL     1     -32.656   9.359   0.527  1.00 20.00     0.064 C 
HETATM    2  C2  UNL     1     -34.303   4.105   4.428  1.00 20.00     0.000 C 
HETATM    3  C3  UNL     1     -34.959   5.397   4.898  1.00 20.00     0.003 C 
HETATM    4  C4  UNL     1     -32.929   4.360   3.819  1.00 20.00     0.003 C 
HETATM    5  C5  UNL     1     -35.010   6.443   3.783  1.00 20.00     0.038 C 
HETATM    6  C6  UNL     1     -32.997   5.400   2.700  1.00 20.00     0.038 C 
HETATM    7  C7  UNL     1     -31.673   8.868   2.737  1.00 20.00     0.045 C 
HETATM    8  C8  UNL     1     -33.782   7.737   2.013  1.00 20.00     0.057 C 
HETATM    9  C9  UNL     1     -31.560   7.826   3.840  1.00 20.00     0.170 C 
HETATM   10  C10 UNL     1     -32.443   8.311   1.539  1.00 20.00     0.097 C 
HETATM   11  C11 UNL     1     -33.618   6.734   3.176  1.00 20.00     0.062 C 
HETATM   12  N12 UNL     1     -32.824  10.185  -0.271  1.00 20.00    -0.197 NA
HETATM   13  O13 UNL     1     -32.839   7.333   4.227  1.00 20.00    -0.380 OA
ENDROOT
TORSDOF 0
ENDMDL
MODEL 8
REMARK VINA RESULT:      -4.6      2.821      4.949
REMARK  0 active torsions:
REMARK  status: ('A' for Active; 'I' for Inactive)
ROOT
HETATM    1  C1  UNL     1     -33.162  18.292  -0.676  1.00 20.00     0.064 C 
HETATM    2  C2  UNL     1     -33.674  15.207  -6.655  1.00 20.00     0.000 C 
HETATM    3  C3  UNL     1     -34.280  16.605  -6.676  1.00 20.00     0.003 C 
HETATM    4  C4  UNL     1     -33.846  14.539  -5.296  1.00 20.00     0.003 C 
HETATM    5  C5  UNL     1     -33.740  17.472  -5.537  1.00 20.00     0.038 C 
HETATM    6  C6  UNL     1     -33.294  15.413  -4.169  1.00 20.00     0.038 C 
HETATM    7  C7  UNL     1     -35.205  17.221  -1.550  1.00 20.00     0.045 C 
HETATM    8  C8  UNL     1     -33.293  17.728  -3.078  1.00 20.00     0.057 C 
HETATM    9  C9  UNL     1     -35.763  16.317  -2.640  1.00 20.00     0.170 C 
HETATM   10  C10 UNL     1     -33.683  17.323  -1.653  1.00 20.00     0.097 C 
HETATM   11  C11 UNL     1     -33.936  16.820  -4.149  1.00 20.00     0.062 C 
HETATM   12  N12 UNL     1     -32.750  19.057   0.094  1.00 20.00    -0.197 NA
HETATM   13  O13 UNL     1     -35.356  16.748  -3.936  1.00 20.00    -0.380 OA
ENDROOT
TORSDOF 0
ENDMDL
MODEL 9
REMARK VINA RESULT:      -4.6      2.727      4.703
REMARK  0 active torsions:
REMARK  status: ('A' for Active; 'I' for Inactive)
ROOT
HETATM    1  C1  UNL     1     -36.280  18.158   0.374  1.00 20.00     0.064 C 
HETATM    2  C2  UNL     1     -33.581  16.476  -5.578  1.00 20.00     0.000 C 
HETATM    3  C3  UNL     1     -33.420  15.371  -4.541  1.00 20.00     0.003 C 
HETATM    4  C4  UNL     1     -33.527  17.859  -4.940  1.00 20.00     0.003 C 
HETATM    5  C5  UNL     1     -34.427  15.517  -3.399  1.00 20.00     0.038 C 
HETATM    6  C6  UNL     1     -34.544  17.993  -3.806  1.00 20.00     0.038 C 
HETATM    7  C7  UNL     1     -33.872  18.223  -0.163  1.00 20.00     0.045 C 
HETATM    8  C8  UNL     1     -35.462  16.983  -1.641  1.00 20.00     0.057 C 
HETATM    9  C9  UNL     1     -32.849  18.136  -1.286  1.00 20.00     0.170 C 
HETATM   10  C10 UNL     1     -35.295  18.197  -0.720  1.00 20.00     0.097 C 
HETATM   11  C11 UNL     1     -34.362  16.905  -2.722  1.00 20.00     0.062 C 
HETATM   12  N12 UNL     1     -37.056  18.127   1.236  1.00 20.00    -0.197 NA
HETATM   13  O13 UNL     1     -33.067  16.989  -2.104  1.00 20.00    -0.380 OA
ENDROOT
TORSDOF 0
ENDMDL
