MODEL 1
REMARK VINA RESULT:      -4.2      0.000      0.000
REMARK  2 active torsions:
REMARK  status: ('A' for Active; 'I' for Inactive)
REMARK    1  A    between atoms: C2_2  and  C6_6 
REMARK    2  A    between atoms: C6_6  and  O9_9 
ROOT
HETATM    1  C3  UNL     1     -34.448  15.191  -3.788  1.00 20.00     0.058 C 
HETATM    2  C4  UNL     1     -34.079  16.509  -5.819  1.00 20.00     0.116 C 
HETATM    3  C5  UNL     1     -33.745  16.385  -3.142  1.00 20.00     0.046 C 
HETATM    4  C6  UNL     1     -33.947  15.102  -5.231  1.00 20.00     0.089 C 
HETATM    5  C8  UNL     1     -34.465  16.890  -1.903  1.00 20.00     0.021 C 
HETATM    6  S10 UNL     1     -33.703  17.652  -4.450  1.00 20.00    -0.161 SA
ENDROOT
BRANCH   4   7
HETATM    7  C2  UNL     1     -34.720  14.087  -6.014  1.00 20.00    -0.058 C 
HETATM    8  C1  UNL     1     -34.386  13.756  -7.271  1.00 20.00     0.017 C 
HETATM    9  C7  UNL     1     -35.888  13.460  -5.312  1.00 20.00     0.046 C 
ENDBRANCH   4   7
BRANCH   4  10
HETATM   10  O9  UNL     1     -32.572  14.711  -5.225  1.00 20.00    -0.385 OA
HETATM   11  H24 UNL     1     -32.177  15.087  -6.026  1.00 20.00     0.211 HD
ENDBRANCH   4  10
TORSDOF 2
ENDMDL
MODEL 2
REMARK VINA RESULT:      -4.0      1.906      2.427
REMARK  2 active torsions:
REMARK  status: ('A' for Active; 'I' for Inactive)
REMARK    1  A    between atoms: C2_2  and  C6_6 
REMARK    2  A    between atoms: C6_6  and  O9_9 
ROOT
HETATM    1  C3  UNL     1     -35.627  15.342  -4.090  1.00 20.00     0.058 C 
HETATM    2  C4  UNL     1     -34.452  14.692  -6.139  1.00 20.00     0.116 C 
HETATM    3  C5  UNL     1     -34.203  15.347  -3.531  1.00 20.00     0.046 C 
HETATM    4  C6  UNL     1     -35.649  14.344  -5.251  1.00 20.00     0.089 C 
HETATM    5  C8  UNL     1     -33.897  16.593  -2.718  1.00 20.00     0.021 C 
HETATM    6  S10 UNL     1     -33.135  15.233  -5.002  1.00 20.00    -0.161 SA
ENDROOT
BRANCH   4   7
HETATM    7  C2  UNL     1     -36.945  14.407  -5.996  1.00 20.00    -0.058 C 
HETATM    8  C1  UNL     1     -38.128  14.423  -5.363  1.00 20.00     0.017 C 
HETATM    9  C7  UNL     1     -36.847  14.450  -7.493  1.00 20.00     0.046 C 
ENDBRANCH   4   7
BRANCH   4  10
HETATM   10  O9  UNL     1     -35.494  13.021  -4.732  1.00 20.00    -0.385 OA
HETATM   11  H24 UNL     1     -34.783  12.607  -5.245  1.00 20.00     0.211 HD
ENDBRANCH   4  10
TORSDOF 2
ENDMDL
MODEL 3
REMARK VINA RESULT:      -3.8      2.153      4.238
REMARK  2 active torsions:
REMARK  status: ('A' for Active; 'I' for Inactive)
REMARK    1  A    between atoms: C2_2  and  C6_6 
REMARK    2  A    between atoms: C6_6  and  O9_9 
ROOT
HETATM    1  C3  UNL     1     -34.819  15.254  -3.797  1.00 20.00     0.058 C 
HETATM    2  C4  UNL     1     -35.321  17.588  -4.343  1.00 20.00     0.116 C 
HETATM    3  C5  UNL     1     -35.493  15.016  -5.149  1.00 20.00     0.046 C 
HETATM    4  C6  UNL     1     -35.405  16.547  -3.225  1.00 20.00     0.089 C 
HETATM    5  C8  UNL     1     -34.704  14.071  -6.039  1.00 20.00     0.021 C 
HETATM    6  S10 UNL     1     -35.624  16.675  -5.891  1.00 20.00    -0.161 SA
ENDROOT
BRANCH   4   7
HETATM    7  C2  UNL     1     -34.672  16.978  -1.993  1.00 20.00    -0.058 C 
HETATM    8  C1  UNL     1     -33.351  17.216  -2.001  1.00 20.00     0.017 C 
HETATM    9  C7  UNL     1     -35.497  17.128  -0.750  1.00 20.00     0.046 C 
ENDBRANCH   4   7
BRANCH   4  10
HETATM   10  O9  UNL     1     -36.773  16.325  -2.876  1.00 20.00    -0.385 OA
HETATM   11  H24 UNL     1     -37.105  15.648  -3.485  1.00 20.00     0.211 HD
ENDBRANCH   4  10
TORSDOF 2
ENDMDL
MODEL 4
REMARK VINA RESULT:      -3.7     11.827     12.517
REMARK  2 active torsions:
REMARK  status: ('A' for Active; 'I' for Inactive)
REMARK    1  A    between atoms: C2_2  and  C6_6 
REMARK    2  A    between atoms: C6_6  and  O9_9 
ROOT
HETATM    1  C3  UNL     1     -33.774   6.904   4.440  1.00 20.00     0.058 C 
HETATM    2  C4  UNL     1     -32.744   5.441   2.767  1.00 20.00     0.116 C 
HETATM    3  C5  UNL     1     -34.664   5.679   4.651  1.00 20.00     0.046 C 
HETATM    4  C6  UNL     1     -33.282   6.856   2.991  1.00 20.00     0.089 C 
HETATM    5  C8  UNL     1     -34.837   5.326   6.119  1.00 20.00     0.021 C 
HETATM    6  S10 UNL     1     -33.825   4.343   3.740  1.00 20.00    -0.161 SA
ENDROOT
BRANCH   4   7
HETATM    7  C2  UNL     1     -32.245   7.904   2.734  1.00 20.00    -0.058 C 
HETATM    8  C1  UNL     1     -31.334   8.242   3.660  1.00 20.00     0.017 C 
HETATM    9  C7  UNL     1     -32.281   8.554   1.383  1.00 20.00     0.046 C 
ENDBRANCH   4   7
BRANCH   4  10
HETATM   10  O9  UNL     1     -34.386   7.096   2.115  1.00 20.00    -0.385 OA
HETATM   11  H24 UNL     1     -34.372   6.386   1.456  1.00 20.00     0.211 HD
ENDBRANCH   4  10
TORSDOF 2
ENDMDL
MODEL 5
REMARK VINA RESULT:      -3.7      2.288      4.342
REMARK  2 active torsions:
REMARK  status: ('A' for Active; 'I' for Inactive)
REMARK    1  A    between atoms: C2_2  and  C6_6 
REMARK    2  A    between atoms: C6_6  and  O9_9 
ROOT
HETATM    1  C3  UNL     1     -36.022  16.033  -3.499  1.00 20.00     0.058 C 
HETATM    2  C4  UNL     1     -33.629  15.583  -3.766  1.00 20.00     0.116 C 
HETATM    3  C5  UNL     1     -36.077  15.409  -4.894  1.00 20.00     0.046 C 
HETATM    4  C6  UNL     1     -34.633  16.657  -3.341  1.00 20.00     0.089 C 
HETATM    5  C8  UNL     1     -37.173  14.365  -5.026  1.00 20.00     0.021 C 
HETATM    6  S10 UNL     1     -34.427  14.675  -5.130  1.00 20.00    -0.161 SA
ENDROOT
BRANCH   4   7
HETATM    7  C2  UNL     1     -34.403  17.124  -1.938  1.00 20.00    -0.058 C 
HETATM    8  C1  UNL     1     -35.355  17.039  -0.996  1.00 20.00     0.017 C 
HETATM    9  C7  UNL     1     -33.046  17.693  -1.644  1.00 20.00     0.046 C 
ENDBRANCH   4   7
BRANCH   4  10
HETATM   10  O9  UNL     1     -34.527  17.786  -4.211  1.00 20.00    -0.385 OA
HETATM   11  H24 UNL     1     -33.977  18.437  -3.749  1.00 20.00     0.211 HD
ENDBRANCH   4  10
TORSDOF 2
ENDMDL
MODEL 6
REMARK VINA RESULT:      -3.6      1.822      2.224
REMARK  2 active torsions:
REMARK  status: ('A' for Active; 'I' for Inactive)
REMARK    1  A    between atoms: C2_2  and  C6_6 
REMARK    2  A    between atoms: C6_6  and  O9_9 
ROOT
HETATM    1  C3  UNL     1     -36.010  15.440  -5.122  1.00 20.00     0.058 C 
HETATM    2  C4  UNL     1     -33.629  15.101  -4.659  1.00 20.00     0.116 C 
HETATM    3  C5  UNL     1     -36.006  15.915  -3.669  1.00 20.00     0.046 C 
HETATM    4  C6  UNL     1     -34.864  14.435  -5.269  1.00 20.00     0.089 C 
HETATM    5  C8  UNL     1     -36.745  17.230  -3.481  1.00 20.00     0.021 C 
HETATM    6  S10 UNL     1     -34.242  16.078  -3.248  1.00 20.00    -0.161 SA
ENDROOT
BRANCH   4   7
HETATM    7  C2  UNL     1     -34.654  14.055  -6.701  1.00 20.00    -0.058 C 
HETATM    8  C1  UNL     1     -35.175  12.933  -7.221  1.00 20.00     0.017 C 
HETATM    9  C7  UNL     1     -33.828  15.000  -7.522  1.00 20.00     0.046 C 
ENDBRANCH   4   7
BRANCH   4  10
HETATM   10  O9  UNL     1     -35.185  13.252  -4.534  1.00 20.00    -0.385 OA
HETATM   11  H24 UNL     1     -35.282  12.542  -5.187  1.00 20.00     0.211 HD
ENDBRANCH   4  10
TORSDOF 2
ENDMDL
MODEL 7
REMARK VINA RESULT:      -3.5      3.071      4.131
REMARK  2 active torsions:
REMARK  status: ('A' for Active; 'I' for Inactive)
REMARK    1  A    between atoms: C2_2  and  C6_6 
REMARK    2  A    between atoms: C6_6  and  O9_9 
ROOT
HETATM    1  C3  UNL     1     -33.173  17.561  -1.909  1.00 20.00     0.058 C 
HETATM    2  C4  UNL     1     -35.383  17.135  -0.942  1.00 20.00     0.116 C 
HETATM    3  C5  UNL     1     -33.118  18.598  -0.786  1.00 20.00     0.046 C 
HETATM    4  C6  UNL     1     -34.649  17.363  -2.265  1.00 20.00     0.089 C 
HETATM    5  C8  UNL     1     -31.812  18.554  -0.011  1.00 20.00     0.021 C 
HETATM    6  S10 UNL     1     -34.539  18.193   0.279  1.00 20.00    -0.161 SA
ENDROOT
BRANCH   4   7
HETATM    7  C2  UNL     1     -34.830  16.223  -3.217  1.00 20.00    -0.058 C 
HETATM    8  C1  UNL     1     -36.047  15.797  -3.589  1.00 20.00     0.017 C 
HETATM    9  C7  UNL     1     -33.574  15.584  -3.732  1.00 20.00     0.046 C 
ENDBRANCH   4   7
BRANCH   4  10
HETATM   10  O9  UNL     1     -35.141  18.551  -2.890  1.00 20.00    -0.385 OA
HETATM   11  H24 UNL     1     -35.661  19.018  -2.219  1.00 20.00     0.211 HD
ENDBRANCH   4  10
TORSDOF 2
ENDMDL
MODEL 8
REMARK VINA RESULT:      -3.5      1.974      2.591
REMARK  2 active torsions:
REMARK  status: ('A' for Active; 'I' for Inactive)
REMARK    1  A    between atoms: C2_2  and  C6_6 
REMARK    2  A    between atoms: C6_6  and  O9_9 
ROOT
HETATM    1  C3  UNL     1     -33.831  16.505  -2.624  1.00 20.00     0.058 C 
HETATM    2  C4  UNL     1     -36.170  16.256  -3.308  1.00 20.00     0.116 C 
HETATM    3  C5  UNL     1     -34.362  17.818  -2.047  1.00 20.00     0.046 C 
HETATM    4  C6  UNL     1     -34.729  16.140  -3.809  1.00 20.00     0.089 C 
HETATM    5  C8  UNL     1     -33.900  18.060  -0.620  1.00 20.00     0.021 C 
HETATM    6  S10 UNL     1     -36.174  17.656  -2.141  1.00 20.00    -0.161 SA
ENDROOT
BRANCH   4   7
HETATM    7  C2  UNL     1     -34.418  14.770  -4.326  1.00 20.00    -0.058 C 
HETATM    8  C1  UNL     1     -35.383  13.917  -4.700  1.00 20.00     0.017 C 
HETATM    9  C7  UNL     1     -32.964  14.406  -4.400  1.00 20.00     0.046 C 
ENDBRANCH   4   7
BRANCH   4  10
HETATM   10  O9  UNL     1     -34.510  17.077  -4.866  1.00 20.00    -0.385 OA
HETATM   11  H24 UNL     1     -33.915  16.644  -5.497  1.00 20.00     0.211 HD
ENDBRANCH   4  10
TORSDOF 2
ENDMDL
MODEL 9
REMARK VINA RESULT:      -3.5      1.458      1.946
REMARK  2 active torsions:
REMARK  status: ('A' for Active; 'I' for Inactive)
REMARK    1  A    between atoms: C2_2  and  C6_6 
REMARK    2  A    between atoms: C6_6  and  O9_9 
ROOT
HETATM    1  C3  UNL     1     -34.612  16.291  -2.323  1.00 20.00     0.058 C 
HETATM    2  C4  UNL     1     -34.426  17.278  -4.558  1.00 20.00     0.116 C 
HETATM    3  C5  UNL     1     -33.515  17.312  -2.016  1.00 20.00     0.046 C 
HETATM    4  C6  UNL     1     -34.497  15.945  -3.810  1.00 20.00     0.089 C 
HETATM    5  C8  UNL     1     -33.787  18.098  -0.744  1.00 20.00     0.021 C 
HETATM    6  S10 UNL     1     -33.482  18.400  -3.476  1.00 20.00    -0.161 SA
ENDROOT
BRANCH   4   7
HETATM    7  C2  UNL     1     -35.648  15.102  -4.262  1.00 20.00    -0.058 C 
HETATM    8  C1  UNL     1     -35.467  13.893  -4.818  1.00 20.00     0.017 C 
HETATM    9  C7  UNL     1     -37.015  15.685  -4.059  1.00 20.00     0.046 C 
ENDBRANCH   4   7
BRANCH   4  10
HETATM   10  O9  UNL     1     -33.291  15.207  -4.025  1.00 20.00    -0.385 OA
HETATM   11  H24 UNL     1     -32.840  15.632  -4.770  1.00 20.00     0.211 HD
ENDBRANCH   4  10
TORSDOF 2
ENDMDL
