MODEL 1
REMARK VINA RESULT:      -4.7      0.000      0.000
REMARK  1 active torsions:
REMARK  status: ('A' for Active; 'I' for Inactive)
REMARK    1  A    between atoms: C2_2  and  C3_3 
ROOT
HETATM    1  C1  UNL     1     -34.926  15.534  -3.843  1.00 20.00    -0.063 C 
HETATM    2  C2  UNL     1     -34.593  14.251  -4.052  1.00 20.00     0.088 C 
HETATM    3  C4  UNL     1     -34.528  16.251  -2.572  1.00 20.00     0.044 C 
HETATM    4  C5  UNL     1     -35.695  16.317  -4.858  1.00 20.00     0.108 C 
HETATM    5  C6  UNL     1     -33.532  17.982  -4.182  1.00 20.00     0.083 C 
HETATM    6  C7  UNL     1     -34.091  17.732  -2.763  1.00 20.00    -0.036 C 
HETATM    7  C8  UNL     1     -32.973  18.048  -1.744  1.00 20.00     0.016 C 
HETATM    8  C9  UNL     1     -35.263  18.689  -2.453  1.00 20.00     0.016 C 
HETATM    9  S12 UNL     1     -34.690  17.660  -5.560  1.00 20.00    -0.164 SA
ENDROOT
BRANCH   2  10
HETATM   10  C3  UNL     1     -34.991  13.513  -5.336  1.00 20.00     0.198 C 
HETATM   11  O10 UNL     1     -36.065  12.851  -5.231  1.00 20.00    -0.644 OA
HETATM   12  O11 UNL     1     -34.227  13.639  -6.333  1.00 20.00    -0.644 OA
ENDBRANCH   2  10
TORSDOF 1
ENDMDL
MODEL 2
REMARK VINA RESULT:      -4.6      1.422      1.688
REMARK  1 active torsions:
REMARK  status: ('A' for Active; 'I' for Inactive)
REMARK    1  A    between atoms: C2_2  and  C3_3 
ROOT
HETATM    1  C1  UNL     1     -34.662  15.019  -4.463  1.00 20.00    -0.063 C 
HETATM    2  C2  UNL     1     -34.055  14.403  -5.490  1.00 20.00     0.088 C 
HETATM    3  C4  UNL     1     -33.865  15.656  -3.347  1.00 20.00     0.044 C 
HETATM    4  C5  UNL     1     -36.152  15.115  -4.381  1.00 20.00     0.108 C 
HETATM    5  C6  UNL     1     -35.255  17.738  -3.906  1.00 20.00     0.083 C 
HETATM    6  C7  UNL     1     -34.433  17.007  -2.823  1.00 20.00    -0.036 C 
HETATM    7  C8  UNL     1     -33.247  17.915  -2.426  1.00 20.00     0.016 C 
HETATM    8  C9  UNL     1     -35.274  16.784  -1.545  1.00 20.00     0.016 C 
HETATM    9  S12 UNL     1     -36.716  16.836  -4.539  1.00 20.00    -0.164 SA
ENDROOT
BRANCH   2  10
HETATM   10  C3  UNL     1     -34.852  13.754  -6.626  1.00 20.00     0.198 C 
HETATM   11  O10 UNL     1     -35.092  14.536  -7.593  1.00 20.00    -0.644 OA
HETATM   12  O11 UNL     1     -35.177  12.543  -6.483  1.00 20.00    -0.644 OA
ENDBRANCH   2  10
TORSDOF 1
ENDMDL
MODEL 3
REMARK VINA RESULT:      -4.3      3.082      4.729
REMARK  1 active torsions:
REMARK  status: ('A' for Active; 'I' for Inactive)
REMARK    1  A    between atoms: C2_2  and  C3_3 
ROOT
HETATM    1  C1  UNL     1     -33.776  16.472  -3.522  1.00 20.00    -0.063 C 
HETATM    2  C2  UNL     1     -33.747  16.846  -2.233  1.00 20.00     0.088 C 
HETATM    3  C4  UNL     1     -34.060  15.041  -3.917  1.00 20.00     0.044 C 
HETATM    4  C5  UNL     1     -33.542  17.454  -4.625  1.00 20.00     0.108 C 
HETATM    5  C6  UNL     1     -35.882  16.091  -5.385  1.00 20.00     0.083 C 
HETATM    6  C7  UNL     1     -34.955  14.873  -5.179  1.00 20.00    -0.036 C 
HETATM    7  C8  UNL     1     -35.842  13.622  -4.987  1.00 20.00     0.016 C 
HETATM    8  C9  UNL     1     -34.088  14.619  -6.432  1.00 20.00     0.016 C 
HETATM    9  S12 UNL     1     -35.042  17.698  -5.625  1.00 20.00    -0.164 SA
ENDROOT
BRANCH   2  10
HETATM   10  C3  UNL     1     -33.460  18.294  -1.820  1.00 20.00     0.198 C 
HETATM   11  O10 UNL     1     -32.242  18.518  -1.555  1.00 20.00    -0.644 OA
HETATM   12  O11 UNL     1     -34.441  19.088  -1.785  1.00 20.00    -0.644 OA
ENDBRANCH   2  10
TORSDOF 1
ENDMDL
MODEL 4
REMARK VINA RESULT:      -4.3      1.500      1.754
REMARK  1 active torsions:
REMARK  status: ('A' for Active; 'I' for Inactive)
REMARK    1  A    between atoms: C2_2  and  C3_3 
ROOT
HETATM    1  C1  UNL     1     -35.965  15.574  -4.578  1.00 20.00    -0.063 C 
HETATM    2  C2  UNL     1     -36.487  14.366  -4.845  1.00 20.00     0.088 C 
HETATM    3  C4  UNL     1     -36.293  16.303  -3.295  1.00 20.00     0.044 C 
HETATM    4  C5  UNL     1     -35.027  16.247  -5.527  1.00 20.00     0.108 C 
HETATM    5  C6  UNL     1     -33.745  16.428  -3.031  1.00 20.00     0.083 C 
HETATM    6  C7  UNL     1     -35.099  17.064  -2.648  1.00 20.00    -0.036 C 
HETATM    7  C8  UNL     1     -35.247  16.990  -1.111  1.00 20.00     0.016 C 
HETATM    8  C9  UNL     1     -35.137  18.560  -3.031  1.00 20.00     0.016 C 
HETATM    9  S12 UNL     1     -33.359  16.396  -4.819  1.00 20.00    -0.164 SA
ENDROOT
BRANCH   2  10
HETATM   10  C3  UNL     1     -36.163  13.617  -6.143  1.00 20.00     0.198 C 
HETATM   11  O10 UNL     1     -35.347  12.661  -5.989  1.00 20.00    -0.644 OA
HETATM   12  O11 UNL     1     -36.725  14.022  -7.198  1.00 20.00    -0.644 OA
ENDBRANCH   2  10
TORSDOF 1
ENDMDL
MODEL 5
REMARK VINA RESULT:      -4.1      3.076      4.666
REMARK  1 active torsions:
REMARK  status: ('A' for Active; 'I' for Inactive)
REMARK    1  A    between atoms: C2_2  and  C3_3 
ROOT
HETATM    1  C1  UNL     1     -34.347  16.497  -2.978  1.00 20.00    -0.063 C 
HETATM    2  C2  UNL     1     -34.207  17.513  -2.111  1.00 20.00     0.088 C 
HETATM    3  C4  UNL     1     -35.612  15.671  -3.020  1.00 20.00     0.044 C 
HETATM    4  C5  UNL     1     -33.265  16.142  -3.947  1.00 20.00     0.108 C 
HETATM    5  C6  UNL     1     -35.597  16.267  -5.515  1.00 20.00     0.083 C 
HETATM    6  C7  UNL     1     -36.084  15.263  -4.446  1.00 20.00    -0.036 C 
HETATM    7  C8  UNL     1     -37.629  15.251  -4.467  1.00 20.00     0.016 C 
HETATM    8  C9  UNL     1     -35.620  13.828  -4.782  1.00 20.00     0.016 C 
HETATM    9  S12 UNL     1     -33.784  16.454  -5.662  1.00 20.00    -0.164 SA
ENDROOT
BRANCH   2  10
HETATM   10  C3  UNL     1     -32.929  18.357  -2.059  1.00 20.00     0.198 C 
HETATM   11  O10 UNL     1     -32.844  19.213  -2.989  1.00 20.00    -0.644 OA
HETATM   12  O11 UNL     1     -32.118  18.116  -1.122  1.00 20.00    -0.644 OA
ENDBRANCH   2  10
TORSDOF 1
ENDMDL
MODEL 6
REMARK VINA RESULT:      -4.0      3.553      4.800
REMARK  1 active torsions:
REMARK  status: ('A' for Active; 'I' for Inactive)
REMARK    1  A    between atoms: C2_2  and  C3_3 
ROOT
HETATM    1  C1  UNL     1     -34.467  16.831  -2.304  1.00 20.00    -0.063 C 
HETATM    2  C2  UNL     1     -35.284  17.008  -1.253  1.00 20.00     0.088 C 
HETATM    3  C4  UNL     1     -34.659  15.676  -3.260  1.00 20.00     0.044 C 
HETATM    4  C5  UNL     1     -33.339  17.771  -2.584  1.00 20.00     0.108 C 
HETATM    5  C6  UNL     1     -34.663  17.513  -5.051  1.00 20.00     0.083 C 
HETATM    6  C7  UNL     1     -34.413  16.017  -4.759  1.00 20.00    -0.036 C 
HETATM    7  C8  UNL     1     -35.396  15.189  -5.617  1.00 20.00     0.016 C 
HETATM    8  C9  UNL     1     -32.987  15.600  -5.184  1.00 20.00     0.016 C 
HETATM    9  S12 UNL     1     -33.609  18.690  -4.129  1.00 20.00    -0.164 SA
ENDROOT
BRANCH   2  10
HETATM   10  C3  UNL     1     -35.099  18.174  -0.276  1.00 20.00     0.198 C 
HETATM   11  O10 UNL     1     -35.762  19.208  -0.583  1.00 20.00    -0.644 OA
HETATM   12  O11 UNL     1     -34.325  17.987   0.704  1.00 20.00    -0.644 OA
ENDBRANCH   2  10
TORSDOF 1
ENDMDL
MODEL 7
REMARK VINA RESULT:      -3.9      2.987      4.545
REMARK  1 active torsions:
REMARK  status: ('A' for Active; 'I' for Inactive)
REMARK    1  A    between atoms: C2_2  and  C3_3 
ROOT
HETATM    1  C1  UNL     1     -33.902  16.324  -4.425  1.00 20.00    -0.063 C 
HETATM    2  C2  UNL     1     -33.687  15.982  -3.145  1.00 20.00     0.088 C 
HETATM    3  C4  UNL     1     -33.414  15.456  -5.562  1.00 20.00     0.044 C 
HETATM    4  C5  UNL     1     -34.645  17.571  -4.786  1.00 20.00     0.108 C 
HETATM    5  C6  UNL     1     -35.857  15.562  -6.336  1.00 20.00     0.083 C 
HETATM    6  C7  UNL     1     -34.391  15.342  -6.768  1.00 20.00    -0.036 C 
HETATM    7  C8  UNL     1     -34.273  13.919  -7.360  1.00 20.00     0.016 C 
HETATM    8  C9  UNL     1     -33.990  16.328  -7.888  1.00 20.00     0.016 C 
HETATM    9  S12 UNL     1     -36.230  17.190  -5.590  1.00 20.00    -0.164 SA
ENDROOT
BRANCH   2  10
HETATM   10  C3  UNL     1     -34.177  16.854  -1.984  1.00 20.00     0.198 C 
HETATM   11  O10 UNL     1     -33.317  17.688  -1.574  1.00 20.00    -0.644 OA
HETATM   12  O11 UNL     1     -35.353  16.653  -1.569  1.00 20.00    -0.644 OA
ENDBRANCH   2  10
TORSDOF 1
ENDMDL
MODEL 8
REMARK VINA RESULT:      -3.9      2.659      3.895
REMARK  1 active torsions:
REMARK  status: ('A' for Active; 'I' for Inactive)
REMARK    1  A    between atoms: C2_2  and  C3_3 
ROOT
HETATM    1  C1  UNL     1     -35.576  14.959  -4.515  1.00 20.00    -0.063 C 
HETATM    2  C2  UNL     1     -34.394  15.253  -3.949  1.00 20.00     0.088 C 
HETATM    3  C4  UNL     1     -36.873  15.481  -3.941  1.00 20.00     0.044 C 
HETATM    4  C5  UNL     1     -35.663  14.114  -5.746  1.00 20.00     0.108 C 
HETATM    5  C6  UNL     1     -37.263  16.354  -6.321  1.00 20.00     0.083 C 
HETATM    6  C7  UNL     1     -37.928  15.922  -4.996  1.00 20.00    -0.036 C 
HETATM    7  C8  UNL     1     -38.707  17.132  -4.433  1.00 20.00     0.016 C 
HETATM    8  C9  UNL     1     -38.960  14.797  -5.235  1.00 20.00     0.016 C 
HETATM    9  S12 UNL     1     -36.270  15.072  -7.167  1.00 20.00    -0.164 SA
ENDROOT
BRANCH   2  10
HETATM   10  C3  UNL     1     -33.073  14.729  -4.522  1.00 20.00     0.198 C 
HETATM   11  O10 UNL     1     -32.520  15.523  -5.338  1.00 20.00    -0.644 OA
HETATM   12  O11 UNL     1     -32.687  13.592  -4.132  1.00 20.00    -0.644 OA
ENDBRANCH   2  10
TORSDOF 1
ENDMDL
MODEL 9
REMARK VINA RESULT:      -3.8      1.778      2.634
REMARK  1 active torsions:
REMARK  status: ('A' for Active; 'I' for Inactive)
REMARK    1  A    between atoms: C2_2  and  C3_3 
ROOT
HETATM    1  C1  UNL     1     -35.126  15.768  -6.002  1.00 20.00    -0.063 C 
HETATM    2  C2  UNL     1     -35.920  14.762  -6.401  1.00 20.00     0.088 C 
HETATM    3  C4  UNL     1     -35.536  17.211  -6.187  1.00 20.00     0.044 C 
HETATM    4  C5  UNL     1     -33.806  15.510  -5.347  1.00 20.00     0.108 C 
HETATM    5  C6  UNL     1     -35.064  17.386  -3.671  1.00 20.00     0.083 C 
HETATM    6  C7  UNL     1     -35.165  18.156  -5.007  1.00 20.00    -0.036 C 
HETATM    7  C8  UNL     1     -36.276  19.221  -4.864  1.00 20.00     0.016 C 
HETATM    8  C9  UNL     1     -33.853  18.915  -5.309  1.00 20.00     0.016 C 
HETATM    9  S12 UNL     1     -33.808  16.057  -3.613  1.00 20.00    -0.164 SA
ENDROOT
BRANCH   2  10
HETATM   10  C3  UNL     1     -35.515  13.295  -6.219  1.00 20.00     0.198 C 
HETATM   11  O10 UNL     1     -35.954  12.772  -5.153  1.00 20.00    -0.644 OA
HETATM   12  O11 UNL     1     -34.805  12.777  -7.126  1.00 20.00    -0.644 OA
ENDBRANCH   2  10
TORSDOF 1
ENDMDL
