MODEL 1
REMARK VINA RESULT:      -4.5      0.000      0.000
REMARK  2 active torsions:
REMARK  status: ('A' for Active; 'I' for Inactive)
REMARK    1  A    between atoms: C2_2  and  C3_3 
REMARK    2  A    between atoms: C3_3  and  C7_7 
ROOT
HETATM    1  C4  UNL     1     -34.320   5.699   5.134  1.00 20.00     0.084 C 
HETATM    2  C5  UNL     1     -34.997   5.774   3.773  1.00 20.00     0.085 C 
HETATM    3  C6  UNL     1     -32.628   7.767   4.411  1.00 20.00     0.097 C 
HETATM    4  C7  UNL     1     -33.309   7.847   3.050  1.00 20.00     0.131 C 
HETATM    5  S10 UNL     1     -33.781   7.325   5.744  1.00 20.00    -0.167 SA
HETATM    6  S11 UNL     1     -33.847   6.219   2.437  1.00 20.00    -0.155 SA
ENDROOT
BRANCH   4   7
HETATM    7  C3  UNL     1     -32.342   8.380   2.039  1.00 20.00     0.169 C 
HETATM    8  O9  UNL     1     -31.221   7.880   1.927  1.00 20.00    -0.291 OA
BRANCH   7   9
HETATM    9  C2  UNL     1     -32.742   9.527   1.159  1.00 20.00    -0.024 C 
HETATM   10  C1  UNL     1     -32.821  10.777   1.634  1.00 20.00     0.022 C 
HETATM   11  C8  UNL     1     -33.044   9.199  -0.273  1.00 20.00     0.051 C 
ENDBRANCH   7   9
ENDBRANCH   4   7
TORSDOF 2
ENDMDL
MODEL 2
REMARK VINA RESULT:      -3.9     10.253     11.264
REMARK  2 active torsions:
REMARK  status: ('A' for Active; 'I' for Inactive)
REMARK    1  A    between atoms: C2_2  and  C3_3 
REMARK    2  A    between atoms: C3_3  and  C7_7 
ROOT
HETATM    1  C4  UNL     1     -35.601  16.841  -2.198  1.00 20.00     0.084 C 
HETATM    2  C5  UNL     1     -36.665  17.045  -3.265  1.00 20.00     0.085 C 
HETATM    3  C6  UNL     1     -34.325  14.993  -3.816  1.00 20.00     0.097 C 
HETATM    4  C7  UNL     1     -35.387  15.201  -4.888  1.00 20.00     0.131 C 
HETATM    5  S10 UNL     1     -33.954  16.515  -2.895  1.00 20.00    -0.167 SA
HETATM    6  S11 UNL     1     -37.037  15.525  -4.190  1.00 20.00    -0.155 SA
ENDROOT
BRANCH   4   7
HETATM    7  C3  UNL     1     -35.515  13.958  -5.712  1.00 20.00     0.169 C 
HETATM    8  O9  UNL     1     -35.642  12.860  -5.166  1.00 20.00    -0.291 OA
BRANCH   7   9
HETATM    9  C2  UNL     1     -35.489  14.051  -7.209  1.00 20.00    -0.024 C 
HETATM   10  C1  UNL     1     -36.613  14.220  -7.918  1.00 20.00     0.022 C 
HETATM   11  C8  UNL     1     -34.143  13.948  -7.864  1.00 20.00     0.051 C 
ENDBRANCH   7   9
ENDBRANCH   4   7
TORSDOF 2
ENDMDL
MODEL 3
REMARK VINA RESULT:      -3.8     10.648     11.985
REMARK  2 active torsions:
REMARK  status: ('A' for Active; 'I' for Inactive)
REMARK    1  A    between atoms: C2_2  and  C3_3 
REMARK    2  A    between atoms: C3_3  and  C7_7 
ROOT
HETATM    1  C4  UNL     1     -38.862  16.009  -7.265  1.00 20.00     0.084 C 
HETATM    2  C5  UNL     1     -37.556  16.789  -7.231  1.00 20.00     0.085 C 
HETATM    3  C6  UNL     1     -37.914  14.327  -5.281  1.00 20.00     0.097 C 
HETATM    4  C7  UNL     1     -36.608  15.112  -5.242  1.00 20.00     0.131 C 
HETATM    5  S10 UNL     1     -39.352  15.382  -5.631  1.00 20.00    -0.167 SA
HETATM    6  S11 UNL     1     -36.115  15.738  -6.879  1.00 20.00    -0.155 SA
ENDROOT
BRANCH   4   7
HETATM    7  C3  UNL     1     -35.501  14.215  -4.783  1.00 20.00     0.169 C 
HETATM    8  O9  UNL     1     -35.569  12.999  -4.967  1.00 20.00    -0.291 OA
BRANCH   7   9
HETATM    9  C2  UNL     1     -34.304  14.803  -4.096  1.00 20.00    -0.024 C 
HETATM   10  C1  UNL     1     -33.066  14.357  -4.347  1.00 20.00     0.022 C 
HETATM   11  C8  UNL     1     -34.567  15.913  -3.122  1.00 20.00     0.051 C 
ENDBRANCH   7   9
ENDBRANCH   4   7
TORSDOF 2
ENDMDL
MODEL 4
REMARK VINA RESULT:      -3.7     10.390     11.434
REMARK  2 active torsions:
REMARK  status: ('A' for Active; 'I' for Inactive)
REMARK    1  A    between atoms: C2_2  and  C3_3 
REMARK    2  A    between atoms: C3_3  and  C7_7 
ROOT
HETATM    1  C4  UNL     1     -34.403  13.670  -7.123  1.00 20.00     0.084 C 
HETATM    2  C5  UNL     1     -34.010  15.128  -7.305  1.00 20.00     0.085 C 
HETATM    3  C6  UNL     1     -35.237  14.212  -4.539  1.00 20.00     0.097 C 
HETATM    4  C7  UNL     1     -34.849  15.674  -4.723  1.00 20.00     0.131 C 
HETATM    5  S10 UNL     1     -35.869  13.460  -6.069  1.00 20.00    -0.167 SA
HETATM    6  S11 UNL     1     -33.379  15.885  -5.777  1.00 20.00    -0.155 SA
ENDROOT
BRANCH   4   7
HETATM    7  C3  UNL     1     -34.502  16.269  -3.393  1.00 20.00     0.169 C 
HETATM    8  O9  UNL     1     -33.338  16.256  -2.991  1.00 20.00    -0.291 OA
BRANCH   7   9
HETATM    9  C2  UNL     1     -35.580  16.884  -2.550  1.00 20.00    -0.024 C 
HETATM   10  C1  UNL     1     -36.732  17.307  -3.089  1.00 20.00     0.022 C 
HETATM   11  C8  UNL     1     -35.300  16.996  -1.081  1.00 20.00     0.051 C 
ENDBRANCH   7   9
ENDBRANCH   4   7
TORSDOF 2
ENDMDL
MODEL 5
REMARK VINA RESULT:      -3.7     10.607     11.299
REMARK  2 active torsions:
REMARK  status: ('A' for Active; 'I' for Inactive)
REMARK    1  A    between atoms: C2_2  and  C3_3 
REMARK    2  A    between atoms: C3_3  and  C7_7 
ROOT
HETATM    1  C4  UNL     1     -37.511  14.328  -5.673  1.00 20.00     0.084 C 
HETATM    2  C5  UNL     1     -38.141  15.124  -4.541  1.00 20.00     0.085 C 
HETATM    3  C6  UNL     1     -34.992  15.089  -4.813  1.00 20.00     0.097 C 
HETATM    4  C7  UNL     1     -35.622  15.882  -3.675  1.00 20.00     0.131 C 
HETATM    5  S10 UNL     1     -35.921  13.578  -5.210  1.00 20.00    -0.167 SA
HETATM    6  S11 UNL     1     -37.214  16.636  -4.139  1.00 20.00    -0.155 SA
ENDROOT
BRANCH   4   7
HETATM    7  C3  UNL     1     -34.717  17.011  -3.293  1.00 20.00     0.169 C 
HETATM    8  O9  UNL     1     -34.224  17.734  -4.160  1.00 20.00    -0.291 OA
BRANCH   7   9
HETATM    9  C2  UNL     1     -34.411  17.263  -1.845  1.00 20.00    -0.024 C 
HETATM   10  C1  UNL     1     -35.330  17.060  -0.892  1.00 20.00     0.022 C 
HETATM   11  C8  UNL     1     -33.028  17.748  -1.527  1.00 20.00     0.051 C 
ENDBRANCH   7   9
ENDBRANCH   4   7
TORSDOF 2
ENDMDL
MODEL 6
REMARK VINA RESULT:      -3.6     10.615     11.749
REMARK  2 active torsions:
REMARK  status: ('A' for Active; 'I' for Inactive)
REMARK    1  A    between atoms: C2_2  and  C3_3 
REMARK    2  A    between atoms: C3_3  and  C7_7 
ROOT
HETATM    1  C4  UNL     1     -34.649  14.738  -7.704  1.00 20.00     0.084 C 
HETATM    2  C5  UNL     1     -34.461  13.713  -6.596  1.00 20.00     0.085 C 
HETATM    3  C6  UNL     1     -35.063  16.715  -5.810  1.00 20.00     0.097 C 
HETATM    4  C7  UNL     1     -34.869  15.690  -4.700  1.00 20.00     0.131 C 
HETATM    5  S10 UNL     1     -34.016  16.383  -7.259  1.00 20.00    -0.167 SA
HETATM    6  S11 UNL     1     -35.505  14.043  -5.145  1.00 20.00    -0.155 SA
ENDROOT
BRANCH   4   7
HETATM    7  C3  UNL     1     -35.629  16.121  -3.485  1.00 20.00     0.169 C 
HETATM    8  O9  UNL     1     -36.856  16.013  -3.447  1.00 20.00    -0.291 OA
BRANCH   7   9
HETATM    9  C2  UNL     1     -34.891  16.686  -2.307  1.00 20.00    -0.024 C 
HETATM   10  C1  UNL     1     -35.519  16.961  -1.156  1.00 20.00     0.022 C 
HETATM   11  C8  UNL     1     -33.421  16.921  -2.487  1.00 20.00     0.051 C 
ENDBRANCH   7   9
ENDBRANCH   4   7
TORSDOF 2
ENDMDL
MODEL 7
REMARK VINA RESULT:      -3.6     10.674     11.878
REMARK  2 active torsions:
REMARK  status: ('A' for Active; 'I' for Inactive)
REMARK    1  A    between atoms: C2_2  and  C3_3 
REMARK    2  A    between atoms: C3_3  and  C7_7 
ROOT
HETATM    1  C4  UNL     1     -33.975  16.522  -6.429  1.00 20.00     0.084 C 
HETATM    2  C5  UNL     1     -33.067  15.686  -5.541  1.00 20.00     0.085 C 
HETATM    3  C6  UNL     1     -34.790  17.985  -4.225  1.00 20.00     0.097 C 
HETATM    4  C7  UNL     1     -33.876  17.151  -3.335  1.00 20.00     0.131 C 
HETATM    5  S10 UNL     1     -34.097  18.252  -5.884  1.00 20.00    -0.167 SA
HETATM    6  S11 UNL     1     -33.755  15.418  -3.880  1.00 20.00    -0.155 SA
ENDROOT
BRANCH   4   7
HETATM    7  C3  UNL     1     -34.428  17.118  -1.944  1.00 20.00     0.169 C 
HETATM    8  O9  UNL     1     -35.449  16.475  -1.695  1.00 20.00    -0.291 OA
BRANCH   7   9
HETATM    9  C2  UNL     1     -33.732  17.872  -0.849  1.00 20.00    -0.024 C 
HETATM   10  C1  UNL     1     -32.479  18.323  -1.000  1.00 20.00     0.022 C 
HETATM   11  C8  UNL     1     -34.512  18.094   0.412  1.00 20.00     0.051 C 
ENDBRANCH   7   9
ENDBRANCH   4   7
TORSDOF 2
ENDMDL
MODEL 8
REMARK VINA RESULT:      -3.6     10.636     11.788
REMARK  2 active torsions:
REMARK  status: ('A' for Active; 'I' for Inactive)
REMARK    1  A    between atoms: C2_2  and  C3_3 
REMARK    2  A    between atoms: C3_3  and  C7_7 
ROOT
HETATM    1  C4  UNL     1     -34.491  14.934  -6.237  1.00 20.00     0.084 C 
HETATM    2  C5  UNL     1     -35.129  16.306  -6.397  1.00 20.00     0.085 C 
HETATM    3  C6  UNL     1     -33.565  15.652  -3.729  1.00 20.00     0.097 C 
HETATM    4  C7  UNL     1     -34.208  17.024  -3.886  1.00 20.00     0.131 C 
HETATM    5  S10 UNL     1     -34.532  14.333  -4.522  1.00 20.00    -0.167 SA
HETATM    6  S11 UNL     1     -34.166  17.628  -5.603  1.00 20.00    -0.155 SA
ENDROOT
BRANCH   4   7
HETATM    7  C3  UNL     1     -33.453  18.026  -3.069  1.00 20.00     0.169 C 
HETATM    8  O9  UNL     1     -32.839  18.941  -3.619  1.00 20.00    -0.291 OA
BRANCH   7   9
HETATM    9  C2  UNL     1     -33.446  17.912  -1.572  1.00 20.00    -0.024 C 
HETATM   10  C1  UNL     1     -32.372  18.258  -0.851  1.00 20.00     0.022 C 
HETATM   11  C8  UNL     1     -34.701  17.395  -0.934  1.00 20.00     0.051 C 
ENDBRANCH   7   9
ENDBRANCH   4   7
TORSDOF 2
ENDMDL
MODEL 9
REMARK VINA RESULT:      -3.5     10.507     11.576
REMARK  2 active torsions:
REMARK  status: ('A' for Active; 'I' for Inactive)
REMARK    1  A    between atoms: C2_2  and  C3_3 
REMARK    2  A    between atoms: C3_3  and  C7_7 
ROOT
HETATM    1  C4  UNL     1     -34.683  17.677  -3.427  1.00 20.00     0.084 C 
HETATM    2  C5  UNL     1     -34.033  16.412  -2.889  1.00 20.00     0.085 C 
HETATM    3  C6  UNL     1     -36.291  16.150  -5.085  1.00 20.00     0.097 C 
HETATM    4  C7  UNL     1     -35.643  14.882  -4.543  1.00 20.00     0.131 C 
HETATM    5  S10 UNL     1     -36.443  17.451  -3.824  1.00 20.00    -0.167 SA
HETATM    6  S11 UNL     1     -33.880  15.107  -4.146  1.00 20.00    -0.155 SA
ENDROOT
BRANCH   4   7
HETATM    7  C3  UNL     1     -35.708  13.806  -5.581  1.00 20.00     0.169 C 
HETATM    8  O9  UNL     1     -35.844  12.628  -5.247  1.00 20.00    -0.291 OA
BRANCH   7   9
HETATM    9  C2  UNL     1     -35.607  14.166  -7.034  1.00 20.00    -0.024 C 
HETATM   10  C1  UNL     1     -36.700  14.374  -7.779  1.00 20.00     0.022 C 
HETATM   11  C8  UNL     1     -34.223  14.284  -7.601  1.00 20.00     0.051 C 
ENDBRANCH   7   9
ENDBRANCH   4   7
TORSDOF 2
ENDMDL
