MODEL 1
REMARK VINA RESULT:      -4.1      0.000      0.000
REMARK  0 active torsions:
REMARK  status: ('A' for Active; 'I' for Inactive)
ROOT
HETATM    1  C1  UNL     1     -32.546   8.583   1.892  1.00 20.00     0.088 C 
HETATM    2  C2  UNL     1     -32.956   7.044   3.699  1.00 20.00    -0.057 C 
HETATM    3  C3  UNL     1     -32.955   8.297   3.217  1.00 20.00     0.097 C 
HETATM    4  C4  UNL     1     -32.515   5.892   2.823  1.00 20.00     0.037 C 
HETATM    5  C5  UNL     1     -33.632   4.867   2.619  1.00 20.00     0.014 C 
HETATM    6  C6  UNL     1     -34.153   4.276   3.924  1.00 20.00     0.075 C 
HETATM    7  C7  UNL     1     -33.356   6.655   5.109  1.00 20.00     0.072 C 
HETATM    8  C8  UNL     1     -33.679   7.802   6.068  1.00 20.00     0.026 C 
HETATM    9  N9  UNL     1     -32.213   8.826   0.807  1.00 20.00    -0.192 NA
HETATM   10  S10 UNL     1     -34.823   5.557   5.029  1.00 20.00    -0.160 SA
ENDROOT
TORSDOF 0
ENDMDL
MODEL 2
REMARK VINA RESULT:      -4.0     11.919     13.214
REMARK  0 active torsions:
REMARK  status: ('A' for Active; 'I' for Inactive)
ROOT
HETATM    1  C1  UNL     1     -35.519  13.848  -5.586  1.00 20.00     0.088 C 
HETATM    2  C2  UNL     1     -34.237  15.869  -5.320  1.00 20.00    -0.057 C 
HETATM    3  C3  UNL     1     -35.078  15.113  -6.043  1.00 20.00     0.097 C 
HETATM    4  C4  UNL     1     -33.735  15.379  -3.980  1.00 20.00     0.037 C 
HETATM    5  C5  UNL     1     -34.143  16.312  -2.839  1.00 20.00     0.014 C 
HETATM    6  C6  UNL     1     -33.642  17.740  -3.020  1.00 20.00     0.075 C 
HETATM    7  C7  UNL     1     -33.700  17.222  -5.745  1.00 20.00     0.072 C 
HETATM    8  C8  UNL     1     -34.075  17.695  -7.151  1.00 20.00     0.026 C 
HETATM    9  N9  UNL     1     -35.885  12.810  -5.218  1.00 20.00    -0.192 NA
HETATM   10  S10 UNL     1     -34.275  18.491  -4.551  1.00 20.00    -0.160 SA
ENDROOT
TORSDOF 0
ENDMDL
MODEL 3
REMARK VINA RESULT:      -4.0     11.842     12.367
REMARK  0 active torsions:
REMARK  status: ('A' for Active; 'I' for Inactive)
ROOT
HETATM    1  C1  UNL     1     -34.127  16.986  -1.955  1.00 20.00     0.088 C 
HETATM    2  C2  UNL     1     -34.869  15.594  -3.775  1.00 20.00    -0.057 C 
HETATM    3  C3  UNL     1     -35.149  16.420  -2.754  1.00 20.00     0.097 C 
HETATM    4  C4  UNL     1     -33.433  15.246  -4.100  1.00 20.00     0.037 C 
HETATM    5  C5  UNL     1     -33.042  15.686  -5.511  1.00 20.00     0.014 C 
HETATM    6  C6  UNL     1     -33.918  15.073  -6.598  1.00 20.00     0.075 C 
HETATM    7  C7  UNL     1     -35.903  14.929  -4.664  1.00 20.00     0.072 C 
HETATM    8  C8  UNL     1     -37.369  15.145  -4.287  1.00 20.00     0.026 C 
HETATM    9  N9  UNL     1     -33.295  17.454  -1.296  1.00 20.00    -0.192 NA
HETATM   10  S10 UNL     1     -35.670  15.515  -6.387  1.00 20.00    -0.160 SA
ENDROOT
TORSDOF 0
ENDMDL
MODEL 4
REMARK VINA RESULT:      -4.0     11.581     12.719
REMARK  0 active torsions:
REMARK  status: ('A' for Active; 'I' for Inactive)
ROOT
HETATM    1  C1  UNL     1     -35.366  13.750  -4.703  1.00 20.00     0.088 C 
HETATM    2  C2  UNL     1     -35.538  15.879  -3.592  1.00 20.00    -0.057 C 
HETATM    3  C3  UNL     1     -34.802  14.822  -3.971  1.00 20.00     0.097 C 
HETATM    4  C4  UNL     1     -37.007  15.949  -3.946  1.00 20.00     0.037 C 
HETATM    5  C5  UNL     1     -37.329  17.162  -4.820  1.00 20.00     0.014 C 
HETATM    6  C6  UNL     1     -36.950  18.490  -4.172  1.00 20.00     0.075 C 
HETATM    7  C7  UNL     1     -35.019  17.056  -2.788  1.00 20.00     0.072 C 
HETATM    8  C8  UNL     1     -33.575  16.962  -2.293  1.00 20.00     0.026 C 
HETATM    9  N9  UNL     1     -35.820  12.867  -5.304  1.00 20.00    -0.192 NA
HETATM   10  S10 UNL     1     -35.172  18.579  -3.799  1.00 20.00    -0.160 SA
ENDROOT
TORSDOF 0
ENDMDL
MODEL 5
REMARK VINA RESULT:      -3.9     11.642     13.136
REMARK  0 active torsions:
REMARK  status: ('A' for Active; 'I' for Inactive)
ROOT
HETATM    1  C1  UNL     1     -35.399  13.763  -4.711  1.00 20.00     0.088 C 
HETATM    2  C2  UNL     1     -35.113  16.103  -4.216  1.00 20.00    -0.057 C 
HETATM    3  C3  UNL     1     -34.805  14.818  -3.977  1.00 20.00     0.097 C 
HETATM    4  C4  UNL     1     -36.116  16.457  -5.292  1.00 20.00     0.037 C 
HETATM    5  C5  UNL     1     -35.498  17.326  -6.388  1.00 20.00     0.014 C 
HETATM    6  C6  UNL     1     -34.909  18.630  -5.863  1.00 20.00     0.075 C 
HETATM    7  C7  UNL     1     -34.541  17.288  -3.463  1.00 20.00     0.072 C 
HETATM    8  C8  UNL     1     -33.627  16.969  -2.279  1.00 20.00     0.026 C 
HETATM    9  N9  UNL     1     -35.881  12.893  -5.308  1.00 20.00    -0.192 NA
HETATM   10  S10 UNL     1     -33.599  18.338  -4.636  1.00 20.00    -0.160 SA
ENDROOT
TORSDOF 0
ENDMDL
MODEL 6
REMARK VINA RESULT:      -3.9     11.597     12.214
REMARK  0 active torsions:
REMARK  status: ('A' for Active; 'I' for Inactive)
ROOT
HETATM    1  C1  UNL     1     -34.342  16.602  -2.269  1.00 20.00     0.088 C 
HETATM    2  C2  UNL     1     -34.333  18.121  -0.400  1.00 20.00    -0.057 C 
HETATM    3  C3  UNL     1     -34.900  17.104  -1.069  1.00 20.00     0.097 C 
HETATM    4  C4  UNL     1     -33.065  18.761  -0.922  1.00 20.00     0.037 C 
HETATM    5  C5  UNL     1     -31.908  18.631   0.070  1.00 20.00     0.014 C 
HETATM    6  C6  UNL     1     -32.208  19.251   1.431  1.00 20.00     0.075 C 
HETATM    7  C7  UNL     1     -34.877  18.732   0.877  1.00 20.00     0.072 C 
HETATM    8  C8  UNL     1     -36.228  18.206   1.364  1.00 20.00     0.026 C 
HETATM    9  N9  UNL     1     -33.890  16.184  -3.254  1.00 20.00    -0.192 NA
HETATM   10  S10 UNL     1     -33.655  18.483   2.222  1.00 20.00    -0.160 SA
ENDROOT
TORSDOF 0
ENDMDL
MODEL 7
REMARK VINA RESULT:      -3.8      1.351      2.703
REMARK  0 active torsions:
REMARK  status: ('A' for Active; 'I' for Inactive)
ROOT
HETATM    1  C1  UNL     1     -31.950   8.289   2.687  1.00 20.00     0.088 C 
HETATM    2  C2  UNL     1     -33.393   6.451   3.273  1.00 20.00    -0.057 C 
HETATM    3  C3  UNL     1     -32.351   6.935   2.578  1.00 20.00     0.097 C 
HETATM    4  C4  UNL     1     -34.172   7.355   4.203  1.00 20.00     0.037 C 
HETATM    5  C5  UNL     1     -34.119   6.868   5.652  1.00 20.00     0.014 C 
HETATM    6  C6  UNL     1     -34.657   5.452   5.832  1.00 20.00     0.075 C 
HETATM    7  C7  UNL     1     -33.901   5.024   3.197  1.00 20.00     0.072 C 
HETATM    8  C8  UNL     1     -33.229   4.114   2.169  1.00 20.00     0.026 C 
HETATM    9  N9  UNL     1     -31.614   9.396   2.772  1.00 20.00    -0.192 NA
HETATM   10  S10 UNL     1     -33.723   4.242   4.846  1.00 20.00    -0.160 SA
ENDROOT
TORSDOF 0
ENDMDL
MODEL 8
REMARK VINA RESULT:      -3.8     11.901     12.550
REMARK  0 active torsions:
REMARK  status: ('A' for Active; 'I' for Inactive)
ROOT
HETATM    1  C1  UNL     1     -31.154  18.692   0.867  1.00 20.00     0.088 C 
HETATM    2  C2  UNL     1     -33.242  18.635  -0.334  1.00 20.00    -0.057 C 
HETATM    3  C3  UNL     1     -31.911  18.456  -0.306  1.00 20.00     0.097 C 
HETATM    4  C4  UNL     1     -33.972  19.098   0.908  1.00 20.00     0.037 C 
HETATM    5  C5  UNL     1     -35.011  18.078   1.375  1.00 20.00     0.014 C 
HETATM    6  C6  UNL     1     -36.062  17.760   0.317  1.00 20.00     0.075 C 
HETATM    7  C7  UNL     1     -34.122  18.427  -1.551  1.00 20.00     0.072 C 
HETATM    8  C8  UNL     1     -33.408  18.090  -2.861  1.00 20.00     0.026 C 
HETATM    9  N9  UNL     1     -30.527  18.883   1.824  1.00 20.00    -0.192 NA
HETATM   10  S10 UNL     1     -35.317  17.080  -1.196  1.00 20.00    -0.160 SA
ENDROOT
TORSDOF 0
ENDMDL
MODEL 9
REMARK VINA RESULT:      -3.8     12.097     12.483
REMARK  0 active torsions:
REMARK  status: ('A' for Active; 'I' for Inactive)
ROOT
HETATM    1  C1  UNL     1     -32.234  18.421  -0.031  1.00 20.00     0.088 C 
HETATM    2  C2  UNL     1     -34.336  17.684  -0.948  1.00 20.00    -0.057 C 
HETATM    3  C3  UNL     1     -33.648  18.349  -0.006  1.00 20.00     0.097 C 
HETATM    4  C4  UNL     1     -33.604  16.989  -2.075  1.00 20.00     0.037 C 
HETATM    5  C5  UNL     1     -33.996  17.548  -3.444  1.00 20.00     0.014 C 
HETATM    6  C6  UNL     1     -35.489  17.442  -3.733  1.00 20.00     0.075 C 
HETATM    7  C7  UNL     1     -35.845  17.539  -0.983  1.00 20.00     0.072 C 
HETATM    8  C8  UNL     1     -36.614  18.110   0.209  1.00 20.00     0.026 C 
HETATM    9  N9  UNL     1     -31.076  18.486  -0.045  1.00 20.00    -0.192 NA
HETATM   10  S10 UNL     1     -36.484  18.341  -2.504  1.00 20.00    -0.160 SA
ENDROOT
TORSDOF 0
ENDMDL
