MODEL 1
REMARK VINA RESULT:      -4.3      0.000      0.000
REMARK  3 active torsions:
REMARK  status: ('A' for Active; 'I' for Inactive)
REMARK    1  A    between atoms: C4_4  and  C7_7 
REMARK    2  A    between atoms: C4_4  and  O9_9 
REMARK    3  A    between atoms: C7_7  and  C8_8 
ROOT
HETATM    1  C1  UNL     1     -32.895   6.160   2.981  1.00 20.00     0.053 C 
HETATM    2  C2  UNL     1     -32.573   8.000   4.557  1.00 20.00     0.112 C 
HETATM    3  C3  UNL     1     -34.176   5.971   3.786  1.00 20.00     0.046 C 
HETATM    4  C4  UNL     1     -32.494   7.636   3.074  1.00 20.00     0.067 C 
HETATM    5  C5  UNL     1     -34.406   4.525   4.191  1.00 20.00     0.021 C 
HETATM    6  S10 UNL     1     -33.958   7.042   5.243  1.00 20.00    -0.162 SA
ENDROOT
BRANCH   4   7
HETATM    7  C7  UNL     1     -33.367   8.542   2.204  1.00 20.00     0.038 C 
BRANCH   7   8
HETATM    8  C8  UNL     1     -32.516   9.483   1.358  1.00 20.00    -0.002 C 
HETATM    9  C6  UNL     1     -32.939   9.446  -0.103  1.00 20.00     0.005 C 
ENDBRANCH   7   8
ENDBRANCH   4   7
BRANCH   4  10
HETATM   10  O9  UNL     1     -31.153   7.788   2.614  1.00 20.00    -0.389 OA
HETATM   11  H26 UNL     1     -31.143   7.487   1.693  1.00 20.00     0.210 HD
ENDBRANCH   4  10
TORSDOF 3
ENDMDL
MODEL 2
REMARK VINA RESULT:      -4.0     10.760     11.728
REMARK  3 active torsions:
REMARK  status: ('A' for Active; 'I' for Inactive)
REMARK    1  A    between atoms: C4_4  and  C7_7 
REMARK    2  A    between atoms: C4_4  and  O9_9 
REMARK    3  A    between atoms: C7_7  and  C8_8 
ROOT
HETATM    1  C1  UNL     1     -35.158  14.699  -3.977  1.00 20.00     0.053 C 
HETATM    2  C2  UNL     1     -34.328  14.142  -6.208  1.00 20.00     0.112 C 
HETATM    3  C3  UNL     1     -34.477  16.029  -4.284  1.00 20.00     0.046 C 
HETATM    4  C4  UNL     1     -35.563  14.060  -5.309  1.00 20.00     0.067 C 
HETATM    5  C5  UNL     1     -33.604  16.517  -3.140  1.00 20.00     0.021 C 
HETATM    6  S10 UNL     1     -33.490  15.698  -5.779  1.00 20.00    -0.162 SA
ENDROOT
BRANCH   4   7
HETATM    7  C7  UNL     1     -36.787  14.728  -5.939  1.00 20.00     0.038 C 
BRANCH   7   8
HETATM    8  C8  UNL     1     -38.067  14.337  -5.208  1.00 20.00    -0.002 C 
HETATM    9  C6  UNL     1     -38.717  15.545  -4.550  1.00 20.00     0.005 C 
ENDBRANCH   7   8
ENDBRANCH   4   7
BRANCH   4  10
HETATM   10  O9  UNL     1     -35.905  12.693  -5.089  1.00 20.00    -0.389 OA
HETATM   11  H26 UNL     1     -36.684  12.513  -5.637  1.00 20.00     0.210 HD
ENDBRANCH   4  10
TORSDOF 3
ENDMDL
MODEL 3
REMARK VINA RESULT:      -3.9     10.918     12.225
REMARK  3 active torsions:
REMARK  status: ('A' for Active; 'I' for Inactive)
REMARK    1  A    between atoms: C4_4  and  C7_7 
REMARK    2  A    between atoms: C4_4  and  O9_9 
REMARK    3  A    between atoms: C7_7  and  C8_8 
ROOT
HETATM    1  C1  UNL     1     -33.238  15.869  -5.861  1.00 20.00     0.053 C 
HETATM    2  C2  UNL     1     -34.778  13.975  -5.994  1.00 20.00     0.112 C 
HETATM    3  C3  UNL     1     -34.374  16.575  -6.593  1.00 20.00     0.046 C 
HETATM    4  C4  UNL     1     -33.845  14.726  -5.042  1.00 20.00     0.067 C 
HETATM    5  C5  UNL     1     -33.891  17.374  -7.792  1.00 20.00     0.021 C 
HETATM    6  S10 UNL     1     -35.493  15.229  -7.099  1.00 20.00    -0.162 SA
ENDROOT
BRANCH   4   7
HETATM    7  C7  UNL     1     -34.568  15.216  -3.785  1.00 20.00     0.038 C 
BRANCH   7   8
HETATM    8  C8  UNL     1     -33.755  16.286  -3.063  1.00 20.00    -0.002 C 
HETATM    9  C6  UNL     1     -34.519  16.849  -1.874  1.00 20.00     0.005 C 
ENDBRANCH   7   8
ENDBRANCH   4   7
BRANCH   4  10
HETATM   10  O9  UNL     1     -32.803  13.855  -4.606  1.00 20.00    -0.389 OA
HETATM   11  H26 UNL     1     -33.235  13.119  -4.146  1.00 20.00     0.210 HD
ENDBRANCH   4  10
TORSDOF 3
ENDMDL
MODEL 4
REMARK VINA RESULT:      -3.9     10.803     11.616
REMARK  3 active torsions:
REMARK  status: ('A' for Active; 'I' for Inactive)
REMARK    1  A    between atoms: C4_4  and  C7_7 
REMARK    2  A    between atoms: C4_4  and  O9_9 
REMARK    3  A    between atoms: C7_7  and  C8_8 
ROOT
HETATM    1  C1  UNL     1     -33.783  14.927  -3.988  1.00 20.00     0.053 C 
HETATM    2  C2  UNL     1     -34.846  15.852  -5.986  1.00 20.00     0.112 C 
HETATM    3  C3  UNL     1     -34.538  16.067  -3.314  1.00 20.00     0.046 C 
HETATM    4  C4  UNL     1     -34.551  14.540  -5.256  1.00 20.00     0.067 C 
HETATM    5  C5  UNL     1     -33.663  16.864  -2.360  1.00 20.00     0.021 C 
HETATM    6  S10 UNL     1     -35.127  17.100  -4.694  1.00 20.00    -0.162 SA
ENDROOT
BRANCH   4   7
HETATM    7  C7  UNL     1     -35.821  13.741  -4.958  1.00 20.00     0.038 C 
BRANCH   7   8
HETATM    8  C8  UNL     1     -36.951  14.123  -5.909  1.00 20.00    -0.002 C 
HETATM    9  C6  UNL     1     -38.211  14.499  -5.144  1.00 20.00     0.005 C 
ENDBRANCH   7   8
ENDBRANCH   4   7
BRANCH   4  10
HETATM   10  O9  UNL     1     -33.724  13.713  -6.073  1.00 20.00    -0.389 OA
HETATM   11  H26 UNL     1     -33.930  13.941  -6.992  1.00 20.00     0.210 HD
ENDBRANCH   4  10
TORSDOF 3
ENDMDL
MODEL 5
REMARK VINA RESULT:      -3.8     10.241     11.555
REMARK  3 active torsions:
REMARK  status: ('A' for Active; 'I' for Inactive)
REMARK    1  A    between atoms: C4_4  and  C7_7 
REMARK    2  A    between atoms: C4_4  and  O9_9 
REMARK    3  A    between atoms: C7_7  and  C8_8 
ROOT
HETATM    1  C1  UNL     1     -33.971  14.841  -6.367  1.00 20.00     0.053 C 
HETATM    2  C2  UNL     1     -34.714  13.964  -4.209  1.00 20.00     0.112 C 
HETATM    3  C3  UNL     1     -35.463  15.105  -6.537  1.00 20.00     0.046 C 
HETATM    4  C4  UNL     1     -33.659  14.856  -4.866  1.00 20.00     0.067 C 
HETATM    5  C5  UNL     1     -35.990  14.634  -7.882  1.00 20.00     0.021 C 
HETATM    6  S10 UNL     1     -36.243  14.197  -5.164  1.00 20.00    -0.162 SA
ENDROOT
BRANCH   4   7
HETATM    7  C7  UNL     1     -33.643  16.269  -4.279  1.00 20.00     0.038 C 
BRANCH   7   8
HETATM    8  C8  UNL     1     -34.176  16.280  -2.851  1.00 20.00    -0.002 C 
HETATM    9  C6  UNL     1     -33.455  17.315  -2.001  1.00 20.00     0.005 C 
ENDBRANCH   7   8
ENDBRANCH   4   7
BRANCH   4  10
HETATM   10  O9  UNL     1     -32.362  14.303  -4.650  1.00 20.00    -0.389 OA
HETATM   11  H26 UNL     1     -32.062  14.635  -3.790  1.00 20.00     0.210 HD
ENDBRANCH   4  10
TORSDOF 3
ENDMDL
MODEL 6
REMARK VINA RESULT:      -3.8     11.195     11.799
REMARK  3 active torsions:
REMARK  status: ('A' for Active; 'I' for Inactive)
REMARK    1  A    between atoms: C4_4  and  C7_7 
REMARK    2  A    between atoms: C4_4  and  O9_9 
REMARK    3  A    between atoms: C7_7  and  C8_8 
ROOT
HETATM    1  C1  UNL     1     -35.743  14.246  -4.954  1.00 20.00     0.053 C 
HETATM    2  C2  UNL     1     -35.797  16.662  -5.324  1.00 20.00     0.112 C 
HETATM    3  C3  UNL     1     -34.680  14.314  -6.045  1.00 20.00     0.046 C 
HETATM    4  C4  UNL     1     -35.758  15.595  -4.228  1.00 20.00     0.067 C 
HETATM    5  C5  UNL     1     -34.891  13.275  -7.134  1.00 20.00     0.021 C 
HETATM    6  S10 UNL     1     -34.818  16.006  -6.707  1.00 20.00    -0.162 SA
ENDROOT
BRANCH   4   7
HETATM    7  C7  UNL     1     -34.568  15.773  -3.284  1.00 20.00     0.038 C 
BRANCH   7   8
HETATM    8  C8  UNL     1     -34.948  16.608  -2.066  1.00 20.00    -0.002 C 
HETATM    9  C6  UNL     1     -33.744  17.353  -1.511  1.00 20.00     0.005 C 
ENDBRANCH   7   8
ENDBRANCH   4   7
BRANCH   4  10
HETATM   10  O9  UNL     1     -36.937  15.685  -3.429  1.00 20.00    -0.389 OA
HETATM   11  H26 UNL     1     -37.496  14.935  -3.680  1.00 20.00     0.210 HD
ENDBRANCH   4  10
TORSDOF 3
ENDMDL
MODEL 7
REMARK VINA RESULT:      -3.8     10.534     11.883
REMARK  3 active torsions:
REMARK  status: ('A' for Active; 'I' for Inactive)
REMARK    1  A    between atoms: C4_4  and  C7_7 
REMARK    2  A    between atoms: C4_4  and  O9_9 
REMARK    3  A    between atoms: C7_7  and  C8_8 
ROOT
HETATM    1  C1  UNL     1     -35.210  15.547  -6.143  1.00 20.00     0.053 C 
HETATM    2  C2  UNL     1     -36.088  13.369  -5.463  1.00 20.00     0.112 C 
HETATM    3  C3  UNL     1     -36.555  16.023  -5.604  1.00 20.00     0.046 C 
HETATM    4  C4  UNL     1     -34.842  14.253  -5.409  1.00 20.00     0.067 C 
HETATM    5  C5  UNL     1     -37.263  16.974  -6.555  1.00 20.00     0.021 C 
HETATM    6  S10 UNL     1     -37.513  14.493  -5.362  1.00 20.00    -0.162 SA
ENDROOT
BRANCH   4   7
HETATM    7  C7  UNL     1     -34.365  14.501  -3.976  1.00 20.00     0.038 C 
BRANCH   7   8
HETATM    8  C8  UNL     1     -33.450  15.718  -3.901  1.00 20.00    -0.002 C 
HETATM    9  C6  UNL     1     -33.849  16.639  -2.758  1.00 20.00     0.005 C 
ENDBRANCH   7   8
ENDBRANCH   4   7
BRANCH   4  10
HETATM   10  O9  UNL     1     -33.769  13.613  -6.097  1.00 20.00    -0.389 OA
HETATM   11  H26 UNL     1     -33.142  13.321  -5.417  1.00 20.00     0.210 HD
ENDBRANCH   4  10
TORSDOF 3
ENDMDL
MODEL 8
REMARK VINA RESULT:      -3.7     10.896     11.543
REMARK  3 active torsions:
REMARK  status: ('A' for Active; 'I' for Inactive)
REMARK    1  A    between atoms: C4_4  and  C7_7 
REMARK    2  A    between atoms: C4_4  and  O9_9 
REMARK    3  A    between atoms: C7_7  and  C8_8 
ROOT
HETATM    1  C1  UNL     1     -35.623  15.916  -3.877  1.00 20.00     0.053 C 
HETATM    2  C2  UNL     1     -33.549  16.989  -4.600  1.00 20.00     0.112 C 
HETATM    3  C3  UNL     1     -34.818  14.650  -4.153  1.00 20.00     0.046 C 
HETATM    4  C4  UNL     1     -34.635  17.033  -3.524  1.00 20.00     0.067 C 
HETATM    5  C5  UNL     1     -35.590  13.634  -4.978  1.00 20.00     0.021 C 
HETATM    6  S10 UNL     1     -33.339  15.237  -5.039  1.00 20.00    -0.162 SA
ENDROOT
BRANCH   4   7
HETATM    7  C7  UNL     1     -34.064  16.892  -2.112  1.00 20.00     0.038 C 
BRANCH   7   8
HETATM    8  C8  UNL     1     -35.157  17.027  -1.057  1.00 20.00    -0.002 C 
HETATM    9  C6  UNL     1     -34.732  17.966   0.061  1.00 20.00     0.005 C 
ENDBRANCH   7   8
ENDBRANCH   4   7
BRANCH   4  10
HETATM   10  O9  UNL     1     -35.309  18.289  -3.575  1.00 20.00    -0.389 OA
HETATM   11  H26 UNL     1     -35.169  18.710  -2.713  1.00 20.00     0.210 HD
ENDBRANCH   4  10
TORSDOF 3
ENDMDL
MODEL 9
REMARK VINA RESULT:      -3.7     11.028     11.623
REMARK  3 active torsions:
REMARK  status: ('A' for Active; 'I' for Inactive)
REMARK    1  A    between atoms: C4_4  and  C7_7 
REMARK    2  A    between atoms: C4_4  and  O9_9 
REMARK    3  A    between atoms: C7_7  and  C8_8 
ROOT
HETATM    1  C1  UNL     1     -33.700  16.412  -3.379  1.00 20.00     0.053 C 
HETATM    2  C2  UNL     1     -35.362  16.619  -5.160  1.00 20.00     0.112 C 
HETATM    3  C3  UNL     1     -34.949  16.250  -2.519  1.00 20.00     0.046 C 
HETATM    4  C4  UNL     1     -34.041  15.939  -4.796  1.00 20.00     0.067 C 
HETATM    5  C5  UNL     1     -34.916  17.116  -1.271  1.00 20.00     0.021 C 
HETATM    6  S10 UNL     1     -36.321  16.723  -3.619  1.00 20.00    -0.162 SA
ENDROOT
BRANCH   4   7
HETATM    7  C7  UNL     1     -34.120  14.415  -4.909  1.00 20.00     0.038 C 
BRANCH   7   8
HETATM    8  C8  UNL     1     -35.158  13.990  -5.942  1.00 20.00    -0.002 C 
HETATM    9  C6  UNL     1     -34.496  13.542  -7.236  1.00 20.00     0.005 C 
ENDBRANCH   7   8
ENDBRANCH   4   7
BRANCH   4  10
HETATM   10  O9  UNL     1     -33.018  16.368  -5.693  1.00 20.00    -0.389 OA
HETATM   11  H26 UNL     1     -33.339  17.185  -6.104  1.00 20.00     0.210 HD
ENDBRANCH   4  10
TORSDOF 3
ENDMDL
