MODEL 1
REMARK VINA RESULT:      -4.8      0.000      0.000
REMARK  5 active torsions:
REMARK  status: ('A' for Active; 'I' for Inactive)
REMARK    1  A    between atoms: C1_1  and  C5_5 
REMARK    2  A    between atoms: C2_2  and  C6_6 
REMARK    3  A    between atoms: C5_5  and  O8_8 
REMARK    4  A    between atoms: C6_6  and  S9_9 
REMARK    5  A    between atoms: C7_7  and  O8_8 
ROOT
HETATM    1  C1  UNL     1     -32.711   7.522   2.349  1.00 20.00    -0.004 C 
HETATM    2  C2  UNL     1     -32.217   8.735   2.057  1.00 20.00    -0.019 C 
ENDROOT
BRANCH   1   3
HETATM    3  C5  UNL     1     -33.274   7.156   3.684  1.00 20.00     0.195 C 
BRANCH   3   4
HETATM    4  O8  UNL     1     -34.414   6.330   3.487  1.00 20.00    -0.383 OA
BRANCH   4   5
HETATM    5  C7  UNL     1     -34.821   5.705   4.697  1.00 20.00     0.113 C 
HETATM    6  C3  UNL     1     -34.392   4.246   4.677  1.00 20.00     0.039 C 
HETATM    7  C4  UNL     1     -34.222   6.457   5.875  1.00 20.00     0.039 C 
ENDBRANCH   4   5
ENDBRANCH   3   4
ENDBRANCH   1   3
BRANCH   2   8
HETATM    8  C6  UNL     1     -31.662   9.103   0.718  1.00 20.00     0.097 C 
BRANCH   8   9
HETATM    9  S9  UNL     1     -33.011   9.435  -0.447  1.00 20.00    -0.178 SA
HETATM   10  H23 UNL     1     -33.494   8.186  -0.470  1.00 20.00     0.101 HD
ENDBRANCH   8   9
ENDBRANCH   2   8
TORSDOF 5
ENDMDL
MODEL 2
REMARK VINA RESULT:      -4.7      0.914      1.074
REMARK  5 active torsions:
REMARK  status: ('A' for Active; 'I' for Inactive)
REMARK    1  A    between atoms: C1_1  and  C5_5 
REMARK    2  A    between atoms: C2_2  and  C6_6 
REMARK    3  A    between atoms: C5_5  and  O8_8 
REMARK    4  A    between atoms: C6_6  and  S9_9 
REMARK    5  A    between atoms: C7_7  and  O8_8 
ROOT
HETATM    1  C1  UNL     1     -32.674   6.509   2.568  1.00 20.00    -0.004 C 
HETATM    2  C2  UNL     1     -32.866   7.835   2.501  1.00 20.00    -0.019 C 
ENDROOT
BRANCH   1   3
HETATM    3  C5  UNL     1     -33.699   5.549   3.078  1.00 20.00     0.195 C 
BRANCH   3   4
HETATM    4  O8  UNL     1     -34.736   6.284   3.714  1.00 20.00    -0.383 OA
BRANCH   4   5
HETATM    5  C7  UNL     1     -34.839   5.954   5.093  1.00 20.00     0.113 C 
HETATM    6  C3  UNL     1     -34.428   4.503   5.293  1.00 20.00     0.039 C 
HETATM    7  C4  UNL     1     -33.972   6.906   5.902  1.00 20.00     0.039 C 
ENDBRANCH   4   5
ENDBRANCH   3   4
ENDBRANCH   1   3
BRANCH   2   8
HETATM    8  C6  UNL     1     -31.843   8.795   1.980  1.00 20.00     0.097 C 
BRANCH   8   9
HETATM    9  S9  UNL     1     -32.601   9.930   0.788  1.00 20.00    -0.178 SA
HETATM   10  H23 UNL     1     -32.012  11.040   1.250  1.00 20.00     0.101 HD
ENDBRANCH   8   9
ENDBRANCH   2   8
TORSDOF 5
ENDMDL
MODEL 3
REMARK VINA RESULT:      -4.7      3.055      5.243
REMARK  5 active torsions:
REMARK  status: ('A' for Active; 'I' for Inactive)
REMARK    1  A    between atoms: C1_1  and  C5_5 
REMARK    2  A    between atoms: C2_2  and  C6_6 
REMARK    3  A    between atoms: C5_5  and  O8_8 
REMARK    4  A    between atoms: C6_6  and  S9_9 
REMARK    5  A    between atoms: C7_7  and  O8_8 
ROOT
HETATM    1  C1  UNL     1     -32.779   7.170   2.689  1.00 20.00    -0.004 C 
HETATM    2  C2  UNL     1     -33.787   7.014   3.561  1.00 20.00    -0.019 C 
ENDROOT
BRANCH   1   3
HETATM    3  C5  UNL     1     -32.036   8.453   2.502  1.00 20.00     0.195 C 
BRANCH   3   4
HETATM    4  O8  UNL     1     -31.573   8.520   1.160  1.00 20.00    -0.383 OA
BRANCH   4   5
HETATM    5  C7  UNL     1     -32.102   9.653   0.483  1.00 20.00     0.113 C 
HETATM    6  C3  UNL     1     -33.130   9.190  -0.538  1.00 20.00     0.039 C 
HETATM    7  C4  UNL     1     -32.703  10.610   1.500  1.00 20.00     0.039 C 
ENDBRANCH   4   5
ENDBRANCH   3   4
ENDBRANCH   1   3
BRANCH   2   8
HETATM    8  C6  UNL     1     -34.524   5.727   3.754  1.00 20.00     0.097 C 
BRANCH   8   9
HETATM    9  S9  UNL     1     -34.551   5.281   5.511  1.00 20.00    -0.178 SA
HETATM   10  H23 UNL     1     -33.843   4.151   5.385  1.00 20.00     0.101 HD
ENDBRANCH   8   9
ENDBRANCH   2   8
TORSDOF 5
ENDMDL
MODEL 4
REMARK VINA RESULT:      -4.7      3.077      5.301
REMARK  5 active torsions:
REMARK  status: ('A' for Active; 'I' for Inactive)
REMARK    1  A    between atoms: C1_1  and  C5_5 
REMARK    2  A    between atoms: C2_2  and  C6_6 
REMARK    3  A    between atoms: C5_5  and  O8_8 
REMARK    4  A    between atoms: C6_6  and  S9_9 
REMARK    5  A    between atoms: C7_7  and  O8_8 
ROOT
HETATM    1  C1  UNL     1     -32.754   7.028   2.908  1.00 20.00    -0.004 C 
HETATM    2  C2  UNL     1     -33.837   7.023   3.700  1.00 20.00    -0.019 C 
ENDROOT
BRANCH   1   3
HETATM    3  C5  UNL     1     -31.816   8.185   2.794  1.00 20.00     0.195 C 
BRANCH   3   4
HETATM    4  O8  UNL     1     -31.706   8.550   1.425  1.00 20.00    -0.383 OA
BRANCH   4   5
HETATM    5  C7  UNL     1     -32.801   9.356   1.011  1.00 20.00     0.113 C 
HETATM    6  C3  UNL     1     -32.558  10.793   1.447  1.00 20.00     0.039 C 
HETATM    7  C4  UNL     1     -32.968   9.241  -0.496  1.00 20.00     0.039 C 
ENDBRANCH   4   5
ENDBRANCH   3   4
ENDBRANCH   1   3
BRANCH   2   8
HETATM    8  C6  UNL     1     -34.770   5.860   3.821  1.00 20.00     0.097 C 
BRANCH   8   9
HETATM    9  S9  UNL     1     -34.577   5.070   5.441  1.00 20.00    -0.178 SA
HETATM   10  H23 UNL     1     -33.844   4.034   5.011  1.00 20.00     0.101 HD
ENDBRANCH   8   9
ENDBRANCH   2   8
TORSDOF 5
ENDMDL
MODEL 5
REMARK VINA RESULT:      -3.5     10.916     11.298
REMARK  5 active torsions:
REMARK  status: ('A' for Active; 'I' for Inactive)
REMARK    1  A    between atoms: C1_1  and  C5_5 
REMARK    2  A    between atoms: C2_2  and  C6_6 
REMARK    3  A    between atoms: C5_5  and  O8_8 
REMARK    4  A    between atoms: C6_6  and  S9_9 
REMARK    5  A    between atoms: C7_7  and  O8_8 
ROOT
HETATM    1  C1  UNL     1     -33.590  15.486  -3.762  1.00 20.00    -0.004 C 
HETATM    2  C2  UNL     1     -34.443  16.171  -2.985  1.00 20.00    -0.019 C 
ENDROOT
BRANCH   1   3
HETATM    3  C5  UNL     1     -34.019  14.631  -4.910  1.00 20.00     0.195 C 
BRANCH   3   4
HETATM    4  O8  UNL     1     -34.862  13.598  -4.419  1.00 20.00    -0.383 OA
BRANCH   4   5
HETATM    5  C7  UNL     1     -35.929  13.324  -5.318  1.00 20.00     0.113 C 
HETATM    6  C3  UNL     1     -37.060  14.310  -5.069  1.00 20.00     0.039 C 
HETATM    7  C4  UNL     1     -35.413  13.402  -6.747  1.00 20.00     0.039 C 
ENDBRANCH   4   5
ENDBRANCH   3   4
ENDBRANCH   1   3
BRANCH   2   8
HETATM    8  C6  UNL     1     -34.013  17.034  -1.842  1.00 20.00     0.097 C 
BRANCH   8   9
HETATM    9  S9  UNL     1     -35.420  17.374  -0.750  1.00 20.00    -0.178 SA
HETATM   10  H23 UNL     1     -34.760  18.181   0.090  1.00 20.00     0.101 HD
ENDBRANCH   8   9
ENDBRANCH   2   8
TORSDOF 5
ENDMDL
MODEL 6
REMARK VINA RESULT:      -3.4     11.077     11.568
REMARK  5 active torsions:
REMARK  status: ('A' for Active; 'I' for Inactive)
REMARK    1  A    between atoms: C1_1  and  C5_5 
REMARK    2  A    between atoms: C2_2  and  C6_6 
REMARK    3  A    between atoms: C5_5  and  O8_8 
REMARK    4  A    between atoms: C6_6  and  S9_9 
REMARK    5  A    between atoms: C7_7  and  O8_8 
ROOT
HETATM    1  C1  UNL     1     -34.177  15.713  -3.436  1.00 20.00    -0.004 C 
HETATM    2  C2  UNL     1     -33.826  16.636  -2.527  1.00 20.00    -0.019 C 
ENDROOT
BRANCH   1   3
HETATM    3  C5  UNL     1     -33.283  15.258  -4.543  1.00 20.00     0.195 C 
BRANCH   3   4
HETATM    4  O8  UNL     1     -33.745  13.999  -5.014  1.00 20.00    -0.383 OA
BRANCH   4   5
HETATM    5  C7  UNL     1     -34.834  14.149  -5.915  1.00 20.00     0.113 C 
HETATM    6  C3  UNL     1     -34.417  13.655  -7.292  1.00 20.00     0.039 C 
HETATM    7  C4  UNL     1     -36.036  13.387  -5.379  1.00 20.00     0.039 C 
ENDBRANCH   4   5
ENDBRANCH   3   4
ENDBRANCH   1   3
BRANCH   2   8
HETATM    8  C6  UNL     1     -34.719  17.084  -1.414  1.00 20.00     0.097 C 
BRANCH   8   9
HETATM    9  S9  UNL     1     -33.868  18.311  -0.386  1.00 20.00    -0.178 SA
HETATM   10  H23 UNL     1     -33.524  17.466   0.594  1.00 20.00     0.101 HD
ENDBRANCH   8   9
ENDBRANCH   2   8
TORSDOF 5
ENDMDL
MODEL 7
REMARK VINA RESULT:      -3.2     10.881     11.662
REMARK  5 active torsions:
REMARK  status: ('A' for Active; 'I' for Inactive)
REMARK    1  A    between atoms: C1_1  and  C5_5 
REMARK    2  A    between atoms: C2_2  and  C6_6 
REMARK    3  A    between atoms: C5_5  and  O8_8 
REMARK    4  A    between atoms: C6_6  and  S9_9 
REMARK    5  A    between atoms: C7_7  and  O8_8 
ROOT
HETATM    1  C1  UNL     1     -35.119  16.927  -1.588  1.00 20.00    -0.004 C 
HETATM    2  C2  UNL     1     -34.070  17.502  -0.981  1.00 20.00    -0.019 C 
ENDROOT
BRANCH   1   3
HETATM    3  C5  UNL     1     -35.018  16.154  -2.863  1.00 20.00     0.195 C 
BRANCH   3   4
HETATM    4  O8  UNL     1     -33.690  16.265  -3.358  1.00 20.00    -0.383 OA
BRANCH   4   5
HETATM    5  C7  UNL     1     -33.360  15.176  -4.210  1.00 20.00     0.113 C 
HETATM    6  C3  UNL     1     -34.503  14.173  -4.208  1.00 20.00     0.039 C 
HETATM    7  C4  UNL     1     -33.068  15.702  -5.607  1.00 20.00     0.039 C 
ENDBRANCH   4   5
ENDBRANCH   3   4
ENDBRANCH   1   3
BRANCH   2   8
HETATM    8  C6  UNL     1     -34.171  18.267   0.301  1.00 20.00     0.097 C 
BRANCH   8   9
HETATM    9  S9  UNL     1     -32.583  19.053   0.686  1.00 20.00    -0.178 SA
HETATM   10  H23 UNL     1     -31.814  18.085   0.171  1.00 20.00     0.101 HD
ENDBRANCH   8   9
ENDBRANCH   2   8
TORSDOF 5
ENDMDL
MODEL 8
REMARK VINA RESULT:      -3.2     10.972     11.518
REMARK  5 active torsions:
REMARK  status: ('A' for Active; 'I' for Inactive)
REMARK    1  A    between atoms: C1_1  and  C5_5 
REMARK    2  A    between atoms: C2_2  and  C6_6 
REMARK    3  A    between atoms: C5_5  and  O8_8 
REMARK    4  A    between atoms: C6_6  and  S9_9 
REMARK    5  A    between atoms: C7_7  and  O8_8 
ROOT
HETATM    1  C1  UNL     1     -34.088  17.114  -1.696  1.00 20.00    -0.004 C 
HETATM    2  C2  UNL     1     -35.308  16.981  -1.155  1.00 20.00    -0.019 C 
ENDROOT
BRANCH   1   3
HETATM    3  C5  UNL     1     -33.711  16.569  -3.036  1.00 20.00     0.195 C 
BRANCH   3   4
HETATM    4  O8  UNL     1     -34.831  15.884  -3.580  1.00 20.00    -0.383 OA
BRANCH   4   5
HETATM    5  C7  UNL     1     -34.446  15.010  -4.633  1.00 20.00     0.113 C 
HETATM    6  C3  UNL     1     -33.034  14.506  -4.375  1.00 20.00     0.039 C 
HETATM    7  C4  UNL     1     -35.447  13.869  -4.730  1.00 20.00     0.039 C 
ENDBRANCH   4   5
ENDBRANCH   3   4
ENDBRANCH   1   3
BRANCH   2   8
HETATM    8  C6  UNL     1     -35.686  17.534   0.182  1.00 20.00     0.097 C 
BRANCH   8   9
HETATM    9  S9  UNL     1     -37.154  18.588   0.029  1.00 20.00    -0.178 SA
HETATM   10  H23 UNL     1     -36.830  19.117  -1.157  1.00 20.00     0.101 HD
ENDBRANCH   8   9
ENDBRANCH   2   8
TORSDOF 5
ENDMDL
MODEL 9
REMARK VINA RESULT:      -3.1     10.964     11.510
REMARK  5 active torsions:
REMARK  status: ('A' for Active; 'I' for Inactive)
REMARK    1  A    between atoms: C1_1  and  C5_5 
REMARK    2  A    between atoms: C2_2  and  C6_6 
REMARK    3  A    between atoms: C5_5  and  O8_8 
REMARK    4  A    between atoms: C6_6  and  S9_9 
REMARK    5  A    between atoms: C7_7  and  O8_8 
ROOT
HETATM    1  C1  UNL     1     -35.076  15.375  -3.918  1.00 20.00    -0.004 C 
HETATM    2  C2  UNL     1     -34.844  14.164  -4.449  1.00 20.00    -0.019 C 
ENDROOT
BRANCH   1   3
HETATM    3  C5  UNL     1     -34.083  16.119  -3.086  1.00 20.00     0.195 C 
BRANCH   3   4
HETATM    4  O8  UNL     1     -34.466  17.486  -3.032  1.00 20.00    -0.383 OA
BRANCH   4   5
HETATM    5  C7  UNL     1     -34.325  18.016  -1.720  1.00 20.00     0.113 C 
HETATM    6  C3  UNL     1     -35.192  17.216  -0.761  1.00 20.00     0.039 C 
HETATM    7  C4  UNL     1     -32.857  17.982  -1.321  1.00 20.00     0.039 C 
ENDBRANCH   4   5
ENDBRANCH   3   4
ENDBRANCH   1   3
BRANCH   2   8
HETATM    8  C6  UNL     1     -35.835  13.425  -5.290  1.00 20.00     0.097 C 
BRANCH   8   9
HETATM    9  S9  UNL     1     -35.257  13.339  -7.007  1.00 20.00    -0.178 SA
HETATM   10  H23 UNL     1     -35.873  12.190  -7.310  1.00 20.00     0.101 HD
ENDBRANCH   8   9
ENDBRANCH   2   8
TORSDOF 5
ENDMDL
