MODEL 1
REMARK VINA RESULT:      -4.5      0.000      0.000
REMARK  5 active torsions:
REMARK  status: ('A' for Active; 'I' for Inactive)
REMARK    1  A    between atoms: C4_4  and  C6_6 
REMARK    2  A    between atoms: C4_4  and  O8_8 
REMARK    3  A    between atoms: C5_5  and  C6_6 
REMARK    4  A    between atoms: C5_5  and  S9_9 
REMARK    5  A    between atoms: C7_7  and  O8_8 
ROOT
HETATM    1  C4  UNL     1     -33.232   6.459   3.021  1.00 20.00     0.173 C 
ENDROOT
BRANCH   1   2
HETATM    2  C6  UNL     1     -32.724   7.898   2.866  1.00 20.00     0.014 C 
HETATM    3  C1  UNL     1     -31.495   8.153   3.747  1.00 20.00     0.012 C 
BRANCH   2   4
HETATM    4  C5  UNL     1     -32.486   8.273   1.392  1.00 20.00     0.077 C 
BRANCH   4   5
HETATM    5  S9  UNL     1     -32.638  10.043   0.997  1.00 20.00    -0.182 SA
HETATM    6  H25 UNL     1     -31.474  10.407   1.553  1.00 20.00     0.101 HD
ENDBRANCH   4   5
ENDBRANCH   2   4
ENDBRANCH   1   2
BRANCH   1   7
HETATM    7  O8  UNL     1     -34.606   6.472   3.392  1.00 20.00    -0.386 OA
BRANCH   7   8
HETATM    8  C7  UNL     1     -34.843   5.666   4.537  1.00 20.00     0.113 C 
HETATM    9  C2  UNL     1     -34.246   4.286   4.309  1.00 20.00     0.039 C 
HETATM   10  C3  UNL     1     -34.248   6.346   5.760  1.00 20.00     0.039 C 
ENDBRANCH   7   8
ENDBRANCH   1   7
TORSDOF 5
ENDMDL
MODEL 2
REMARK VINA RESULT:      -4.4      2.809      4.826
REMARK  5 active torsions:
REMARK  status: ('A' for Active; 'I' for Inactive)
REMARK    1  A    between atoms: C4_4  and  C6_6 
REMARK    2  A    between atoms: C4_4  and  O8_8 
REMARK    3  A    between atoms: C5_5  and  C6_6 
REMARK    4  A    between atoms: C5_5  and  S9_9 
REMARK    5  A    between atoms: C7_7  and  O8_8 
ROOT
HETATM    1  C4  UNL     1     -31.936   8.097   2.928  1.00 20.00     0.173 C 
ENDROOT
BRANCH   1   2
HETATM    2  C6  UNL     1     -33.193   7.245   3.148  1.00 20.00     0.014 C 
HETATM    3  C1  UNL     1     -33.010   5.828   2.593  1.00 20.00     0.012 C 
BRANCH   2   4
HETATM    4  C5  UNL     1     -33.646   7.252   4.620  1.00 20.00     0.077 C 
BRANCH   4   5
HETATM    5  S9  UNL     1     -34.538   5.765   5.174  1.00 20.00    -0.182 SA
HETATM    6  H25 UNL     1     -34.422   6.017   6.485  1.00 20.00     0.101 HD
ENDBRANCH   4   5
ENDBRANCH   2   4
ENDBRANCH   1   2
BRANCH   1   7
HETATM    7  O8  UNL     1     -31.797   8.399   1.545  1.00 20.00    -0.386 OA
BRANCH   7   8
HETATM    8  C7  UNL     1     -32.828   9.266   1.095  1.00 20.00     0.113 C 
HETATM    9  C2  UNL     1     -32.501  10.691   1.516  1.00 20.00     0.039 C 
HETATM   10  C3  UNL     1     -32.966   9.139  -0.414  1.00 20.00     0.039 C 
ENDBRANCH   7   8
ENDBRANCH   1   7
TORSDOF 5
ENDMDL
MODEL 3
REMARK VINA RESULT:      -4.4      0.677      1.327
REMARK  5 active torsions:
REMARK  status: ('A' for Active; 'I' for Inactive)
REMARK    1  A    between atoms: C4_4  and  C6_6 
REMARK    2  A    between atoms: C4_4  and  O8_8 
REMARK    3  A    between atoms: C5_5  and  C6_6 
REMARK    4  A    between atoms: C5_5  and  S9_9 
REMARK    5  A    between atoms: C7_7  and  O8_8 
ROOT
HETATM    1  C4  UNL     1     -33.051   6.666   2.783  1.00 20.00     0.173 C 
ENDROOT
BRANCH   1   2
HETATM    2  C6  UNL     1     -32.489   8.092   2.710  1.00 20.00     0.014 C 
HETATM    3  C1  UNL     1     -31.303   8.272   3.664  1.00 20.00     0.012 C 
BRANCH   2   4
HETATM    4  C5  UNL     1     -32.159   8.511   1.266  1.00 20.00     0.077 C 
BRANCH   4   5
HETATM    5  S9  UNL     1     -32.673  10.194   0.800  1.00 20.00    -0.182 SA
HETATM    6  H25 UNL     1     -31.644  10.426  -0.027  1.00 20.00     0.101 HD
ENDBRANCH   4   5
ENDBRANCH   2   4
ENDBRANCH   1   2
BRANCH   1   7
HETATM    7  O8  UNL     1     -34.185   6.639   3.642  1.00 20.00    -0.386 OA
BRANCH   7   8
HETATM    8  C7  UNL     1     -33.865   6.078   4.907  1.00 20.00     0.113 C 
HETATM    9  C2  UNL     1     -33.946   7.162   5.971  1.00 20.00     0.039 C 
HETATM   10  C3  UNL     1     -34.817   4.927   5.199  1.00 20.00     0.039 C 
ENDBRANCH   7   8
ENDBRANCH   1   7
TORSDOF 5
ENDMDL
MODEL 4
REMARK VINA RESULT:      -4.4      2.384      4.507
REMARK  5 active torsions:
REMARK  status: ('A' for Active; 'I' for Inactive)
REMARK    1  A    between atoms: C4_4  and  C6_6 
REMARK    2  A    between atoms: C4_4  and  O8_8 
REMARK    3  A    between atoms: C5_5  and  C6_6 
REMARK    4  A    between atoms: C5_5  and  S9_9 
REMARK    5  A    between atoms: C7_7  and  O8_8 
ROOT
HETATM    1  C4  UNL     1     -32.620   7.315   2.974  1.00 20.00     0.173 C 
ENDROOT
BRANCH   1   2
HETATM    2  C6  UNL     1     -33.651   6.179   2.987  1.00 20.00     0.014 C 
HETATM    3  C1  UNL     1     -32.994   4.827   2.687  1.00 20.00     0.012 C 
BRANCH   2   4
HETATM    4  C5  UNL     1     -34.477   6.163   4.287  1.00 20.00     0.077 C 
BRANCH   4   5
HETATM    5  S9  UNL     1     -33.776   7.110   5.674  1.00 20.00    -0.182 SA
HETATM    6  H25 UNL     1     -34.190   8.309   5.245  1.00 20.00     0.101 HD
ENDBRANCH   4   5
ENDBRANCH   2   4
ENDBRANCH   1   2
BRANCH   1   7
HETATM    7  O8  UNL     1     -33.158   8.444   2.295  1.00 20.00    -0.386 OA
BRANCH   7   8
HETATM    8  C7  UNL     1     -32.131   9.265   1.757  1.00 20.00     0.113 C 
HETATM    9  C2  UNL     1     -31.403   8.502   0.662  1.00 20.00     0.039 C 
HETATM   10  C3  UNL     1     -32.745  10.556   1.236  1.00 20.00     0.039 C 
ENDBRANCH   7   8
ENDBRANCH   1   7
TORSDOF 5
ENDMDL
MODEL 5
REMARK VINA RESULT:      -4.2      2.823      4.690
REMARK  5 active torsions:
REMARK  status: ('A' for Active; 'I' for Inactive)
REMARK    1  A    between atoms: C4_4  and  C6_6 
REMARK    2  A    between atoms: C4_4  and  O8_8 
REMARK    3  A    between atoms: C5_5  and  C6_6 
REMARK    4  A    between atoms: C5_5  and  S9_9 
REMARK    5  A    between atoms: C7_7  and  O8_8 
ROOT
HETATM    1  C4  UNL     1     -33.080   8.067   2.156  1.00 20.00     0.173 C 
ENDROOT
BRANCH   1   2
HETATM    2  C6  UNL     1     -32.775   7.016   3.232  1.00 20.00     0.014 C 
HETATM    3  C1  UNL     1     -32.991   7.583   4.640  1.00 20.00     0.012 C 
BRANCH   2   4
HETATM    4  C5  UNL     1     -33.546   5.705   2.994  1.00 20.00     0.077 C 
BRANCH   4   5
HETATM    5  S9  UNL     1     -34.686   5.212   4.325  1.00 20.00    -0.182 SA
HETATM    6  H25 UNL     1     -34.704   3.909   4.013  1.00 20.00     0.101 HD
ENDBRANCH   4   5
ENDBRANCH   2   4
ENDBRANCH   1   2
BRANCH   1   7
HETATM    7  O8  UNL     1     -31.874   8.451   1.505  1.00 20.00    -0.386 OA
BRANCH   7   8
HETATM    8  C7  UNL     1     -32.079   9.562   0.644  1.00 20.00     0.113 C 
HETATM    9  C2  UNL     1     -33.007   9.151  -0.489  1.00 20.00     0.039 C 
HETATM   10  C3  UNL     1     -32.646  10.721   1.448  1.00 20.00     0.039 C 
ENDBRANCH   7   8
ENDBRANCH   1   7
TORSDOF 5
ENDMDL
MODEL 6
REMARK VINA RESULT:      -4.0      1.011      1.048
REMARK  5 active torsions:
REMARK  status: ('A' for Active; 'I' for Inactive)
REMARK    1  A    between atoms: C4_4  and  C6_6 
REMARK    2  A    between atoms: C4_4  and  O8_8 
REMARK    3  A    between atoms: C5_5  and  C6_6 
REMARK    4  A    between atoms: C5_5  and  S9_9 
REMARK    5  A    between atoms: C7_7  and  O8_8 
ROOT
HETATM    1  C4  UNL     1     -33.743   6.143   3.103  1.00 20.00     0.173 C 
ENDROOT
BRANCH   1   2
HETATM    2  C6  UNL     1     -33.231   7.571   3.333  1.00 20.00     0.014 C 
HETATM    3  C1  UNL     1     -32.903   7.815   4.810  1.00 20.00     0.012 C 
BRANCH   2   4
HETATM    4  C5  UNL     1     -32.059   7.923   2.397  1.00 20.00     0.077 C 
BRANCH   4   5
HETATM    5  S9  UNL     1     -32.413   9.190   1.139  1.00 20.00    -0.182 SA
HETATM    6  H25 UNL     1     -33.314   9.860   1.870  1.00 20.00     0.101 HD
ENDBRANCH   4   5
ENDBRANCH   2   4
ENDBRANCH   1   2
BRANCH   1   7
HETATM    7  O8  UNL     1     -34.969   5.955   3.799  1.00 20.00    -0.386 OA
BRANCH   7   8
HETATM    8  C7  UNL     1     -34.951   4.762   4.571  1.00 20.00     0.113 C 
HETATM    9  C2  UNL     1     -33.908   3.814   4.002  1.00 20.00     0.039 C 
HETATM   10  C3  UNL     1     -34.666   5.111   6.024  1.00 20.00     0.039 C 
ENDBRANCH   7   8
ENDBRANCH   1   7
TORSDOF 5
ENDMDL
MODEL 7
REMARK VINA RESULT:      -3.9      0.859      1.286
REMARK  5 active torsions:
REMARK  status: ('A' for Active; 'I' for Inactive)
REMARK    1  A    between atoms: C4_4  and  C6_6 
REMARK    2  A    between atoms: C4_4  and  O8_8 
REMARK    3  A    between atoms: C5_5  and  C6_6 
REMARK    4  A    between atoms: C5_5  and  S9_9 
REMARK    5  A    between atoms: C7_7  and  O8_8 
ROOT
HETATM    1  C4  UNL     1     -33.699   7.335   4.020  1.00 20.00     0.173 C 
ENDROOT
BRANCH   1   2
HETATM    2  C6  UNL     1     -32.471   7.153   3.119  1.00 20.00     0.014 C 
HETATM    3  C1  UNL     1     -32.800   6.288   1.897  1.00 20.00     0.012 C 
BRANCH   2   4
HETATM    4  C5  UNL     1     -31.828   8.500   2.739  1.00 20.00     0.077 C 
BRANCH   4   5
HETATM    5  S9  UNL     1     -32.300   9.162   1.110  1.00 20.00    -0.182 SA
HETATM    6  H25 UNL     1     -31.455   8.400   0.403  1.00 20.00     0.101 HD
ENDBRANCH   4   5
ENDBRANCH   2   4
ENDBRANCH   1   2
BRANCH   1   7
HETATM    7  O8  UNL     1     -34.693   6.376   3.678  1.00 20.00    -0.386 OA
BRANCH   7   8
HETATM    8  C7  UNL     1     -34.942   5.479   4.751  1.00 20.00     0.113 C 
HETATM    9  C2  UNL     1     -34.310   4.133   4.434  1.00 20.00     0.039 C 
HETATM   10  C3  UNL     1     -34.391   6.074   6.038  1.00 20.00     0.039 C 
ENDBRANCH   7   8
ENDBRANCH   1   7
TORSDOF 5
ENDMDL
MODEL 8
REMARK VINA RESULT:      -3.7      2.868      4.771
REMARK  5 active torsions:
REMARK  status: ('A' for Active; 'I' for Inactive)
REMARK    1  A    between atoms: C4_4  and  C6_6 
REMARK    2  A    between atoms: C4_4  and  O8_8 
REMARK    3  A    between atoms: C5_5  and  C6_6 
REMARK    4  A    between atoms: C5_5  and  S9_9 
REMARK    5  A    between atoms: C7_7  and  O8_8 
ROOT
HETATM    1  C4  UNL     1     -33.126   7.224   2.646  1.00 20.00     0.173 C 
ENDROOT
BRANCH   1   2
HETATM    2  C6  UNL     1     -33.269   6.783   4.108  1.00 20.00     0.014 C 
HETATM    3  C1  UNL     1     -33.097   7.968   5.066  1.00 20.00     0.012 C 
BRANCH   2   4
HETATM    4  C5  UNL     1     -34.574   6.004   4.353  1.00 20.00     0.077 C 
BRANCH   4   5
HETATM    5  S9  UNL     1     -34.388   4.205   4.558  1.00 20.00    -0.182 SA
HETATM    6  H25 UNL     1     -35.391   4.064   5.436  1.00 20.00     0.101 HD
ENDBRANCH   4   5
ENDBRANCH   2   4
ENDBRANCH   1   2
BRANCH   1   7
HETATM    7  O8  UNL     1     -32.435   8.466   2.583  1.00 20.00    -0.386 OA
BRANCH   7   8
HETATM    8  C7  UNL     1     -32.521   9.046   1.289  1.00 20.00     0.113 C 
HETATM    9  C2  UNL     1     -32.750  10.543   1.426  1.00 20.00     0.039 C 
HETATM   10  C3  UNL     1     -31.249   8.736   0.517  1.00 20.00     0.039 C 
ENDBRANCH   7   8
ENDBRANCH   1   7
TORSDOF 5
ENDMDL
MODEL 9
REMARK VINA RESULT:      -3.6      1.455      1.861
REMARK  5 active torsions:
REMARK  status: ('A' for Active; 'I' for Inactive)
REMARK    1  A    between atoms: C4_4  and  C6_6 
REMARK    2  A    between atoms: C4_4  and  O8_8 
REMARK    3  A    between atoms: C5_5  and  C6_6 
REMARK    4  A    between atoms: C5_5  and  S9_9 
REMARK    5  A    between atoms: C7_7  and  O8_8 
ROOT
HETATM    1  C4  UNL     1     -32.609   7.522   2.449  1.00 20.00     0.173 C 
ENDROOT
BRANCH   1   2
HETATM    2  C6  UNL     1     -31.993   8.787   1.836  1.00 20.00     0.014 C 
HETATM    3  C1  UNL     1     -30.963   8.437   0.756  1.00 20.00     0.012 C 
BRANCH   2   4
HETATM    4  C5  UNL     1     -33.068   9.770   1.338  1.00 20.00     0.077 C 
BRANCH   4   5
HETATM    5  S9  UNL     1     -33.356   9.773  -0.460  1.00 20.00    -0.182 SA
HETATM    6  H25 UNL     1     -33.172   8.456  -0.629  1.00 20.00     0.101 HD
ENDBRANCH   4   5
ENDBRANCH   2   4
ENDBRANCH   1   2
BRANCH   1   7
HETATM    7  O8  UNL     1     -32.653   7.647   3.866  1.00 20.00    -0.386 OA
BRANCH   7   8
HETATM    8  C7  UNL     1     -33.898   7.208   4.388  1.00 20.00     0.113 C 
HETATM    9  C2  UNL     1     -34.259   5.869   3.762  1.00 20.00     0.039 C 
HETATM   10  C3  UNL     1     -33.801   7.116   5.903  1.00 20.00     0.039 C 
ENDBRANCH   7   8
ENDBRANCH   1   7
TORSDOF 5
ENDMDL
