MODEL 1
REMARK VINA RESULT:      -3.5      0.000      0.000
REMARK  5 active torsions:
REMARK  status: ('A' for Active; 'I' for Inactive)
REMARK    1  A    between atoms: C5_5  and  C8_8 
REMARK    2  A    between atoms: C5_5  and  N9_9 
REMARK    3  A    between atoms: C6_6  and  C8_8 
REMARK    4  A    between atoms: C6_6  and  S10_10 
REMARK    5  A    between atoms: C7_7  and  C8_8 
ROOT
HETATM    1  C8  UNL     1     -34.849  16.042  -3.773  1.00 20.00     0.024 C 
ENDROOT
BRANCH   1   2
HETATM    2  C5  UNL     1     -34.501  14.583  -4.144  1.00 20.00     0.239 C 
BRANCH   2   3
HETATM    3  N9  UNL     1     -33.686  14.510  -5.379  1.00 20.00    -0.078 N 
HETATM    4  C3  UNL     1     -34.419  13.851  -6.523  1.00 20.00     0.269 C 
HETATM    5  C4  UNL     1     -33.129  15.852  -5.790  1.00 20.00     0.269 C 
HETATM    6  H29 UNL     1     -32.865  13.909  -5.183  1.00 20.00     0.278 HD
ENDBRANCH   2   3
ENDBRANCH   1   2
BRANCH   1   7
HETATM    7  C6  UNL     1     -36.361  16.362  -3.900  1.00 20.00     0.077 C 
BRANCH   7   8
HETATM    8  S10 UNL     1     -37.373  15.023  -4.610  1.00 20.00    -0.182 SA
HETATM    9  H30 UNL     1     -36.421  14.552  -5.425  1.00 20.00     0.101 HD
ENDBRANCH   7   8
ENDBRANCH   1   7
BRANCH   1  10
HETATM   10  C7  UNL     1     -34.333  16.453  -2.351  1.00 20.00    -0.016 C 
HETATM   11  C1  UNL     1     -35.467  16.894  -1.415  1.00 20.00     0.010 C 
HETATM   12  C2  UNL     1     -33.298  17.586  -2.413  1.00 20.00     0.010 C 
ENDBRANCH   1  10
TORSDOF 5
ENDMDL
MODEL 2
REMARK VINA RESULT:      -3.4      1.912      2.163
REMARK  5 active torsions:
REMARK  status: ('A' for Active; 'I' for Inactive)
REMARK    1  A    between atoms: C5_5  and  C8_8 
REMARK    2  A    between atoms: C5_5  and  N9_9 
REMARK    3  A    between atoms: C6_6  and  C8_8 
REMARK    4  A    between atoms: C6_6  and  S10_10 
REMARK    5  A    between atoms: C7_7  and  C8_8 
ROOT
HETATM    1  C8  UNL     1     -33.788  16.686  -3.242  1.00 20.00     0.024 C 
ENDROOT
BRANCH   1   2
HETATM    2  C5  UNL     1     -35.010  15.816  -3.613  1.00 20.00     0.239 C 
BRANCH   2   3
HETATM    3  N9  UNL     1     -34.611  14.438  -3.981  1.00 20.00    -0.078 N 
HETATM    4  C3  UNL     1     -35.548  13.808  -4.984  1.00 20.00     0.269 C 
HETATM    5  C4  UNL     1     -33.177  14.351  -4.446  1.00 20.00     0.269 C 
HETATM    6  H29 UNL     1     -34.670  13.851  -3.129  1.00 20.00     0.278 HD
ENDBRANCH   2   3
ENDBRANCH   1   2
BRANCH   1   7
HETATM    7  C6  UNL     1     -33.667  17.970  -4.103  1.00 20.00     0.077 C 
BRANCH   7   8
HETATM    8  S10 UNL     1     -34.154  17.775  -5.847  1.00 20.00    -0.182 SA
HETATM    9  H30 UNL     1     -32.909  17.629  -6.319  1.00 20.00     0.101 HD
ENDBRANCH   7   8
ENDBRANCH   1   7
BRANCH   1  10
HETATM   10  C7  UNL     1     -33.739  17.055  -1.719  1.00 20.00    -0.016 C 
HETATM   11  C1  UNL     1     -35.136  17.161  -1.092  1.00 20.00     0.010 C 
HETATM   12  C2  UNL     1     -33.001  18.379  -1.465  1.00 20.00     0.010 C 
ENDBRANCH   1  10
TORSDOF 5
ENDMDL
MODEL 3
REMARK VINA RESULT:      -3.4      2.109      3.051
REMARK  5 active torsions:
REMARK  status: ('A' for Active; 'I' for Inactive)
REMARK    1  A    between atoms: C5_5  and  C8_8 
REMARK    2  A    between atoms: C5_5  and  N9_9 
REMARK    3  A    between atoms: C6_6  and  C8_8 
REMARK    4  A    between atoms: C6_6  and  S10_10 
REMARK    5  A    between atoms: C7_7  and  C8_8 
ROOT
HETATM    1  C8  UNL     1     -34.846  15.848  -3.285  1.00 20.00     0.024 C 
ENDROOT
BRANCH   1   2
HETATM    2  C5  UNL     1     -35.972  16.006  -4.331  1.00 20.00     0.239 C 
BRANCH   2   3
HETATM    3  N9  UNL     1     -36.873  14.829  -4.349  1.00 20.00    -0.078 N 
HETATM    4  C3  UNL     1     -38.321  15.207  -4.548  1.00 20.00     0.269 C 
HETATM    5  C4  UNL     1     -36.442  13.782  -5.348  1.00 20.00     0.269 C 
HETATM    6  H29 UNL     1     -36.822  14.375  -3.420  1.00 20.00     0.278 HD
ENDBRANCH   2   3
ENDBRANCH   1   2
BRANCH   1   7
HETATM    7  C6  UNL     1     -33.477  15.475  -3.910  1.00 20.00     0.077 C 
BRANCH   7   8
HETATM    8  S10 UNL     1     -33.293  15.906  -5.671  1.00 20.00    -0.182 SA
HETATM    9  H30 UNL     1     -34.552  15.606  -6.015  1.00 20.00     0.101 HD
ENDBRANCH   7   8
ENDBRANCH   1   7
BRANCH   1  10
HETATM   10  C7  UNL     1     -34.688  17.106  -2.362  1.00 20.00    -0.016 C 
HETATM   11  C1  UNL     1     -33.224  17.392  -1.999  1.00 20.00     0.010 C 
HETATM   12  C2  UNL     1     -35.486  16.972  -1.055  1.00 20.00     0.010 C 
ENDBRANCH   1  10
TORSDOF 5
ENDMDL
MODEL 4
REMARK VINA RESULT:      -3.4     11.281     12.098
REMARK  5 active torsions:
REMARK  status: ('A' for Active; 'I' for Inactive)
REMARK    1  A    between atoms: C5_5  and  C8_8 
REMARK    2  A    between atoms: C5_5  and  N9_9 
REMARK    3  A    between atoms: C6_6  and  C8_8 
REMARK    4  A    between atoms: C6_6  and  S10_10 
REMARK    5  A    between atoms: C7_7  and  C8_8 
ROOT
HETATM    1  C8  UNL     1     -33.506   6.555   3.446  1.00 20.00     0.024 C 
ENDROOT
BRANCH   1   2
HETATM    2  C5  UNL     1     -33.422   7.472   2.206  1.00 20.00     0.239 C 
BRANCH   2   3
HETATM    3  N9  UNL     1     -32.061   8.028   2.025  1.00 20.00    -0.078 N 
HETATM    4  C3  UNL     1     -32.035   9.214   1.091  1.00 20.00     0.269 C 
HETATM    5  C4  UNL     1     -31.386   8.353   3.336  1.00 20.00     0.269 C 
HETATM    6  H29 UNL     1     -31.476   7.300   1.578  1.00 20.00     0.278 HD
ENDBRANCH   2   3
ENDBRANCH   1   2
BRANCH   1   7
HETATM    7  C6  UNL     1     -34.454   7.097   4.547  1.00 20.00     0.077 C 
BRANCH   7   8
HETATM    8  S10 UNL     1     -33.663   7.408   6.158  1.00 20.00    -0.182 SA
HETATM    9  H30 UNL     1     -32.423   7.552   5.674  1.00 20.00     0.101 HD
ENDBRANCH   7   8
ENDBRANCH   1   7
BRANCH   1  10
HETATM   10  C7  UNL     1     -33.890   5.077   3.090  1.00 20.00    -0.016 C 
HETATM   11  C1  UNL     1     -34.299   4.259   4.322  1.00 20.00     0.010 C 
HETATM   12  C2  UNL     1     -32.747   4.333   2.381  1.00 20.00     0.010 C 
ENDBRANCH   1  10
TORSDOF 5
ENDMDL
MODEL 5
REMARK VINA RESULT:      -3.2      1.943      2.224
REMARK  5 active torsions:
REMARK  status: ('A' for Active; 'I' for Inactive)
REMARK    1  A    between atoms: C5_5  and  C8_8 
REMARK    2  A    between atoms: C5_5  and  N9_9 
REMARK    3  A    between atoms: C6_6  and  C8_8 
REMARK    4  A    between atoms: C6_6  and  S10_10 
REMARK    5  A    between atoms: C7_7  and  C8_8 
ROOT
HETATM    1  C8  UNL     1     -33.908  16.080  -4.431  1.00 20.00     0.024 C 
ENDROOT
BRANCH   1   2
HETATM    2  C5  UNL     1     -33.773  14.645  -4.987  1.00 20.00     0.239 C 
BRANCH   2   3
HETATM    3  N9  UNL     1     -34.909  14.289  -5.870  1.00 20.00    -0.078 N 
HETATM    4  C3  UNL     1     -34.463  13.674  -7.175  1.00 20.00     0.269 C 
HETATM    5  C4  UNL     1     -35.932  13.419  -5.180  1.00 20.00     0.269 C 
HETATM    6  H29 UNL     1     -35.403  15.164  -6.121  1.00 20.00     0.278 HD
ENDBRANCH   2   3
ENDBRANCH   1   2
BRANCH   1   7
HETATM    7  C6  UNL     1     -34.852  16.977  -5.273  1.00 20.00     0.077 C 
BRANCH   7   8
HETATM    8  S10 UNL     1     -34.060  17.819  -6.681  1.00 20.00    -0.182 SA
HETATM    9  H30 UNL     1     -34.629  17.063  -7.628  1.00 20.00     0.101 HD
ENDBRANCH   7   8
ENDBRANCH   1   7
BRANCH   1  10
HETATM   10  C7  UNL     1     -34.340  16.115  -2.924  1.00 20.00    -0.016 C 
HETATM   11  C1  UNL     1     -35.822  16.471  -2.742  1.00 20.00     0.010 C 
HETATM   12  C2  UNL     1     -33.506  17.111  -2.103  1.00 20.00     0.010 C 
ENDBRANCH   1  10
TORSDOF 5
ENDMDL
MODEL 6
REMARK VINA RESULT:      -3.2     10.865     11.501
REMARK  5 active torsions:
REMARK  status: ('A' for Active; 'I' for Inactive)
REMARK    1  A    between atoms: C5_5  and  C8_8 
REMARK    2  A    between atoms: C5_5  and  N9_9 
REMARK    3  A    between atoms: C6_6  and  C8_8 
REMARK    4  A    between atoms: C6_6  and  S10_10 
REMARK    5  A    between atoms: C7_7  and  C8_8 
ROOT
HETATM    1  C8  UNL     1     -33.687   7.230   3.501  1.00 20.00     0.024 C 
ENDROOT
BRANCH   1   2
HETATM    2  C5  UNL     1     -32.432   8.022   3.072  1.00 20.00     0.239 C 
BRANCH   2   3
HETATM    3  N9  UNL     1     -32.590   8.611   1.722  1.00 20.00    -0.078 N 
HETATM    4  C3  UNL     1     -33.011  10.060   1.763  1.00 20.00     0.269 C 
HETATM    5  C4  UNL     1     -31.364   8.425   0.859  1.00 20.00     0.269 C 
HETATM    6  H29 UNL     1     -33.355   8.105   1.241  1.00 20.00     0.278 HD
ENDBRANCH   2   3
ENDBRANCH   1   2
BRANCH   1   7
HETATM    7  C6  UNL     1     -34.077   6.111   2.501  1.00 20.00     0.077 C 
BRANCH   7   8
HETATM    8  S10 UNL     1     -32.976   4.660   2.504  1.00 20.00    -0.182 SA
HETATM    9  H30 UNL     1     -31.921   5.290   1.974  1.00 20.00     0.101 HD
ENDBRANCH   7   8
ENDBRANCH   1   7
BRANCH   1  10
HETATM   10  C7  UNL     1     -33.573   6.639   4.949  1.00 20.00    -0.016 C 
HETATM   11  C1  UNL     1     -34.748   5.717   5.305  1.00 20.00     0.010 C 
HETATM   12  C2  UNL     1     -33.484   7.736   6.020  1.00 20.00     0.010 C 
ENDBRANCH   1  10
TORSDOF 5
ENDMDL
MODEL 7
REMARK VINA RESULT:      -3.1     11.502     12.216
REMARK  5 active torsions:
REMARK  status: ('A' for Active; 'I' for Inactive)
REMARK    1  A    between atoms: C5_5  and  C8_8 
REMARK    2  A    between atoms: C5_5  and  N9_9 
REMARK    3  A    between atoms: C6_6  and  C8_8 
REMARK    4  A    between atoms: C6_6  and  S10_10 
REMARK    5  A    between atoms: C7_7  and  C8_8 
ROOT
HETATM    1  C8  UNL     1     -34.021   6.363   3.462  1.00 20.00     0.024 C 
ENDROOT
BRANCH   1   2
HETATM    2  C5  UNL     1     -33.683   7.819   3.069  1.00 20.00     0.239 C 
BRANCH   2   3
HETATM    3  N9  UNL     1     -32.315   7.933   2.511  1.00 20.00    -0.078 N 
HETATM    4  C3  UNL     1     -32.260   8.801   1.276  1.00 20.00     0.269 C 
HETATM    5  C4  UNL     1     -31.303   8.382   3.537  1.00 20.00     0.269 C 
HETATM    6  H29 UNL     1     -32.014   6.990   2.209  1.00 20.00     0.278 HD
ENDBRANCH   2   3
ENDBRANCH   1   2
BRANCH   1   7
HETATM    7  C6  UNL     1     -32.831   5.387   3.275  1.00 20.00     0.077 C 
BRANCH   7   8
HETATM    8  S10 UNL     1     -33.101   4.075   2.040  1.00 20.00    -0.182 SA
HETATM    9  H30 UNL     1     -31.827   4.010   1.632  1.00 20.00     0.101 HD
ENDBRANCH   7   8
ENDBRANCH   1   7
BRANCH   1  10
HETATM   10  C7  UNL     1     -34.591   6.240   4.918  1.00 20.00    -0.016 C 
HETATM   11  C1  UNL     1     -33.845   7.130   5.922  1.00 20.00     0.010 C 
HETATM   12  C2  UNL     1     -34.549   4.795   5.438  1.00 20.00     0.010 C 
ENDBRANCH   1  10
TORSDOF 5
ENDMDL
MODEL 8
REMARK VINA RESULT:      -3.1      2.311      3.623
REMARK  5 active torsions:
REMARK  status: ('A' for Active; 'I' for Inactive)
REMARK    1  A    between atoms: C5_5  and  C8_8 
REMARK    2  A    between atoms: C5_5  and  N9_9 
REMARK    3  A    between atoms: C6_6  and  C8_8 
REMARK    4  A    between atoms: C6_6  and  S10_10 
REMARK    5  A    between atoms: C7_7  and  C8_8 
ROOT
HETATM    1  C8  UNL     1     -34.645  16.506  -4.387  1.00 20.00     0.024 C 
ENDROOT
BRANCH   1   2
HETATM    2  C5  UNL     1     -35.891  16.105  -5.208  1.00 20.00     0.239 C 
BRANCH   2   3
HETATM    3  N9  UNL     1     -36.588  14.940  -4.615  1.00 20.00    -0.078 N 
HETATM    4  C3  UNL     1     -38.076  15.158  -4.478  1.00 20.00     0.269 C 
HETATM    5  C4  UNL     1     -36.292  13.651  -5.344  1.00 20.00     0.269 C 
HETATM    6  H29 UNL     1     -36.229  14.811  -3.652  1.00 20.00     0.278 HD
ENDBRANCH   2   3
ENDBRANCH   1   2
BRANCH   1   7
HETATM    7  C6  UNL     1     -34.752  16.126  -2.888  1.00 20.00     0.077 C 
BRANCH   7   8
HETATM    8  S10 UNL     1     -33.882  17.249  -1.747  1.00 20.00    -0.182 SA
HETATM    9  H30 UNL     1     -33.238  16.287  -1.075  1.00 20.00     0.101 HD
ENDBRANCH   7   8
ENDBRANCH   1   7
BRANCH   1  10
HETATM   10  C7  UNL     1     -33.310  15.945  -4.988  1.00 20.00    -0.016 C 
HETATM   11  C1  UNL     1     -33.376  15.767  -6.511  1.00 20.00     0.010 C 
HETATM   12  C2  UNL     1     -32.914  14.596  -4.367  1.00 20.00     0.010 C 
ENDBRANCH   1  10
TORSDOF 5
ENDMDL
MODEL 9
REMARK VINA RESULT:      -3.0      1.714      2.430
REMARK  5 active torsions:
REMARK  status: ('A' for Active; 'I' for Inactive)
REMARK    1  A    between atoms: C5_5  and  C8_8 
REMARK    2  A    between atoms: C5_5  and  N9_9 
REMARK    3  A    between atoms: C6_6  and  C8_8 
REMARK    4  A    between atoms: C6_6  and  S10_10 
REMARK    5  A    between atoms: C7_7  and  C8_8 
ROOT
HETATM    1  C8  UNL     1     -35.639  15.324  -4.529  1.00 20.00     0.024 C 
ENDROOT
BRANCH   1   2
HETATM    2  C5  UNL     1     -36.105  13.995  -5.163  1.00 20.00     0.239 C 
BRANCH   2   3
HETATM    3  N9  UNL     1     -36.052  14.045  -6.643  1.00 20.00    -0.078 N 
HETATM    4  C3  UNL     1     -35.759  15.429  -7.170  1.00 20.00     0.269 C 
HETATM    5  C4  UNL     1     -35.101  13.028  -7.226  1.00 20.00     0.269 C 
HETATM    6  H29 UNL     1     -36.991  13.796  -7.003  1.00 20.00     0.278 HD
ENDBRANCH   2   3
ENDBRANCH   1   2
BRANCH   1   7
HETATM    7  C6  UNL     1     -36.745  16.028  -3.700  1.00 20.00     0.077 C 
BRANCH   7   8
HETATM    8  S10 UNL     1     -37.376  17.578  -4.420  1.00 20.00    -0.182 SA
HETATM    9  H30 UNL     1     -36.981  18.366  -3.412  1.00 20.00     0.101 HD
ENDBRANCH   7   8
ENDBRANCH   1   7
BRANCH   1  10
HETATM   10  C7  UNL     1     -34.340  15.168  -3.664  1.00 20.00    -0.016 C 
HETATM   11  C1  UNL     1     -33.975  16.454  -2.909  1.00 20.00     0.010 C 
HETATM   12  C2  UNL     1     -33.127  14.749  -4.508  1.00 20.00     0.010 C 
ENDBRANCH   1  10
TORSDOF 5
ENDMDL
