MODEL 1
REMARK VINA RESULT:      -7.2      0.000      0.000
REMARK  1 active torsions:
REMARK  status: ('A' for Active; 'I' for Inactive)
REMARK    1  A    between atoms: C4_4  and  C11_11 
ROOT
HETATM    1  C1  UNL     1     -31.863   8.799   3.421  1.00 20.00     0.008 A 
HETATM    2  C2  UNL     1     -32.258   8.304   4.666  1.00 20.00     0.008 A 
HETATM    3  C3  UNL     1     -33.286   7.189   2.279  1.00 20.00     0.016 A 
HETATM    4  C4  UNL     1     -32.375   8.246   2.236  1.00 20.00    -0.053 A 
HETATM    5  C5  UNL     1     -33.172   7.265   4.700  1.00 20.00    -0.050 A 
HETATM    6  C6  UNL     1     -33.678   6.707   3.517  1.00 20.00    -0.033 A 
HETATM    7  C7  UNL     1     -33.715   6.556   5.901  1.00 20.00     0.041 C 
HETATM    8  C8  UNL     1     -34.942   5.854   5.296  1.00 20.00     0.030 C 
HETATM    9  C12 UNL     1     -34.613   5.576   3.818  1.00 20.00     0.116 C 
HETATM   10 CL13 UNL     1     -33.778   4.021   3.621  1.00 20.00    -0.120 Cl
ENDROOT
BRANCH   4  11
HETATM   11  C11 UNL     1     -31.935   8.790   0.919  1.00 20.00     0.018 A 
HETATM   12  C9  UNL     1     -32.185  10.241   0.606  1.00 20.00     0.010 A 
HETATM   13  C10 UNL     1     -32.977   9.183  -0.096  1.00 20.00     0.010 A 
ENDBRANCH   4  11
TORSDOF 1
ENDMDL
MODEL 2
REMARK VINA RESULT:      -5.6     10.833     11.807
REMARK  1 active torsions:
REMARK  status: ('A' for Active; 'I' for Inactive)
REMARK    1  A    between atoms: C4_4  and  C11_11 
ROOT
HETATM    1  C1  UNL     1     -32.269  18.853   0.519  1.00 20.00     0.008 A 
HETATM    2  C2  UNL     1     -32.202  18.392  -0.797  1.00 20.00     0.008 A 
HETATM    3  C3  UNL     1     -34.561  18.063   0.728  1.00 20.00     0.016 A 
HETATM    4  C4  UNL     1     -33.440  18.689   1.276  1.00 20.00    -0.053 A 
HETATM    5  C5  UNL     1     -33.313  17.762  -1.330  1.00 20.00    -0.050 A 
HETATM    6  C6  UNL     1     -34.486  17.604  -0.577  1.00 20.00    -0.033 A 
HETATM    7  C7  UNL     1     -33.489  17.218  -2.713  1.00 20.00     0.041 C 
HETATM    8  C8  UNL     1     -34.714  16.310  -2.518  1.00 20.00     0.030 C 
HETATM    9  C12 UNL     1     -35.553  16.932  -1.386  1.00 20.00     0.116 C 
HETATM   10 CL13 UNL     1     -36.697  18.136  -2.013  1.00 20.00    -0.120 Cl
ENDROOT
BRANCH   4  11
HETATM   11  C11 UNL     1     -33.487  19.192   2.679  1.00 20.00     0.018 A 
HETATM   12  C9  UNL     1     -32.214  19.243   3.482  1.00 20.00     0.010 A 
HETATM   13  C10 UNL     1     -33.262  18.226   3.813  1.00 20.00     0.010 A 
ENDBRANCH   4  11
TORSDOF 1
ENDMDL
MODEL 3
REMARK VINA RESULT:      -5.4     10.822     11.841
REMARK  1 active torsions:
REMARK  status: ('A' for Active; 'I' for Inactive)
REMARK    1  A    between atoms: C4_4  and  C11_11 
ROOT
HETATM    1  C1  UNL     1     -33.277  16.727  -4.519  1.00 20.00     0.008 A 
HETATM    2  C2  UNL     1     -33.391  16.164  -5.791  1.00 20.00     0.008 A 
HETATM    3  C3  UNL     1     -34.966  15.209  -3.645  1.00 20.00     0.016 A 
HETATM    4  C4  UNL     1     -34.058  16.252  -3.453  1.00 20.00    -0.053 A 
HETATM    5  C5  UNL     1     -34.284  15.122  -5.970  1.00 20.00    -0.050 A 
HETATM    6  C6  UNL     1     -35.070  14.652  -4.909  1.00 20.00    -0.033 A 
HETATM    7  C7  UNL     1     -34.600  14.388  -7.236  1.00 20.00     0.041 C 
HETATM    8  C8  UNL     1     -35.300  13.136  -6.681  1.00 20.00     0.030 C 
HETATM    9  C12 UNL     1     -35.981  13.553  -5.365  1.00 20.00     0.116 C 
HETATM   10 CL13 UNL     1     -37.613  14.190  -5.653  1.00 20.00    -0.120 Cl
ENDROOT
BRANCH   4  11
HETATM   11  C11 UNL     1     -33.920  16.872  -2.104  1.00 20.00     0.018 A 
HETATM   12  C9  UNL     1     -35.134  16.977  -1.219  1.00 20.00     0.010 A 
HETATM   13  C10 UNL     1     -34.562  18.210  -1.843  1.00 20.00     0.010 A 
ENDBRANCH   4  11
TORSDOF 1
ENDMDL
MODEL 4
REMARK VINA RESULT:      -5.3     10.940     11.616
REMARK  1 active torsions:
REMARK  status: ('A' for Active; 'I' for Inactive)
REMARK    1  A    between atoms: C4_4  and  C11_11 
ROOT
HETATM    1  C1  UNL     1     -34.696  17.768  -0.360  1.00 20.00     0.008 A 
HETATM    2  C2  UNL     1     -35.572  16.974  -1.103  1.00 20.00     0.008 A 
HETATM    3  C3  UNL     1     -33.063  17.734  -2.164  1.00 20.00     0.016 A 
HETATM    4  C4  UNL     1     -33.451  18.146  -0.887  1.00 20.00    -0.053 A 
HETATM    5  C5  UNL     1     -35.186  16.580  -2.372  1.00 20.00    -0.050 A 
HETATM    6  C6  UNL     1     -33.940  16.950  -2.897  1.00 20.00    -0.033 A 
HETATM    7  C7  UNL     1     -35.933  15.710  -3.333  1.00 20.00     0.041 C 
HETATM    8  C8  UNL     1     -35.191  16.016  -4.644  1.00 20.00     0.030 C 
HETATM    9  C12 UNL     1     -33.741  16.368  -4.263  1.00 20.00     0.116 C 
HETATM   10 CL13 UNL     1     -32.725  14.915  -4.169  1.00 20.00    -0.120 Cl
ENDROOT
BRANCH   4  11
HETATM   11  C11 UNL     1     -32.532  18.993  -0.074  1.00 20.00     0.018 A 
HETATM   12  C9  UNL     1     -31.261  18.388   0.461  1.00 20.00     0.010 A 
HETATM   13  C10 UNL     1     -32.383  18.707   1.398  1.00 20.00     0.010 A 
ENDBRANCH   4  11
TORSDOF 1
ENDMDL
MODEL 5
REMARK VINA RESULT:      -5.2     10.948     11.570
REMARK  1 active torsions:
REMARK  status: ('A' for Active; 'I' for Inactive)
REMARK    1  A    between atoms: C4_4  and  C11_11 
ROOT
HETATM    1  C1  UNL     1     -33.696  16.551  -2.786  1.00 20.00     0.008 A 
HETATM    2  C2  UNL     1     -33.477  15.616  -3.800  1.00 20.00     0.008 A 
HETATM    3  C3  UNL     1     -36.106  16.308  -3.018  1.00 20.00     0.016 A 
HETATM    4  C4  UNL     1     -35.001  16.893  -2.397  1.00 20.00    -0.053 A 
HETATM    5  C5  UNL     1     -34.577  15.031  -4.402  1.00 20.00    -0.050 A 
HETATM    6  C6  UNL     1     -35.881  15.377  -4.020  1.00 20.00    -0.033 A 
HETATM    7  C7  UNL     1     -34.594  14.037  -5.521  1.00 20.00     0.041 C 
HETATM    8  C8  UNL     1     -36.031  13.498  -5.412  1.00 20.00     0.030 C 
HETATM    9  C12 UNL     1     -36.893  14.640  -4.843  1.00 20.00     0.116 C 
HETATM   10 CL13 UNL     1     -37.513  15.689  -6.135  1.00 20.00    -0.120 Cl
ENDROOT
BRANCH   4  11
HETATM   11  C11 UNL     1     -35.208  17.896  -1.314  1.00 20.00     0.018 A 
HETATM   12  C9  UNL     1     -34.161  18.043  -0.241  1.00 20.00     0.010 A 
HETATM   13  C10 UNL     1     -35.479  17.416   0.088  1.00 20.00     0.010 A 
ENDBRANCH   4  11
TORSDOF 1
ENDMDL
MODEL 6
REMARK VINA RESULT:      -5.2     10.862     11.472
REMARK  1 active torsions:
REMARK  status: ('A' for Active; 'I' for Inactive)
REMARK    1  A    between atoms: C4_4  and  C11_11 
ROOT
HETATM    1  C1  UNL     1     -35.403  17.246  -1.814  1.00 20.00     0.008 A 
HETATM    2  C2  UNL     1     -35.945  16.250  -2.629  1.00 20.00     0.008 A 
HETATM    3  C3  UNL     1     -33.232  17.007  -2.888  1.00 20.00     0.016 A 
HETATM    4  C4  UNL     1     -34.056  17.623  -1.943  1.00 20.00    -0.053 A 
HETATM    5  C5  UNL     1     -35.125  15.655  -3.571  1.00 20.00    -0.050 A 
HETATM    6  C6  UNL     1     -33.779  16.024  -3.697  1.00 20.00    -0.033 A 
HETATM    7  C7  UNL     1     -35.468  14.554  -4.526  1.00 20.00     0.041 C 
HETATM    8  C8  UNL     1     -34.310  14.666  -5.531  1.00 20.00     0.030 C 
HETATM    9  C12 UNL     1     -33.097  15.210  -4.753  1.00 20.00     0.116 C 
HETATM   10 CL13 UNL     1     -32.163  13.896  -4.008  1.00 20.00    -0.120 Cl
ENDROOT
BRANCH   4  11
HETATM   11  C11 UNL     1     -33.500  18.686  -1.059  1.00 20.00     0.018 A 
HETATM   12  C9  UNL     1     -32.155  18.474  -0.416  1.00 20.00     0.010 A 
HETATM   13  C10 UNL     1     -33.394  18.427   0.422  1.00 20.00     0.010 A 
ENDBRANCH   4  11
TORSDOF 1
ENDMDL
MODEL 7
REMARK VINA RESULT:      -5.1      1.584      2.327
REMARK  1 active torsions:
REMARK  status: ('A' for Active; 'I' for Inactive)
REMARK    1  A    between atoms: C4_4  and  C11_11 
ROOT
HETATM    1  C1  UNL     1     -33.672   7.079   1.570  1.00 20.00     0.008 A 
HETATM    2  C2  UNL     1     -34.477   6.162   2.248  1.00 20.00     0.008 A 
HETATM    3  C3  UNL     1     -32.559   7.705   3.642  1.00 20.00     0.016 A 
HETATM    4  C4  UNL     1     -32.719   7.844   2.261  1.00 20.00    -0.053 A 
HETATM    5  C5  UNL     1     -34.304   6.021   3.614  1.00 20.00    -0.050 A 
HETATM    6  C6  UNL     1     -33.358   6.789   4.307  1.00 20.00    -0.033 A 
HETATM    7  C7  UNL     1     -35.063   5.135   4.551  1.00 20.00     0.041 C 
HETATM    8  C8  UNL     1     -34.128   5.131   5.772  1.00 20.00     0.030 C 
HETATM    9  C12 UNL     1     -33.391   6.483   5.773  1.00 20.00     0.116 C 
HETATM   10 CL13 UNL     1     -34.318   7.726   6.639  1.00 20.00    -0.120 Cl
ENDROOT
BRANCH   4  11
HETATM   11  C11 UNL     1     -31.873   8.819   1.514  1.00 20.00     0.018 A 
HETATM   12  C9  UNL     1     -32.430  10.183   1.204  1.00 20.00     0.010 A 
HETATM   13  C10 UNL     1     -32.250   9.186   0.103  1.00 20.00     0.010 A 
ENDBRANCH   4  11
TORSDOF 1
ENDMDL
MODEL 8
REMARK VINA RESULT:      -5.0     11.005     11.591
REMARK  1 active torsions:
REMARK  status: ('A' for Active; 'I' for Inactive)
REMARK    1  A    between atoms: C4_4  and  C11_11 
ROOT
HETATM    1  C1  UNL     1     -34.353  15.292  -4.056  1.00 20.00     0.008 A 
HETATM    2  C2  UNL     1     -33.384  16.004  -3.348  1.00 20.00     0.008 A 
HETATM    3  C3  UNL     1     -36.136  16.451  -2.872  1.00 20.00     0.016 A 
HETATM    4  C4  UNL     1     -35.719  15.515  -3.821  1.00 20.00    -0.053 A 
HETATM    5  C5  UNL     1     -33.804  16.940  -2.419  1.00 20.00    -0.050 A 
HETATM    6  C6  UNL     1     -35.168  17.158  -2.177  1.00 20.00    -0.033 A 
HETATM    7  C7  UNL     1     -32.960  17.793  -1.525  1.00 20.00     0.041 C 
HETATM    8  C8  UNL     1     -33.979  18.859  -1.090  1.00 20.00     0.030 C 
HETATM    9  C12 UNL     1     -35.363  18.184  -1.104  1.00 20.00     0.116 C 
HETATM   10 CL13 UNL     1     -35.713  17.392   0.446  1.00 20.00    -0.120 Cl
ENDROOT
BRANCH   4  11
HETATM   11  C11 UNL     1     -36.736  14.739  -4.588  1.00 20.00     0.018 A 
HETATM   12  C9  UNL     1     -36.274  13.664  -5.537  1.00 20.00     0.010 A 
HETATM   13  C10 UNL     1     -36.839  14.940  -6.078  1.00 20.00     0.010 A 
ENDBRANCH   4  11
TORSDOF 1
ENDMDL
MODEL 9
REMARK VINA RESULT:      -4.9      1.979      4.770
REMARK  1 active torsions:
REMARK  status: ('A' for Active; 'I' for Inactive)
REMARK    1  A    between atoms: C4_4  and  C11_11 
ROOT
HETATM    1  C1  UNL     1     -33.161   7.261   4.735  1.00 20.00     0.008 A 
HETATM    2  C2  UNL     1     -32.243   8.223   4.311  1.00 20.00     0.008 A 
HETATM    3  C3  UNL     1     -33.730   6.722   2.431  1.00 20.00     0.016 A 
HETATM    4  C4  UNL     1     -33.899   6.515   3.802  1.00 20.00    -0.053 A 
HETATM    5  C5  UNL     1     -32.071   8.413   2.952  1.00 20.00    -0.050 A 
HETATM    6  C6  UNL     1     -32.812   7.675   2.018  1.00 20.00    -0.033 A 
HETATM    7  C7  UNL     1     -31.177   9.398   2.265  1.00 20.00     0.041 C 
HETATM    8  C8  UNL     1     -31.135   8.814   0.843  1.00 20.00     0.030 C 
HETATM    9  C12 UNL     1     -32.477   8.091   0.619  1.00 20.00     0.116 C 
HETATM   10 CL13 UNL     1     -33.714   9.201  -0.004  1.00 20.00    -0.120 Cl
ENDROOT
BRANCH   4  11
HETATM   11  C11 UNL     1     -34.876   5.496   4.280  1.00 20.00     0.018 A 
HETATM   12  C9  UNL     1     -34.743   4.952   5.678  1.00 20.00     0.010 A 
HETATM   13  C10 UNL     1     -34.409   4.082   4.508  1.00 20.00     0.010 A 
ENDBRANCH   4  11
TORSDOF 1
ENDMDL
