MODEL 1
REMARK VINA RESULT:      -4.2      0.000      0.000
REMARK  6 active torsions:
REMARK  status: ('A' for Active; 'I' for Inactive)
REMARK    1  A    between atoms: C3_3  and  C5_5 
REMARK    2  A    between atoms: C3_3  and  C7_7 
REMARK    3  A    between atoms: C4_4  and  C6_6 
REMARK    4  A    between atoms: C4_4  and  C7_7 
REMARK    5  A    between atoms: C5_5  and  S8_8 
REMARK    6  A    between atoms: C6_6  and  S9_9 
ROOT
HETATM    1  C1  UNL     1     -33.214   7.631   5.251  1.00 20.00     0.010 C 
HETATM    2  C7  UNL     1     -33.175   7.726   3.723  1.00 20.00    -0.017 C 
ENDROOT
BRANCH   2   3
HETATM    3  C3  UNL     1     -33.630   6.404   3.063  1.00 20.00     0.014 C 
BRANCH   3   4
HETATM    4  C5  UNL     1     -34.857   5.755   3.705  1.00 20.00     0.071 C 
BRANCH   4   5
HETATM    5  S8  UNL     1     -34.384   4.233   4.581  1.00 20.00    -0.182 SA
HETATM    6  H25 UNL     1     -35.550   4.073   5.220  1.00 20.00     0.101 HD
ENDBRANCH   4   5
ENDBRANCH   3   4
ENDBRANCH   2   3
BRANCH   2   7
HETATM    7  C4  UNL     1     -31.793   8.176   3.204  1.00 20.00     0.014 C 
BRANCH   7   8
HETATM    8  C6  UNL     1     -31.761   8.358   1.686  1.00 20.00     0.073 C 
BRANCH   8   9
HETATM    9  S9  UNL     1     -32.579   9.909   1.210  1.00 20.00    -0.173 SA
HETATM   10  C2  UNL     1     -33.138   9.414  -0.436  1.00 20.00     0.089 C 
ENDBRANCH   8   9
ENDBRANCH   7   8
ENDBRANCH   2   7
TORSDOF 6
ENDMDL
MODEL 2
REMARK VINA RESULT:      -4.1      1.715      2.295
REMARK  6 active torsions:
REMARK  status: ('A' for Active; 'I' for Inactive)
REMARK    1  A    between atoms: C3_3  and  C5_5 
REMARK    2  A    between atoms: C3_3  and  C7_7 
REMARK    3  A    between atoms: C4_4  and  C6_6 
REMARK    4  A    between atoms: C4_4  and  C7_7 
REMARK    5  A    between atoms: C5_5  and  S8_8 
REMARK    6  A    between atoms: C6_6  and  S9_9 
ROOT
HETATM    1  C1  UNL     1     -32.952   4.683   2.443  1.00 20.00     0.010 C 
HETATM    2  C7  UNL     1     -33.380   5.944   3.200  1.00 20.00    -0.017 C 
ENDROOT
BRANCH   2   3
HETATM    3  C3  UNL     1     -34.744   5.745   3.901  1.00 20.00     0.014 C 
BRANCH   3   4
HETATM    4  C5  UNL     1     -34.697   5.817   5.428  1.00 20.00     0.071 C 
BRANCH   4   5
HETATM    5  S8  UNL     1     -33.722   7.255   5.966  1.00 20.00    -0.182 SA
HETATM    6  H25 UNL     1     -33.056   6.616   6.937  1.00 20.00     0.101 HD
ENDBRANCH   4   5
ENDBRANCH   3   4
ENDBRANCH   2   3
BRANCH   2   7
HETATM    7  C4  UNL     1     -33.383   7.193   2.293  1.00 20.00     0.014 C 
BRANCH   7   8
HETATM    8  C6  UNL     1     -32.134   8.057   2.473  1.00 20.00     0.073 C 
BRANCH   8   9
HETATM    9  S9  UNL     1     -31.711   8.904   0.922  1.00 20.00    -0.173 SA
HETATM   10  C2  UNL     1     -32.788  10.343   1.109  1.00 20.00     0.089 C 
ENDBRANCH   8   9
ENDBRANCH   7   8
ENDBRANCH   2   7
TORSDOF 6
ENDMDL
MODEL 3
REMARK VINA RESULT:      -3.9      1.504      4.824
REMARK  6 active torsions:
REMARK  status: ('A' for Active; 'I' for Inactive)
REMARK    1  A    between atoms: C3_3  and  C5_5 
REMARK    2  A    between atoms: C3_3  and  C7_7 
REMARK    3  A    between atoms: C4_4  and  C6_6 
REMARK    4  A    between atoms: C4_4  and  C7_7 
REMARK    5  A    between atoms: C5_5  and  S8_8 
REMARK    6  A    between atoms: C6_6  and  S9_9 
ROOT
HETATM    1  C1  UNL     1     -32.925   4.910   2.558  1.00 20.00     0.010 C 
HETATM    2  C7  UNL     1     -33.278   6.397   2.473  1.00 20.00    -0.017 C 
ENDROOT
BRANCH   2   3
HETATM    3  C3  UNL     1     -32.035   7.287   2.705  1.00 20.00     0.014 C 
BRANCH   3   4
HETATM    4  C5  UNL     1     -32.245   8.773   2.409  1.00 20.00     0.071 C 
BRANCH   4   5
HETATM    5  S8  UNL     1     -31.985   9.110   0.640  1.00 20.00    -0.182 SA
HETATM    6  H25 UNL     1     -31.607  10.386   0.796  1.00 20.00     0.101 HD
ENDBRANCH   4   5
ENDBRANCH   3   4
ENDBRANCH   2   3
BRANCH   2   7
HETATM    7  C4  UNL     1     -34.435   6.775   3.423  1.00 20.00     0.014 C 
BRANCH   7   8
HETATM    8  C6  UNL     1     -35.051   5.560   4.117  1.00 20.00     0.073 C 
BRANCH   8   9
HETATM    9  S9  UNL     1     -34.580   5.518   5.872  1.00 20.00    -0.173 SA
HETATM   10  C2  UNL     1     -33.822   7.156   5.977  1.00 20.00     0.089 C 
ENDBRANCH   8   9
ENDBRANCH   7   8
ENDBRANCH   2   7
TORSDOF 6
ENDMDL
MODEL 4
REMARK VINA RESULT:      -3.8      1.248      4.678
REMARK  6 active torsions:
REMARK  status: ('A' for Active; 'I' for Inactive)
REMARK    1  A    between atoms: C3_3  and  C5_5 
REMARK    2  A    between atoms: C3_3  and  C7_7 
REMARK    3  A    between atoms: C4_4  and  C6_6 
REMARK    4  A    between atoms: C4_4  and  C7_7 
REMARK    5  A    between atoms: C5_5  and  S8_8 
REMARK    6  A    between atoms: C6_6  and  S9_9 
ROOT
HETATM    1  C1  UNL     1     -31.457   8.478   4.023  1.00 20.00     0.010 C 
HETATM    2  C7  UNL     1     -31.928   7.678   2.805  1.00 20.00    -0.017 C 
ENDROOT
BRANCH   2   3
HETATM    3  C3  UNL     1     -31.639   8.433   1.487  1.00 20.00     0.014 C 
BRANCH   3   4
HETATM    4  C5  UNL     1     -32.566   9.617   1.209  1.00 20.00     0.071 C 
BRANCH   4   5
HETATM    5  S8  UNL     1     -33.207   9.535  -0.492  1.00 20.00    -0.182 SA
HETATM    6  H25 UNL     1     -33.498  10.839  -0.593  1.00 20.00     0.101 HD
ENDBRANCH   4   5
ENDBRANCH   3   4
ENDBRANCH   2   3
BRANCH   2   7
HETATM    7  C4  UNL     1     -33.413   7.272   2.914  1.00 20.00     0.014 C 
BRANCH   7   8
HETATM    8  C6  UNL     1     -33.604   5.763   3.070  1.00 20.00     0.073 C 
BRANCH   8   9
HETATM    9  S9  UNL     1     -34.782   5.400   4.405  1.00 20.00    -0.173 SA
HETATM   10  C2  UNL     1     -34.137   6.550   5.641  1.00 20.00     0.089 C 
ENDBRANCH   8   9
ENDBRANCH   7   8
ENDBRANCH   2   7
TORSDOF 6
ENDMDL
MODEL 5
REMARK VINA RESULT:      -3.8      0.918      4.815
REMARK  6 active torsions:
REMARK  status: ('A' for Active; 'I' for Inactive)
REMARK    1  A    between atoms: C3_3  and  C5_5 
REMARK    2  A    between atoms: C3_3  and  C7_7 
REMARK    3  A    between atoms: C4_4  and  C6_6 
REMARK    4  A    between atoms: C4_4  and  C7_7 
REMARK    5  A    between atoms: C5_5  and  S8_8 
REMARK    6  A    between atoms: C6_6  and  S9_9 
ROOT
HETATM    1  C1  UNL     1     -33.165   7.806   4.919  1.00 20.00     0.010 C 
HETATM    2  C7  UNL     1     -32.445   7.311   3.661  1.00 20.00    -0.017 C 
ENDROOT
BRANCH   2   3
HETATM    3  C3  UNL     1     -31.711   8.464   2.940  1.00 20.00     0.014 C 
BRANCH   3   4
HETATM    4  C5  UNL     1     -31.961   8.541   1.433  1.00 20.00     0.071 C 
BRANCH   4   5
HETATM    5  S8  UNL     1     -32.673  10.155   0.990  1.00 20.00    -0.182 SA
HETATM    6  H25 UNL     1     -33.649   9.667   0.211  1.00 20.00     0.101 HD
ENDBRANCH   4   5
ENDBRANCH   3   4
ENDBRANCH   2   3
BRANCH   2   7
HETATM    7  C4  UNL     1     -33.395   6.555   2.707  1.00 20.00     0.014 C 
BRANCH   7   8
HETATM    8  C6  UNL     1     -34.627   5.996   3.419  1.00 20.00     0.073 C 
BRANCH   8   9
HETATM    9  S9  UNL     1     -34.244   4.402   4.204  1.00 20.00    -0.173 SA
HETATM   10  C2  UNL     1     -34.639   4.850   5.910  1.00 20.00     0.089 C 
ENDBRANCH   8   9
ENDBRANCH   7   8
ENDBRANCH   2   7
TORSDOF 6
ENDMDL
MODEL 6
REMARK VINA RESULT:      -3.2      1.794      2.212
REMARK  6 active torsions:
REMARK  status: ('A' for Active; 'I' for Inactive)
REMARK    1  A    between atoms: C3_3  and  C5_5 
REMARK    2  A    between atoms: C3_3  and  C7_7 
REMARK    3  A    between atoms: C4_4  and  C6_6 
REMARK    4  A    between atoms: C4_4  and  C7_7 
REMARK    5  A    between atoms: C5_5  and  S8_8 
REMARK    6  A    between atoms: C6_6  and  S9_9 
ROOT
HETATM    1  C1  UNL     1     -35.051   6.391   2.653  1.00 20.00     0.010 C 
HETATM    2  C7  UNL     1     -33.753   5.613   2.887  1.00 20.00    -0.017 C 
ENDROOT
BRANCH   2   3
HETATM    3  C3  UNL     1     -33.783   4.857   4.236  1.00 20.00     0.014 C 
BRANCH   3   4
HETATM    4  C5  UNL     1     -34.679   5.485   5.304  1.00 20.00     0.071 C 
BRANCH   4   5
HETATM    5  S8  UNL     1     -33.891   6.970   5.999  1.00 20.00    -0.182 SA
HETATM    6  H25 UNL     1     -35.021   7.679   6.126  1.00 20.00     0.101 HD
ENDBRANCH   4   5
ENDBRANCH   3   4
ENDBRANCH   2   3
BRANCH   2   7
HETATM    7  C4  UNL     1     -32.506   6.515   2.769  1.00 20.00     0.014 C 
BRANCH   7   8
HETATM    8  C6  UNL     1     -32.859   7.991   2.581  1.00 20.00     0.073 C 
BRANCH   8   9
HETATM    9  S9  UNL     1     -31.870   8.722   1.243  1.00 20.00    -0.173 SA
HETATM   10  C2  UNL     1     -32.772  10.278   1.073  1.00 20.00     0.089 C 
ENDBRANCH   8   9
ENDBRANCH   7   8
ENDBRANCH   2   7
TORSDOF 6
ENDMDL
MODEL 7
REMARK VINA RESULT:      -3.1     10.653     11.309
REMARK  6 active torsions:
REMARK  status: ('A' for Active; 'I' for Inactive)
REMARK    1  A    between atoms: C3_3  and  C5_5 
REMARK    2  A    between atoms: C3_3  and  C7_7 
REMARK    3  A    between atoms: C4_4  and  C6_6 
REMARK    4  A    between atoms: C4_4  and  C7_7 
REMARK    5  A    between atoms: C5_5  and  S8_8 
REMARK    6  A    between atoms: C6_6  and  S9_9 
ROOT
HETATM    1  C1  UNL     1     -35.348  16.947  -1.408  1.00 20.00     0.010 C 
HETATM    2  C7  UNL     1     -33.888  16.942  -1.870  1.00 20.00    -0.017 C 
ENDROOT
BRANCH   2   3
HETATM    3  C3  UNL     1     -33.246  18.341  -1.726  1.00 20.00     0.014 C 
BRANCH   3   4
HETATM    4  C5  UNL     1     -32.148  18.437  -0.666  1.00 20.00     0.071 C 
BRANCH   4   5
HETATM    5  S8  UNL     1     -32.854  18.931   0.936  1.00 20.00    -0.182 SA
HETATM    6  H25 UNL     1     -33.678  17.880   1.053  1.00 20.00     0.101 HD
ENDBRANCH   4   5
ENDBRANCH   3   4
ENDBRANCH   2   3
BRANCH   2   7
HETATM    7  C4  UNL     1     -33.734  16.389  -3.303  1.00 20.00     0.014 C 
BRANCH   7   8
HETATM    8  C6  UNL     1     -34.886  15.470  -3.709  1.00 20.00     0.073 C 
BRANCH   8   9
HETATM    9  S9  UNL     1     -34.413  14.441  -5.131  1.00 20.00    -0.173 SA
HETATM   10  C2  UNL     1     -35.913  13.438  -5.236  1.00 20.00     0.089 C 
ENDBRANCH   8   9
ENDBRANCH   7   8
ENDBRANCH   2   7
TORSDOF 6
ENDMDL
MODEL 8
REMARK VINA RESULT:      -3.1     10.462     11.418
REMARK  6 active torsions:
REMARK  status: ('A' for Active; 'I' for Inactive)
REMARK    1  A    between atoms: C3_3  and  C5_5 
REMARK    2  A    between atoms: C3_3  and  C7_7 
REMARK    3  A    between atoms: C4_4  and  C6_6 
REMARK    4  A    between atoms: C4_4  and  C7_7 
REMARK    5  A    between atoms: C5_5  and  S8_8 
REMARK    6  A    between atoms: C6_6  and  S9_9 
ROOT
HETATM    1  C1  UNL     1     -35.231  17.466  -0.578  1.00 20.00     0.010 C 
HETATM    2  C7  UNL     1     -34.115  16.984  -1.510  1.00 20.00    -0.017 C 
ENDROOT
BRANCH   2   3
HETATM    3  C3  UNL     1     -32.978  18.026  -1.615  1.00 20.00     0.014 C 
BRANCH   3   4
HETATM    4  C5  UNL     1     -33.060  19.170  -0.603  1.00 20.00     0.071 C 
BRANCH   4   5
HETATM    5  S8  UNL     1     -31.859  18.918   0.739  1.00 20.00    -0.182 SA
HETATM    6  H25 UNL     1     -31.420  17.727   0.310  1.00 20.00     0.101 HD
ENDBRANCH   4   5
ENDBRANCH   3   4
ENDBRANCH   2   3
BRANCH   2   7
HETATM    7  C4  UNL     1     -34.653  16.586  -2.901  1.00 20.00     0.014 C 
BRANCH   7   8
HETATM    8  C6  UNL     1     -33.633  16.816  -4.017  1.00 20.00     0.073 C 
BRANCH   8   9
HETATM    9  S9  UNL     1     -33.191  15.245  -4.817  1.00 20.00    -0.173 SA
HETATM   10  C2  UNL     1     -34.576  14.250  -4.217  1.00 20.00     0.089 C 
ENDBRANCH   8   9
ENDBRANCH   7   8
ENDBRANCH   2   7
TORSDOF 6
ENDMDL
MODEL 9
REMARK VINA RESULT:      -3.1     10.333     11.132
REMARK  6 active torsions:
REMARK  status: ('A' for Active; 'I' for Inactive)
REMARK    1  A    between atoms: C3_3  and  C5_5 
REMARK    2  A    between atoms: C3_3  and  C7_7 
REMARK    3  A    between atoms: C4_4  and  C6_6 
REMARK    4  A    between atoms: C4_4  and  C7_7 
REMARK    5  A    between atoms: C5_5  and  S8_8 
REMARK    6  A    between atoms: C6_6  and  S9_9 
ROOT
HETATM    1  C1  UNL     1     -33.317  15.554  -5.780  1.00 20.00     0.010 C 
HETATM    2  C7  UNL     1     -33.472  15.127  -4.317  1.00 20.00    -0.017 C 
ENDROOT
BRANCH   2   3
HETATM    3  C3  UNL     1     -34.622  14.109  -4.145  1.00 20.00     0.014 C 
BRANCH   3   4
HETATM    4  C5  UNL     1     -35.433  13.836  -5.412  1.00 20.00     0.071 C 
BRANCH   4   5
HETATM    5  S8  UNL     1     -37.151  14.395  -5.198  1.00 20.00    -0.182 SA
HETATM    6  H25 UNL     1     -36.947  15.642  -5.644  1.00 20.00     0.101 HD
ENDBRANCH   4   5
ENDBRANCH   3   4
ENDBRANCH   2   3
BRANCH   2   7
HETATM    7  C4  UNL     1     -33.636  16.337  -3.373  1.00 20.00     0.014 C 
BRANCH   7   8
HETATM    8  C6  UNL     1     -34.965  16.321  -2.616  1.00 20.00     0.073 C 
BRANCH   8   9
HETATM    9  S9  UNL     1     -34.856  17.329  -1.108  1.00 20.00    -0.173 SA
HETATM   10  C2  UNL     1     -33.151  17.897  -1.298  1.00 20.00     0.089 C 
ENDBRANCH   8   9
ENDBRANCH   7   8
ENDBRANCH   2   7
TORSDOF 6
ENDMDL
