MODEL 1
REMARK VINA RESULT:      -3.7      0.000      0.000
REMARK  6 active torsions:
REMARK  status: ('A' for Active; 'I' for Inactive)
REMARK    1  A    between atoms: C3_3  and  C4_4 
REMARK    2  A    between atoms: C4_4  and  C7_7 
REMARK    3  A    between atoms: C5_5  and  C7_7 
REMARK    4  A    between atoms: C5_5  and  S8_8 
REMARK    5  A    between atoms: C6_6  and  C7_7 
REMARK    6  A    between atoms: C6_6  and  S9_9 
ROOT
HETATM    1  C7  UNL     1     -33.270   7.670   3.029  1.00 20.00     0.004 C 
ENDROOT
BRANCH   1   2
HETATM    2  C4  UNL     1     -32.230   8.114   1.969  1.00 20.00     0.006 C 
BRANCH   2   3
HETATM    3  C3  UNL     1     -32.441   9.501   1.352  1.00 20.00    -0.004 C 
HETATM    4  C1  UNL     1     -32.887   9.459  -0.101  1.00 20.00     0.005 C 
ENDBRANCH   2   3
ENDBRANCH   1   2
BRANCH   1   5
HETATM    5  C5  UNL     1     -32.573   7.629   4.408  1.00 20.00     0.076 C 
BRANCH   5   6
HETATM    6  S8  UNL     1     -33.711   7.336   5.795  1.00 20.00    -0.182 SA
HETATM    7  H25 UNL     1     -34.025   6.079   5.454  1.00 20.00     0.101 HD
ENDBRANCH   5   6
ENDBRANCH   1   5
BRANCH   1   8
HETATM    8  C6  UNL     1     -34.019   6.372   2.652  1.00 20.00     0.078 C 
BRANCH   8   9
HETATM    9  S9  UNL     1     -33.096   4.828   2.935  1.00 20.00    -0.173 SA
HETATM   10  C2  UNL     1     -34.169   4.114   4.201  1.00 20.00     0.089 C 
ENDBRANCH   8   9
ENDBRANCH   1   8
TORSDOF 6
ENDMDL
MODEL 2
REMARK VINA RESULT:      -3.7      2.031      4.568
REMARK  6 active torsions:
REMARK  status: ('A' for Active; 'I' for Inactive)
REMARK    1  A    between atoms: C3_3  and  C4_4 
REMARK    2  A    between atoms: C4_4  and  C7_7 
REMARK    3  A    between atoms: C5_5  and  C7_7 
REMARK    4  A    between atoms: C5_5  and  S8_8 
REMARK    5  A    between atoms: C6_6  and  C7_7 
REMARK    6  A    between atoms: C6_6  and  S9_9 
ROOT
HETATM    1  C7  UNL     1     -33.306   7.624   3.024  1.00 20.00     0.004 C 
ENDROOT
BRANCH   1   2
HETATM    2  C4  UNL     1     -32.787   7.374   4.463  1.00 20.00     0.006 C 
BRANCH   2   3
HETATM    3  C3  UNL     1     -33.841   7.387   5.575  1.00 20.00    -0.004 C 
HETATM    4  C1  UNL     1     -34.397   6.011   5.904  1.00 20.00     0.005 C 
ENDBRANCH   2   3
ENDBRANCH   1   2
BRANCH   1   5
HETATM    5  C5  UNL     1     -34.028   6.346   2.538  1.00 20.00     0.076 C 
BRANCH   5   6
HETATM    6  S8  UNL     1     -33.023   4.837   2.685  1.00 20.00    -0.182 SA
HETATM    7  H25 UNL     1     -33.121   4.736   4.018  1.00 20.00     0.101 HD
ENDBRANCH   5   6
ENDBRANCH   1   5
BRANCH   1   8
HETATM    8  C6  UNL     1     -32.219   8.150   2.059  1.00 20.00     0.078 C 
BRANCH   8   9
HETATM    9  S9  UNL     1     -32.539   9.793   1.343  1.00 20.00    -0.173 SA
HETATM   10  C2  UNL     1     -32.997   9.263  -0.323  1.00 20.00     0.089 C 
ENDBRANCH   8   9
ENDBRANCH   1   8
TORSDOF 6
ENDMDL
MODEL 3
REMARK VINA RESULT:      -3.6      1.783      4.224
REMARK  6 active torsions:
REMARK  status: ('A' for Active; 'I' for Inactive)
REMARK    1  A    between atoms: C3_3  and  C4_4 
REMARK    2  A    between atoms: C4_4  and  C7_7 
REMARK    3  A    between atoms: C5_5  and  C7_7 
REMARK    4  A    between atoms: C5_5  and  S8_8 
REMARK    5  A    between atoms: C6_6  and  C7_7 
REMARK    6  A    between atoms: C6_6  and  S9_9 
ROOT
HETATM    1  C7  UNL     1     -32.311   7.237   3.111  1.00 20.00     0.004 C 
ENDROOT
BRANCH   1   2
HETATM    2  C4  UNL     1     -33.602   6.408   2.891  1.00 20.00     0.006 C 
BRANCH   2   3
HETATM    3  C3  UNL     1     -33.442   4.884   2.913  1.00 20.00    -0.004 C 
HETATM    4  C1  UNL     1     -34.165   4.213   4.070  1.00 20.00     0.005 C 
ENDBRANCH   2   3
ENDBRANCH   1   2
BRANCH   1   5
HETATM    5  C5  UNL     1     -32.513   8.129   4.358  1.00 20.00     0.076 C 
BRANCH   5   6
HETATM    6  S8  UNL     1     -33.582   7.383   5.626  1.00 20.00    -0.182 SA
HETATM    7  H25 UNL     1     -34.620   8.210   5.434  1.00 20.00     0.101 HD
ENDBRANCH   5   6
ENDBRANCH   1   5
BRANCH   1   8
HETATM    8  C6  UNL     1     -31.845   7.998   1.850  1.00 20.00     0.078 C 
BRANCH   8   9
HETATM    9  S9  UNL     1     -32.617   9.626   1.589  1.00 20.00    -0.173 SA
HETATM   10  C2  UNL     1     -32.976   9.462  -0.175  1.00 20.00     0.089 C 
ENDBRANCH   8   9
ENDBRANCH   1   8
TORSDOF 6
ENDMDL
MODEL 4
REMARK VINA RESULT:      -3.5      1.151      2.410
REMARK  6 active torsions:
REMARK  status: ('A' for Active; 'I' for Inactive)
REMARK    1  A    between atoms: C3_3  and  C4_4 
REMARK    2  A    between atoms: C4_4  and  C7_7 
REMARK    3  A    between atoms: C5_5  and  C7_7 
REMARK    4  A    between atoms: C5_5  and  S8_8 
REMARK    5  A    between atoms: C6_6  and  C7_7 
REMARK    6  A    between atoms: C6_6  and  S9_9 
ROOT
HETATM    1  C7  UNL     1     -32.597   7.285   3.306  1.00 20.00     0.004 C 
ENDROOT
BRANCH   1   2
HETATM    2  C4  UNL     1     -31.833   8.509   2.740  1.00 20.00     0.006 C 
BRANCH   2   3
HETATM    3  C3  UNL     1     -32.088   8.847   1.268  1.00 20.00    -0.004 C 
HETATM    4  C1  UNL     1     -32.689  10.227   1.055  1.00 20.00     0.005 C 
ENDBRANCH   2   3
ENDBRANCH   1   2
BRANCH   1   5
HETATM    5  C5  UNL     1     -32.902   6.320   2.138  1.00 20.00     0.076 C 
BRANCH   5   6
HETATM    6  S8  UNL     1     -33.142   4.594   2.659  1.00 20.00    -0.182 SA
HETATM    7  H25 UNL     1     -34.252   4.819   3.376  1.00 20.00     0.101 HD
ENDBRANCH   5   6
ENDBRANCH   1   5
BRANCH   1   8
HETATM    8  C6  UNL     1     -33.828   7.667   4.158  1.00 20.00     0.078 C 
BRANCH   8   9
HETATM    9  S9  UNL     1     -33.752   7.168   5.907  1.00 20.00    -0.173 SA
HETATM   10  C2  UNL     1     -34.608   5.582   5.761  1.00 20.00     0.089 C 
ENDBRANCH   8   9
ENDBRANCH   1   8
TORSDOF 6
ENDMDL
MODEL 5
REMARK VINA RESULT:      -3.3     10.453     11.611
REMARK  6 active torsions:
REMARK  status: ('A' for Active; 'I' for Inactive)
REMARK    1  A    between atoms: C3_3  and  C4_4 
REMARK    2  A    between atoms: C4_4  and  C7_7 
REMARK    3  A    between atoms: C5_5  and  C7_7 
REMARK    4  A    between atoms: C5_5  and  S8_8 
REMARK    5  A    between atoms: C6_6  and  C7_7 
REMARK    6  A    between atoms: C6_6  and  S9_9 
ROOT
HETATM    1  C7  UNL     1     -34.051  15.432  -3.814  1.00 20.00     0.004 C 
ENDROOT
BRANCH   1   2
HETATM    2  C4  UNL     1     -35.212  16.291  -3.250  1.00 20.00     0.006 C 
BRANCH   2   3
HETATM    3  C3  UNL     1     -35.095  16.710  -1.781  1.00 20.00    -0.004 C 
HETATM    4  C1  UNL     1     -33.779  17.393  -1.447  1.00 20.00     0.005 C 
ENDBRANCH   2   3
ENDBRANCH   1   2
BRANCH   1   5
HETATM    5  C5  UNL     1     -33.371  16.222  -4.955  1.00 20.00     0.076 C 
BRANCH   5   6
HETATM    6  S8  UNL     1     -34.407  17.547  -5.646  1.00 20.00    -0.182 SA
HETATM    7  H25 UNL     1     -33.583  17.854  -6.658  1.00 20.00     0.101 HD
ENDBRANCH   5   6
ENDBRANCH   1   5
BRANCH   1   8
HETATM    8  C6  UNL     1     -34.475  13.996  -4.195  1.00 20.00     0.078 C 
BRANCH   8   9
HETATM    9  S9  UNL     1     -35.978  13.870  -5.214  1.00 20.00    -0.173 SA
HETATM   10  C2  UNL     1     -35.189  13.448  -6.785  1.00 20.00     0.089 C 
ENDBRANCH   8   9
ENDBRANCH   1   8
TORSDOF 6
ENDMDL
MODEL 6
REMARK VINA RESULT:      -3.2     10.577     12.102
REMARK  6 active torsions:
REMARK  status: ('A' for Active; 'I' for Inactive)
REMARK    1  A    between atoms: C3_3  and  C4_4 
REMARK    2  A    between atoms: C4_4  and  C7_7 
REMARK    3  A    between atoms: C5_5  and  C7_7 
REMARK    4  A    between atoms: C5_5  and  S8_8 
REMARK    5  A    between atoms: C6_6  and  C7_7 
REMARK    6  A    between atoms: C6_6  and  S9_9 
ROOT
HETATM    1  C7  UNL     1     -34.935  15.685  -3.786  1.00 20.00     0.004 C 
ENDROOT
BRANCH   1   2
HETATM    2  C4  UNL     1     -33.673  16.227  -3.067  1.00 20.00     0.006 C 
BRANCH   2   3
HETATM    3  C3  UNL     1     -33.918  17.119  -1.846  1.00 20.00    -0.004 C 
HETATM    4  C1  UNL     1     -35.298  16.946  -1.233  1.00 20.00     0.005 C 
ENDBRANCH   2   3
ENDBRANCH   1   2
BRANCH   1   5
HETATM    5  C5  UNL     1     -34.656  14.231  -4.230  1.00 20.00     0.076 C 
BRANCH   5   6
HETATM    6  S8  UNL     1     -35.922  13.552  -5.346  1.00 20.00    -0.182 SA
HETATM    7  H25 UNL     1     -36.267  14.725  -5.894  1.00 20.00     0.101 HD
ENDBRANCH   5   6
ENDBRANCH   1   5
BRANCH   1   8
HETATM    8  C6  UNL     1     -35.448  16.610  -4.912  1.00 20.00     0.078 C 
BRANCH   8   9
HETATM    9  S9  UNL     1     -34.176  17.622  -5.731  1.00 20.00    -0.173 SA
HETATM   10  C2  UNL     1     -33.864  16.546  -7.149  1.00 20.00     0.089 C 
ENDBRANCH   8   9
ENDBRANCH   1   8
TORSDOF 6
ENDMDL
MODEL 7
REMARK VINA RESULT:      -3.2     11.036     11.612
REMARK  6 active torsions:
REMARK  status: ('A' for Active; 'I' for Inactive)
REMARK    1  A    between atoms: C3_3  and  C4_4 
REMARK    2  A    between atoms: C4_4  and  C7_7 
REMARK    3  A    between atoms: C5_5  and  C7_7 
REMARK    4  A    between atoms: C5_5  and  S8_8 
REMARK    5  A    between atoms: C6_6  and  C7_7 
REMARK    6  A    between atoms: C6_6  and  S9_9 
ROOT
HETATM    1  C7  UNL     1     -34.896  15.429  -3.527  1.00 20.00     0.004 C 
ENDROOT
BRANCH   1   2
HETATM    2  C4  UNL     1     -34.951  16.461  -2.372  1.00 20.00     0.006 C 
BRANCH   2   3
HETATM    3  C3  UNL     1     -33.624  17.128  -1.994  1.00 20.00    -0.004 C 
HETATM    4  C1  UNL     1     -33.704  17.969  -0.731  1.00 20.00     0.005 C 
ENDBRANCH   2   3
ENDBRANCH   1   2
BRANCH   1   5
HETATM    5  C5  UNL     1     -33.450  15.386  -4.073  1.00 20.00     0.076 C 
BRANCH   5   6
HETATM    6  S8  UNL     1     -33.317  15.839  -5.829  1.00 20.00    -0.182 SA
HETATM    7  H25 UNL     1     -33.073  17.140  -5.618  1.00 20.00     0.101 HD
ENDBRANCH   5   6
ENDBRANCH   1   5
BRANCH   1   8
HETATM    8  C6  UNL     1     -35.979  15.654  -4.606  1.00 20.00     0.078 C 
BRANCH   8   9
HETATM    9  S9  UNL     1     -36.768  14.143  -5.246  1.00 20.00    -0.173 SA
HETATM   10  C2  UNL     1     -38.490  14.680  -5.127  1.00 20.00     0.089 C 
ENDBRANCH   8   9
ENDBRANCH   1   8
TORSDOF 6
ENDMDL
MODEL 8
REMARK VINA RESULT:      -3.1      2.067      3.615
REMARK  6 active torsions:
REMARK  status: ('A' for Active; 'I' for Inactive)
REMARK    1  A    between atoms: C3_3  and  C4_4 
REMARK    2  A    between atoms: C4_4  and  C7_7 
REMARK    3  A    between atoms: C5_5  and  C7_7 
REMARK    4  A    between atoms: C5_5  and  S8_8 
REMARK    5  A    between atoms: C6_6  and  C7_7 
REMARK    6  A    between atoms: C6_6  and  S9_9 
ROOT
HETATM    1  C7  UNL     1     -32.623   7.230   3.584  1.00 20.00     0.004 C 
ENDROOT
BRANCH   1   2
HETATM    2  C4  UNL     1     -33.517   7.950   4.627  1.00 20.00     0.006 C 
BRANCH   2   3
HETATM    3  C3  UNL     1     -33.611   7.293   6.008  1.00 20.00    -0.004 C 
HETATM    4  C1  UNL     1     -34.639   6.176   6.081  1.00 20.00     0.005 C 
ENDBRANCH   2   3
ENDBRANCH   1   2
BRANCH   1   5
HETATM    5  C5  UNL     1     -31.694   8.279   2.932  1.00 20.00     0.076 C 
BRANCH   5   6
HETATM    6  S8  UNL     1     -32.351   8.978   1.387  1.00 20.00    -0.182 SA
HETATM    7  H25 UNL     1     -31.512   8.325   0.572  1.00 20.00     0.101 HD
ENDBRANCH   5   6
ENDBRANCH   1   5
BRANCH   1   8
HETATM    8  C6  UNL     1     -33.421   6.369   2.579  1.00 20.00     0.078 C 
BRANCH   8   9
HETATM    9  S9  UNL     1     -33.030   4.591   2.590  1.00 20.00    -0.173 SA
HETATM   10  C2  UNL     1     -34.098   4.100   3.962  1.00 20.00     0.089 C 
ENDBRANCH   8   9
ENDBRANCH   1   8
TORSDOF 6
ENDMDL
MODEL 9
REMARK VINA RESULT:      -3.1     11.184     12.144
REMARK  6 active torsions:
REMARK  status: ('A' for Active; 'I' for Inactive)
REMARK    1  A    between atoms: C3_3  and  C4_4 
REMARK    2  A    between atoms: C4_4  and  C7_7 
REMARK    3  A    between atoms: C5_5  and  C7_7 
REMARK    4  A    between atoms: C5_5  and  S8_8 
REMARK    5  A    between atoms: C6_6  and  C7_7 
REMARK    6  A    between atoms: C6_6  and  S9_9 
ROOT
HETATM    1  C7  UNL     1     -34.301  16.481  -4.796  1.00 20.00     0.004 C 
ENDROOT
BRANCH   1   2
HETATM    2  C4  UNL     1     -34.261  15.858  -3.378  1.00 20.00     0.006 C 
BRANCH   2   3
HETATM    3  C3  UNL     1     -34.029  16.830  -2.217  1.00 20.00    -0.004 C 
HETATM    4  C1  UNL     1     -35.226  16.967  -1.289  1.00 20.00     0.005 C 
ENDBRANCH   2   3
ENDBRANCH   1   2
BRANCH   1   5
HETATM    5  C5  UNL     1     -35.771  16.514  -5.273  1.00 20.00     0.076 C 
BRANCH   5   6
HETATM    6  S8  UNL     1     -36.844  15.321  -4.417  1.00 20.00    -0.182 SA
HETATM    7  H25 UNL     1     -35.884  14.808  -3.635  1.00 20.00     0.101 HD
ENDBRANCH   5   6
ENDBRANCH   1   5
BRANCH   1   8
HETATM    8  C6  UNL     1     -33.322  15.815  -5.790  1.00 20.00     0.078 C 
BRANCH   8   9
HETATM    9  S9  UNL     1     -34.016  15.425  -7.427  1.00 20.00    -0.173 SA
HETATM   10  C2  UNL     1     -34.393  13.681  -7.139  1.00 20.00     0.089 C 
ENDBRANCH   8   9
ENDBRANCH   1   8
TORSDOF 6
ENDMDL
