MODEL 1
REMARK VINA RESULT:      -7.4      0.000      0.000
REMARK  1 active torsions:
REMARK  status: ('A' for Active; 'I' for Inactive)
REMARK    1  A    between atoms: C5_5  and  C12_12 
ROOT
HETATM    1  C1  UNL     1     -32.923   6.519   1.670  1.00 20.00     0.008 A 
HETATM    2  C2  UNL     1     -33.546   5.453   2.328  1.00 20.00     0.009 A 
HETATM    3  C3  UNL     1     -32.998   7.874   3.688  1.00 20.00     0.023 A 
HETATM    4  C4  UNL     1     -33.612   6.803   4.311  1.00 20.00     0.017 A 
HETATM    5  C5  UNL     1     -32.652   7.721   2.346  1.00 20.00    -0.053 A 
HETATM    6  C6  UNL     1     -33.889   5.607   3.661  1.00 20.00    -0.044 A 
HETATM    7  C7  UNL     1     -34.072   6.691   5.685  1.00 20.00     0.160 A 
HETATM    8  C8  UNL     1     -34.556   4.606   4.548  1.00 20.00     0.047 A 
HETATM    9  C9  UNL     1     -34.682   5.327   5.902  1.00 20.00     0.088 A 
HETATM   10  O13 UNL     1     -33.972   7.576   6.515  1.00 20.00    -0.292 OA
ENDROOT
BRANCH   5  11
HETATM   11  C12 UNL     1     -31.987   8.841   1.620  1.00 20.00     0.018 A 
HETATM   12  C10 UNL     1     -32.711  10.154   1.479  1.00 20.00     0.010 A 
HETATM   13  C11 UNL     1     -32.528   9.273   0.282  1.00 20.00     0.010 A 
ENDBRANCH   5  11
TORSDOF 1
ENDMDL
MODEL 2
REMARK VINA RESULT:      -6.6      1.557      2.260
REMARK  1 active torsions:
REMARK  status: ('A' for Active; 'I' for Inactive)
REMARK    1  A    between atoms: C5_5  and  C12_12 
ROOT
HETATM    1  C1  UNL     1     -31.609   8.835   3.189  1.00 20.00     0.008 A 
HETATM    2  C2  UNL     1     -31.891   8.431   4.498  1.00 20.00     0.009 A 
HETATM    3  C3  UNL     1     -33.426   7.468   2.324  1.00 20.00     0.023 A 
HETATM    4  C4  UNL     1     -33.680   7.089   3.630  1.00 20.00     0.017 A 
HETATM    5  C5  UNL     1     -32.371   8.355   2.110  1.00 20.00    -0.053 A 
HETATM    6  C6  UNL     1     -32.938   7.550   4.710  1.00 20.00    -0.044 A 
HETATM    7  C7  UNL     1     -34.704   6.189   4.133  1.00 20.00     0.160 A 
HETATM    8  C8  UNL     1     -33.407   6.994   6.015  1.00 20.00     0.047 A 
HETATM    9  C9  UNL     1     -34.587   6.082   5.634  1.00 20.00     0.088 A 
HETATM   10  O13 UNL     1     -35.520   5.618   3.431  1.00 20.00    -0.292 OA
ENDROOT
BRANCH   5  11
HETATM   11  C12 UNL     1     -32.050   8.801   0.724  1.00 20.00     0.018 A 
HETATM   12  C10 UNL     1     -32.293  10.238   0.341  1.00 20.00     0.010 A 
HETATM   13  C11 UNL     1     -33.175   9.161  -0.211  1.00 20.00     0.010 A 
ENDBRANCH   5  11
TORSDOF 1
ENDMDL
MODEL 3
REMARK VINA RESULT:      -6.1     11.026     11.685
REMARK  1 active torsions:
REMARK  status: ('A' for Active; 'I' for Inactive)
REMARK    1  A    between atoms: C5_5  and  C12_12 
ROOT
HETATM    1  C1  UNL     1     -35.542  16.648  -2.075  1.00 20.00     0.008 A 
HETATM    2  C2  UNL     1     -35.670  17.265  -0.826  1.00 20.00     0.009 A 
HETATM    3  C3  UNL     1     -33.163  17.153  -2.137  1.00 20.00     0.023 A 
HETATM    4  C4  UNL     1     -33.322  17.755  -0.902  1.00 20.00     0.017 A 
HETATM    5  C5  UNL     1     -34.298  16.594  -2.725  1.00 20.00    -0.053 A 
HETATM    6  C6  UNL     1     -34.543  17.820  -0.242  1.00 20.00    -0.044 A 
HETATM    7  C7  UNL     1     -32.323  18.408  -0.073  1.00 20.00     0.160 A 
HETATM    8  C8  UNL     1     -34.455  18.521   1.075  1.00 20.00     0.047 A 
HETATM    9  C9  UNL     1     -32.972  18.916   1.192  1.00 20.00     0.088 A 
HETATM   10  O13 UNL     1     -31.148  18.516  -0.373  1.00 20.00    -0.292 OA
ENDROOT
BRANCH   5  11
HETATM   11  C12 UNL     1     -34.189  15.931  -4.057  1.00 20.00     0.018 A 
HETATM   12  C10 UNL     1     -34.782  14.559  -4.242  1.00 20.00     0.010 A 
HETATM   13  C11 UNL     1     -33.295  14.728  -4.206  1.00 20.00     0.010 A 
ENDBRANCH   5  11
TORSDOF 1
ENDMDL
MODEL 4
REMARK VINA RESULT:      -5.9     11.146     12.299
REMARK  1 active torsions:
REMARK  status: ('A' for Active; 'I' for Inactive)
REMARK    1  A    between atoms: C5_5  and  C12_12 
ROOT
HETATM    1  C1  UNL     1     -33.299  16.875  -4.773  1.00 20.00     0.008 A 
HETATM    2  C2  UNL     1     -33.332  16.376  -6.080  1.00 20.00     0.009 A 
HETATM    3  C3  UNL     1     -34.685  15.038  -3.984  1.00 20.00     0.023 A 
HETATM    4  C4  UNL     1     -34.698  14.571  -5.285  1.00 20.00     0.017 A 
HETATM    5  C5  UNL     1     -33.972  16.211  -3.733  1.00 20.00    -0.053 A 
HETATM    6  C6  UNL     1     -34.041  15.212  -6.327  1.00 20.00    -0.044 A 
HETATM    7  C7  UNL     1     -35.353  13.388  -5.820  1.00 20.00     0.160 A 
HETATM    8  C8  UNL     1     -34.206  14.511  -7.636  1.00 20.00     0.047 A 
HETATM    9  C9  UNL     1     -35.084  13.291  -7.302  1.00 20.00     0.088 A 
HETATM   10  O13 UNL     1     -36.014  12.611  -5.155  1.00 20.00    -0.292 OA
ENDROOT
BRANCH   5  11
HETATM   11  C12 UNL     1     -33.921  16.765  -2.350  1.00 20.00     0.018 A 
HETATM   12  C10 UNL     1     -35.183  16.801  -1.528  1.00 20.00     0.010 A 
HETATM   13  C11 UNL     1     -34.604  18.075  -2.058  1.00 20.00     0.010 A 
ENDBRANCH   5  11
TORSDOF 1
ENDMDL
MODEL 5
REMARK VINA RESULT:      -5.5     11.259     11.841
REMARK  1 active torsions:
REMARK  status: ('A' for Active; 'I' for Inactive)
REMARK    1  A    between atoms: C5_5  and  C12_12 
ROOT
HETATM    1  C1  UNL     1     -33.637  16.523  -3.372  1.00 20.00     0.008 A 
HETATM    2  C2  UNL     1     -33.384  15.613  -4.404  1.00 20.00     0.009 A 
HETATM    3  C3  UNL     1     -35.995  15.923  -3.355  1.00 20.00     0.023 A 
HETATM    4  C4  UNL     1     -35.712  15.032  -4.374  1.00 20.00     0.017 A 
HETATM    5  C5  UNL     1     -34.934  16.677  -2.852  1.00 20.00    -0.053 A 
HETATM    6  C6  UNL     1     -34.438  14.866  -4.903  1.00 20.00    -0.044 A 
HETATM    7  C7  UNL     1     -36.615  14.134  -5.074  1.00 20.00     0.160 A 
HETATM    8  C8  UNL     1     -34.391  13.846  -5.994  1.00 20.00     0.047 A 
HETATM    9  C9  UNL     1     -35.845  13.355  -6.113  1.00 20.00     0.088 A 
HETATM   10  O13 UNL     1     -37.806  14.042  -4.841  1.00 20.00    -0.292 OA
ENDROOT
BRANCH   5  11
HETATM   11  C12 UNL     1     -35.177  17.654  -1.752  1.00 20.00     0.018 A 
HETATM   12  C10 UNL     1     -34.124  17.839  -0.691  1.00 20.00     0.010 A 
HETATM   13  C11 UNL     1     -35.405  17.142  -0.354  1.00 20.00     0.010 A 
ENDBRANCH   5  11
TORSDOF 1
ENDMDL
MODEL 6
REMARK VINA RESULT:      -5.4     11.215     11.718
REMARK  1 active torsions:
REMARK  status: ('A' for Active; 'I' for Inactive)
REMARK    1  A    between atoms: C5_5  and  C12_12 
ROOT
HETATM    1  C1  UNL     1     -33.458  17.132  -2.482  1.00 20.00     0.008 A 
HETATM    2  C2  UNL     1     -32.846  17.908  -1.492  1.00 20.00     0.009 A 
HETATM    3  C3  UNL     1     -35.481  16.935  -1.146  1.00 20.00     0.023 A 
HETATM    4  C4  UNL     1     -34.848  17.704  -0.187  1.00 20.00     0.017 A 
HETATM    5  C5  UNL     1     -34.766  16.649  -2.309  1.00 20.00    -0.053 A 
HETATM    6  C6  UNL     1     -33.556  18.191  -0.338  1.00 20.00    -0.044 A 
HETATM    7  C7  UNL     1     -35.353  18.147   1.102  1.00 20.00     0.160 A 
HETATM    8  C8  UNL     1     -33.098  18.994   0.837  1.00 20.00     0.047 A 
HETATM    9  C9  UNL     1     -34.296  18.966   1.803  1.00 20.00     0.088 A 
HETATM   10  O13 UNL     1     -36.462  17.884   1.531  1.00 20.00    -0.292 OA
ENDROOT
BRANCH   5  11
HETATM   11  C12 UNL     1     -35.396  15.824  -3.380  1.00 20.00     0.018 A 
HETATM   12  C10 UNL     1     -34.528  15.257  -4.473  1.00 20.00     0.010 A 
HETATM   13  C11 UNL     1     -35.476  16.376  -4.780  1.00 20.00     0.010 A 
ENDBRANCH   5  11
TORSDOF 1
ENDMDL
MODEL 7
REMARK VINA RESULT:      -5.3     10.842     11.850
REMARK  1 active torsions:
REMARK  status: ('A' for Active; 'I' for Inactive)
REMARK    1  A    between atoms: C5_5  and  C12_12 
ROOT
HETATM    1  C1  UNL     1     -36.082  17.749  -2.642  1.00 20.00     0.008 A 
HETATM    2  C2  UNL     1     -36.841  16.850  -3.398  1.00 20.00     0.009 A 
HETATM    3  C3  UNL     1     -34.094  16.374  -2.913  1.00 20.00     0.023 A 
HETATM    4  C4  UNL     1     -34.871  15.505  -3.656  1.00 20.00     0.017 A 
HETATM    5  C5  UNL     1     -34.718  17.512  -2.401  1.00 20.00    -0.053 A 
HETATM    6  C6  UNL     1     -36.221  15.720  -3.906  1.00 20.00    -0.044 A 
HETATM    7  C7  UNL     1     -34.484  14.260  -4.299  1.00 20.00     0.160 A 
HETATM    8  C8  UNL     1     -36.838  14.639  -4.731  1.00 20.00     0.047 A 
HETATM    9  C9  UNL     1     -35.681  13.659  -4.996  1.00 20.00     0.088 A 
HETATM   10  O13 UNL     1     -33.360  13.793  -4.266  1.00 20.00    -0.292 OA
ENDROOT
BRANCH   5  11
HETATM   11  C12 UNL     1     -33.931  18.486  -1.592  1.00 20.00     0.018 A 
HETATM   12  C10 UNL     1     -32.583  18.077  -1.060  1.00 20.00     0.010 A 
HETATM   13  C11 UNL     1     -33.738  18.231  -0.120  1.00 20.00     0.010 A 
ENDBRANCH   5  11
TORSDOF 1
ENDMDL
MODEL 8
REMARK VINA RESULT:      -5.2     11.049     12.415
REMARK  1 active torsions:
REMARK  status: ('A' for Active; 'I' for Inactive)
REMARK    1  A    between atoms: C5_5  and  C12_12 
ROOT
HETATM    1  C1  UNL     1     -33.513  18.337  -3.207  1.00 20.00     0.008 A 
HETATM    2  C2  UNL     1     -33.326  18.005  -4.553  1.00 20.00     0.009 A 
HETATM    3  C3  UNL     1     -34.289  16.086  -2.709  1.00 20.00     0.023 A 
HETATM    4  C4  UNL     1     -34.094  15.789  -4.045  1.00 20.00     0.017 A 
HETATM    5  C5  UNL     1     -33.992  17.383  -2.292  1.00 20.00    -0.053 A 
HETATM    6  C6  UNL     1     -33.622  16.717  -4.966  1.00 20.00    -0.044 A 
HETATM    7  C7  UNL     1     -34.320  14.533  -4.741  1.00 20.00     0.160 A 
HETATM    8  C8  UNL     1     -33.497  16.154  -6.345  1.00 20.00     0.047 A 
HETATM    9  C9  UNL     1     -33.964  14.694  -6.199  1.00 20.00     0.088 A 
HETATM   10  O13 UNL     1     -34.734  13.519  -4.208  1.00 20.00    -0.292 OA
ENDROOT
BRANCH   5  11
HETATM   11  C12 UNL     1     -34.182  17.763  -0.863  1.00 20.00     0.018 A 
HETATM   12  C10 UNL     1     -35.440  17.336  -0.152  1.00 20.00     0.010 A 
HETATM   13  C11 UNL     1     -35.239  18.776  -0.507  1.00 20.00     0.010 A 
ENDBRANCH   5  11
TORSDOF 1
ENDMDL
MODEL 9
REMARK VINA RESULT:      -5.1     11.215     11.890
REMARK  1 active torsions:
REMARK  status: ('A' for Active; 'I' for Inactive)
REMARK    1  A    between atoms: C5_5  and  C12_12 
ROOT
HETATM    1  C1  UNL     1     -33.950  14.419  -4.734  1.00 20.00     0.008 A 
HETATM    2  C2  UNL     1     -33.275  15.244  -3.827  1.00 20.00     0.009 A 
HETATM    3  C3  UNL     1     -36.082  15.431  -4.142  1.00 20.00     0.023 A 
HETATM    4  C4  UNL     1     -35.385  16.231  -3.255  1.00 20.00     0.017 A 
HETATM    5  C5  UNL     1     -35.344  14.513  -4.889  1.00 20.00    -0.053 A 
HETATM    6  C6  UNL     1     -34.009  16.154  -3.086  1.00 20.00    -0.044 A 
HETATM    7  C7  UNL     1     -35.896  17.259  -2.363  1.00 20.00     0.160 A 
HETATM    8  C8  UNL     1     -33.494  17.122  -2.070  1.00 20.00     0.047 A 
HETATM    9  C9  UNL     1     -34.753  17.862  -1.583  1.00 20.00     0.088 A 
HETATM   10  O13 UNL     1     -37.070  17.568  -2.275  1.00 20.00    -0.292 OA
ENDROOT
BRANCH   5  11
HETATM   11  C12 UNL     1     -36.039  13.623  -5.863  1.00 20.00     0.018 A 
HETATM   12  C10 UNL     1     -35.284  13.120  -7.065  1.00 20.00     0.010 A 
HETATM   13  C11 UNL     1     -36.359  14.147  -7.238  1.00 20.00     0.010 A 
ENDBRANCH   5  11
TORSDOF 1
ENDMDL
