MODEL 1
REMARK VINA RESULT:      -5.5      0.000      0.000
REMARK  2 active torsions:
REMARK  status: ('A' for Active; 'I' for Inactive)
REMARK    1  A    between atoms: C5_5  and  C10_10 
REMARK    2  A    between atoms: C6_6  and  C11_11 
ROOT
HETATM    1  C1  UNL     1     -33.412   7.297   4.391  1.00 20.00     0.008 A 
HETATM    2  C2  UNL     1     -34.058   6.104   2.392  1.00 20.00     0.008 A 
HETATM    3  C3  UNL     1     -32.656   8.180   3.620  1.00 20.00     0.010 A 
HETATM    4  C4  UNL     1     -33.302   6.987   1.621  1.00 20.00     0.010 A 
HETATM    5  C5  UNL     1     -34.113   6.259   3.777  1.00 20.00    -0.054 A 
HETATM    6  C6  UNL     1     -32.600   8.024   2.236  1.00 20.00    -0.027 A 
ENDROOT
BRANCH   5   7
HETATM    7  C10 UNL     1     -34.921   5.316   4.601  1.00 20.00     0.018 A 
HETATM    8  C7  UNL     1     -34.557   5.111   6.049  1.00 20.00     0.010 A 
HETATM    9  C8  UNL     1     -34.298   4.021   5.057  1.00 20.00     0.010 A 
ENDBRANCH   5   7
BRANCH   6  10
HETATM   10  C11 UNL     1     -31.792   8.967   1.412  1.00 20.00     0.178 A 
HETATM   11  C9  UNL     1     -32.400   9.585   0.180  1.00 20.00     0.205 A 
HETATM   12  O12 UNL     1     -32.230  10.333   1.386  1.00 20.00    -0.376 OA
ENDBRANCH   6  10
TORSDOF 2
ENDMDL
MODEL 2
REMARK VINA RESULT:      -5.5      0.016      1.395
REMARK  2 active torsions:
REMARK  status: ('A' for Active; 'I' for Inactive)
REMARK    1  A    between atoms: C5_5  and  C10_10 
REMARK    2  A    between atoms: C6_6  and  C11_11 
ROOT
HETATM    1  C1  UNL     1     -34.050   6.096   2.401  1.00 20.00     0.008 A 
HETATM    2  C2  UNL     1     -33.426   7.299   4.401  1.00 20.00     0.008 A 
HETATM    3  C3  UNL     1     -33.295   6.981   1.633  1.00 20.00     0.010 A 
HETATM    4  C4  UNL     1     -32.670   8.184   3.633  1.00 20.00     0.010 A 
HETATM    5  C5  UNL     1     -34.116   6.255   3.785  1.00 20.00    -0.054 A 
HETATM    6  C6  UNL     1     -32.605   8.025   2.248  1.00 20.00    -0.027 A 
ENDROOT
BRANCH   5   7
HETATM    7  C10 UNL     1     -34.924   5.309   4.606  1.00 20.00     0.018 A 
HETATM    8  C7  UNL     1     -34.554   5.091   6.050  1.00 20.00     0.010 A 
HETATM    9  C8  UNL     1     -34.305   4.008   5.048  1.00 20.00     0.010 A 
ENDBRANCH   5   7
BRANCH   6  10
HETATM   10  C11 UNL     1     -31.797   8.971   1.428  1.00 20.00     0.178 A 
HETATM   11  C9  UNL     1     -32.402   9.589   0.195  1.00 20.00     0.205 A 
HETATM   12  O12 UNL     1     -32.239  10.336   1.402  1.00 20.00    -0.376 OA
ENDBRANCH   6  10
TORSDOF 2
ENDMDL
MODEL 3
REMARK VINA RESULT:      -5.5      2.154      5.128
REMARK  2 active torsions:
REMARK  status: ('A' for Active; 'I' for Inactive)
REMARK    1  A    between atoms: C5_5  and  C10_10 
REMARK    2  A    between atoms: C6_6  and  C11_11 
ROOT
HETATM    1  C1  UNL     1     -32.611   8.193   3.650  1.00 20.00     0.008 A 
HETATM    2  C2  UNL     1     -33.379   7.017   1.684  1.00 20.00     0.008 A 
HETATM    3  C3  UNL     1     -33.338   7.319   4.457  1.00 20.00     0.010 A 
HETATM    4  C4  UNL     1     -34.106   6.143   2.492  1.00 20.00     0.010 A 
HETATM    5  C5  UNL     1     -32.631   8.042   2.263  1.00 20.00    -0.054 A 
HETATM    6  C6  UNL     1     -34.086   6.295   3.879  1.00 20.00    -0.027 A 
ENDROOT
BRANCH   5   7
HETATM    7  C10 UNL     1     -31.854   8.976   1.401  1.00 20.00     0.018 A 
HETATM    8  C7  UNL     1     -32.371  10.374   1.182  1.00 20.00     0.010 A 
HETATM    9  C8  UNL     1     -32.418   9.382   0.063  1.00 20.00     0.010 A 
ENDBRANCH   5   7
BRANCH   6  10
HETATM   10  C11 UNL     1     -34.864   5.361   4.741  1.00 20.00     0.178 A 
HETATM   11  C9  UNL     1     -34.305   3.997   5.051  1.00 20.00     0.205 A 
HETATM   12  O12 UNL     1     -34.296   5.047   6.021  1.00 20.00    -0.376 OA
ENDBRANCH   6  10
TORSDOF 2
ENDMDL
MODEL 4
REMARK VINA RESULT:      -5.1     10.968     11.682
REMARK  2 active torsions:
REMARK  status: ('A' for Active; 'I' for Inactive)
REMARK    1  A    between atoms: C5_5  and  C10_10 
REMARK    2  A    between atoms: C6_6  and  C11_11 
ROOT
HETATM    1  C1  UNL     1     -36.115  16.684  -3.115  1.00 20.00     0.008 A 
HETATM    2  C2  UNL     1     -33.848  15.904  -3.420  1.00 20.00     0.008 A 
HETATM    3  C3  UNL     1     -36.584  15.625  -3.892  1.00 20.00     0.010 A 
HETATM    4  C4  UNL     1     -34.318  14.845  -4.198  1.00 20.00     0.010 A 
HETATM    5  C5  UNL     1     -34.747  16.823  -2.880  1.00 20.00    -0.054 A 
HETATM    6  C6  UNL     1     -35.686  14.706  -4.434  1.00 20.00    -0.027 A 
ENDROOT
BRANCH   5   7
HETATM    7  C10 UNL     1     -34.246  17.955  -2.049  1.00 20.00     0.018 A 
HETATM    8  C7  UNL     1     -32.889  17.846  -1.404  1.00 20.00     0.010 A 
HETATM    9  C8  UNL     1     -34.121  17.772  -0.558  1.00 20.00     0.010 A 
ENDBRANCH   5   7
BRANCH   6  10
HETATM   10  C11 UNL     1     -36.187  13.575  -5.264  1.00 20.00     0.178 A 
HETATM   11  C9  UNL     1     -36.036  13.628  -6.761  1.00 20.00     0.205 A 
HETATM   12  O12 UNL     1     -35.197  12.799  -5.954  1.00 20.00    -0.376 OA
ENDBRANCH   6  10
TORSDOF 2
ENDMDL
MODEL 5
REMARK VINA RESULT:      -5.1     11.159     11.830
REMARK  2 active torsions:
REMARK  status: ('A' for Active; 'I' for Inactive)
REMARK    1  A    between atoms: C5_5  and  C10_10 
REMARK    2  A    between atoms: C6_6  and  C11_11 
ROOT
HETATM    1  C1  UNL     1     -33.315  17.403  -1.993  1.00 20.00     0.008 A 
HETATM    2  C2  UNL     1     -35.111  17.420  -0.377  1.00 20.00     0.008 A 
HETATM    3  C3  UNL     1     -32.512  18.123  -1.109  1.00 20.00     0.010 A 
HETATM    4  C4  UNL     1     -34.308  18.141   0.507  1.00 20.00     0.010 A 
HETATM    5  C5  UNL     1     -34.614  17.051  -1.627  1.00 20.00    -0.054 A 
HETATM    6  C6  UNL     1     -33.009  18.493   0.140  1.00 20.00    -0.027 A 
ENDROOT
BRANCH   5   7
HETATM    7  C10 UNL     1     -35.472  16.281  -2.572  1.00 20.00     0.018 A 
HETATM    8  C7  UNL     1     -34.826  15.562  -3.728  1.00 20.00     0.010 A 
HETATM    9  C8  UNL     1     -35.648  16.786  -3.981  1.00 20.00     0.010 A 
ENDBRANCH   5   7
BRANCH   6  10
HETATM   10  C11 UNL     1     -32.152  19.263   1.085  1.00 20.00     0.178 A 
HETATM   11  C9  UNL     1     -31.483  18.550   2.231  1.00 20.00     0.205 A 
HETATM   12  O12 UNL     1     -30.750  18.958   1.073  1.00 20.00    -0.376 OA
ENDBRANCH   6  10
TORSDOF 2
ENDMDL
MODEL 6
REMARK VINA RESULT:      -5.0     10.778     11.683
REMARK  2 active torsions:
REMARK  status: ('A' for Active; 'I' for Inactive)
REMARK    1  A    between atoms: C5_5  and  C10_10 
REMARK    2  A    between atoms: C6_6  and  C11_11 
ROOT
HETATM    1  C1  UNL     1     -33.031  17.788  -1.798  1.00 20.00     0.008 A 
HETATM    2  C2  UNL     1     -35.253  16.925  -1.407  1.00 20.00     0.008 A 
HETATM    3  C3  UNL     1     -33.044  18.391  -0.541  1.00 20.00     0.010 A 
HETATM    4  C4  UNL     1     -35.267  17.527  -0.149  1.00 20.00     0.010 A 
HETATM    5  C5  UNL     1     -34.136  17.056  -2.231  1.00 20.00    -0.054 A 
HETATM    6  C6  UNL     1     -34.161  18.261   0.283  1.00 20.00    -0.027 A 
ENDROOT
BRANCH   5   7
HETATM    7  C10 UNL     1     -34.122  16.411  -3.575  1.00 20.00     0.018 A 
HETATM    8  C7  UNL     1     -34.908  15.144  -3.789  1.00 20.00     0.010 A 
HETATM    9  C8  UNL     1     -33.413  15.093  -3.750  1.00 20.00     0.010 A 
ENDBRANCH   5   7
BRANCH   6  10
HETATM   10  C11 UNL     1     -34.175  18.906   1.627  1.00 20.00     0.178 A 
HETATM   11  C9  UNL     1     -33.772  18.106   2.838  1.00 20.00     0.205 A 
HETATM   12  O12 UNL     1     -32.903  19.086   2.265  1.00 20.00    -0.376 OA
ENDBRANCH   6  10
TORSDOF 2
ENDMDL
MODEL 7
REMARK VINA RESULT:      -5.0     10.742     11.673
REMARK  2 active torsions:
REMARK  status: ('A' for Active; 'I' for Inactive)
REMARK    1  A    between atoms: C5_5  and  C10_10 
REMARK    2  A    between atoms: C6_6  and  C11_11 
ROOT
HETATM    1  C1  UNL     1     -35.287  16.728  -1.663  1.00 20.00     0.008 A 
HETATM    2  C2  UNL     1     -33.078  17.658  -1.968  1.00 20.00     0.008 A 
HETATM    3  C3  UNL     1     -35.384  17.362  -0.425  1.00 20.00     0.010 A 
HETATM    4  C4  UNL     1     -33.174  18.292  -0.729  1.00 20.00     0.010 A 
HETATM    5  C5  UNL     1     -34.134  16.876  -2.434  1.00 20.00    -0.054 A 
HETATM    6  C6  UNL     1     -34.327  18.144   0.043  1.00 20.00    -0.027 A 
ENDROOT
BRANCH   5   7
HETATM    7  C10 UNL     1     -34.031  16.198  -3.757  1.00 20.00     0.018 A 
HETATM    8  C7  UNL     1     -34.791  14.917  -3.986  1.00 20.00     0.010 A 
HETATM    9  C8  UNL     1     -33.301  14.883  -3.854  1.00 20.00     0.010 A 
ENDBRANCH   5   7
BRANCH   6  10
HETATM   10  C11 UNL     1     -34.430  18.822   1.366  1.00 20.00     0.178 A 
HETATM   11  C9  UNL     1     -33.915  18.127   2.598  1.00 20.00     0.205 A 
HETATM   12  O12 UNL     1     -33.195  19.201   1.989  1.00 20.00    -0.376 OA
ENDBRANCH   6  10
TORSDOF 2
ENDMDL
MODEL 8
REMARK VINA RESULT:      -4.9     10.731     11.431
REMARK  2 active torsions:
REMARK  status: ('A' for Active; 'I' for Inactive)
REMARK    1  A    between atoms: C5_5  and  C10_10 
REMARK    2  A    between atoms: C6_6  and  C11_11 
ROOT
HETATM    1  C1  UNL     1     -35.363  17.343  -0.558  1.00 20.00     0.008 A 
HETATM    2  C2  UNL     1     -33.133  18.129  -1.054  1.00 20.00     0.008 A 
HETATM    3  C3  UNL     1     -35.383  16.639  -1.762  1.00 20.00     0.010 A 
HETATM    4  C4  UNL     1     -33.153  17.426  -2.259  1.00 20.00     0.010 A 
HETATM    5  C5  UNL     1     -34.238  18.088  -0.204  1.00 20.00    -0.054 A 
HETATM    6  C6  UNL     1     -34.279  16.681  -2.612  1.00 20.00    -0.027 A 
ENDROOT
BRANCH   5   7
HETATM    7  C10 UNL     1     -34.216  18.839   1.083  1.00 20.00     0.018 A 
HETATM    8  C7  UNL     1     -32.928  18.925   1.860  1.00 20.00     0.010 A 
HETATM    9  C8  UNL     1     -34.050  18.079   2.374  1.00 20.00     0.010 A 
ENDBRANCH   5   7
BRANCH   6  10
HETATM   10  C11 UNL     1     -34.301  15.930  -3.899  1.00 20.00     0.178 A 
HETATM   11  C9  UNL     1     -33.278  14.853  -4.148  1.00 20.00     0.205 A 
HETATM   12  O12 UNL     1     -34.633  14.536  -3.822  1.00 20.00    -0.376 OA
ENDBRANCH   6  10
TORSDOF 2
ENDMDL
MODEL 9
REMARK VINA RESULT:      -4.7     11.038     11.543
REMARK  2 active torsions:
REMARK  status: ('A' for Active; 'I' for Inactive)
REMARK    1  A    between atoms: C5_5  and  C10_10 
REMARK    2  A    between atoms: C6_6  and  C11_11 
ROOT
HETATM    1  C1  UNL     1     -33.439  17.034  -2.280  1.00 20.00     0.008 A 
HETATM    2  C2  UNL     1     -35.840  17.063  -2.015  1.00 20.00     0.008 A 
HETATM    3  C3  UNL     1     -33.560  16.055  -3.266  1.00 20.00     0.010 A 
HETATM    4  C4  UNL     1     -35.962  16.084  -3.001  1.00 20.00     0.010 A 
HETATM    5  C5  UNL     1     -34.580  17.538  -1.655  1.00 20.00    -0.054 A 
HETATM    6  C6  UNL     1     -34.820  15.580  -3.626  1.00 20.00    -0.027 A 
ENDROOT
BRANCH   5   7
HETATM    7  C10 UNL     1     -34.450  18.585  -0.601  1.00 20.00     0.018 A 
HETATM    8  C7  UNL     1     -33.243  18.573   0.300  1.00 20.00     0.010 A 
HETATM    9  C8  UNL     1     -34.581  18.188   0.847  1.00 20.00     0.010 A 
ENDBRANCH   5   7
BRANCH   6  10
HETATM   10  C11 UNL     1     -34.950  14.533  -4.679  1.00 20.00     0.178 A 
HETATM   11  C9  UNL     1     -34.349  14.770  -6.039  1.00 20.00     0.205 A 
HETATM   12  O12 UNL     1     -33.737  13.889  -5.095  1.00 20.00    -0.376 OA
ENDBRANCH   6  10
TORSDOF 2
ENDMDL
