MODEL 1
REMARK VINA RESULT:      -3.4      0.000      0.000
REMARK  6 active torsions:
REMARK  status: ('A' for Active; 'I' for Inactive)
REMARK    1  A    between atoms: C2_2  and  C3_3 
REMARK    2  A    between atoms: C2_2  and  O6_6 
REMARK    3  A    between atoms: C3_3  and  S8_8 
REMARK    4  A    between atoms: C4_4  and  C5_5 
REMARK    5  A    between atoms: C4_4  and  S7_7 
REMARK    6  A    between atoms: C5_5  and  S8_8 
ROOT
HETATM    1  S8  UNL     1     -33.388   6.879   3.417  1.00 20.00    -0.166 SA
ENDROOT
BRANCH   1   2
HETATM    2  C3  UNL     1     -31.972   8.006   3.229  1.00 20.00     0.100 C 
BRANCH   2   3
HETATM    3  C2  UNL     1     -31.799   8.443   1.783  1.00 20.00     0.177 C 
BRANCH   3   4
HETATM    4  O6  UNL     1     -32.582   9.603   1.527  1.00 20.00    -0.395 OA
HETATM    5  C1  UNL     1     -32.863   9.746   0.142  1.00 20.00     0.201 C 
ENDBRANCH   3   4
ENDBRANCH   2   3
ENDBRANCH   1   2
BRANCH   1   6
HETATM    6  C5  UNL     1     -33.716   7.164   5.171  1.00 20.00     0.084 C 
BRANCH   6   7
HETATM    7  C4  UNL     1     -34.437   5.966   5.771  1.00 20.00     0.081 C 
BRANCH   7   8
HETATM    8  S7  UNL     1     -34.515   4.613   4.560  1.00 20.00    -0.181 SA
HETATM    9  H20 UNL     1     -33.302   4.113   4.831  1.00 20.00     0.101 HD
ENDBRANCH   7   8
ENDBRANCH   6   7
ENDBRANCH   1   6
TORSDOF 6
ENDMDL
MODEL 2
REMARK VINA RESULT:      -3.3      2.573      5.059
REMARK  6 active torsions:
REMARK  status: ('A' for Active; 'I' for Inactive)
REMARK    1  A    between atoms: C2_2  and  C3_3 
REMARK    2  A    between atoms: C2_2  and  O6_6 
REMARK    3  A    between atoms: C3_3  and  S8_8 
REMARK    4  A    between atoms: C4_4  and  C5_5 
REMARK    5  A    between atoms: C4_4  and  S7_7 
REMARK    6  A    between atoms: C5_5  and  S8_8 
ROOT
HETATM    1  S8  UNL     1     -33.147   7.172   3.088  1.00 20.00    -0.166 SA
ENDROOT
BRANCH   1   2
HETATM    2  C3  UNL     1     -33.234   7.338   4.897  1.00 20.00     0.100 C 
BRANCH   2   3
HETATM    3  C2  UNL     1     -34.288   6.415   5.489  1.00 20.00     0.177 C 
BRANCH   3   4
HETATM    4  O6  UNL     1     -34.835   5.583   4.473  1.00 20.00    -0.395 OA
HETATM    5  C1  UNL     1     -34.458   4.225   4.652  1.00 20.00     0.201 C 
ENDBRANCH   3   4
ENDBRANCH   2   3
ENDBRANCH   1   2
BRANCH   1   6
HETATM    6  C5  UNL     1     -31.794   8.331   2.786  1.00 20.00     0.084 C 
BRANCH   6   7
HETATM    7  C4  UNL     1     -31.721   8.678   1.306  1.00 20.00     0.081 C 
BRANCH   7   8
HETATM    8  S7  UNL     1     -32.714  10.160   0.961  1.00 20.00    -0.181 SA
HETATM    9  H20 UNL     1     -32.356  10.828   2.066  1.00 20.00     0.101 HD
ENDBRANCH   7   8
ENDBRANCH   6   7
ENDBRANCH   1   6
TORSDOF 6
ENDMDL
MODEL 3
REMARK VINA RESULT:      -3.3      2.880      5.081
REMARK  6 active torsions:
REMARK  status: ('A' for Active; 'I' for Inactive)
REMARK    1  A    between atoms: C2_2  and  C3_3 
REMARK    2  A    between atoms: C2_2  and  O6_6 
REMARK    3  A    between atoms: C3_3  and  S8_8 
REMARK    4  A    between atoms: C4_4  and  C5_5 
REMARK    5  A    between atoms: C4_4  and  S7_7 
REMARK    6  A    between atoms: C5_5  and  S8_8 
ROOT
HETATM    1  S8  UNL     1     -33.100   6.145   2.584  1.00 20.00    -0.166 SA
ENDROOT
BRANCH   1   2
HETATM    2  C3  UNL     1     -34.615   6.087   3.589  1.00 20.00     0.100 C 
BRANCH   2   3
HETATM    3  C2  UNL     1     -34.599   4.907   4.547  1.00 20.00     0.177 C 
BRANCH   3   4
HETATM    4  O6  UNL     1     -34.605   5.370   5.892  1.00 20.00    -0.395 OA
HETATM    5  C1  UNL     1     -34.142   6.710   5.984  1.00 20.00     0.201 C 
ENDBRANCH   3   4
ENDBRANCH   2   3
ENDBRANCH   1   2
BRANCH   1   6
HETATM    6  C5  UNL     1     -32.670   7.878   2.863  1.00 20.00     0.084 C 
BRANCH   6   7
HETATM    7  C4  UNL     1     -31.864   8.414   1.688  1.00 20.00     0.081 C 
BRANCH   7   8
HETATM    8  S7  UNL     1     -32.637   9.924   1.037  1.00 20.00    -0.181 SA
HETATM    9  H20 UNL     1     -33.855   9.684   1.539  1.00 20.00     0.101 HD
ENDBRANCH   7   8
ENDBRANCH   6   7
ENDBRANCH   1   6
TORSDOF 6
ENDMDL
MODEL 4
REMARK VINA RESULT:      -3.2      1.464      1.578
REMARK  6 active torsions:
REMARK  status: ('A' for Active; 'I' for Inactive)
REMARK    1  A    between atoms: C2_2  and  C3_3 
REMARK    2  A    between atoms: C2_2  and  O6_6 
REMARK    3  A    between atoms: C3_3  and  S8_8 
REMARK    4  A    between atoms: C4_4  and  C5_5 
REMARK    5  A    between atoms: C4_4  and  S7_7 
REMARK    6  A    between atoms: C5_5  and  S8_8 
ROOT
HETATM    1  S8  UNL     1     -33.146   6.042   2.838  1.00 20.00    -0.166 SA
ENDROOT
BRANCH   1   2
HETATM    2  C3  UNL     1     -33.182   7.815   2.435  1.00 20.00     0.100 C 
BRANCH   2   3
HETATM    3  C2  UNL     1     -31.782   8.358   2.195  1.00 20.00     0.177 C 
BRANCH   3   4
HETATM    4  O6  UNL     1     -31.691   8.912   0.888  1.00 20.00    -0.395 OA
HETATM    5  C1  UNL     1     -32.511  10.064   0.752  1.00 20.00     0.201 C 
ENDBRANCH   3   4
ENDBRANCH   2   3
ENDBRANCH   1   2
BRANCH   1   6
HETATM    6  C5  UNL     1     -34.764   5.924   3.634  1.00 20.00     0.084 C 
BRANCH   6   7
HETATM    7  C4  UNL     1     -34.597   5.715   5.133  1.00 20.00     0.081 C 
BRANCH   7   8
HETATM    8  S7  UNL     1     -33.783   7.160   5.878  1.00 20.00    -0.181 SA
HETATM    9  H20 UNL     1     -34.495   7.151   7.013  1.00 20.00     0.101 HD
ENDBRANCH   7   8
ENDBRANCH   6   7
ENDBRANCH   1   6
TORSDOF 6
ENDMDL
MODEL 5
REMARK VINA RESULT:      -2.9     10.713     11.144
REMARK  6 active torsions:
REMARK  status: ('A' for Active; 'I' for Inactive)
REMARK    1  A    between atoms: C2_2  and  C3_3 
REMARK    2  A    between atoms: C2_2  and  O6_6 
REMARK    3  A    between atoms: C3_3  and  S8_8 
REMARK    4  A    between atoms: C4_4  and  C5_5 
REMARK    5  A    between atoms: C4_4  and  S7_7 
REMARK    6  A    between atoms: C5_5  and  S8_8 
ROOT
HETATM    1  S8  UNL     1     -33.998  15.907  -3.829  1.00 20.00    -0.166 SA
ENDROOT
BRANCH   1   2
HETATM    2  C3  UNL     1     -34.325  14.149  -4.161  1.00 20.00     0.100 C 
BRANCH   2   3
HETATM    3  C2  UNL     1     -35.649  13.957  -4.882  1.00 20.00     0.177 C 
BRANCH   3   4
HETATM    4  O6  UNL     1     -35.596  12.795  -5.700  1.00 20.00    -0.395 OA
HETATM    5  C1  UNL     1     -35.174  13.107  -7.021  1.00 20.00     0.201 C 
ENDBRANCH   3   4
ENDBRANCH   2   3
ENDBRANCH   1   2
BRANCH   1   6
HETATM    6  C5  UNL     1     -35.486  16.270  -2.868  1.00 20.00     0.084 C 
BRANCH   6   7
HETATM    7  C4  UNL     1     -35.107  16.888  -1.529  1.00 20.00     0.081 C 
BRANCH   7   8
HETATM    8  S7  UNL     1     -33.444  17.615  -1.625  1.00 20.00    -0.181 SA
HETATM    9  H20 UNL     1     -33.203  17.246  -2.889  1.00 20.00     0.101 HD
ENDBRANCH   7   8
ENDBRANCH   6   7
ENDBRANCH   1   6
TORSDOF 6
ENDMDL
MODEL 6
REMARK VINA RESULT:      -2.8     10.671     12.219
REMARK  6 active torsions:
REMARK  status: ('A' for Active; 'I' for Inactive)
REMARK    1  A    between atoms: C2_2  and  C3_3 
REMARK    2  A    between atoms: C2_2  and  O6_6 
REMARK    3  A    between atoms: C3_3  and  S8_8 
REMARK    4  A    between atoms: C4_4  and  C5_5 
REMARK    5  A    between atoms: C4_4  and  S7_7 
REMARK    6  A    between atoms: C5_5  and  S8_8 
ROOT
HETATM    1  S8  UNL     1     -34.271  15.768  -3.949  1.00 20.00    -0.166 SA
ENDROOT
BRANCH   1   2
HETATM    2  C3  UNL     1     -34.582  13.986  -4.138  1.00 20.00     0.100 C 
BRANCH   2   3
HETATM    3  C2  UNL     1     -35.786  13.724  -5.028  1.00 20.00     0.177 C 
BRANCH   3   4
HETATM    4  O6  UNL     1     -35.495  12.680  -5.949  1.00 20.00    -0.395 OA
HETATM    5  C1  UNL     1     -34.974  13.191  -7.168  1.00 20.00     0.201 C 
ENDBRANCH   3   4
ENDBRANCH   2   3
ENDBRANCH   1   2
BRANCH   1   6
HETATM    6  C5  UNL     1     -33.150  15.986  -5.349  1.00 20.00     0.084 C 
BRANCH   6   7
HETATM    7  C4  UNL     1     -33.868  16.694  -6.490  1.00 20.00     0.081 C 
BRANCH   7   8
HETATM    8  S7  UNL     1     -35.391  17.475  -5.881  1.00 20.00    -0.181 SA
HETATM    9  H20 UNL     1     -35.178  17.205  -4.587  1.00 20.00     0.101 HD
ENDBRANCH   7   8
ENDBRANCH   6   7
ENDBRANCH   1   6
TORSDOF 6
ENDMDL
MODEL 7
REMARK VINA RESULT:      -2.7     11.129     11.897
REMARK  6 active torsions:
REMARK  status: ('A' for Active; 'I' for Inactive)
REMARK    1  A    between atoms: C2_2  and  C3_3 
REMARK    2  A    between atoms: C2_2  and  O6_6 
REMARK    3  A    between atoms: C3_3  and  S8_8 
REMARK    4  A    between atoms: C4_4  and  C5_5 
REMARK    5  A    between atoms: C4_4  and  S7_7 
REMARK    6  A    between atoms: C5_5  and  S8_8 
ROOT
HETATM    1  S8  UNL     1     -33.256  15.777  -5.943  1.00 20.00    -0.166 SA
ENDROOT
BRANCH   1   2
HETATM    2  C3  UNL     1     -34.769  15.019  -6.610  1.00 20.00     0.100 C 
BRANCH   2   3
HETATM    3  C2  UNL     1     -34.530  13.577  -7.027  1.00 20.00     0.177 C 
BRANCH   3   4
HETATM    4  O6  UNL     1     -35.285  12.698  -6.201  1.00 20.00    -0.395 OA
HETATM    5  C1  UNL     1     -36.100  13.416  -5.285  1.00 20.00     0.201 C 
ENDBRANCH   3   4
ENDBRANCH   2   3
ENDBRANCH   1   2
BRANCH   1   6
HETATM    6  C5  UNL     1     -34.016  16.766  -4.635  1.00 20.00     0.084 C 
BRANCH   6   7
HETATM    7  C4  UNL     1     -34.046  15.980  -3.332  1.00 20.00     0.081 C 
BRANCH   7   8
HETATM    8  S7  UNL     1     -34.052  17.117  -1.915  1.00 20.00    -0.181 SA
HETATM    9  H20 UNL     1     -35.351  17.433  -1.995  1.00 20.00     0.101 HD
ENDBRANCH   7   8
ENDBRANCH   6   7
ENDBRANCH   1   6
TORSDOF 6
ENDMDL
MODEL 8
REMARK VINA RESULT:      -2.7     11.448     12.358
REMARK  6 active torsions:
REMARK  status: ('A' for Active; 'I' for Inactive)
REMARK    1  A    between atoms: C2_2  and  C3_3 
REMARK    2  A    between atoms: C2_2  and  O6_6 
REMARK    3  A    between atoms: C3_3  and  S8_8 
REMARK    4  A    between atoms: C4_4  and  C5_5 
REMARK    5  A    between atoms: C4_4  and  S7_7 
REMARK    6  A    between atoms: C5_5  and  S8_8 
ROOT
HETATM    1  S8  UNL     1     -35.698  16.461  -5.744  1.00 20.00    -0.166 SA
ENDROOT
BRANCH   1   2
HETATM    2  C3  UNL     1     -36.410  14.932  -6.424  1.00 20.00     0.100 C 
BRANCH   2   3
HETATM    3  C2  UNL     1     -36.422  13.818  -5.390  1.00 20.00     0.177 C 
BRANCH   3   4
HETATM    4  O6  UNL     1     -35.535  12.777  -5.783  1.00 20.00    -0.395 OA
HETATM    5  C1  UNL     1     -35.169  12.895  -7.151  1.00 20.00     0.201 C 
ENDBRANCH   3   4
ENDBRANCH   2   3
ENDBRANCH   1   2
BRANCH   1   6
HETATM    6  C5  UNL     1     -34.026  16.287  -6.410  1.00 20.00     0.084 C 
BRANCH   6   7
HETATM    7  C4  UNL     1     -33.087  15.756  -5.336  1.00 20.00     0.081 C 
BRANCH   7   8
HETATM    8  S7  UNL     1     -33.801  16.035  -3.688  1.00 20.00    -0.181 SA
HETATM    9  H20 UNL     1     -33.645  14.777  -3.254  1.00 20.00     0.101 HD
ENDBRANCH   7   8
ENDBRANCH   6   7
ENDBRANCH   1   6
TORSDOF 6
ENDMDL
MODEL 9
REMARK VINA RESULT:      -2.6     10.884     11.334
REMARK  6 active torsions:
REMARK  status: ('A' for Active; 'I' for Inactive)
REMARK    1  A    between atoms: C2_2  and  C3_3 
REMARK    2  A    between atoms: C2_2  and  O6_6 
REMARK    3  A    between atoms: C3_3  and  S8_8 
REMARK    4  A    between atoms: C4_4  and  C5_5 
REMARK    5  A    between atoms: C4_4  and  S7_7 
REMARK    6  A    between atoms: C5_5  and  S8_8 
ROOT
HETATM    1  S8  UNL     1     -33.635  17.194  -4.468  1.00 20.00    -0.166 SA
ENDROOT
BRANCH   1   2
HETATM    2  C3  UNL     1     -33.100  15.698  -5.353  1.00 20.00     0.100 C 
BRANCH   2   3
HETATM    3  C2  UNL     1     -33.561  14.437  -4.639  1.00 20.00     0.177 C 
BRANCH   3   4
HETATM    4  O6  UNL     1     -34.350  13.641  -5.514  1.00 20.00    -0.395 OA
HETATM    5  C1  UNL     1     -35.714  13.622  -5.113  1.00 20.00     0.201 C 
ENDBRANCH   3   4
ENDBRANCH   2   3
ENDBRANCH   1   2
BRANCH   1   6
HETATM    6  C5  UNL     1     -34.349  16.395  -3.013  1.00 20.00     0.084 C 
BRANCH   6   7
HETATM    7  C4  UNL     1     -33.927  17.133  -1.750  1.00 20.00     0.081 C 
BRANCH   7   8
HETATM    8  S7  UNL     1     -35.360  17.371  -0.658  1.00 20.00    -0.181 SA
HETATM    9  H20 UNL     1     -35.077  16.353   0.166  1.00 20.00     0.101 HD
ENDBRANCH   7   8
ENDBRANCH   6   7
ENDBRANCH   1   6
TORSDOF 6
ENDMDL
