MODEL 1
REMARK VINA RESULT:      -3.3      0.000      0.000
REMARK  4 active torsions:
REMARK  status: ('A' for Active; 'I' for Inactive)
REMARK    1  A    between atoms: C4_4  and  C6_6 
REMARK    2  A    between atoms: C4_4  and  O7_7 
REMARK    3  A    between atoms: C5_5  and  C6_6 
REMARK    4  A    between atoms: C5_5  and  S8_8 
ROOT
HETATM    1  C1  UNL     1     -34.716   6.334   2.128  1.00 20.00     0.018 C 
HETATM    2  C2  UNL     1     -32.965   4.689   2.793  1.00 20.00     0.018 C 
HETATM    3  C6  UNL     1     -33.621   6.033   3.175  1.00 20.00    -0.018 C 
ENDROOT
BRANCH   3   4
HETATM    4  C4  UNL     1     -32.564   7.162   3.145  1.00 20.00     0.176 C 
BRANCH   4   5
HETATM    5  O7  UNL     1     -32.953   8.202   2.254  1.00 20.00    -0.395 OA
HETATM    6  C3  UNL     1     -31.846   8.691   1.511  1.00 20.00     0.201 C 
ENDBRANCH   4   5
ENDBRANCH   3   4
BRANCH   3   7
HETATM    7  C5  UNL     1     -34.311   5.946   4.561  1.00 20.00     0.081 C 
BRANCH   7   8
HETATM    8  S8  UNL     1     -33.792   7.176   5.803  1.00 20.00    -0.181 SA
HETATM    9  H22 UNL     1     -34.948   7.851   5.815  1.00 20.00     0.101 HD
ENDBRANCH   7   8
ENDBRANCH   3   7
TORSDOF 4
ENDMDL
MODEL 2
REMARK VINA RESULT:      -3.0      1.576      2.147
REMARK  4 active torsions:
REMARK  status: ('A' for Active; 'I' for Inactive)
REMARK    1  A    between atoms: C4_4  and  C6_6 
REMARK    2  A    between atoms: C4_4  and  O7_7 
REMARK    3  A    between atoms: C5_5  and  C6_6 
REMARK    4  A    between atoms: C5_5  and  S8_8 
ROOT
HETATM    1  C1  UNL     1     -32.566   5.976   2.669  1.00 20.00     0.018 C 
HETATM    2  C2  UNL     1     -31.535   7.976   3.745  1.00 20.00     0.018 C 
HETATM    3  C6  UNL     1     -32.849   7.413   3.163  1.00 20.00    -0.018 C 
ENDROOT
BRANCH   3   4
HETATM    4  C4  UNL     1     -33.310   8.280   1.968  1.00 20.00     0.176 C 
BRANCH   4   5
HETATM    5  O7  UNL     1     -32.216   8.996   1.405  1.00 20.00    -0.395 OA
HETATM    6  C3  UNL     1     -32.633  10.243   0.868  1.00 20.00     0.201 C 
ENDBRANCH   4   5
ENDBRANCH   3   4
BRANCH   3   7
HETATM    7  C5  UNL     1     -33.951   7.324   4.251  1.00 20.00     0.081 C 
BRANCH   7   8
HETATM    8  S8  UNL     1     -34.763   5.704   4.451  1.00 20.00    -0.181 SA
HETATM    9  H22 UNL     1     -35.947   6.085   3.956  1.00 20.00     0.101 HD
ENDBRANCH   7   8
ENDBRANCH   3   7
TORSDOF 4
ENDMDL
MODEL 3
REMARK VINA RESULT:      -3.0      2.432      3.625
REMARK  4 active torsions:
REMARK  status: ('A' for Active; 'I' for Inactive)
REMARK    1  A    between atoms: C4_4  and  C6_6 
REMARK    2  A    between atoms: C4_4  and  O7_7 
REMARK    3  A    between atoms: C5_5  and  C6_6 
REMARK    4  A    between atoms: C5_5  and  S8_8 
ROOT
HETATM    1  C1  UNL     1     -32.950   4.817   2.730  1.00 20.00     0.018 C 
HETATM    2  C2  UNL     1     -34.326   6.474   1.474  1.00 20.00     0.018 C 
HETATM    3  C6  UNL     1     -33.805   6.096   2.876  1.00 20.00    -0.018 C 
ENDROOT
BRANCH   3   4
HETATM    4  C4  UNL     1     -34.995   5.807   3.820  1.00 20.00     0.176 C 
BRANCH   4   5
HETATM    5  O7  UNL     1     -34.740   4.661   4.626  1.00 20.00    -0.395 OA
HETATM    6  C3  UNL     1     -34.586   5.012   5.993  1.00 20.00     0.201 C 
ENDBRANCH   4   5
ENDBRANCH   3   4
BRANCH   3   7
HETATM    7  C5  UNL     1     -32.888   7.207   3.452  1.00 20.00     0.081 C 
BRANCH   7   8
HETATM    8  S8  UNL     1     -32.079   8.299   2.236  1.00 20.00    -0.181 SA
HETATM    9  H22 UNL     1     -31.160   7.408   1.846  1.00 20.00     0.101 HD
ENDBRANCH   7   8
ENDBRANCH   3   7
TORSDOF 4
ENDMDL
MODEL 4
REMARK VINA RESULT:      -2.9     11.519     12.138
REMARK  4 active torsions:
REMARK  status: ('A' for Active; 'I' for Inactive)
REMARK    1  A    between atoms: C4_4  and  C6_6 
REMARK    2  A    between atoms: C4_4  and  O7_7 
REMARK    3  A    between atoms: C5_5  and  C6_6 
REMARK    4  A    between atoms: C5_5  and  S8_8 
ROOT
HETATM    1  C1  UNL     1     -33.676  16.514  -2.841  1.00 20.00     0.018 C 
HETATM    2  C2  UNL     1     -32.759  14.747  -4.342  1.00 20.00     0.018 C 
HETATM    3  C6  UNL     1     -33.917  15.750  -4.162  1.00 20.00    -0.018 C 
ENDROOT
BRANCH   3   4
HETATM    4  C4  UNL     1     -35.262  14.992  -4.073  1.00 20.00     0.176 C 
BRANCH   4   5
HETATM    5  O7  UNL     1     -35.114  13.639  -4.494  1.00 20.00    -0.395 OA
HETATM    6  C3  UNL     1     -36.011  13.322  -5.548  1.00 20.00     0.201 C 
ENDBRANCH   4   5
ENDBRANCH   3   4
BRANCH   3   7
HETATM    7  C5  UNL     1     -33.937  16.795  -5.309  1.00 20.00     0.081 C 
BRANCH   7   8
HETATM    8  S8  UNL     1     -33.868  16.135  -7.007  1.00 20.00    -0.181 SA
HETATM    9  H22 UNL     1     -34.483  17.177  -7.581  1.00 20.00     0.101 HD
ENDBRANCH   7   8
ENDBRANCH   3   7
TORSDOF 4
ENDMDL
MODEL 5
REMARK VINA RESULT:      -2.9      2.585      3.731
REMARK  4 active torsions:
REMARK  status: ('A' for Active; 'I' for Inactive)
REMARK    1  A    between atoms: C4_4  and  C6_6 
REMARK    2  A    between atoms: C4_4  and  O7_7 
REMARK    3  A    between atoms: C5_5  and  C6_6 
REMARK    4  A    between atoms: C5_5  and  S8_8 
ROOT
HETATM    1  C1  UNL     1     -31.510   8.010   3.618  1.00 20.00     0.018 C 
HETATM    2  C2  UNL     1     -32.604   6.013   2.605  1.00 20.00     0.018 C 
HETATM    3  C6  UNL     1     -32.863   7.435   3.144  1.00 20.00    -0.018 C 
ENDROOT
BRANCH   3   4
HETATM    4  C4  UNL     1     -33.838   7.374   4.343  1.00 20.00     0.176 C 
BRANCH   4   5
HETATM    5  O7  UNL     1     -34.581   6.159   4.336  1.00 20.00    -0.395 OA
HETATM    6  C3  UNL     1     -34.599   5.554   5.620  1.00 20.00     0.201 C 
ENDBRANCH   4   5
ENDBRANCH   3   4
BRANCH   3   7
HETATM    7  C5  UNL     1     -33.402   8.369   2.029  1.00 20.00     0.081 C 
BRANCH   7   8
HETATM    8  S8  UNL     1     -32.152   9.190   0.987  1.00 20.00    -0.181 SA
HETATM    9  H22 UNL     1     -32.796   8.998  -0.171  1.00 20.00     0.101 HD
ENDBRANCH   7   8
ENDBRANCH   3   7
TORSDOF 4
ENDMDL
MODEL 6
REMARK VINA RESULT:      -2.8     11.347     12.160
REMARK  4 active torsions:
REMARK  status: ('A' for Active; 'I' for Inactive)
REMARK    1  A    between atoms: C4_4  and  C6_6 
REMARK    2  A    between atoms: C4_4  and  O7_7 
REMARK    3  A    between atoms: C5_5  and  C6_6 
REMARK    4  A    between atoms: C5_5  and  S8_8 
ROOT
HETATM    1  C1  UNL     1     -34.606  15.857  -3.229  1.00 20.00     0.018 C 
HETATM    2  C2  UNL     1     -32.878  14.399  -4.282  1.00 20.00     0.018 C 
HETATM    3  C6  UNL     1     -34.105  15.287  -4.575  1.00 20.00    -0.018 C 
ENDROOT
BRANCH   3   4
HETATM    4  C4  UNL     1     -35.228  14.440  -5.218  1.00 20.00     0.176 C 
BRANCH   4   5
HETATM    5  O7  UNL     1     -34.694  13.279  -5.847  1.00 20.00    -0.395 OA
HETATM    6  C3  UNL     1     -34.902  13.308  -7.251  1.00 20.00     0.201 C 
ENDBRANCH   4   5
ENDBRANCH   3   4
BRANCH   3   7
HETATM    7  C5  UNL     1     -33.724  16.491  -5.478  1.00 20.00     0.081 C 
BRANCH   7   8
HETATM    8  S8  UNL     1     -33.615  18.115  -4.657  1.00 20.00    -0.181 SA
HETATM    9  H22 UNL     1     -33.677  17.639  -3.408  1.00 20.00     0.101 HD
ENDBRANCH   7   8
ENDBRANCH   3   7
TORSDOF 4
ENDMDL
MODEL 7
REMARK VINA RESULT:      -2.8     11.296     12.298
REMARK  4 active torsions:
REMARK  status: ('A' for Active; 'I' for Inactive)
REMARK    1  A    between atoms: C4_4  and  C6_6 
REMARK    2  A    between atoms: C4_4  and  O7_7 
REMARK    3  A    between atoms: C5_5  and  C6_6 
REMARK    4  A    between atoms: C5_5  and  S8_8 
ROOT
HETATM    1  C1  UNL     1     -33.197  14.479  -4.309  1.00 20.00     0.018 C 
HETATM    2  C2  UNL     1     -33.823  16.383  -2.827  1.00 20.00     0.018 C 
HETATM    3  C6  UNL     1     -34.092  15.733  -4.200  1.00 20.00    -0.018 C 
ENDROOT
BRANCH   3   4
HETATM    4  C4  UNL     1     -33.724  16.721  -5.332  1.00 20.00     0.176 C 
BRANCH   4   5
HETATM    5  O7  UNL     1     -33.229  16.028  -6.473  1.00 20.00    -0.395 OA
HETATM    6  C3  UNL     1     -34.068  16.221  -7.602  1.00 20.00     0.201 C 
ENDBRANCH   4   5
ENDBRANCH   3   4
BRANCH   3   7
HETATM    7  C5  UNL     1     -35.567  15.266  -4.320  1.00 20.00     0.081 C 
BRANCH   7   8
HETATM    8  S8  UNL     1     -35.849  13.698  -5.206  1.00 20.00    -0.181 SA
HETATM    9  H22 UNL     1     -37.159  13.891  -5.406  1.00 20.00     0.101 HD
ENDBRANCH   7   8
ENDBRANCH   3   7
TORSDOF 4
ENDMDL
MODEL 8
REMARK VINA RESULT:      -2.8     10.993     11.833
REMARK  4 active torsions:
REMARK  status: ('A' for Active; 'I' for Inactive)
REMARK    1  A    between atoms: C4_4  and  C6_6 
REMARK    2  A    between atoms: C4_4  and  O7_7 
REMARK    3  A    between atoms: C5_5  and  C6_6 
REMARK    4  A    between atoms: C5_5  and  S8_8 
ROOT
HETATM    1  C1  UNL     1     -32.870  14.383  -4.249  1.00 20.00     0.018 C 
HETATM    2  C2  UNL     1     -33.749  16.252  -5.645  1.00 20.00     0.018 C 
HETATM    3  C6  UNL     1     -34.150  15.159  -4.633  1.00 20.00    -0.018 C 
ENDROOT
BRANCH   3   4
HETATM    4  C4  UNL     1     -35.161  14.186  -5.281  1.00 20.00     0.176 C 
BRANCH   4   5
HETATM    5  O7  UNL     1     -34.502  13.268  -6.148  1.00 20.00    -0.395 OA
HETATM    6  C3  UNL     1     -35.175  13.156  -7.394  1.00 20.00     0.201 C 
ENDBRANCH   4   5
ENDBRANCH   3   4
BRANCH   3   7
HETATM    7  C5  UNL     1     -34.724  15.783  -3.333  1.00 20.00     0.081 C 
BRANCH   7   8
HETATM    8  S8  UNL     1     -33.680  17.023  -2.500  1.00 20.00    -0.181 SA
HETATM    9  H22 UNL     1     -33.805  16.502  -1.273  1.00 20.00     0.101 HD
ENDBRANCH   7   8
ENDBRANCH   3   7
TORSDOF 4
ENDMDL
MODEL 9
REMARK VINA RESULT:      -2.8     11.259     12.448
REMARK  4 active torsions:
REMARK  status: ('A' for Active; 'I' for Inactive)
REMARK    1  A    between atoms: C4_4  and  C6_6 
REMARK    2  A    between atoms: C4_4  and  O7_7 
REMARK    3  A    between atoms: C5_5  and  C6_6 
REMARK    4  A    between atoms: C5_5  and  S8_8 
ROOT
HETATM    1  C1  UNL     1     -35.200  13.728  -4.684  1.00 20.00     0.018 C 
HETATM    2  C2  UNL     1     -35.079  13.156  -7.108  1.00 20.00     0.018 C 
HETATM    3  C6  UNL     1     -35.613  14.193  -6.098  1.00 20.00    -0.018 C 
ENDROOT
BRANCH   3   4
HETATM    4  C4  UNL     1     -37.156  14.264  -6.180  1.00 20.00     0.176 C 
BRANCH   4   5
HETATM    5  O7  UNL     1     -37.745  14.051  -4.902  1.00 20.00    -0.395 OA
HETATM    6  C3  UNL     1     -38.579  15.138  -4.527  1.00 20.00     0.201 C 
ENDBRANCH   4   5
ENDBRANCH   3   4
BRANCH   3   7
HETATM    7  C5  UNL     1     -34.974  15.587  -6.335  1.00 20.00     0.081 C 
BRANCH   7   8
HETATM    8  S8  UNL     1     -33.341  15.869  -5.574  1.00 20.00    -0.181 SA
HETATM    9  H22 UNL     1     -32.962  16.833  -6.423  1.00 20.00     0.101 HD
ENDBRANCH   7   8
ENDBRANCH   3   7
TORSDOF 4
ENDMDL
