MODEL 1
REMARK VINA RESULT:      -3.7      0.000      0.000
REMARK  6 active torsions:
REMARK  status: ('A' for Active; 'I' for Inactive)
REMARK    1  A    between atoms: C4_4  and  C5_5 
REMARK    2  A    between atoms: C5_5  and  S10_10 
REMARK    3  A    between atoms: C6_6  and  C8_8 
REMARK    4  A    between atoms: C6_6  and  S9_9 
REMARK    5  A    between atoms: C7_7  and  C8_8 
REMARK    6  A    between atoms: C7_7  and  S10_10 
ROOT
HETATM    1  C2  UNL     1     -32.505   6.389   2.252  1.00 20.00     0.016 C 
HETATM    2  C3  UNL     1     -31.543   8.116   3.762  1.00 20.00     0.016 C 
HETATM    3  C8  UNL     1     -32.794   7.748   2.931  1.00 20.00    -0.031 C 
ENDROOT
BRANCH   3   4
HETATM    4  C6  UNL     1     -33.018   8.798   1.805  1.00 20.00     0.080 C 
BRANCH   4   5
HETATM    5  S9  UNL     1     -31.662   8.987   0.602  1.00 20.00    -0.181 SA
HETATM    6  H28 UNL     1     -31.941   7.875  -0.090  1.00 20.00     0.101 HD
ENDBRANCH   4   5
ENDBRANCH   3   4
BRANCH   3   7
HETATM    7  C7  UNL     1     -33.990   7.612   3.915  1.00 20.00     0.083 C 
BRANCH   7   8
HETATM    8  S10 UNL     1     -33.561   7.365   5.671  1.00 20.00    -0.168 SA
BRANCH   8   9
HETATM    9  C5  UNL     1     -34.496   5.845   5.950  1.00 20.00     0.073 C 
BRANCH   9  10
HETATM   10  C4  UNL     1     -34.939   5.239   4.624  1.00 20.00     0.006 C 
HETATM   11  C1  UNL     1     -34.197   3.941   4.339  1.00 20.00     0.006 C 
ENDBRANCH   9  10
ENDBRANCH   8   9
ENDBRANCH   7   8
ENDBRANCH   3   7
TORSDOF 6
ENDMDL
MODEL 2
REMARK VINA RESULT:      -3.7      1.820      4.910
REMARK  6 active torsions:
REMARK  status: ('A' for Active; 'I' for Inactive)
REMARK    1  A    between atoms: C4_4  and  C5_5 
REMARK    2  A    between atoms: C5_5  and  S10_10 
REMARK    3  A    between atoms: C6_6  and  C8_8 
REMARK    4  A    between atoms: C6_6  and  S9_9 
REMARK    5  A    between atoms: C7_7  and  C8_8 
REMARK    6  A    between atoms: C7_7  and  S10_10 
ROOT
HETATM    1  C2  UNL     1     -33.108   5.268   2.896  1.00 20.00     0.016 C 
HETATM    2  C3  UNL     1     -35.396   6.212   3.140  1.00 20.00     0.016 C 
HETATM    3  C8  UNL     1     -33.910   6.444   3.501  1.00 20.00    -0.031 C 
ENDROOT
BRANCH   3   4
HETATM    4  C6  UNL     1     -33.719   6.400   5.043  1.00 20.00     0.080 C 
BRANCH   4   5
HETATM    5  S9  UNL     1     -34.575   5.051   5.921  1.00 20.00    -0.181 SA
HETATM    6  H28 UNL     1     -33.651   4.117   5.664  1.00 20.00     0.101 HD
ENDBRANCH   4   5
ENDBRANCH   3   4
BRANCH   3   7
HETATM    7  C7  UNL     1     -33.471   7.784   2.846  1.00 20.00     0.083 C 
BRANCH   7   8
HETATM    8  S10 UNL     1     -31.692   8.176   2.932  1.00 20.00    -0.168 SA
BRANCH   8   9
HETATM    9  C5  UNL     1     -31.458   8.678   1.213  1.00 20.00     0.073 C 
BRANCH   9  10
HETATM   10  C4  UNL     1     -32.458   9.764   0.833  1.00 20.00     0.006 C 
HETATM   11  C1  UNL     1     -33.176   9.419  -0.464  1.00 20.00     0.006 C 
ENDBRANCH   9  10
ENDBRANCH   8   9
ENDBRANCH   7   8
ENDBRANCH   3   7
TORSDOF 6
ENDMDL
MODEL 3
REMARK VINA RESULT:      -3.5      1.346      2.151
REMARK  6 active torsions:
REMARK  status: ('A' for Active; 'I' for Inactive)
REMARK    1  A    between atoms: C4_4  and  C5_5 
REMARK    2  A    between atoms: C5_5  and  S10_10 
REMARK    3  A    between atoms: C6_6  and  C8_8 
REMARK    4  A    between atoms: C6_6  and  S9_9 
REMARK    5  A    between atoms: C7_7  and  C8_8 
REMARK    6  A    between atoms: C7_7  and  S10_10 
ROOT
HETATM    1  C2  UNL     1     -31.387   8.171   3.845  1.00 20.00     0.016 C 
HETATM    2  C3  UNL     1     -33.714   8.543   3.048  1.00 20.00     0.016 C 
HETATM    3  C8  UNL     1     -32.378   7.844   2.703  1.00 20.00    -0.031 C 
ENDROOT
BRANCH   3   4
HETATM    4  C6  UNL     1     -31.790   8.429   1.388  1.00 20.00     0.080 C 
BRANCH   4   5
HETATM    5  S9  UNL     1     -32.543   9.978   0.790  1.00 20.00    -0.181 SA
HETATM    6  H28 UNL     1     -33.812   9.579   0.946  1.00 20.00     0.101 HD
ENDBRANCH   4   5
ENDBRANCH   3   4
BRANCH   3   7
HETATM    7  C7  UNL     1     -32.648   6.314   2.651  1.00 20.00     0.083 C 
BRANCH   7   8
HETATM    8  S10 UNL     1     -34.372   5.792   2.932  1.00 20.00    -0.168 SA
BRANCH   8   9
HETATM    9  C5  UNL     1     -34.058   4.551   4.206  1.00 20.00     0.073 C 
BRANCH   9  10
HETATM   10  C4  UNL     1     -34.679   4.976   5.531  1.00 20.00     0.006 C 
HETATM   11  C1  UNL     1     -34.257   6.389   5.907  1.00 20.00     0.006 C 
ENDBRANCH   9  10
ENDBRANCH   8   9
ENDBRANCH   7   8
ENDBRANCH   3   7
TORSDOF 6
ENDMDL
MODEL 4
REMARK VINA RESULT:      -3.5      2.024      4.848
REMARK  6 active torsions:
REMARK  status: ('A' for Active; 'I' for Inactive)
REMARK    1  A    between atoms: C4_4  and  C5_5 
REMARK    2  A    between atoms: C5_5  and  S10_10 
REMARK    3  A    between atoms: C6_6  and  C8_8 
REMARK    4  A    between atoms: C6_6  and  S9_9 
REMARK    5  A    between atoms: C7_7  and  C8_8 
REMARK    6  A    between atoms: C7_7  and  S10_10 
ROOT
HETATM    1  C2  UNL     1     -35.494   6.382   3.620  1.00 20.00     0.016 C 
HETATM    2  C3  UNL     1     -33.668   7.084   5.155  1.00 20.00     0.016 C 
HETATM    3  C8  UNL     1     -33.965   6.586   3.721  1.00 20.00    -0.031 C 
ENDROOT
BRANCH   3   4
HETATM    4  C6  UNL     1     -33.289   5.206   3.483  1.00 20.00     0.080 C 
BRANCH   4   5
HETATM    5  S9  UNL     1     -34.023   3.789   4.364  1.00 20.00    -0.181 SA
HETATM    6  H28 UNL     1     -33.029   2.934   4.092  1.00 20.00     0.101 HD
ENDBRANCH   4   5
ENDBRANCH   3   4
BRANCH   3   7
HETATM    7  C7  UNL     1     -33.505   7.695   2.734  1.00 20.00     0.083 C 
BRANCH   7   8
HETATM    8  S10 UNL     1     -31.774   8.245   2.891  1.00 20.00    -0.168 SA
BRANCH   8   9
HETATM    9  C5  UNL     1     -31.503   8.730   1.172  1.00 20.00     0.073 C 
BRANCH   9  10
HETATM   10  C4  UNL     1     -32.480   9.826   0.766  1.00 20.00     0.006 C 
HETATM   11  C1  UNL     1     -33.188   9.476  -0.535  1.00 20.00     0.006 C 
ENDBRANCH   9  10
ENDBRANCH   8   9
ENDBRANCH   7   8
ENDBRANCH   3   7
TORSDOF 6
ENDMDL
MODEL 5
REMARK VINA RESULT:      -3.3     11.167     12.320
REMARK  6 active torsions:
REMARK  status: ('A' for Active; 'I' for Inactive)
REMARK    1  A    between atoms: C4_4  and  C5_5 
REMARK    2  A    between atoms: C5_5  and  S10_10 
REMARK    3  A    between atoms: C6_6  and  C8_8 
REMARK    4  A    between atoms: C6_6  and  S9_9 
REMARK    5  A    between atoms: C7_7  and  C8_8 
REMARK    6  A    between atoms: C7_7  and  S10_10 
ROOT
HETATM    1  C2  UNL     1     -34.515  14.047  -4.174  1.00 20.00     0.016 C 
HETATM    2  C3  UNL     1     -32.979  15.662  -5.278  1.00 20.00     0.016 C 
HETATM    3  C8  UNL     1     -34.378  15.010  -5.377  1.00 20.00    -0.031 C 
ENDROOT
BRANCH   3   4
HETATM    4  C6  UNL     1     -34.483  14.161  -6.675  1.00 20.00     0.080 C 
BRANCH   4   5
HETATM    5  S9  UNL     1     -36.108  14.154  -7.500  1.00 20.00    -0.181 SA
HETATM    6  H28 UNL     1     -36.341  15.463  -7.349  1.00 20.00     0.101 HD
ENDBRANCH   4   5
ENDBRANCH   3   4
BRANCH   3   7
HETATM    7  C7  UNL     1     -35.434  16.147  -5.276  1.00 20.00     0.083 C 
BRANCH   7   8
HETATM    8  S10 UNL     1     -36.641  16.004  -3.916  1.00 20.00    -0.168 SA
BRANCH   8   9
HETATM    9  C5  UNL     1     -36.005  17.332  -2.871  1.00 20.00     0.073 C 
BRANCH   9  10
HETATM   10  C4  UNL     1     -35.169  16.762  -1.731  1.00 20.00     0.006 C 
HETATM   11  C1  UNL     1     -33.703  17.139  -1.884  1.00 20.00     0.006 C 
ENDBRANCH   9  10
ENDBRANCH   8   9
ENDBRANCH   7   8
ENDBRANCH   3   7
TORSDOF 6
ENDMDL
MODEL 6
REMARK VINA RESULT:      -3.2     11.267     12.451
REMARK  6 active torsions:
REMARK  status: ('A' for Active; 'I' for Inactive)
REMARK    1  A    between atoms: C4_4  and  C5_5 
REMARK    2  A    between atoms: C5_5  and  S10_10 
REMARK    3  A    between atoms: C6_6  and  C8_8 
REMARK    4  A    between atoms: C6_6  and  S9_9 
REMARK    5  A    between atoms: C7_7  and  C8_8 
REMARK    6  A    between atoms: C7_7  and  S10_10 
ROOT
HETATM    1  C2  UNL     1     -37.045  15.114  -4.318  1.00 20.00     0.016 C 
HETATM    2  C3  UNL     1     -34.780  14.097  -4.168  1.00 20.00     0.016 C 
HETATM    3  C8  UNL     1     -35.749  14.840  -5.117  1.00 20.00    -0.031 C 
ENDROOT
BRANCH   3   4
HETATM    4  C6  UNL     1     -36.123  13.931  -6.322  1.00 20.00     0.080 C 
BRANCH   4   5
HETATM    5  S9  UNL     1     -34.799  13.624  -7.537  1.00 20.00    -0.181 SA
HETATM    6  H28 UNL     1     -34.010  12.935  -6.703  1.00 20.00     0.101 HD
ENDBRANCH   4   5
ENDBRANCH   3   4
BRANCH   3   7
HETATM    7  C7  UNL     1     -35.075  16.182  -5.520  1.00 20.00     0.083 C 
BRANCH   7   8
HETATM    8  S10 UNL     1     -33.397  16.466  -4.866  1.00 20.00    -0.168 SA
BRANCH   8   9
HETATM    9  C5  UNL     1     -33.822  17.665  -3.584  1.00 20.00     0.073 C 
BRANCH   9  10
HETATM   10  C4  UNL     1     -33.713  17.031  -2.203  1.00 20.00     0.006 C 
HETATM   11  C1  UNL     1     -35.087  16.838  -1.577  1.00 20.00     0.006 C 
ENDBRANCH   9  10
ENDBRANCH   8   9
ENDBRANCH   7   8
ENDBRANCH   3   7
TORSDOF 6
ENDMDL
MODEL 7
REMARK VINA RESULT:      -3.2     11.354     12.617
REMARK  6 active torsions:
REMARK  status: ('A' for Active; 'I' for Inactive)
REMARK    1  A    between atoms: C4_4  and  C5_5 
REMARK    2  A    between atoms: C5_5  and  S10_10 
REMARK    3  A    between atoms: C6_6  and  C8_8 
REMARK    4  A    between atoms: C6_6  and  S9_9 
REMARK    5  A    between atoms: C7_7  and  C8_8 
REMARK    6  A    between atoms: C7_7  and  S10_10 
ROOT
HETATM    1  C2  UNL     1     -35.807  15.894  -5.279  1.00 20.00     0.016 C 
HETATM    2  C3  UNL     1     -34.347  14.191  -4.205  1.00 20.00     0.016 C 
HETATM    3  C8  UNL     1     -34.375  15.312  -5.271  1.00 20.00    -0.031 C 
ENDROOT
BRANCH   3   4
HETATM    4  C6  UNL     1     -34.099  14.718  -6.681  1.00 20.00     0.080 C 
BRANCH   4   5
HETATM    5  S9  UNL     1     -35.148  13.313  -7.180  1.00 20.00    -0.181 SA
HETATM    6  H28 UNL     1     -36.165  13.607  -6.360  1.00 20.00     0.101 HD
ENDBRANCH   4   5
ENDBRANCH   3   4
BRANCH   3   7
HETATM    7  C7  UNL     1     -33.356  16.402  -4.833  1.00 20.00     0.083 C 
BRANCH   7   8
HETATM    8  S10 UNL     1     -34.039  18.067  -4.539  1.00 20.00    -0.168 SA
BRANCH   8   9
HETATM    9  C5  UNL     1     -33.379  18.323  -2.877  1.00 20.00     0.073 C 
BRANCH   9  10
HETATM   10  C4  UNL     1     -33.579  17.076  -2.025  1.00 20.00     0.006 C 
HETATM   11  C1  UNL     1     -35.028  16.945  -1.575  1.00 20.00     0.006 C 
ENDBRANCH   9  10
ENDBRANCH   8   9
ENDBRANCH   7   8
ENDBRANCH   3   7
TORSDOF 6
ENDMDL
MODEL 8
REMARK VINA RESULT:      -3.2     11.228     12.497
REMARK  6 active torsions:
REMARK  status: ('A' for Active; 'I' for Inactive)
REMARK    1  A    between atoms: C4_4  and  C5_5 
REMARK    2  A    between atoms: C5_5  and  S10_10 
REMARK    3  A    between atoms: C6_6  and  C8_8 
REMARK    4  A    between atoms: C6_6  and  S9_9 
REMARK    5  A    between atoms: C7_7  and  C8_8 
REMARK    6  A    between atoms: C7_7  and  S10_10 
ROOT
HETATM    1  C2  UNL     1     -33.629  16.729  -5.343  1.00 20.00     0.016 C 
HETATM    2  C3  UNL     1     -33.127  14.544  -4.266  1.00 20.00     0.016 C 
HETATM    3  C8  UNL     1     -34.028  15.797  -4.175  1.00 20.00    -0.031 C 
ENDROOT
BRANCH   3   4
HETATM    4  C6  UNL     1     -33.752  16.561  -2.849  1.00 20.00     0.080 C 
BRANCH   4   5
HETATM    5  S9  UNL     1     -35.199  16.876  -1.786  1.00 20.00    -0.181 SA
HETATM    6  H28 UNL     1     -34.579  16.602  -0.631  1.00 20.00     0.101 HD
ENDBRANCH   4   5
ENDBRANCH   3   4
BRANCH   3   7
HETATM    7  C7  UNL     1     -35.501  15.330  -4.341  1.00 20.00     0.083 C 
BRANCH   7   8
HETATM    8  S10 UNL     1     -35.746  13.713  -5.148  1.00 20.00    -0.168 SA
BRANCH   8   9
HETATM    9  C5  UNL     1     -36.626  14.291  -6.616  1.00 20.00     0.073 C 
BRANCH   9  10
HETATM   10  C4  UNL     1     -35.642  14.648  -7.723  1.00 20.00     0.006 C 
HETATM   11  C1  UNL     1     -34.389  13.787  -7.643  1.00 20.00     0.006 C 
ENDBRANCH   9  10
ENDBRANCH   8   9
ENDBRANCH   7   8
ENDBRANCH   3   7
TORSDOF 6
ENDMDL
MODEL 9
REMARK VINA RESULT:      -3.2     11.245     12.650
REMARK  6 active torsions:
REMARK  status: ('A' for Active; 'I' for Inactive)
REMARK    1  A    between atoms: C4_4  and  C5_5 
REMARK    2  A    between atoms: C5_5  and  S10_10 
REMARK    3  A    between atoms: C6_6  and  C8_8 
REMARK    4  A    between atoms: C6_6  and  S9_9 
REMARK    5  A    between atoms: C7_7  and  C8_8 
REMARK    6  A    between atoms: C7_7  and  S10_10 
ROOT
HETATM    1  C2  UNL     1     -33.872  14.430  -4.131  1.00 20.00     0.016 C 
HETATM    2  C3  UNL     1     -34.694  16.259  -2.659  1.00 20.00     0.016 C 
HETATM    3  C8  UNL     1     -34.531  15.829  -4.136  1.00 20.00    -0.031 C 
ENDROOT
BRANCH   3   4
HETATM    4  C6  UNL     1     -33.567  16.801  -4.874  1.00 20.00     0.080 C 
BRANCH   4   5
HETATM    5  S9  UNL     1     -34.169  17.485  -6.452  1.00 20.00    -0.181 SA
HETATM    6  H28 UNL     1     -33.043  18.147  -6.749  1.00 20.00     0.101 HD
ENDBRANCH   4   5
ENDBRANCH   3   4
BRANCH   3   7
HETATM    7  C7  UNL     1     -35.952  15.750  -4.762  1.00 20.00     0.083 C 
BRANCH   7   8
HETATM    8  S10 UNL     1     -36.553  14.080  -5.181  1.00 20.00    -0.168 SA
BRANCH   8   9
HETATM    9  C5  UNL     1     -36.356  14.181  -6.974  1.00 20.00     0.073 C 
BRANCH   9  10
HETATM   10  C4  UNL     1     -35.232  13.264  -7.440  1.00 20.00     0.006 C 
HETATM   11  C1  UNL     1     -34.031  14.068  -7.918  1.00 20.00     0.006 C 
ENDBRANCH   9  10
ENDBRANCH   8   9
ENDBRANCH   7   8
ENDBRANCH   3   7
TORSDOF 6
ENDMDL
