MODEL 1
REMARK VINA RESULT:      -3.8      0.000      0.000
REMARK  5 active torsions:
REMARK  status: ('A' for Active; 'I' for Inactive)
REMARK    1  A    between atoms: C4_4  and  C7_7 
REMARK    2  A    between atoms: C4_4  and  O8_8 
REMARK    3  A    between atoms: C5_5  and  C7_7 
REMARK    4  A    between atoms: C5_5  and  S9_9 
REMARK    5  A    between atoms: C6_6  and  C7_7 
ROOT
HETATM    1  C7  UNL     1     -33.776   6.985   3.713  1.00 20.00     0.022 C 
ENDROOT
BRANCH   1   2
HETATM    2  C4  UNL     1     -32.521   7.745   3.234  1.00 20.00     0.172 C 
BRANCH   2   3
HETATM    3  O8  UNL     1     -32.616   8.043   1.846  1.00 20.00    -0.396 OA
HETATM    4  C3  UNL     1     -32.255   9.391   1.577  1.00 20.00     0.201 C 
ENDBRANCH   2   3
ENDBRANCH   1   2
BRANCH   1   5
HETATM    5  C5  UNL     1     -34.194   5.874   2.718  1.00 20.00     0.077 C 
BRANCH   5   6
HETATM    6  S9  UNL     1     -32.995   4.520   2.518  1.00 20.00    -0.182 SA
HETATM    7  H25 UNL     1     -32.469   4.969   1.370  1.00 20.00     0.101 HD
ENDBRANCH   5   6
ENDBRANCH   1   5
BRANCH   1   8
HETATM    8  C6  UNL     1     -33.627   6.495   5.188  1.00 20.00    -0.016 C 
HETATM    9  C1  UNL     1     -33.681   7.657   6.191  1.00 20.00     0.010 C 
HETATM   10  C2  UNL     1     -34.705   5.474   5.574  1.00 20.00     0.010 C 
ENDBRANCH   1   8
TORSDOF 5
ENDMDL
MODEL 2
REMARK VINA RESULT:      -3.6     11.442     12.054
REMARK  5 active torsions:
REMARK  status: ('A' for Active; 'I' for Inactive)
REMARK    1  A    between atoms: C4_4  and  C7_7 
REMARK    2  A    between atoms: C4_4  and  O8_8 
REMARK    3  A    between atoms: C5_5  and  C7_7 
REMARK    4  A    between atoms: C5_5  and  S9_9 
REMARK    5  A    between atoms: C6_6  and  C7_7 
ROOT
HETATM    1  C7  UNL     1     -35.538  14.726  -5.030  1.00 20.00     0.022 C 
ENDROOT
BRANCH   1   2
HETATM    2  C4  UNL     1     -36.031  13.281  -5.253  1.00 20.00     0.172 C 
BRANCH   2   3
HETATM    3  O8  UNL     1     -35.221  12.618  -6.217  1.00 20.00    -0.396 OA
HETATM    4  C3  UNL     1     -35.003  13.433  -7.361  1.00 20.00     0.201 C 
ENDBRANCH   2   3
ENDBRANCH   1   2
BRANCH   1   5
HETATM    5  C5  UNL     1     -36.715  15.719  -4.865  1.00 20.00     0.077 C 
BRANCH   5   6
HETATM    6  S9  UNL     1     -38.374  14.972  -4.923  1.00 20.00    -0.182 SA
HETATM    7  H25 UNL     1     -39.042  16.101  -4.651  1.00 20.00     0.101 HD
ENDBRANCH   5   6
ENDBRANCH   1   5
BRANCH   1   8
HETATM    8  C6  UNL     1     -34.473  14.805  -3.891  1.00 20.00    -0.016 C 
HETATM    9  C1  UNL     1     -33.038  14.780  -4.437  1.00 20.00     0.010 C 
HETATM   10  C2  UNL     1     -34.638  16.061  -3.026  1.00 20.00     0.010 C 
ENDBRANCH   1   8
TORSDOF 5
ENDMDL
MODEL 3
REMARK VINA RESULT:      -3.5      1.987      2.709
REMARK  5 active torsions:
REMARK  status: ('A' for Active; 'I' for Inactive)
REMARK    1  A    between atoms: C4_4  and  C7_7 
REMARK    2  A    between atoms: C4_4  and  O8_8 
REMARK    3  A    between atoms: C5_5  and  C7_7 
REMARK    4  A    between atoms: C5_5  and  S9_9 
REMARK    5  A    between atoms: C6_6  and  C7_7 
ROOT
HETATM    1  C7  UNL     1     -32.772   7.091   3.297  1.00 20.00     0.022 C 
ENDROOT
BRANCH   1   2
HETATM    2  C4  UNL     1     -32.047   7.932   2.224  1.00 20.00     0.172 C 
BRANCH   2   3
HETATM    3  O8  UNL     1     -32.815   9.080   1.886  1.00 20.00    -0.396 OA
HETATM    4  C3  UNL     1     -32.344   9.687   0.690  1.00 20.00     0.201 C 
ENDBRANCH   2   3
ENDBRANCH   1   2
BRANCH   1   5
HETATM    5  C5  UNL     1     -33.482   7.982   4.346  1.00 20.00     0.077 C 
BRANCH   5   6
HETATM    6  S9  UNL     1     -33.660   7.242   6.000  1.00 20.00    -0.182 SA
HETATM    7  H25 UNL     1     -34.793   7.883   6.316  1.00 20.00     0.101 HD
ENDBRANCH   5   6
ENDBRANCH   1   5
BRANCH   1   8
HETATM    8  C6  UNL     1     -33.691   6.004   2.657  1.00 20.00    -0.016 C 
HETATM    9  C1  UNL     1     -33.027   4.619   2.645  1.00 20.00     0.010 C 
HETATM   10  C2  UNL     1     -35.041   5.885   3.377  1.00 20.00     0.010 C 
ENDBRANCH   1   8
TORSDOF 5
ENDMDL
MODEL 4
REMARK VINA RESULT:      -3.5     11.656     12.201
REMARK  5 active torsions:
REMARK  status: ('A' for Active; 'I' for Inactive)
REMARK    1  A    between atoms: C4_4  and  C7_7 
REMARK    2  A    between atoms: C4_4  and  O8_8 
REMARK    3  A    between atoms: C5_5  and  C7_7 
REMARK    4  A    between atoms: C5_5  and  S9_9 
REMARK    5  A    between atoms: C6_6  and  C7_7 
ROOT
HETATM    1  C7  UNL     1     -33.755  15.860  -3.713  1.00 20.00     0.022 C 
ENDROOT
BRANCH   1   2
HETATM    2  C4  UNL     1     -35.087  15.095  -3.868  1.00 20.00     0.172 C 
BRANCH   2   3
HETATM    3  O8  UNL     1     -34.853  13.773  -4.337  1.00 20.00    -0.396 OA
HETATM    4  C3  UNL     1     -35.841  13.372  -5.277  1.00 20.00     0.201 C 
ENDBRANCH   2   3
ENDBRANCH   1   2
BRANCH   1   5
HETATM    5  C5  UNL     1     -33.383  16.638  -4.999  1.00 20.00     0.077 C 
BRANCH   5   6
HETATM    6  S9  UNL     1     -34.779  17.035  -6.097  1.00 20.00    -0.182 SA
HETATM    7  H25 UNL     1     -34.529  18.349  -6.169  1.00 20.00     0.101 HD
ENDBRANCH   5   6
ENDBRANCH   1   5
BRANCH   1   8
HETATM    8  C6  UNL     1     -33.734  16.727  -2.415  1.00 20.00    -0.016 C 
HETATM    9  C1  UNL     1     -33.293  18.172  -2.691  1.00 20.00     0.010 C 
HETATM   10  C2  UNL     1     -35.100  16.765  -1.717  1.00 20.00     0.010 C 
ENDBRANCH   1   8
TORSDOF 5
ENDMDL
MODEL 5
REMARK VINA RESULT:      -3.5     11.552     12.032
REMARK  5 active torsions:
REMARK  status: ('A' for Active; 'I' for Inactive)
REMARK    1  A    between atoms: C4_4  and  C7_7 
REMARK    2  A    between atoms: C4_4  and  O8_8 
REMARK    3  A    between atoms: C5_5  and  C7_7 
REMARK    4  A    between atoms: C5_5  and  S9_9 
REMARK    5  A    between atoms: C6_6  and  C7_7 
ROOT
HETATM    1  C7  UNL     1     -34.433  14.742  -4.055  1.00 20.00     0.022 C 
ENDROOT
BRANCH   1   2
HETATM    2  C4  UNL     1     -35.609  14.299  -4.951  1.00 20.00     0.172 C 
BRANCH   2   3
HETATM    3  O8  UNL     1     -35.404  12.975  -5.429  1.00 20.00    -0.396 OA
HETATM    4  C3  UNL     1     -35.427  12.925  -6.849  1.00 20.00     0.201 C 
ENDBRANCH   2   3
ENDBRANCH   1   2
BRANCH   1   5
HETATM    5  C5  UNL     1     -33.198  15.162  -4.890  1.00 20.00     0.077 C 
BRANCH   5   6
HETATM    6  S9  UNL     1     -33.564  16.152  -6.373  1.00 20.00    -0.182 SA
HETATM    7  H25 UNL     1     -32.293  16.488  -6.631  1.00 20.00     0.101 HD
ENDBRANCH   5   6
ENDBRANCH   1   5
BRANCH   1   8
HETATM    8  C6  UNL     1     -34.878  15.801  -2.998  1.00 20.00    -0.016 C 
HETATM    9  C1  UNL     1     -33.742  16.767  -2.632  1.00 20.00     0.010 C 
HETATM   10  C2  UNL     1     -36.080  16.629  -3.473  1.00 20.00     0.010 C 
ENDBRANCH   1   8
TORSDOF 5
ENDMDL
MODEL 6
REMARK VINA RESULT:      -3.4      2.014      2.994
REMARK  5 active torsions:
REMARK  status: ('A' for Active; 'I' for Inactive)
REMARK    1  A    between atoms: C4_4  and  C7_7 
REMARK    2  A    between atoms: C4_4  and  O8_8 
REMARK    3  A    between atoms: C5_5  and  C7_7 
REMARK    4  A    between atoms: C5_5  and  S9_9 
REMARK    5  A    between atoms: C6_6  and  C7_7 
ROOT
HETATM    1  C7  UNL     1     -33.227   6.678   3.799  1.00 20.00     0.022 C 
ENDROOT
BRANCH   1   2
HETATM    2  C4  UNL     1     -34.022   6.426   2.499  1.00 20.00     0.172 C 
BRANCH   2   3
HETATM    3  O8  UNL     1     -34.008   5.044   2.163  1.00 20.00    -0.396 OA
HETATM    4  C3  UNL     1     -32.793   4.424   2.562  1.00 20.00     0.201 C 
ENDBRANCH   2   3
ENDBRANCH   1   2
BRANCH   1   5
HETATM    5  C5  UNL     1     -32.228   7.851   3.646  1.00 20.00     0.077 C 
BRANCH   5   6
HETATM    6  S9  UNL     1     -32.099   8.547   1.969  1.00 20.00    -0.182 SA
HETATM    7  H25 UNL     1     -33.057   9.471   2.130  1.00 20.00     0.101 HD
ENDBRANCH   5   6
ENDBRANCH   1   5
BRANCH   1   8
HETATM    8  C6  UNL     1     -34.168   6.799   5.038  1.00 20.00    -0.016 C 
HETATM    9  C1  UNL     1     -34.593   5.426   5.579  1.00 20.00     0.010 C 
HETATM   10  C2  UNL     1     -33.523   7.590   6.184  1.00 20.00     0.010 C 
ENDBRANCH   1   8
TORSDOF 5
ENDMDL
MODEL 7
REMARK VINA RESULT:      -3.3     11.522     12.298
REMARK  5 active torsions:
REMARK  status: ('A' for Active; 'I' for Inactive)
REMARK    1  A    between atoms: C4_4  and  C7_7 
REMARK    2  A    between atoms: C4_4  and  O8_8 
REMARK    3  A    between atoms: C5_5  and  C7_7 
REMARK    4  A    between atoms: C5_5  and  S9_9 
REMARK    5  A    between atoms: C6_6  and  C7_7 
ROOT
HETATM    1  C7  UNL     1     -35.541  14.064  -4.831  1.00 20.00     0.022 C 
ENDROOT
BRANCH   1   2
HETATM    2  C4  UNL     1     -36.847  14.845  -4.574  1.00 20.00     0.172 C 
BRANCH   2   3
HETATM    3  O8  UNL     1     -37.980  14.028  -4.845  1.00 20.00    -0.396 OA
HETATM    4  C3  UNL     1     -39.080  14.801  -5.306  1.00 20.00     0.201 C 
ENDBRANCH   2   3
ENDBRANCH   1   2
BRANCH   1   5
HETATM    5  C5  UNL     1     -35.152  14.065  -6.330  1.00 20.00     0.077 C 
BRANCH   5   6
HETATM    6  S9  UNL     1     -35.671  15.538  -7.265  1.00 20.00    -0.182 SA
HETATM    7  H25 UNL     1     -36.327  14.869  -8.222  1.00 20.00     0.101 HD
ENDBRANCH   5   6
ENDBRANCH   1   5
BRANCH   1   8
HETATM    8  C6  UNL     1     -34.395  14.524  -3.875  1.00 20.00    -0.016 C 
HETATM    9  C1  UNL     1     -33.044  14.625  -4.599  1.00 20.00     0.010 C 
HETATM   10  C2  UNL     1     -34.693  15.879  -3.218  1.00 20.00     0.010 C 
ENDBRANCH   1   8
TORSDOF 5
ENDMDL
MODEL 8
REMARK VINA RESULT:      -3.3      2.371      3.595
REMARK  5 active torsions:
REMARK  status: ('A' for Active; 'I' for Inactive)
REMARK    1  A    between atoms: C4_4  and  C7_7 
REMARK    2  A    between atoms: C4_4  and  O8_8 
REMARK    3  A    between atoms: C5_5  and  C7_7 
REMARK    4  A    between atoms: C5_5  and  S9_9 
REMARK    5  A    between atoms: C6_6  and  C7_7 
ROOT
HETATM    1  C7  UNL     1     -33.142   7.566   3.014  1.00 20.00     0.022 C 
ENDROOT
BRANCH   1   2
HETATM    2  C4  UNL     1     -32.545   7.461   4.434  1.00 20.00     0.172 C 
BRANCH   2   3
HETATM    3  O8  UNL     1     -33.453   7.981   5.398  1.00 20.00    -0.396 OA
HETATM    4  C3  UNL     1     -33.948   6.958   6.251  1.00 20.00     0.201 C 
ENDBRANCH   2   3
ENDBRANCH   1   2
BRANCH   1   5
HETATM    5  C5  UNL     1     -32.111   8.107   1.992  1.00 20.00     0.077 C 
BRANCH   5   6
HETATM    6  S9  UNL     1     -32.604   9.630   1.126  1.00 20.00    -0.182 SA
HETATM    7  H25 UNL     1     -31.753   9.486   0.101  1.00 20.00     0.101 HD
ENDBRANCH   5   6
ENDBRANCH   1   5
BRANCH   1   8
HETATM    8  C6  UNL     1     -33.834   6.236   2.578  1.00 20.00    -0.016 C 
HETATM    9  C1  UNL     1     -32.922   5.017   2.779  1.00 20.00     0.010 C 
HETATM   10  C2  UNL     1     -35.146   5.986   3.335  1.00 20.00     0.010 C 
ENDBRANCH   1   8
TORSDOF 5
ENDMDL
MODEL 9
REMARK VINA RESULT:      -3.3      1.847      3.654
REMARK  5 active torsions:
REMARK  status: ('A' for Active; 'I' for Inactive)
REMARK    1  A    between atoms: C4_4  and  C7_7 
REMARK    2  A    between atoms: C4_4  and  O8_8 
REMARK    3  A    between atoms: C5_5  and  C7_7 
REMARK    4  A    between atoms: C5_5  and  S9_9 
REMARK    5  A    between atoms: C6_6  and  C7_7 
ROOT
HETATM    1  C7  UNL     1     -33.681   7.391   3.523  1.00 20.00     0.022 C 
ENDROOT
BRANCH   1   2
HETATM    2  C4  UNL     1     -34.305   6.122   2.904  1.00 20.00     0.172 C 
BRANCH   2   3
HETATM    3  O8  UNL     1     -33.336   5.404   2.150  1.00 20.00    -0.396 OA
HETATM    4  C3  UNL     1     -32.963   4.196   2.799  1.00 20.00     0.201 C 
ENDBRANCH   2   3
ENDBRANCH   1   2
BRANCH   1   5
HETATM    5  C5  UNL     1     -33.584   7.293   5.066  1.00 20.00     0.077 C 
BRANCH   5   6
HETATM    6  S9  UNL     1     -34.489   5.901   5.813  1.00 20.00    -0.182 SA
HETATM    7  H25 UNL     1     -34.853   6.555   6.925  1.00 20.00     0.101 HD
ENDBRANCH   5   6
ENDBRANCH   1   5
BRANCH   1   8
HETATM    8  C6  UNL     1     -32.340   7.775   2.824  1.00 20.00    -0.016 C 
HETATM    9  C1  UNL     1     -32.547   8.798   1.697  1.00 20.00     0.010 C 
HETATM   10  C2  UNL     1     -31.311   8.346   3.810  1.00 20.00     0.010 C 
ENDBRANCH   1   8
TORSDOF 5
ENDMDL
