MODEL 1
REMARK VINA RESULT:      -3.3      0.000      0.000
REMARK  5 active torsions:
REMARK  status: ('A' for Active; 'I' for Inactive)
REMARK    1  A    between atoms: C5_5  and  C7_7 
REMARK    2  A    between atoms: C5_5  and  S9_9 
REMARK    3  A    between atoms: C6_6  and  C7_7 
REMARK    4  A    between atoms: C6_6  and  S10_10 
REMARK    5  A    between atoms: C7_7  and  C8_8 
ROOT
HETATM    1  C7  UNL     1     -34.830  16.015  -3.312  1.00 20.00     0.011 C 
ENDROOT
BRANCH   1   2
HETATM    2  C5  UNL     1     -33.485  15.478  -3.868  1.00 20.00     0.077 C 
BRANCH   2   3
HETATM    3  S9  UNL     1     -33.230  15.805  -5.645  1.00 20.00    -0.182 SA
HETATM    4  H28 UNL     1     -34.487  15.528  -6.013  1.00 20.00     0.101 HD
ENDBRANCH   2   3
ENDBRANCH   1   2
BRANCH   1   5
HETATM    5  C6  UNL     1     -35.905  16.277  -4.405  1.00 20.00     0.079 C 
BRANCH   5   6
HETATM    6  S10 UNL     1     -37.302  15.119  -4.495  1.00 20.00    -0.173 SA
HETATM    7  C4  UNL     1     -36.453  13.750  -5.314  1.00 20.00     0.089 C 
ENDBRANCH   5   6
ENDBRANCH   1   5
BRANCH   1   8
HETATM    8  C8  UNL     1     -34.642  17.218  -2.292  1.00 20.00    -0.046 C 
HETATM    9  C1  UNL     1     -35.464  16.995  -1.004  1.00 20.00     0.015 C 
HETATM   10  C2  UNL     1     -33.176  17.464  -1.888  1.00 20.00     0.015 C 
HETATM   11  C3  UNL     1     -35.170  18.526  -2.933  1.00 20.00     0.015 C 
ENDBRANCH   1   8
TORSDOF 5
ENDMDL
MODEL 2
REMARK VINA RESULT:      -3.1      1.871      3.607
REMARK  5 active torsions:
REMARK  status: ('A' for Active; 'I' for Inactive)
REMARK    1  A    between atoms: C5_5  and  C7_7 
REMARK    2  A    between atoms: C5_5  and  S9_9 
REMARK    3  A    between atoms: C6_6  and  C7_7 
REMARK    4  A    between atoms: C6_6  and  S10_10 
REMARK    5  A    between atoms: C7_7  and  C8_8 
ROOT
HETATM    1  C7  UNL     1     -35.540  15.116  -5.007  1.00 20.00     0.011 C 
ENDROOT
BRANCH   1   2
HETATM    2  C5  UNL     1     -36.792  15.492  -4.172  1.00 20.00     0.077 C 
BRANCH   2   3
HETATM    3  S9  UNL     1     -38.368  14.929  -4.896  1.00 20.00    -0.182 SA
HETATM    4  H28 UNL     1     -38.215  13.641  -4.565  1.00 20.00     0.101 HD
ENDBRANCH   2   3
ENDBRANCH   1   2
BRANCH   1   5
HETATM    5  C6  UNL     1     -35.506  13.628  -5.458  1.00 20.00     0.079 C 
BRANCH   5   6
HETATM    6  S10 UNL     1     -35.220  13.298  -7.222  1.00 20.00    -0.173 SA
HETATM    7  C4  UNL     1     -35.607  14.943  -7.861  1.00 20.00     0.089 C 
ENDBRANCH   5   6
ENDBRANCH   1   5
BRANCH   1   8
HETATM    8  C8  UNL     1     -34.184  15.620  -4.351  1.00 20.00    -0.046 C 
HETATM    9  C1  UNL     1     -33.513  16.708  -5.218  1.00 20.00     0.015 C 
HETATM   10  C2  UNL     1     -34.356  16.181  -2.927  1.00 20.00     0.015 C 
HETATM   11  C3  UNL     1     -33.181  14.442  -4.266  1.00 20.00     0.015 C 
ENDBRANCH   1   8
TORSDOF 5
ENDMDL
MODEL 3
REMARK VINA RESULT:      -3.1      1.410      2.020
REMARK  5 active torsions:
REMARK  status: ('A' for Active; 'I' for Inactive)
REMARK    1  A    between atoms: C5_5  and  C7_7 
REMARK    2  A    between atoms: C5_5  and  S9_9 
REMARK    3  A    between atoms: C6_6  and  C7_7 
REMARK    4  A    between atoms: C6_6  and  S10_10 
REMARK    5  A    between atoms: C7_7  and  C8_8 
ROOT
HETATM    1  C7  UNL     1     -33.893  16.716  -3.350  1.00 20.00     0.011 C 
ENDROOT
BRANCH   1   2
HETATM    2  C5  UNL     1     -33.434  17.487  -4.616  1.00 20.00     0.077 C 
BRANCH   2   3
HETATM    3  S9  UNL     1     -34.653  17.487  -5.973  1.00 20.00    -0.182 SA
HETATM    4  H28 UNL     1     -35.257  18.625  -5.610  1.00 20.00     0.101 HD
ENDBRANCH   2   3
ENDBRANCH   1   2
BRANCH   1   5
HETATM    5  C6  UNL     1     -35.033  15.692  -3.616  1.00 20.00     0.079 C 
BRANCH   5   6
HETATM    6  S10 UNL     1     -34.555  14.061  -4.260  1.00 20.00    -0.173 SA
HETATM    7  C4  UNL     1     -36.057  13.700  -5.199  1.00 20.00     0.089 C 
ENDBRANCH   5   6
ENDBRANCH   1   5
BRANCH   1   8
HETATM    8  C8  UNL     1     -34.161  17.669  -2.109  1.00 20.00    -0.046 C 
HETATM    9  C1  UNL     1     -32.862  17.936  -1.317  1.00 20.00     0.015 C 
HETATM   10  C2  UNL     1     -34.776  19.029  -2.492  1.00 20.00     0.015 C 
HETATM   11  C3  UNL     1     -35.143  16.979  -1.129  1.00 20.00     0.015 C 
ENDBRANCH   1   8
TORSDOF 5
ENDMDL
MODEL 4
REMARK VINA RESULT:      -3.1      1.873      4.201
REMARK  5 active torsions:
REMARK  status: ('A' for Active; 'I' for Inactive)
REMARK    1  A    between atoms: C5_5  and  C7_7 
REMARK    2  A    between atoms: C5_5  and  S9_9 
REMARK    3  A    between atoms: C6_6  and  C7_7 
REMARK    4  A    between atoms: C6_6  and  S10_10 
REMARK    5  A    between atoms: C7_7  and  C8_8 
ROOT
HETATM    1  C7  UNL     1     -35.372  15.110  -4.256  1.00 20.00     0.011 C 
ENDROOT
BRANCH   1   2
HETATM    2  C5  UNL     1     -36.607  14.437  -4.910  1.00 20.00     0.077 C 
BRANCH   2   3
HETATM    3  S9  UNL     1     -38.184  15.292  -4.581  1.00 20.00    -0.182 SA
HETATM    4  H28 UNL     1     -38.684  15.128  -5.812  1.00 20.00     0.101 HD
ENDBRANCH   2   3
ENDBRANCH   1   2
BRANCH   1   5
HETATM    5  C6  UNL     1     -35.650  16.538  -3.706  1.00 20.00     0.079 C 
BRANCH   5   6
HETATM    6  S10 UNL     1     -35.396  16.810  -1.927  1.00 20.00    -0.173 SA
HETATM    7  C4  UNL     1     -33.628  17.184  -1.971  1.00 20.00     0.089 C 
ENDBRANCH   5   6
ENDBRANCH   1   5
BRANCH   1   8
HETATM    8  C8  UNL     1     -34.065  15.010  -5.153  1.00 20.00    -0.046 C 
HETATM    9  C1  UNL     1     -34.303  14.121  -6.393  1.00 20.00     0.015 C 
HETATM   10  C2  UNL     1     -33.540  16.375  -5.637  1.00 20.00     0.015 C 
HETATM   11  C3  UNL     1     -32.929  14.341  -4.340  1.00 20.00     0.015 C 
ENDBRANCH   1   8
TORSDOF 5
ENDMDL
MODEL 5
REMARK VINA RESULT:      -3.0      1.871      4.125
REMARK  5 active torsions:
REMARK  status: ('A' for Active; 'I' for Inactive)
REMARK    1  A    between atoms: C5_5  and  C7_7 
REMARK    2  A    between atoms: C5_5  and  S9_9 
REMARK    3  A    between atoms: C6_6  and  C7_7 
REMARK    4  A    between atoms: C6_6  and  S10_10 
REMARK    5  A    between atoms: C7_7  and  C8_8 
ROOT
HETATM    1  C7  UNL     1     -35.374  15.085  -4.258  1.00 20.00     0.011 C 
ENDROOT
BRANCH   1   2
HETATM    2  C5  UNL     1     -36.618  14.407  -4.891  1.00 20.00     0.077 C 
BRANCH   2   3
HETATM    3  S9  UNL     1     -38.184  15.292  -4.588  1.00 20.00    -0.182 SA
HETATM    4  H28 UNL     1     -37.866  15.709  -3.356  1.00 20.00     0.101 HD
ENDBRANCH   2   3
ENDBRANCH   1   2
BRANCH   1   5
HETATM    5  C6  UNL     1     -35.642  16.522  -3.726  1.00 20.00     0.079 C 
BRANCH   5   6
HETATM    6  S10 UNL     1     -35.413  16.807  -1.946  1.00 20.00    -0.173 SA
HETATM    7  C4  UNL     1     -33.642  17.164  -1.964  1.00 20.00     0.089 C 
ENDBRANCH   5   6
ENDBRANCH   1   5
BRANCH   1   8
HETATM    8  C8  UNL     1     -34.076  14.965  -5.165  1.00 20.00    -0.046 C 
HETATM    9  C1  UNL     1     -32.893  14.366  -4.374  1.00 20.00     0.015 C 
HETATM   10  C2  UNL     1     -34.283  14.117  -6.434  1.00 20.00     0.015 C 
HETATM   11  C3  UNL     1     -33.633  16.378  -5.622  1.00 20.00     0.015 C 
ENDBRANCH   1   8
TORSDOF 5
ENDMDL
MODEL 6
REMARK VINA RESULT:      -3.0      1.900      2.776
REMARK  5 active torsions:
REMARK  status: ('A' for Active; 'I' for Inactive)
REMARK    1  A    between atoms: C5_5  and  C7_7 
REMARK    2  A    between atoms: C5_5  and  S9_9 
REMARK    3  A    between atoms: C6_6  and  C7_7 
REMARK    4  A    between atoms: C6_6  and  S10_10 
REMARK    5  A    between atoms: C7_7  and  C8_8 
ROOT
HETATM    1  C7  UNL     1     -35.451  15.156  -4.436  1.00 20.00     0.011 C 
ENDROOT
BRANCH   1   2
HETATM    2  C5  UNL     1     -35.583  13.711  -4.984  1.00 20.00     0.077 C 
BRANCH   2   3
HETATM    3  S9  UNL     1     -35.547  13.598  -6.805  1.00 20.00    -0.182 SA
HETATM    4  H28 UNL     1     -34.661  12.595  -6.858  1.00 20.00     0.101 HD
ENDBRANCH   2   3
ENDBRANCH   1   2
BRANCH   1   5
HETATM    5  C6  UNL     1     -36.309  16.202  -5.204  1.00 20.00     0.079 C 
BRANCH   5   6
HETATM    6  S10 UNL     1     -37.750  16.895  -4.339  1.00 20.00    -0.173 SA
HETATM    7  C4  UNL     1     -38.860  15.477  -4.505  1.00 20.00     0.089 C 
ENDBRANCH   5   6
ENDBRANCH   1   5
BRANCH   1   8
HETATM    8  C8  UNL     1     -33.943  15.599  -4.215  1.00 20.00    -0.046 C 
HETATM    9  C1  UNL     1     -33.776  16.380  -2.893  1.00 20.00     0.015 C 
HETATM   10  C2  UNL     1     -32.947  14.424  -4.206  1.00 20.00     0.015 C 
HETATM   11  C3  UNL     1     -33.513  16.559  -5.353  1.00 20.00     0.015 C 
ENDBRANCH   1   8
TORSDOF 5
ENDMDL
MODEL 7
REMARK VINA RESULT:      -3.0      1.900      3.416
REMARK  5 active torsions:
REMARK  status: ('A' for Active; 'I' for Inactive)
REMARK    1  A    between atoms: C5_5  and  C7_7 
REMARK    2  A    between atoms: C5_5  and  S9_9 
REMARK    3  A    between atoms: C6_6  and  C7_7 
REMARK    4  A    between atoms: C6_6  and  S10_10 
REMARK    5  A    between atoms: C7_7  and  C8_8 
ROOT
HETATM    1  C7  UNL     1     -35.535  15.153  -4.942  1.00 20.00     0.011 C 
ENDROOT
BRANCH   1   2
HETATM    2  C5  UNL     1     -36.711  15.554  -4.013  1.00 20.00     0.077 C 
BRANCH   2   3
HETATM    3  S9  UNL     1     -37.983  16.582  -4.822  1.00 20.00    -0.182 SA
HETATM    4  H28 UNL     1     -39.031  15.952  -4.276  1.00 20.00     0.101 HD
ENDBRANCH   2   3
ENDBRANCH   1   2
BRANCH   1   5
HETATM    5  C6  UNL     1     -35.572  13.666  -5.399  1.00 20.00     0.079 C 
BRANCH   5   6
HETATM    6  S10 UNL     1     -35.258  13.327  -7.157  1.00 20.00    -0.173 SA
HETATM    7  C4  UNL     1     -35.744  14.935  -7.823  1.00 20.00     0.089 C 
ENDBRANCH   5   6
ENDBRANCH   1   5
BRANCH   1   8
HETATM    8  C8  UNL     1     -34.122  15.620  -4.388  1.00 20.00    -0.046 C 
HETATM    9  C1  UNL     1     -33.146  14.430  -4.265  1.00 20.00     0.015 C 
HETATM   10  C2  UNL     1     -33.448  16.706  -5.248  1.00 20.00     0.015 C 
HETATM   11  C3  UNL     1     -34.292  16.201  -2.962  1.00 20.00     0.015 C 
ENDBRANCH   1   8
TORSDOF 5
ENDMDL
MODEL 8
REMARK VINA RESULT:      -3.0      1.900      3.008
REMARK  5 active torsions:
REMARK  status: ('A' for Active; 'I' for Inactive)
REMARK    1  A    between atoms: C5_5  and  C7_7 
REMARK    2  A    between atoms: C5_5  and  S9_9 
REMARK    3  A    between atoms: C6_6  and  C7_7 
REMARK    4  A    between atoms: C6_6  and  S10_10 
REMARK    5  A    between atoms: C7_7  and  C8_8 
ROOT
HETATM    1  C7  UNL     1     -35.436  15.121  -4.437  1.00 20.00     0.011 C 
ENDROOT
BRANCH   1   2
HETATM    2  C5  UNL     1     -35.505  13.685  -5.021  1.00 20.00     0.077 C 
BRANCH   2   3
HETATM    3  S9  UNL     1     -35.631  13.625  -6.840  1.00 20.00    -0.182 SA
HETATM    4  H28 UNL     1     -36.232  12.429  -6.893  1.00 20.00     0.101 HD
ENDBRANCH   2   3
ENDBRANCH   1   2
BRANCH   1   5
HETATM    5  C6  UNL     1     -36.367  16.139  -5.157  1.00 20.00     0.079 C 
BRANCH   5   6
HETATM    6  S10 UNL     1     -37.930  16.565  -4.334  1.00 20.00    -0.173 SA
HETATM    7  C4  UNL     1     -38.916  15.161  -4.904  1.00 20.00     0.089 C 
ENDBRANCH   5   6
ENDBRANCH   1   5
BRANCH   1   8
HETATM    8  C8  UNL     1     -33.948  15.638  -4.240  1.00 20.00    -0.046 C 
HETATM    9  C1  UNL     1     -33.510  16.545  -5.410  1.00 20.00     0.015 C 
HETATM   10  C2  UNL     1     -33.730  16.412  -2.926  1.00 20.00     0.015 C 
HETATM   11  C3  UNL     1     -32.978  14.430  -4.230  1.00 20.00     0.015 C 
ENDBRANCH   1   8
TORSDOF 5
ENDMDL
MODEL 9
REMARK VINA RESULT:      -2.9      1.963      4.203
REMARK  5 active torsions:
REMARK  status: ('A' for Active; 'I' for Inactive)
REMARK    1  A    between atoms: C5_5  and  C7_7 
REMARK    2  A    between atoms: C5_5  and  S9_9 
REMARK    3  A    between atoms: C6_6  and  C7_7 
REMARK    4  A    between atoms: C6_6  and  S10_10 
REMARK    5  A    between atoms: C7_7  and  C8_8 
ROOT
HETATM    1  C7  UNL     1     -34.810  16.321  -4.327  1.00 20.00     0.011 C 
ENDROOT
BRANCH   1   2
HETATM    2  C5  UNL     1     -35.781  17.091  -5.261  1.00 20.00     0.077 C 
BRANCH   2   3
HETATM    3  S9  UNL     1     -37.521  17.066  -4.713  1.00 20.00    -0.182 SA
HETATM    4  H28 UNL     1     -37.847  18.248  -5.250  1.00 20.00     0.101 HD
ENDBRANCH   2   3
ENDBRANCH   1   2
BRANCH   1   5
HETATM    5  C6  UNL     1     -33.670  17.202  -3.740  1.00 20.00     0.079 C 
BRANCH   5   6
HETATM    6  S10 UNL     1     -33.584  17.355  -1.931  1.00 20.00    -0.173 SA
HETATM    7  C4  UNL     1     -35.266  16.820  -1.544  1.00 20.00     0.089 C 
ENDBRANCH   5   6
ENDBRANCH   1   5
BRANCH   1   8
HETATM    8  C8  UNL     1     -34.308  14.950  -4.952  1.00 20.00    -0.046 C 
HETATM    9  C1  UNL     1     -34.097  15.073  -6.477  1.00 20.00     0.015 C 
HETATM   10  C2  UNL     1     -33.000  14.428  -4.328  1.00 20.00     0.015 C 
HETATM   11  C3  UNL     1     -35.388  13.859  -4.740  1.00 20.00     0.015 C 
ENDBRANCH   1   8
TORSDOF 5
ENDMDL
