MODEL 1
REMARK VINA RESULT:      -4.4      0.000      0.000
REMARK  4 active torsions:
REMARK  status: ('A' for Active; 'I' for Inactive)
REMARK    1  A    between atoms: C4_4  and  O8_8 
REMARK    2  A    between atoms: C5_5  and  C6_6 
REMARK    3  A    between atoms: C5_5  and  O8_8 
REMARK    4  A    between atoms: C6_6  and  S9_9 
ROOT
HETATM    1  C1  UNL     1     -33.840   5.186   3.493  1.00 20.00     0.060 C 
HETATM    2  C2  UNL     1     -34.371   4.147   4.455  1.00 20.00     0.170 C 
HETATM    3  C3  UNL     1     -34.333   6.203   5.548  1.00 20.00     0.199 C 
HETATM    4  C4  UNL     1     -34.427   6.456   4.058  1.00 20.00     0.147 C 
HETATM    5  O7  UNL     1     -34.478   4.789   5.735  1.00 20.00    -0.389 OA
ENDROOT
BRANCH   4   6
HETATM    6  O8  UNL     1     -33.693   7.595   3.660  1.00 20.00    -0.383 OA
BRANCH   6   7
HETATM    7  C5  UNL     1     -32.691   7.260   2.710  1.00 20.00     0.178 C 
BRANCH   7   8
HETATM    8  C6  UNL     1     -31.811   8.468   2.432  1.00 20.00     0.097 C 
BRANCH   8   9
HETATM    9  S9  UNL     1     -32.390   9.390   0.976  1.00 20.00    -0.180 SA
HETATM   10  H21 UNL     1     -32.880   8.328   0.325  1.00 20.00     0.101 HD
ENDBRANCH   8   9
ENDBRANCH   7   8
ENDBRANCH   6   7
ENDBRANCH   4   6
TORSDOF 4
ENDMDL
MODEL 2
REMARK VINA RESULT:      -4.3      1.103      1.645
REMARK  4 active torsions:
REMARK  status: ('A' for Active; 'I' for Inactive)
REMARK    1  A    between atoms: C4_4  and  O8_8 
REMARK    2  A    between atoms: C5_5  and  C6_6 
REMARK    3  A    between atoms: C5_5  and  O8_8 
REMARK    4  A    between atoms: C6_6  and  S9_9 
ROOT
HETATM    1  C1  UNL     1     -33.742   7.227   5.250  1.00 20.00     0.060 C 
HETATM    2  C2  UNL     1     -34.390   5.966   5.773  1.00 20.00     0.170 C 
HETATM    3  C3  UNL     1     -34.496   5.931   3.446  1.00 20.00     0.199 C 
HETATM    4  C4  UNL     1     -33.333   6.809   3.859  1.00 20.00     0.147 C 
HETATM    5  O7  UNL     1     -34.988   5.312   4.642  1.00 20.00    -0.389 OA
ENDROOT
BRANCH   4   6
HETATM    6  O8  UNL     1     -33.171   7.921   3.004  1.00 20.00    -0.383 OA
BRANCH   6   7
HETATM    7  C5  UNL     1     -31.801   8.152   2.708  1.00 20.00     0.178 C 
BRANCH   7   8
HETATM    8  C6  UNL     1     -31.657   8.698   1.296  1.00 20.00     0.097 C 
BRANCH   8   9
HETATM    9  S9  UNL     1     -32.748  10.127   1.022  1.00 20.00    -0.180 SA
HETATM   10  H21 UNL     1     -33.842   9.570   1.556  1.00 20.00     0.101 HD
ENDBRANCH   8   9
ENDBRANCH   7   8
ENDBRANCH   6   7
ENDBRANCH   4   6
TORSDOF 4
ENDMDL
MODEL 3
REMARK VINA RESULT:      -3.3      2.707      4.429
REMARK  4 active torsions:
REMARK  status: ('A' for Active; 'I' for Inactive)
REMARK    1  A    between atoms: C4_4  and  O8_8 
REMARK    2  A    between atoms: C5_5  and  C6_6 
REMARK    3  A    between atoms: C5_5  and  O8_8 
REMARK    4  A    between atoms: C6_6  and  S9_9 
ROOT
HETATM    1  C1  UNL     1     -33.171   8.251   1.785  1.00 20.00     0.060 C 
HETATM    2  C2  UNL     1     -31.770   8.745   1.501  1.00 20.00     0.170 C 
HETATM    3  C3  UNL     1     -31.830   7.932   3.683  1.00 20.00     0.199 C 
HETATM    4  C4  UNL     1     -32.926   7.252   2.890  1.00 20.00     0.147 C 
HETATM    5  O7  UNL     1     -31.055   8.692   2.746  1.00 20.00    -0.389 OA
ENDROOT
BRANCH   4   6
HETATM    6  O8  UNL     1     -34.088   7.031   3.662  1.00 20.00    -0.383 OA
BRANCH   6   7
HETATM    7  C5  UNL     1     -33.812   7.122   5.052  1.00 20.00     0.178 C 
BRANCH   7   8
HETATM    8  C6  UNL     1     -34.414   5.933   5.783  1.00 20.00     0.097 C 
BRANCH   8   9
HETATM    9  S9  UNL     1     -34.524   4.475   4.702  1.00 20.00    -0.180 SA
HETATM   10  H21 UNL     1     -33.254   4.084   4.866  1.00 20.00     0.101 HD
ENDBRANCH   8   9
ENDBRANCH   7   8
ENDBRANCH   6   7
ENDBRANCH   4   6
TORSDOF 4
ENDMDL
MODEL 4
REMARK VINA RESULT:      -3.3     11.582     12.321
REMARK  4 active torsions:
REMARK  status: ('A' for Active; 'I' for Inactive)
REMARK    1  A    between atoms: C4_4  and  O8_8 
REMARK    2  A    between atoms: C5_5  and  C6_6 
REMARK    3  A    between atoms: C5_5  and  O8_8 
REMARK    4  A    between atoms: C6_6  and  S9_9 
ROOT
HETATM    1  C1  UNL     1     -34.418  14.360  -6.891  1.00 20.00     0.060 C 
HETATM    2  C2  UNL     1     -35.290  13.127  -6.949  1.00 20.00     0.170 C 
HETATM    3  C3  UNL     1     -35.265  13.901  -4.753  1.00 20.00     0.199 C 
HETATM    4  C4  UNL     1     -34.963  15.065  -5.673  1.00 20.00     0.147 C 
HETATM    5  O7  UNL     1     -35.625  12.796  -5.593  1.00 20.00    -0.389 OA
ENDROOT
BRANCH   4   6
HETATM    6  O8  UNL     1     -34.019  15.956  -5.118  1.00 20.00    -0.383 OA
BRANCH   6   7
HETATM    7  C5  UNL     1     -33.708  15.612  -3.775  1.00 20.00     0.178 C 
BRANCH   7   8
HETATM    8  C6  UNL     1     -33.707  16.858  -2.904  1.00 20.00     0.097 C 
BRANCH   8   9
HETATM    9  S9  UNL     1     -35.125  16.873  -1.765  1.00 20.00    -0.180 SA
HETATM   10  H21 UNL     1     -35.574  15.654  -2.087  1.00 20.00     0.101 HD
ENDBRANCH   8   9
ENDBRANCH   7   8
ENDBRANCH   6   7
ENDBRANCH   4   6
TORSDOF 4
ENDMDL
MODEL 5
REMARK VINA RESULT:      -3.1      3.019      5.137
REMARK  4 active torsions:
REMARK  status: ('A' for Active; 'I' for Inactive)
REMARK    1  A    between atoms: C4_4  and  O8_8 
REMARK    2  A    between atoms: C5_5  and  C6_6 
REMARK    3  A    between atoms: C5_5  and  O8_8 
REMARK    4  A    between atoms: C6_6  and  S9_9 
ROOT
HETATM    1  C1  UNL     1     -32.932   9.965   1.584  1.00 20.00     0.060 C 
HETATM    2  C2  UNL     1     -33.017  10.019   0.076  1.00 20.00     0.170 C 
HETATM    3  C3  UNL     1     -31.469   8.380   0.661  1.00 20.00     0.199 C 
HETATM    4  C4  UNL     1     -32.436   8.558   1.813  1.00 20.00     0.147 C 
HETATM    5  O7  UNL     1     -31.977   9.165  -0.426  1.00 20.00    -0.389 OA
ENDROOT
BRANCH   4   6
HETATM    6  O8  UNL     1     -31.804   8.424   3.069  1.00 20.00    -0.383 OA
BRANCH   6   7
HETATM    7  C5  UNL     1     -32.566   7.609   3.949  1.00 20.00     0.178 C 
BRANCH   7   8
HETATM    8  C6  UNL     1     -33.355   6.580   3.155  1.00 20.00     0.097 C 
BRANCH   8   9
HETATM    9  S9  UNL     1     -34.625   5.781   4.182  1.00 20.00    -0.180 SA
HETATM   10  H21 UNL     1     -34.883   4.781   3.330  1.00 20.00     0.101 HD
ENDBRANCH   8   9
ENDBRANCH   7   8
ENDBRANCH   6   7
ENDBRANCH   4   6
TORSDOF 4
ENDMDL
MODEL 6
REMARK VINA RESULT:      -3.1     11.684     12.401
REMARK  4 active torsions:
REMARK  status: ('A' for Active; 'I' for Inactive)
REMARK    1  A    between atoms: C4_4  and  O8_8 
REMARK    2  A    between atoms: C5_5  and  C6_6 
REMARK    3  A    between atoms: C5_5  and  O8_8 
REMARK    4  A    between atoms: C6_6  and  S9_9 
ROOT
HETATM    1  C1  UNL     1     -33.421  15.447  -4.050  1.00 20.00     0.060 C 
HETATM    2  C2  UNL     1     -34.043  16.462  -3.119  1.00 20.00     0.170 C 
HETATM    3  C3  UNL     1     -35.758  15.273  -4.153  1.00 20.00     0.199 C 
HETATM    4  C4  UNL     1     -34.514  14.410  -4.148  1.00 20.00     0.147 C 
HETATM    5  O7  UNL     1     -35.458  16.432  -3.363  1.00 20.00    -0.389 OA
ENDROOT
BRANCH   4   6
HETATM    6  O8  UNL     1     -34.396  13.634  -5.321  1.00 20.00    -0.383 OA
BRANCH   6   7
HETATM    7  C5  UNL     1     -35.659  13.428  -5.937  1.00 20.00     0.178 C 
BRANCH   7   8
HETATM    8  C6  UNL     1     -35.528  13.540  -7.448  1.00 20.00     0.097 C 
BRANCH   8   9
HETATM    9  S9  UNL     1     -34.048  14.486  -7.918  1.00 20.00    -0.180 SA
HETATM   10  H21 UNL     1     -34.522  15.680  -7.541  1.00 20.00     0.101 HD
ENDBRANCH   8   9
ENDBRANCH   7   8
ENDBRANCH   6   7
ENDBRANCH   4   6
TORSDOF 4
ENDMDL
MODEL 7
REMARK VINA RESULT:      -3.1     11.729     12.697
REMARK  4 active torsions:
REMARK  status: ('A' for Active; 'I' for Inactive)
REMARK    1  A    between atoms: C4_4  and  O8_8 
REMARK    2  A    between atoms: C5_5  and  C6_6 
REMARK    3  A    between atoms: C5_5  and  O8_8 
REMARK    4  A    between atoms: C6_6  and  S9_9 
ROOT
HETATM    1  C1  UNL     1     -35.886  13.866  -6.753  1.00 20.00     0.060 C 
HETATM    2  C2  UNL     1     -34.376  13.882  -6.799  1.00 20.00     0.170 C 
HETATM    3  C3  UNL     1     -35.040  13.940  -4.567  1.00 20.00     0.199 C 
HETATM    4  C4  UNL     1     -36.147  13.301  -5.379  1.00 20.00     0.147 C 
HETATM    5  O7  UNL     1     -33.926  14.111  -5.454  1.00 20.00    -0.389 OA
ENDROOT
BRANCH   4   6
HETATM    6  O8  UNL     1     -37.430  13.649  -4.903  1.00 20.00    -0.383 OA
BRANCH   6   7
HETATM    7  C5  UNL     1     -37.928  14.808  -5.556  1.00 20.00     0.178 C 
BRANCH   7   8
HETATM    8  C6  UNL     1     -38.551  15.752  -4.541  1.00 20.00     0.097 C 
BRANCH   8   9
HETATM    9  S9  UNL     1     -37.358  17.003  -3.977  1.00 20.00    -0.180 SA
HETATM   10  H21 UNL     1     -38.030  17.347  -2.871  1.00 20.00     0.101 HD
ENDBRANCH   8   9
ENDBRANCH   7   8
ENDBRANCH   6   7
ENDBRANCH   4   6
TORSDOF 4
ENDMDL
MODEL 8
REMARK VINA RESULT:      -3.0     11.469     12.531
REMARK  4 active torsions:
REMARK  status: ('A' for Active; 'I' for Inactive)
REMARK    1  A    between atoms: C4_4  and  O8_8 
REMARK    2  A    between atoms: C5_5  and  C6_6 
REMARK    3  A    between atoms: C5_5  and  O8_8 
REMARK    4  A    between atoms: C6_6  and  S9_9 
ROOT
HETATM    1  C1  UNL     1     -36.997  14.552  -5.005  1.00 20.00     0.060 C 
HETATM    2  C2  UNL     1     -37.747  14.666  -6.313  1.00 20.00     0.170 C 
HETATM    3  C3  UNL     1     -35.682  13.677  -6.739  1.00 20.00     0.199 C 
HETATM    4  C4  UNL     1     -36.048  13.415  -5.294  1.00 20.00     0.147 C 
HETATM    5  O7  UNL     1     -36.827  14.288  -7.349  1.00 20.00    -0.389 OA
ENDROOT
BRANCH   4   6
HETATM    6  O8  UNL     1     -34.922  13.444  -4.442  1.00 20.00    -0.383 OA
BRANCH   6   7
HETATM    7  C5  UNL     1     -34.748  14.726  -3.855  1.00 20.00     0.178 C 
BRANCH   7   8
HETATM    8  C6  UNL     1     -33.372  15.273  -4.197  1.00 20.00     0.097 C 
BRANCH   8   9
HETATM    9  S9  UNL     1     -33.459  16.507  -5.529  1.00 20.00    -0.180 SA
HETATM   10  H21 UNL     1     -34.667  16.141  -5.978  1.00 20.00     0.101 HD
ENDBRANCH   8   9
ENDBRANCH   7   8
ENDBRANCH   6   7
ENDBRANCH   4   6
TORSDOF 4
ENDMDL
MODEL 9
REMARK VINA RESULT:      -3.0     11.750     12.681
REMARK  4 active torsions:
REMARK  status: ('A' for Active; 'I' for Inactive)
REMARK    1  A    between atoms: C4_4  and  O8_8 
REMARK    2  A    between atoms: C5_5  and  C6_6 
REMARK    3  A    between atoms: C5_5  and  O8_8 
REMARK    4  A    between atoms: C6_6  and  S9_9 
ROOT
HETATM    1  C1  UNL     1     -33.352  16.236  -5.315  1.00 20.00     0.060 C 
HETATM    2  C2  UNL     1     -33.412  17.573  -4.614  1.00 20.00     0.170 C 
HETATM    3  C3  UNL     1     -34.395  15.978  -3.230  1.00 20.00     0.199 C 
HETATM    4  C4  UNL     1     -33.421  15.276  -4.153  1.00 20.00     0.147 C 
HETATM    5  O7  UNL     1     -34.216  17.386  -3.439  1.00 20.00    -0.389 OA
ENDROOT
BRANCH   4   6
HETATM    6  O8  UNL     1     -33.884  14.003  -4.553  1.00 20.00    -0.383 OA
BRANCH   6   7
HETATM    7  C5  UNL     1     -34.719  14.091  -5.698  1.00 20.00     0.178 C 
BRANCH   7   8
HETATM    8  C6  UNL     1     -36.030  13.364  -5.445  1.00 20.00     0.097 C 
BRANCH   8   9
HETATM    9  S9  UNL     1     -37.382  14.531  -5.101  1.00 20.00    -0.180 SA
HETATM   10  H21 UNL     1     -36.616  15.460  -4.515  1.00 20.00     0.101 HD
ENDBRANCH   8   9
ENDBRANCH   7   8
ENDBRANCH   6   7
ENDBRANCH   4   6
TORSDOF 4
ENDMDL
