MODEL 1
REMARK VINA RESULT:      -5.5      0.000      0.000
REMARK  4 active torsions:
REMARK  status: ('A' for Active; 'I' for Inactive)
REMARK    1  A    between atoms: C1_1  and  C9_9 
REMARK    2  A    between atoms: C2_2  and  C10_10 
REMARK    3  A    between atoms: C9_9  and  N11_11 
REMARK    4  A    between atoms: C10_10  and  S12_12 
ROOT
HETATM    1  C3  UNL     1     -34.273   4.646   4.406  1.00 20.00     0.002 C 
HETATM    2  C4  UNL     1     -34.817   5.473   5.568  1.00 20.00     0.002 C 
HETATM    3  C5  UNL     1     -34.337   5.404   3.084  1.00 20.00     0.030 C 
HETATM    4  C6  UNL     1     -33.966   6.675   5.967  1.00 20.00     0.030 C 
HETATM    5  C7  UNL     1     -33.144   6.326   2.816  1.00 20.00     0.272 C 
HETATM    6  C8  UNL     1     -33.613   7.648   4.839  1.00 20.00     0.272 C 
HETATM    7  N11 UNL     1     -32.599   7.070   3.957  1.00 20.00     0.091 N 
ENDROOT
BRANCH   7   8
HETATM    8  C9  UNL     1     -31.660   8.089   3.484  1.00 20.00     0.299 C 
BRANCH   8   9
HETATM    9  C1  UNL     1     -32.033   8.591   2.122  1.00 20.00    -0.000 C 
HETATM   10  C2  UNL     1     -32.307   9.876   1.849  1.00 20.00    -0.019 C 
BRANCH  10  11
HETATM   11  C10 UNL     1     -32.674  10.375   0.488  1.00 20.00     0.097 C 
BRANCH  11  12
HETATM   12  S12 UNL     1     -32.933   8.979  -0.640  1.00 20.00    -0.178 SA
HETATM   13  H31 UNL     1     -32.654   8.020   0.253  1.00 20.00     0.101 HD
ENDBRANCH  11  12
ENDBRANCH  10  11
ENDBRANCH   8   9
ENDBRANCH   7   8
TORSDOF 4
ENDMDL
MODEL 2
REMARK VINA RESULT:      -4.3      0.536      1.816
REMARK  4 active torsions:
REMARK  status: ('A' for Active; 'I' for Inactive)
REMARK    1  A    between atoms: C1_1  and  C9_9 
REMARK    2  A    between atoms: C2_2  and  C10_10 
REMARK    3  A    between atoms: C9_9  and  N11_11 
REMARK    4  A    between atoms: C10_10  and  S12_12 
ROOT
HETATM    1  C3  UNL     1     -35.092   5.617   4.988  1.00 20.00     0.002 C 
HETATM    2  C4  UNL     1     -34.541   4.585   4.007  1.00 20.00     0.002 C 
HETATM    3  C5  UNL     1     -34.000   6.198   5.881  1.00 20.00     0.030 C 
HETATM    4  C6  UNL     1     -33.641   5.145   2.909  1.00 20.00     0.030 C 
HETATM    5  C7  UNL     1     -33.234   7.377   5.273  1.00 20.00     0.272 C 
HETATM    6  C8  UNL     1     -32.462   5.999   3.384  1.00 20.00     0.272 C 
HETATM    7  N11 UNL     1     -32.925   7.310   3.840  1.00 20.00     0.091 N 
ENDROOT
BRANCH   7   8
HETATM    8  C9  UNL     1     -31.973   8.366   3.488  1.00 20.00     0.299 C 
BRANCH   8   9
HETATM    9  C1  UNL     1     -32.071   8.734   2.039  1.00 20.00    -0.000 C 
HETATM   10  C2  UNL     1     -32.441   9.947   1.600  1.00 20.00    -0.019 C 
BRANCH  10  11
HETATM   11  C10 UNL     1     -32.533  10.314   0.153  1.00 20.00     0.097 C 
BRANCH  11  12
HETATM   12  S12 UNL     1     -32.878   8.839  -0.844  1.00 20.00    -0.178 SA
HETATM   13  H31 UNL     1     -32.881   7.972   0.178  1.00 20.00     0.101 HD
ENDBRANCH  11  12
ENDBRANCH  10  11
ENDBRANCH   8   9
ENDBRANCH   7   8
TORSDOF 4
ENDMDL
MODEL 3
REMARK VINA RESULT:      -4.2     11.017     11.893
REMARK  4 active torsions:
REMARK  status: ('A' for Active; 'I' for Inactive)
REMARK    1  A    between atoms: C1_1  and  C9_9 
REMARK    2  A    between atoms: C2_2  and  C10_10 
REMARK    3  A    between atoms: C9_9  and  N11_11 
REMARK    4  A    between atoms: C10_10  and  S12_12 
ROOT
HETATM    1  C3  UNL     1     -34.336  13.683  -7.342  1.00 20.00     0.002 C 
HETATM    2  C4  UNL     1     -35.678  13.316  -6.714  1.00 20.00     0.002 C 
HETATM    3  C5  UNL     1     -34.102  15.191  -7.352  1.00 20.00     0.030 C 
HETATM    4  C6  UNL     1     -35.782  13.560  -5.211  1.00 20.00     0.030 C 
HETATM    5  C7  UNL     1     -33.505  15.755  -6.060  1.00 20.00     0.272 C 
HETATM    6  C8  UNL     1     -35.428  14.972  -4.737  1.00 20.00     0.272 C 
HETATM    7  N11 UNL     1     -33.982  15.187  -4.794  1.00 20.00     0.091 N 
ENDROOT
BRANCH   7   8
HETATM    8  C9  UNL     1     -33.520  16.010  -3.674  1.00 20.00     0.299 C 
BRANCH   8   9
HETATM    9  C1  UNL     1     -34.626  16.288  -2.702  1.00 20.00    -0.000 C 
HETATM   10  C2  UNL     1     -34.482  17.046  -1.604  1.00 20.00    -0.019 C 
BRANCH  10  11
HETATM   11  C10 UNL     1     -35.590  17.326  -0.638  1.00 20.00     0.097 C 
BRANCH  11  12
HETATM   12  S12 UNL     1     -34.938  18.159   0.834  1.00 20.00    -0.178 SA
HETATM   13  H31 UNL     1     -35.809  17.623   1.700  1.00 20.00     0.101 HD
ENDBRANCH  11  12
ENDBRANCH  10  11
ENDBRANCH   8   9
ENDBRANCH   7   8
TORSDOF 4
ENDMDL
MODEL 4
REMARK VINA RESULT:      -4.1     10.828     11.472
REMARK  4 active torsions:
REMARK  status: ('A' for Active; 'I' for Inactive)
REMARK    1  A    between atoms: C1_1  and  C9_9 
REMARK    2  A    between atoms: C2_2  and  C10_10 
REMARK    3  A    between atoms: C9_9  and  N11_11 
REMARK    4  A    between atoms: C10_10  and  S12_12 
ROOT
HETATM    1  C3  UNL     1     -34.921  17.761   0.294  1.00 20.00     0.002 C 
HETATM    2  C4  UNL     1     -33.808  18.785   0.089  1.00 20.00     0.002 C 
HETATM    3  C5  UNL     1     -35.826  17.645  -0.929  1.00 20.00     0.030 C 
HETATM    4  C6  UNL     1     -32.742  18.392  -0.931  1.00 20.00     0.030 C 
HETATM    5  C7  UNL     1     -35.321  16.686  -2.011  1.00 20.00     0.272 C 
HETATM    6  C8  UNL     1     -33.258  17.994  -2.317  1.00 20.00     0.272 C 
HETATM    7  N11 UNL     1     -33.878  16.670  -2.275  1.00 20.00     0.091 N 
ENDROOT
BRANCH   7   8
HETATM    8  C9  UNL     1     -33.606  15.913  -3.499  1.00 20.00     0.299 C 
BRANCH   8   9
HETATM    9  C1  UNL     1     -34.860  15.332  -4.077  1.00 20.00    -0.000 C 
HETATM   10  C2  UNL     1     -34.917  14.138  -4.687  1.00 20.00    -0.019 C 
BRANCH  10  11
HETATM   11  C10 UNL     1     -36.172  13.558  -5.258  1.00 20.00     0.097 C 
BRANCH  11  12
HETATM   12  S12 UNL     1     -37.577  14.654  -4.921  1.00 20.00    -0.178 SA
HETATM   13  H31 UNL     1     -38.480  13.681  -4.743  1.00 20.00     0.101 HD
ENDBRANCH  11  12
ENDBRANCH  10  11
ENDBRANCH   8   9
ENDBRANCH   7   8
TORSDOF 4
ENDMDL
MODEL 5
REMARK VINA RESULT:      -4.0     10.890     11.882
REMARK  4 active torsions:
REMARK  status: ('A' for Active; 'I' for Inactive)
REMARK    1  A    between atoms: C1_1  and  C9_9 
REMARK    2  A    between atoms: C2_2  and  C10_10 
REMARK    3  A    between atoms: C9_9  and  N11_11 
REMARK    4  A    between atoms: C10_10  and  S12_12 
ROOT
HETATM    1  C3  UNL     1     -35.687  14.281  -6.333  1.00 20.00     0.002 C 
HETATM    2  C4  UNL     1     -34.415  14.460  -7.158  1.00 20.00     0.002 C 
HETATM    3  C5  UNL     1     -35.396  13.717  -4.946  1.00 20.00     0.030 C 
HETATM    4  C6  UNL     1     -33.473  15.558  -6.672  1.00 20.00     0.030 C 
HETATM    5  C7  UNL     1     -35.017  14.764  -3.895  1.00 20.00     0.272 C 
HETATM    6  C8  UNL     1     -33.056  15.478  -5.201  1.00 20.00     0.272 C 
HETATM    7  N11 UNL     1     -34.162  15.875  -4.329  1.00 20.00     0.091 N 
ENDROOT
BRANCH   7   8
HETATM    8  C9  UNL     1     -33.683  16.619  -3.163  1.00 20.00     0.299 C 
BRANCH   8   9
HETATM    9  C1  UNL     1     -34.723  16.683  -2.086  1.00 20.00    -0.000 C 
HETATM   10  C2  UNL     1     -34.592  17.407  -0.963  1.00 20.00    -0.019 C 
BRANCH  10  11
HETATM   11  C10 UNL     1     -35.635  17.473   0.107  1.00 20.00     0.097 C 
BRANCH  11  12
HETATM   12  S12 UNL     1     -34.973  18.312   1.572  1.00 20.00    -0.178 SA
HETATM   13  H31 UNL     1     -35.960  19.211   1.681  1.00 20.00     0.101 HD
ENDBRANCH  11  12
ENDBRANCH  10  11
ENDBRANCH   8   9
ENDBRANCH   7   8
TORSDOF 4
ENDMDL
MODEL 6
REMARK VINA RESULT:      -4.0     11.031     11.640
REMARK  4 active torsions:
REMARK  status: ('A' for Active; 'I' for Inactive)
REMARK    1  A    between atoms: C1_1  and  C9_9 
REMARK    2  A    between atoms: C2_2  and  C10_10 
REMARK    3  A    between atoms: C9_9  and  N11_11 
REMARK    4  A    between atoms: C10_10  and  S12_12 
ROOT
HETATM    1  C3  UNL     1     -33.476  18.598   1.936  1.00 20.00     0.002 C 
HETATM    2  C4  UNL     1     -32.343  19.209   1.115  1.00 20.00     0.002 C 
HETATM    3  C5  UNL     1     -34.845  18.896   1.332  1.00 20.00     0.030 C 
HETATM    4  C6  UNL     1     -32.116  18.576  -0.255  1.00 20.00     0.030 C 
HETATM    5  C7  UNL     1     -35.288  17.922   0.236  1.00 20.00     0.272 C 
HETATM    6  C8  UNL     1     -33.345  18.494  -1.164  1.00 20.00     0.272 C 
HETATM    7  N11 UNL     1     -34.261  17.452  -0.701  1.00 20.00     0.091 N 
ENDROOT
BRANCH   7   8
HETATM    8  C9  UNL     1     -34.894  16.758  -1.824  1.00 20.00     0.299 C 
BRANCH   8   9
HETATM    9  C1  UNL     1     -33.920  16.509  -2.936  1.00 20.00    -0.000 C 
HETATM   10  C2  UNL     1     -34.017  15.485  -3.798  1.00 20.00    -0.019 C 
BRANCH  10  11
HETATM   11  C10 UNL     1     -33.046  15.243  -4.910  1.00 20.00     0.097 C 
BRANCH  11  12
HETATM   12  S12 UNL     1     -33.612  16.067  -6.423  1.00 20.00    -0.178 SA
HETATM   13  H31 UNL     1     -32.573  16.906  -6.527  1.00 20.00     0.101 HD
ENDBRANCH  11  12
ENDBRANCH  10  11
ENDBRANCH   8   9
ENDBRANCH   7   8
TORSDOF 4
ENDMDL
MODEL 7
REMARK VINA RESULT:      -3.9     11.223     12.111
REMARK  4 active torsions:
REMARK  status: ('A' for Active; 'I' for Inactive)
REMARK    1  A    between atoms: C1_1  and  C9_9 
REMARK    2  A    between atoms: C2_2  and  C10_10 
REMARK    3  A    between atoms: C9_9  and  N11_11 
REMARK    4  A    between atoms: C10_10  and  S12_12 
ROOT
HETATM    1  C3  UNL     1     -35.293  14.510  -7.288  1.00 20.00     0.002 C 
HETATM    2  C4  UNL     1     -33.830  14.921  -7.435  1.00 20.00     0.002 C 
HETATM    3  C5  UNL     1     -35.514  13.599  -6.085  1.00 20.00     0.030 C 
HETATM    4  C6  UNL     1     -33.306  15.861  -6.353  1.00 20.00     0.030 C 
HETATM    5  C7  UNL     1     -35.721  14.331  -4.756  1.00 20.00     0.272 C 
HETATM    6  C8  UNL     1     -33.506  15.396  -4.909  1.00 20.00     0.272 C 
HETATM    7  N11 UNL     1     -34.909  15.529  -4.514  1.00 20.00     0.091 N 
ENDROOT
BRANCH   7   8
HETATM    8  C9  UNL     1     -35.033  15.940  -3.114  1.00 20.00     0.299 C 
BRANCH   8   9
HETATM    9  C1  UNL     1     -33.802  16.649  -2.637  1.00 20.00    -0.000 C 
HETATM   10  C2  UNL     1     -33.794  17.533  -1.627  1.00 20.00    -0.019 C 
BRANCH  10  11
HETATM   11  C10 UNL     1     -32.562  18.235  -1.150  1.00 20.00     0.097 C 
BRANCH  11  12
HETATM   12  S12 UNL     1     -32.830  18.905   0.514  1.00 20.00    -0.178 SA
HETATM   13  H31 UNL     1     -31.548  18.852   0.898  1.00 20.00     0.101 HD
ENDBRANCH  11  12
ENDBRANCH  10  11
ENDBRANCH   8   9
ENDBRANCH   7   8
TORSDOF 4
ENDMDL
MODEL 8
REMARK VINA RESULT:      -3.9     10.876     12.036
REMARK  4 active torsions:
REMARK  status: ('A' for Active; 'I' for Inactive)
REMARK    1  A    between atoms: C1_1  and  C9_9 
REMARK    2  A    between atoms: C2_2  and  C10_10 
REMARK    3  A    between atoms: C9_9  and  N11_11 
REMARK    4  A    between atoms: C10_10  and  S12_12 
ROOT
HETATM    1  C3  UNL     1     -33.575  15.615  -6.304  1.00 20.00     0.002 C 
HETATM    2  C4  UNL     1     -34.487  14.511  -5.776  1.00 20.00     0.002 C 
HETATM    3  C5  UNL     1     -34.068  17.003  -5.907  1.00 20.00     0.030 C 
HETATM    4  C6  UNL     1     -34.472  14.321  -4.262  1.00 20.00     0.030 C 
HETATM    5  C7  UNL     1     -33.617  17.472  -4.520  1.00 20.00     0.272 C 
HETATM    6  C8  UNL     1     -34.745  15.575  -3.429  1.00 20.00     0.272 C 
HETATM    7  N11 UNL     1     -33.588  16.470  -3.449  1.00 20.00     0.091 N 
ENDROOT
BRANCH   7   8
HETATM    8  C9  UNL     1     -33.401  17.131  -2.155  1.00 20.00     0.299 C 
BRANCH   8   9
HETATM    9  C1  UNL     1     -34.678  17.180  -1.373  1.00 20.00    -0.000 C 
HETATM   10  C2  UNL     1     -34.774  17.679  -0.131  1.00 20.00    -0.019 C 
BRANCH  10  11
HETATM   11  C10 UNL     1     -36.052  17.732   0.646  1.00 20.00     0.097 C 
BRANCH  11  12
HETATM   12  S12 UNL     1     -37.316  18.632  -0.292  1.00 20.00    -0.178 SA
HETATM   13  H31 UNL     1     -36.814  18.364  -1.504  1.00 20.00     0.101 HD
ENDBRANCH  11  12
ENDBRANCH  10  11
ENDBRANCH   8   9
ENDBRANCH   7   8
TORSDOF 4
ENDMDL
MODEL 9
REMARK VINA RESULT:      -3.9     10.850     11.856
REMARK  4 active torsions:
REMARK  status: ('A' for Active; 'I' for Inactive)
REMARK    1  A    between atoms: C1_1  and  C9_9 
REMARK    2  A    between atoms: C2_2  and  C10_10 
REMARK    3  A    between atoms: C9_9  and  N11_11 
REMARK    4  A    between atoms: C10_10  and  S12_12 
ROOT
HETATM    1  C3  UNL     1     -37.239  14.316  -5.034  1.00 20.00     0.002 C 
HETATM    2  C4  UNL     1     -37.422  15.559  -5.901  1.00 20.00     0.002 C 
HETATM    3  C5  UNL     1     -35.832  13.738  -5.152  1.00 20.00     0.030 C 
HETATM    4  C6  UNL     1     -36.645  16.790  -5.446  1.00 20.00     0.030 C 
HETATM    5  C7  UNL     1     -34.796  14.378  -4.224  1.00 20.00     0.272 C 
HETATM    6  C8  UNL     1     -35.140  16.593  -5.243  1.00 20.00     0.272 C 
HETATM    7  N11 UNL     1     -34.880  15.830  -4.023  1.00 20.00     0.091 N 
ENDROOT
BRANCH   7   8
HETATM    8  C9  UNL     1     -33.675  16.307  -3.340  1.00 20.00     0.299 C 
BRANCH   8   9
HETATM    9  C1  UNL     1     -34.005  16.950  -2.027  1.00 20.00    -0.000 C 
HETATM   10  C2  UNL     1     -35.203  16.854  -1.429  1.00 20.00    -0.019 C 
BRANCH  10  11
HETATM   11  C10 UNL     1     -35.527  17.494  -0.116  1.00 20.00     0.097 C 
BRANCH  11  12
HETATM   12  S12 UNL     1     -34.129  18.500   0.451  1.00 20.00    -0.178 SA
HETATM   13  H31 UNL     1     -34.832  19.255   1.306  1.00 20.00     0.101 HD
ENDBRANCH  11  12
ENDBRANCH  10  11
ENDBRANCH   8   9
ENDBRANCH   7   8
TORSDOF 4
ENDMDL
