MODEL 1
REMARK VINA RESULT:      -4.7      0.000      0.000
REMARK  5 active torsions:
REMARK  status: ('A' for Active; 'I' for Inactive)
REMARK    1  A    between atoms: C1_1  and  C7_7 
REMARK    2  A    between atoms: C2_2  and  C8_8 
REMARK    3  A    between atoms: C5_5  and  N9_9 
REMARK    4  A    between atoms: C7_7  and  N9_9 
REMARK    5  A    between atoms: C8_8  and  S10_10 
ROOT
HETATM    1  C7  UNL     1     -32.899   7.027   2.033  1.00 20.00     0.299 C 
ENDROOT
BRANCH   1   2
HETATM    2  C1  UNL     1     -33.548   6.272   3.153  1.00 20.00    -0.000 C 
HETATM    3  C2  UNL     1     -33.632   4.934   3.199  1.00 20.00    -0.019 C 
BRANCH   3   4
HETATM    4  C8  UNL     1     -34.277   4.183   4.320  1.00 20.00     0.097 C 
BRANCH   4   5
HETATM    5  S10 UNL     1     -34.605   5.298   5.712  1.00 20.00    -0.178 SA
HETATM    6  H25 UNL     1     -35.569   4.554   6.270  1.00 20.00     0.101 HD
ENDBRANCH   4   5
ENDBRANCH   3   4
ENDBRANCH   1   2
BRANCH   1   7
HETATM    7  N9  UNL     1     -32.496   8.366   2.451  1.00 20.00     0.092 N 
HETATM    8  C6  UNL     1     -31.474   8.295   3.495  1.00 20.00     0.310 C 
BRANCH   7   9
HETATM    9  C5  UNL     1     -32.002   9.135   1.308  1.00 20.00     0.223 A 
HETATM   10  C3  UNL     1     -32.850   9.297   0.076  1.00 20.00     0.038 A 
HETATM   11  C4  UNL     1     -32.597  10.475   0.972  1.00 20.00     0.038 A 
ENDBRANCH   7   9
ENDBRANCH   1   7
TORSDOF 5
ENDMDL
MODEL 2
REMARK VINA RESULT:      -4.2      2.781      5.281
REMARK  5 active torsions:
REMARK  status: ('A' for Active; 'I' for Inactive)
REMARK    1  A    between atoms: C1_1  and  C7_7 
REMARK    2  A    between atoms: C2_2  and  C8_8 
REMARK    3  A    between atoms: C5_5  and  N9_9 
REMARK    4  A    between atoms: C7_7  and  N9_9 
REMARK    5  A    between atoms: C8_8  and  S10_10 
ROOT
HETATM    1  C7  UNL     1     -33.325   7.186   3.496  1.00 20.00     0.299 C 
ENDROOT
BRANCH   1   2
HETATM    2  C1  UNL     1     -33.031   7.937   2.233  1.00 20.00    -0.000 C 
HETATM    3  C2  UNL     1     -31.812   8.390   1.903  1.00 20.00    -0.019 C 
BRANCH   3   4
HETATM    4  C8  UNL     1     -31.521   9.136   0.639  1.00 20.00     0.097 C 
BRANCH   4   5
HETATM    5  S10 UNL     1     -33.063   9.483  -0.251  1.00 20.00    -0.178 SA
HETATM    6  H25 UNL     1     -33.868   8.828   0.595  1.00 20.00     0.101 HD
ENDBRANCH   4   5
ENDBRANCH   3   4
ENDBRANCH   1   2
BRANCH   1   7
HETATM    7  N9  UNL     1     -34.123   5.991   3.238  1.00 20.00     0.092 N 
HETATM    8  C6  UNL     1     -33.261   4.863   2.885  1.00 20.00     0.310 C 
BRANCH   7   9
HETATM    9  C5  UNL     1     -34.944   5.659   4.403  1.00 20.00     0.223 A 
HETATM   10  C3  UNL     1     -34.537   4.547   5.329  1.00 20.00     0.038 A 
HETATM   11  C4  UNL     1     -34.461   5.972   5.793  1.00 20.00     0.038 A 
ENDBRANCH   7   9
ENDBRANCH   1   7
TORSDOF 5
ENDMDL
MODEL 3
REMARK VINA RESULT:      -4.1      2.806      5.243
REMARK  5 active torsions:
REMARK  status: ('A' for Active; 'I' for Inactive)
REMARK    1  A    between atoms: C1_1  and  C7_7 
REMARK    2  A    between atoms: C2_2  and  C8_8 
REMARK    3  A    between atoms: C5_5  and  N9_9 
REMARK    4  A    between atoms: C7_7  and  N9_9 
REMARK    5  A    between atoms: C8_8  and  S10_10 
ROOT
HETATM    1  C7  UNL     1     -32.722   6.473   3.039  1.00 20.00     0.299 C 
ENDROOT
BRANCH   1   2
HETATM    2  C1  UNL     1     -32.963   7.777   2.342  1.00 20.00    -0.000 C 
HETATM    3  C2  UNL     1     -31.995   8.501   1.760  1.00 20.00    -0.019 C 
BRANCH   3   4
HETATM    4  C8  UNL     1     -32.240   9.801   1.061  1.00 20.00     0.097 C 
BRANCH   4   5
HETATM    5  S10 UNL     1     -33.143   9.518  -0.486  1.00 20.00    -0.178 SA
HETATM    6  H25 UNL     1     -33.176   8.182  -0.392  1.00 20.00     0.101 HD
ENDBRANCH   4   5
ENDBRANCH   3   4
ENDBRANCH   1   2
BRANCH   1   7
HETATM    7  N9  UNL     1     -33.263   6.480   4.395  1.00 20.00     0.092 N 
HETATM    8  C6  UNL     1     -33.546   7.848   4.829  1.00 20.00     0.310 C 
BRANCH   7   9
HETATM    9  C5  UNL     1     -34.474   5.662   4.469  1.00 20.00     0.223 A 
HETATM   10  C3  UNL     1     -34.392   4.167   4.334  1.00 20.00     0.038 A 
HETATM   11  C4  UNL     1     -34.729   4.781   5.661  1.00 20.00     0.038 A 
ENDBRANCH   7   9
ENDBRANCH   1   7
TORSDOF 5
ENDMDL
MODEL 4
REMARK VINA RESULT:      -3.8      2.843      4.857
REMARK  5 active torsions:
REMARK  status: ('A' for Active; 'I' for Inactive)
REMARK    1  A    between atoms: C1_1  and  C7_7 
REMARK    2  A    between atoms: C2_2  and  C8_8 
REMARK    3  A    between atoms: C5_5  and  N9_9 
REMARK    4  A    between atoms: C7_7  and  N9_9 
REMARK    5  A    between atoms: C8_8  and  S10_10 
ROOT
HETATM    1  C7  UNL     1     -32.229   8.138   4.297  1.00 20.00     0.299 C 
ENDROOT
BRANCH   1   2
HETATM    2  C1  UNL     1     -31.968   8.027   2.825  1.00 20.00    -0.000 C 
HETATM    3  C2  UNL     1     -31.944   9.078   1.991  1.00 20.00    -0.019 C 
BRANCH   3   4
HETATM    4  C8  UNL     1     -31.680   8.964   0.523  1.00 20.00     0.097 C 
BRANCH   4   5
HETATM    5  S10 UNL     1     -33.152   9.451  -0.416  1.00 20.00    -0.178 SA
HETATM    6  H25 UNL     1     -32.666  10.621  -0.852  1.00 20.00     0.101 HD
ENDBRANCH   4   5
ENDBRANCH   3   4
ENDBRANCH   1   2
BRANCH   1   7
HETATM    7  N9  UNL     1     -33.069   7.047   4.777  1.00 20.00     0.092 N 
HETATM    8  C6  UNL     1     -33.746   7.426   6.018  1.00 20.00     0.310 C 
BRANCH   7   9
HETATM    9  C5  UNL     1     -34.050   6.666   3.759  1.00 20.00     0.223 A 
HETATM   10  C3  UNL     1     -33.927   5.352   3.039  1.00 20.00     0.038 A 
HETATM   11  C4  UNL     1     -35.038   5.564   4.024  1.00 20.00     0.038 A 
ENDBRANCH   7   9
ENDBRANCH   1   7
TORSDOF 5
ENDMDL
MODEL 5
REMARK VINA RESULT:      -3.5      1.397      1.962
REMARK  5 active torsions:
REMARK  status: ('A' for Active; 'I' for Inactive)
REMARK    1  A    between atoms: C1_1  and  C7_7 
REMARK    2  A    between atoms: C2_2  and  C8_8 
REMARK    3  A    between atoms: C5_5  and  N9_9 
REMARK    4  A    between atoms: C7_7  and  N9_9 
REMARK    5  A    between atoms: C8_8  and  S10_10 
ROOT
HETATM    1  C7  UNL     1     -32.208   8.282   3.530  1.00 20.00     0.299 C 
ENDROOT
BRANCH   1   2
HETATM    2  C1  UNL     1     -32.977   7.193   4.215  1.00 20.00    -0.000 C 
HETATM    3  C2  UNL     1     -33.655   7.365   5.360  1.00 20.00    -0.019 C 
BRANCH   3   4
HETATM    4  C8  UNL     1     -34.424   6.276   6.038  1.00 20.00     0.097 C 
BRANCH   4   5
HETATM    5  S10 UNL     1     -34.668   4.883   4.903  1.00 20.00    -0.178 SA
HETATM    6  H25 UNL     1     -34.936   5.624   3.820  1.00 20.00     0.101 HD
ENDBRANCH   4   5
ENDBRANCH   3   4
ENDBRANCH   1   2
BRANCH   1   7
HETATM    7  N9  UNL     1     -32.232   8.127   2.080  1.00 20.00     0.092 N 
HETATM    8  C6  UNL     1     -32.788   6.825   1.710  1.00 20.00     0.310 C 
BRANCH   7   9
HETATM    9  C5  UNL     1     -33.005   9.204   1.460  1.00 20.00     0.223 A 
HETATM   10  C3  UNL     1     -32.449  10.600   1.396  1.00 20.00     0.038 A 
HETATM   11  C4  UNL     1     -32.582   9.788   0.140  1.00 20.00     0.038 A 
ENDBRANCH   7   9
ENDBRANCH   1   7
TORSDOF 5
ENDMDL
MODEL 6
REMARK VINA RESULT:      -3.4     10.322     11.474
REMARK  5 active torsions:
REMARK  status: ('A' for Active; 'I' for Inactive)
REMARK    1  A    between atoms: C1_1  and  C7_7 
REMARK    2  A    between atoms: C2_2  and  C8_8 
REMARK    3  A    between atoms: C5_5  and  N9_9 
REMARK    4  A    between atoms: C7_7  and  N9_9 
REMARK    5  A    between atoms: C8_8  and  S10_10 
ROOT
HETATM    1  C7  UNL     1     -33.400  17.146  -2.409  1.00 20.00     0.299 C 
ENDROOT
BRANCH   1   2
HETATM    2  C1  UNL     1     -33.453  17.817  -1.070  1.00 20.00    -0.000 C 
HETATM    3  C2  UNL     1     -32.427  18.498  -0.537  1.00 20.00    -0.019 C 
BRANCH   3   4
HETATM    4  C8  UNL     1     -32.484  19.170   0.799  1.00 20.00     0.097 C 
BRANCH   4   5
HETATM    5  S10 UNL     1     -30.986  18.798   1.750  1.00 20.00    -0.178 SA
HETATM    6  H25 UNL     1     -30.438  17.980   0.842  1.00 20.00     0.101 HD
ENDBRANCH   4   5
ENDBRANCH   3   4
ENDBRANCH   1   2
BRANCH   1   7
HETATM    7  N9  UNL     1     -34.535  16.250  -2.606  1.00 20.00     0.092 N 
HETATM    8  C6  UNL     1     -35.796  16.967  -2.416  1.00 20.00     0.310 C 
BRANCH   7   9
HETATM    9  C5  UNL     1     -34.488  15.647  -3.939  1.00 20.00     0.223 A 
HETATM   10  C3  UNL     1     -33.228  14.992  -4.434  1.00 20.00     0.038 A 
HETATM   11  C4  UNL     1     -34.427  14.153  -4.100  1.00 20.00     0.038 A 
ENDBRANCH   7   9
ENDBRANCH   1   7
TORSDOF 5
ENDMDL
MODEL 7
REMARK VINA RESULT:      -3.4     10.836     11.570
REMARK  5 active torsions:
REMARK  status: ('A' for Active; 'I' for Inactive)
REMARK    1  A    between atoms: C1_1  and  C7_7 
REMARK    2  A    between atoms: C2_2  and  C8_8 
REMARK    3  A    between atoms: C5_5  and  N9_9 
REMARK    4  A    between atoms: C7_7  and  N9_9 
REMARK    5  A    between atoms: C8_8  and  S10_10 
ROOT
HETATM    1  C7  UNL     1     -33.525  15.047  -4.662  1.00 20.00     0.299 C 
ENDROOT
BRANCH   1   2
HETATM    2  C1  UNL     1     -33.706  15.897  -3.440  1.00 20.00    -0.000 C 
HETATM    3  C2  UNL     1     -34.889  16.096  -2.839  1.00 20.00    -0.019 C 
BRANCH   3   4
HETATM    4  C8  UNL     1     -35.065  16.941  -1.618  1.00 20.00     0.097 C 
BRANCH   4   5
HETATM    5  S10 UNL     1     -33.541  17.859  -1.269  1.00 20.00    -0.178 SA
HETATM    6  H25 UNL     1     -32.856  17.412  -2.330  1.00 20.00     0.101 HD
ENDBRANCH   4   5
ENDBRANCH   3   4
ENDBRANCH   1   2
BRANCH   1   7
HETATM    7  N9  UNL     1     -34.440  15.439  -5.729  1.00 20.00     0.092 N 
HETATM    8  C6  UNL     1     -33.709  16.075  -6.826  1.00 20.00     0.310 C 
BRANCH   7   9
HETATM    9  C5  UNL     1     -35.185  14.279  -6.220  1.00 20.00     0.223 A 
HETATM   10  C3  UNL     1     -35.942  13.401  -5.262  1.00 20.00     0.038 A 
HETATM   11  C4  UNL     1     -36.689  14.282  -6.222  1.00 20.00     0.038 A 
ENDBRANCH   7   9
ENDBRANCH   1   7
TORSDOF 5
ENDMDL
MODEL 8
REMARK VINA RESULT:      -3.4     10.446     11.187
REMARK  5 active torsions:
REMARK  status: ('A' for Active; 'I' for Inactive)
REMARK    1  A    between atoms: C1_1  and  C7_7 
REMARK    2  A    between atoms: C2_2  and  C8_8 
REMARK    3  A    between atoms: C5_5  and  N9_9 
REMARK    4  A    between atoms: C7_7  and  N9_9 
REMARK    5  A    between atoms: C8_8  and  S10_10 
ROOT
HETATM    1  C7  UNL     1     -35.763  15.855  -4.545  1.00 20.00     0.299 C 
ENDROOT
BRANCH   1   2
HETATM    2  C1  UNL     1     -36.048  16.302  -3.143  1.00 20.00    -0.000 C 
HETATM    3  C2  UNL     1     -35.098  16.674  -2.271  1.00 20.00    -0.019 C 
BRANCH   3   4
HETATM    4  C8  UNL     1     -35.386  17.123  -0.874  1.00 20.00     0.097 C 
BRANCH   4   5
HETATM    5  S10 UNL     1     -34.055  18.200  -0.277  1.00 20.00    -0.178 SA
HETATM    6  H25 UNL     1     -34.455  19.299  -0.928  1.00 20.00     0.101 HD
ENDBRANCH   4   5
ENDBRANCH   3   4
ENDBRANCH   1   2
BRANCH   1   7
HETATM    7  N9  UNL     1     -35.274  14.481  -4.582  1.00 20.00     0.092 N 
HETATM    8  C6  UNL     1     -36.225  13.615  -5.280  1.00 20.00     0.310 C 
BRANCH   7   9
HETATM    9  C5  UNL     1     -33.962  14.419  -5.226  1.00 20.00     0.223 A 
HETATM   10  C3  UNL     1     -33.018  15.586  -5.143  1.00 20.00     0.038 A 
HETATM   11  C4  UNL     1     -32.709  14.320  -4.400  1.00 20.00     0.038 A 
ENDBRANCH   7   9
ENDBRANCH   1   7
TORSDOF 5
ENDMDL
MODEL 9
REMARK VINA RESULT:      -3.4     10.927     11.409
REMARK  5 active torsions:
REMARK  status: ('A' for Active; 'I' for Inactive)
REMARK    1  A    between atoms: C1_1  and  C7_7 
REMARK    2  A    between atoms: C2_2  and  C8_8 
REMARK    3  A    between atoms: C5_5  and  N9_9 
REMARK    4  A    between atoms: C7_7  and  N9_9 
REMARK    5  A    between atoms: C8_8  and  S10_10 
ROOT
HETATM    1  C7  UNL     1     -34.747  15.932  -3.094  1.00 20.00     0.299 C 
ENDROOT
BRANCH   1   2
HETATM    2  C1  UNL     1     -34.757  14.862  -4.143  1.00 20.00    -0.000 C 
HETATM    3  C2  UNL     1     -35.874  14.394  -4.721  1.00 20.00    -0.019 C 
BRANCH   3   4
HETATM    4  C8  UNL     1     -35.880  13.328  -5.770  1.00 20.00     0.097 C 
BRANCH   4   5
HETATM    5  S10 UNL     1     -34.632  13.691  -7.035  1.00 20.00    -0.178 SA
HETATM    6  H25 UNL     1     -33.889  12.596  -6.824  1.00 20.00     0.101 HD
ENDBRANCH   4   5
ENDBRANCH   3   4
ENDBRANCH   1   2
BRANCH   1   7
HETATM    7  N9  UNL     1     -33.603  16.824  -3.247  1.00 20.00     0.092 N 
HETATM    8  C6  UNL     1     -33.520  17.325  -4.619  1.00 20.00     0.310 C 
BRANCH   7   9
HETATM    9  C5  UNL     1     -33.690  17.939  -2.303  1.00 20.00     0.223 A 
HETATM   10  C3  UNL     1     -34.073  17.694  -0.869  1.00 20.00     0.038 A 
HETATM   11  C4  UNL     1     -32.668  18.098  -1.211  1.00 20.00     0.038 A 
ENDBRANCH   7   9
ENDBRANCH   1   7
TORSDOF 5
ENDMDL
