MODEL 1
REMARK VINA RESULT:      -4.6      0.000      0.000
REMARK  5 active torsions:
REMARK  status: ('A' for Active; 'I' for Inactive)
REMARK    1  A    between atoms: C5_5  and  C7_7 
REMARK    2  A    between atoms: C6_6  and  C9_9 
REMARK    3  A    between atoms: C7_7  and  C10_10 
REMARK    4  A    between atoms: C8_8  and  C10_10 
REMARK    5  A    between atoms: C9_9  and  C10_10 
ROOT
HETATM    1  C4  UNL     1     -34.176   6.768   1.689  1.00 20.00     0.016 C 
HETATM    2  C10 UNL     1     -33.307   6.896   2.964  1.00 20.00    -0.028 C 
ENDROOT
BRANCH   2   3
HETATM    3  C7  UNL     1     -32.432   8.186   2.792  1.00 20.00     0.010 C 
BRANCH   3   4
HETATM    4  C5  UNL     1     -32.206   8.646   1.348  1.00 20.00    -0.004 C 
HETATM    5  C1  UNL     1     -32.593  10.108   1.169  1.00 20.00     0.005 C 
ENDBRANCH   3   4
ENDBRANCH   2   3
BRANCH   2   6
HETATM    6  C8  UNL     1     -32.401   5.630   3.083  1.00 20.00     0.124 C 
HETATM    7 CL11 UNL     1     -32.991   4.196   2.197  1.00 20.00    -0.130 Cl
ENDBRANCH   2   6
BRANCH   2   8
HETATM    8  C9  UNL     1     -34.230   6.985   4.260  1.00 20.00    -0.010 C 
HETATM    9  C3  UNL     1     -33.460   7.383   5.535  1.00 20.00     0.011 C 
BRANCH   8  10
HETATM   10  C6  UNL     1     -35.043   5.688   4.531  1.00 20.00     0.000 C 
HETATM   11  C2  UNL     1     -34.594   4.924   5.773  1.00 20.00     0.005 C 
ENDBRANCH   8  10
ENDBRANCH   2   8
TORSDOF 5
ENDMDL
MODEL 2
REMARK VINA RESULT:      -4.4      1.835      2.587
REMARK  5 active torsions:
REMARK  status: ('A' for Active; 'I' for Inactive)
REMARK    1  A    between atoms: C5_5  and  C7_7 
REMARK    2  A    between atoms: C6_6  and  C9_9 
REMARK    3  A    between atoms: C7_7  and  C10_10 
REMARK    4  A    between atoms: C8_8  and  C10_10 
REMARK    5  A    between atoms: C9_9  and  C10_10 
ROOT
HETATM    1  C4  UNL     1     -31.530   7.754   3.690  1.00 20.00     0.016 C 
HETATM    2  C10 UNL     1     -33.000   7.397   3.364  1.00 20.00    -0.028 C 
ENDROOT
BRANCH   2   3
HETATM    3  C7  UNL     1     -33.304   7.974   1.938  1.00 20.00     0.010 C 
BRANCH   3   4
HETATM    4  C5  UNL     1     -32.206   8.856   1.332  1.00 20.00    -0.004 C 
HETATM    5  C1  UNL     1     -32.719  10.263   1.059  1.00 20.00     0.005 C 
ENDBRANCH   3   4
ENDBRANCH   2   3
BRANCH   2   6
HETATM    6  C8  UNL     1     -33.927   8.058   4.432  1.00 20.00     0.124 C 
HETATM    7 CL11 UNL     1     -33.540   7.640   6.126  1.00 20.00    -0.130 Cl
ENDBRANCH   2   6
BRANCH   2   8
HETATM    8  C9  UNL     1     -33.213   5.819   3.412  1.00 20.00    -0.010 C 
HETATM    9  C3  UNL     1     -32.925   5.120   2.068  1.00 20.00     0.011 C 
BRANCH   8  10
HETATM   10  C6  UNL     1     -34.621   5.400   3.921  1.00 20.00     0.000 C 
HETATM   11  C2  UNL     1     -34.590   4.438   5.105  1.00 20.00     0.005 C 
ENDBRANCH   8  10
ENDBRANCH   2   8
TORSDOF 5
ENDMDL
MODEL 3
REMARK VINA RESULT:      -4.3      1.863      1.958
REMARK  5 active torsions:
REMARK  status: ('A' for Active; 'I' for Inactive)
REMARK    1  A    between atoms: C5_5  and  C7_7 
REMARK    2  A    between atoms: C6_6  and  C9_9 
REMARK    3  A    between atoms: C7_7  and  C10_10 
REMARK    4  A    between atoms: C8_8  and  C10_10 
REMARK    5  A    between atoms: C9_9  and  C10_10 
ROOT
HETATM    1  C4  UNL     1     -32.930   5.847   2.424  1.00 20.00     0.016 C 
HETATM    2  C10 UNL     1     -33.054   7.198   3.171  1.00 20.00    -0.028 C 
ENDROOT
BRANCH   2   3
HETATM    3  C7  UNL     1     -33.456   8.273   2.103  1.00 20.00     0.010 C 
BRANCH   3   4
HETATM    4  C5  UNL     1     -32.326   8.750   1.183  1.00 20.00    -0.004 C 
HETATM    5  C1  UNL     1     -32.549  10.189   0.738  1.00 20.00     0.005 C 
ENDBRANCH   3   4
ENDBRANCH   2   3
BRANCH   2   6
HETATM    6  C8  UNL     1     -31.673   7.547   3.809  1.00 20.00     0.124 C 
HETATM    7 CL11 UNL     1     -31.468   9.263   4.265  1.00 20.00    -0.130 Cl
ENDBRANCH   2   6
BRANCH   2   8
HETATM    8  C9  UNL     1     -34.140   7.095   4.332  1.00 20.00    -0.010 C 
HETATM    9  C3  UNL     1     -33.553   7.308   5.741  1.00 20.00     0.011 C 
BRANCH   8  10
HETATM   10  C6  UNL     1     -34.950   5.769   4.305  1.00 20.00     0.000 C 
HETATM   11  C2  UNL     1     -34.671   4.847   5.489  1.00 20.00     0.005 C 
ENDBRANCH   8  10
ENDBRANCH   2   8
TORSDOF 5
ENDMDL
MODEL 4
REMARK VINA RESULT:      -4.3      1.110      4.334
REMARK  5 active torsions:
REMARK  status: ('A' for Active; 'I' for Inactive)
REMARK    1  A    between atoms: C5_5  and  C7_7 
REMARK    2  A    between atoms: C6_6  and  C9_9 
REMARK    3  A    between atoms: C7_7  and  C10_10 
REMARK    4  A    between atoms: C8_8  and  C10_10 
REMARK    5  A    between atoms: C9_9  and  C10_10 
ROOT
HETATM    1  C4  UNL     1     -31.411   8.203   3.799  1.00 20.00     0.016 C 
HETATM    2  C10 UNL     1     -32.567   7.581   2.977  1.00 20.00    -0.028 C 
ENDROOT
BRANCH   2   3
HETATM    3  C7  UNL     1     -33.853   7.654   3.872  1.00 20.00     0.010 C 
BRANCH   3   4
HETATM    4  C5  UNL     1     -33.635   7.403   5.368  1.00 20.00    -0.004 C 
HETATM    5  C1  UNL     1     -34.399   6.172   5.837  1.00 20.00     0.005 C 
ENDBRANCH   3   4
ENDBRANCH   2   3
BRANCH   2   6
HETATM    6  C8  UNL     1     -32.209   6.097   2.650  1.00 20.00     0.124 C 
HETATM    7 CL11 UNL     1     -33.590   4.964   2.692  1.00 20.00    -0.130 Cl
ENDBRANCH   2   6
BRANCH   2   8
HETATM    8  C9  UNL     1     -32.765   8.371   1.607  1.00 20.00    -0.010 C 
HETATM    9  C3  UNL     1     -31.474   8.480   0.771  1.00 20.00     0.011 C 
BRANCH   8  10
HETATM   10  C6  UNL     1     -33.382   9.785   1.793  1.00 20.00     0.000 C 
HETATM   11  C2  UNL     1     -32.466  10.924   1.353  1.00 20.00     0.005 C 
ENDBRANCH   8  10
ENDBRANCH   2   8
TORSDOF 5
ENDMDL
MODEL 5
REMARK VINA RESULT:      -4.1     11.272     12.170
REMARK  5 active torsions:
REMARK  status: ('A' for Active; 'I' for Inactive)
REMARK    1  A    between atoms: C5_5  and  C7_7 
REMARK    2  A    between atoms: C6_6  and  C9_9 
REMARK    3  A    between atoms: C7_7  and  C10_10 
REMARK    4  A    between atoms: C8_8  and  C10_10 
REMARK    5  A    between atoms: C9_9  and  C10_10 
ROOT
HETATM    1  C4  UNL     1     -33.111  14.689  -4.169  1.00 20.00     0.016 C 
HETATM    2  C10 UNL     1     -34.118  15.856  -4.019  1.00 20.00    -0.028 C 
ENDROOT
BRANCH   2   3
HETATM    3  C7  UNL     1     -35.544  15.264  -4.287  1.00 20.00     0.010 C 
BRANCH   3   4
HETATM    4  C5  UNL     1     -35.578  13.818  -4.795  1.00 20.00    -0.004 C 
HETATM    5  C1  UNL     1     -36.073  13.751  -6.233  1.00 20.00     0.005 C 
ENDBRANCH   3   4
ENDBRANCH   2   3
BRANCH   2   6
HETATM    6  C8  UNL     1     -33.773  16.955  -5.073  1.00 20.00     0.124 C 
HETATM    7 CL11 UNL     1     -33.536  16.353  -6.738  1.00 20.00    -0.130 Cl
ENDBRANCH   2   6
BRANCH   2   8
HETATM    8  C9  UNL     1     -34.016  16.496  -2.563  1.00 20.00    -0.010 C 
HETATM    9  C3  UNL     1     -35.383  16.669  -1.873  1.00 20.00     0.011 C 
BRANCH   8  10
HETATM   10  C6  UNL     1     -33.247  17.846  -2.534  1.00 20.00     0.000 C 
HETATM   11  C2  UNL     1     -32.652  18.191  -1.172  1.00 20.00     0.005 C 
ENDBRANCH   8  10
ENDBRANCH   2   8
TORSDOF 5
ENDMDL
MODEL 6
REMARK VINA RESULT:      -4.0      1.681      4.400
REMARK  5 active torsions:
REMARK  status: ('A' for Active; 'I' for Inactive)
REMARK    1  A    between atoms: C5_5  and  C7_7 
REMARK    2  A    between atoms: C6_6  and  C9_9 
REMARK    3  A    between atoms: C7_7  and  C10_10 
REMARK    4  A    between atoms: C8_8  and  C10_10 
REMARK    5  A    between atoms: C9_9  and  C10_10 
ROOT
HETATM    1  C4  UNL     1     -34.462   6.500   1.959  1.00 20.00     0.016 C 
HETATM    2  C10 UNL     1     -33.393   6.800   3.038  1.00 20.00    -0.028 C 
ENDROOT
BRANCH   2   3
HETATM    3  C7  UNL     1     -32.944   5.420   3.632  1.00 20.00     0.010 C 
BRANCH   3   4
HETATM    4  C5  UNL     1     -34.053   4.374   3.791  1.00 20.00    -0.004 C 
HETATM    5  C1  UNL     1     -34.586   4.349   5.216  1.00 20.00     0.005 C 
ENDBRANCH   3   4
ENDBRANCH   2   3
BRANCH   2   6
HETATM    6  C8  UNL     1     -34.036   7.692   4.147  1.00 20.00     0.124 C 
HETATM    7 CL11 UNL     1     -33.448   7.372   5.804  1.00 20.00    -0.130 Cl
ENDBRANCH   2   6
BRANCH   2   8
HETATM    8  C9  UNL     1     -32.164   7.589   2.400  1.00 20.00    -0.010 C 
HETATM    9  C3  UNL     1     -31.393   8.452   3.419  1.00 20.00     0.011 C 
BRANCH   8  10
HETATM   10  C6  UNL     1     -32.558   8.461   1.176  1.00 20.00     0.000 C 
HETATM   11  C2  UNL     1     -32.502   9.963   1.442  1.00 20.00     0.005 C 
ENDBRANCH   8  10
ENDBRANCH   2   8
TORSDOF 5
ENDMDL
MODEL 7
REMARK VINA RESULT:      -4.0     10.814     12.043
REMARK  5 active torsions:
REMARK  status: ('A' for Active; 'I' for Inactive)
REMARK    1  A    between atoms: C5_5  and  C7_7 
REMARK    2  A    between atoms: C6_6  and  C9_9 
REMARK    3  A    between atoms: C7_7  and  C10_10 
REMARK    4  A    between atoms: C8_8  and  C10_10 
REMARK    5  A    between atoms: C9_9  and  C10_10 
ROOT
HETATM    1  C4  UNL     1     -36.279  16.240  -3.973  1.00 20.00     0.016 C 
HETATM    2  C10 UNL     1     -34.750  16.027  -3.844  1.00 20.00    -0.028 C 
ENDROOT
BRANCH   2   3
HETATM    3  C7  UNL     1     -34.078  16.825  -5.014  1.00 20.00     0.010 C 
BRANCH   3   4
HETATM    4  C5  UNL     1     -33.274  15.986  -6.014  1.00 20.00    -0.004 C 
HETATM    5  C1  UNL     1     -33.941  15.972  -7.382  1.00 20.00     0.005 C 
ENDBRANCH   3   4
ENDBRANCH   2   3
BRANCH   2   6
HETATM    6  C8  UNL     1     -34.444  14.502  -3.972  1.00 20.00     0.124 C 
HETATM    7 CL11 UNL     1     -35.668  13.562  -4.872  1.00 20.00    -0.130 Cl
ENDBRANCH   2   6
BRANCH   2   8
HETATM    8  C9  UNL     1     -34.236  16.532  -2.423  1.00 20.00    -0.010 C 
HETATM    9  C3  UNL     1     -35.377  16.846  -1.434  1.00 20.00     0.011 C 
BRANCH   8  10
HETATM   10  C6  UNL     1     -33.277  17.752  -2.510  1.00 20.00     0.000 C 
HETATM   11  C2  UNL     1     -32.683  18.170  -1.168  1.00 20.00     0.005 C 
ENDBRANCH   8  10
ENDBRANCH   2   8
TORSDOF 5
ENDMDL
MODEL 8
REMARK VINA RESULT:      -4.0     11.304     12.102
REMARK  5 active torsions:
REMARK  status: ('A' for Active; 'I' for Inactive)
REMARK    1  A    between atoms: C5_5  and  C7_7 
REMARK    2  A    between atoms: C6_6  and  C9_9 
REMARK    3  A    between atoms: C7_7  and  C10_10 
REMARK    4  A    between atoms: C8_8  and  C10_10 
REMARK    5  A    between atoms: C9_9  and  C10_10 
ROOT
HETATM    1  C4  UNL     1     -36.348  16.398  -3.441  1.00 20.00     0.016 C 
HETATM    2  C10 UNL     1     -34.815  16.226  -3.569  1.00 20.00    -0.028 C 
ENDROOT
BRANCH   2   3
HETATM    3  C7  UNL     1     -34.189  16.690  -2.208  1.00 20.00     0.010 C 
BRANCH   3   4
HETATM    4  C5  UNL     1     -35.191  17.037  -1.101  1.00 20.00    -0.004 C 
HETATM    5  C1  UNL     1     -34.569  17.965  -0.067  1.00 20.00     0.005 C 
ENDBRANCH   3   4
ENDBRANCH   2   3
BRANCH   2   6
HETATM    6  C8  UNL     1     -34.305  17.121  -4.741  1.00 20.00     0.124 C 
HETATM    7 CL11 UNL     1     -33.366  18.556  -4.239  1.00 20.00    -0.130 Cl
ENDBRANCH   2   6
BRANCH   2   8
HETATM    8  C9  UNL     1     -34.450  14.709  -3.891  1.00 20.00    -0.010 C 
HETATM    9  C3  UNL     1     -33.052  14.533  -4.515  1.00 20.00     0.011 C 
BRANCH   8  10
HETATM   10  C6  UNL     1     -35.506  13.994  -4.779  1.00 20.00     0.000 C 
HETATM   11  C2  UNL     1     -35.073  13.811  -6.231  1.00 20.00     0.005 C 
ENDBRANCH   8  10
ENDBRANCH   2   8
TORSDOF 5
ENDMDL
MODEL 9
REMARK VINA RESULT:      -3.9     10.990     12.168
REMARK  5 active torsions:
REMARK  status: ('A' for Active; 'I' for Inactive)
REMARK    1  A    between atoms: C5_5  and  C7_7 
REMARK    2  A    between atoms: C6_6  and  C9_9 
REMARK    3  A    between atoms: C7_7  and  C10_10 
REMARK    4  A    between atoms: C8_8  and  C10_10 
REMARK    5  A    between atoms: C9_9  and  C10_10 
ROOT
HETATM    1  C4  UNL     1     -32.961  14.315  -4.206  1.00 20.00     0.016 C 
HETATM    2  C10 UNL     1     -34.133  15.086  -4.862  1.00 20.00    -0.028 C 
ENDROOT
BRANCH   2   3
HETATM    3  C7  UNL     1     -35.423  14.219  -4.650  1.00 20.00     0.010 C 
BRANCH   3   4
HETATM    4  C5  UNL     1     -36.727  15.004  -4.467  1.00 20.00    -0.004 C 
HETATM    5  C1  UNL     1     -37.841  14.427  -5.329  1.00 20.00     0.005 C 
ENDBRANCH   3   4
ENDBRANCH   2   3
BRANCH   2   6
HETATM    6  C8  UNL     1     -33.832  15.258  -6.384  1.00 20.00     0.124 C 
HETATM    7 CL11 UNL     1     -34.281  13.861  -7.402  1.00 20.00    -0.130 Cl
ENDBRANCH   2   6
BRANCH   2   8
HETATM    8  C9  UNL     1     -34.287  16.530  -4.206  1.00 20.00    -0.010 C 
HETATM    9  C3  UNL     1     -33.631  17.652  -5.034  1.00 20.00     0.011 C 
BRANCH   8  10
HETATM   10  C6  UNL     1     -33.773  16.601  -2.741  1.00 20.00     0.000 C 
HETATM   11  C2  UNL     1     -34.875  16.820  -1.708  1.00 20.00     0.005 C 
ENDBRANCH   8  10
ENDBRANCH   2   8
TORSDOF 5
ENDMDL
