MODEL 1
REMARK VINA RESULT:      -4.3      0.000      0.000
REMARK  4 active torsions:
REMARK  status: ('A' for Active; 'I' for Inactive)
REMARK    1  A    between atoms: C1_1  and  C9_9 
REMARK    2  A    between atoms: C1_1  and  C10_10 
REMARK    3  A    between atoms: C7_7  and  C9_9 
REMARK    4  A    between atoms: C8_8  and  C9_9 
ROOT
HETATM    1  C1  UNL     1     -33.257   6.188   3.185  1.00 20.00     0.138 C 
HETATM    2  O11 UNL     1     -32.616   5.319   2.586  1.00 20.00    -0.297 OA
ENDROOT
BRANCH   1   3
HETATM    3  C9  UNL     1     -32.950   7.673   2.939  1.00 20.00     0.055 C 
BRANCH   3   4
HETATM    4  C7  UNL     1     -31.546   7.967   3.500  1.00 20.00     0.007 C 
HETATM    5  C2  UNL     1     -31.558   8.934   4.675  1.00 20.00     0.006 C 
ENDBRANCH   3   4
BRANCH   3   6
HETATM    6  C8  UNL     1     -33.039   8.004   1.436  1.00 20.00     0.007 C 
HETATM    7  C3  UNL     1     -32.349   9.310   1.069  1.00 20.00     0.006 C 
ENDBRANCH   3   6
ENDBRANCH   1   3
BRANCH   1   8
HETATM    8  C10 UNL     1     -34.363   5.815   4.200  1.00 20.00     0.010 C 
HETATM    9  C4  UNL     1     -34.150   6.552   5.529  1.00 20.00     0.022 C 
HETATM   10  C5  UNL     1     -35.742   6.159   3.620  1.00 20.00     0.022 C 
HETATM   11  C6  UNL     1     -34.315   4.300   4.474  1.00 20.00     0.022 C 
ENDBRANCH   1   8
TORSDOF 4
ENDMDL
MODEL 2
REMARK VINA RESULT:      -4.1      1.783      4.455
REMARK  4 active torsions:
REMARK  status: ('A' for Active; 'I' for Inactive)
REMARK    1  A    between atoms: C1_1  and  C9_9 
REMARK    2  A    between atoms: C1_1  and  C10_10 
REMARK    3  A    between atoms: C7_7  and  C9_9 
REMARK    4  A    between atoms: C8_8  and  C9_9 
ROOT
HETATM    1  C1  UNL     1     -32.275   8.274   2.524  1.00 20.00     0.138 C 
HETATM    2  O11 UNL     1     -31.401   8.512   3.363  1.00 20.00    -0.297 OA
ENDROOT
BRANCH   1   3
HETATM    3  C9  UNL     1     -33.343   7.209   2.813  1.00 20.00     0.055 C 
BRANCH   3   4
HETATM    4  C7  UNL     1     -32.626   5.865   3.041  1.00 20.00     0.007 C 
HETATM    5  C2  UNL     1     -33.425   4.666   2.551  1.00 20.00     0.006 C 
ENDBRANCH   3   4
BRANCH   3   6
HETATM    6  C8  UNL     1     -34.195   7.611   4.033  1.00 20.00     0.007 C 
HETATM    7  C3  UNL     1     -33.693   7.006   5.337  1.00 20.00     0.006 C 
ENDBRANCH   3   6
ENDBRANCH   1   3
BRANCH   1   8
HETATM    8  C10 UNL     1     -32.312   9.018   1.169  1.00 20.00     0.010 C 
HETATM    9  C4  UNL     1     -32.556  10.518   1.381  1.00 20.00     0.022 C 
HETATM   10  C5  UNL     1     -30.993   8.799   0.416  1.00 20.00     0.022 C 
HETATM   11  C6  UNL     1     -33.461   8.459   0.310  1.00 20.00     0.022 C 
ENDBRANCH   1   8
TORSDOF 4
ENDMDL
MODEL 3
REMARK VINA RESULT:      -4.0      1.303      4.089
REMARK  4 active torsions:
REMARK  status: ('A' for Active; 'I' for Inactive)
REMARK    1  A    between atoms: C1_1  and  C9_9 
REMARK    2  A    between atoms: C1_1  and  C10_10 
REMARK    3  A    between atoms: C7_7  and  C9_9 
REMARK    4  A    between atoms: C8_8  and  C9_9 
ROOT
HETATM    1  C1  UNL     1     -33.154   7.277   2.199  1.00 20.00     0.138 C 
HETATM    2  O11 UNL     1     -33.936   6.994   1.287  1.00 20.00    -0.297 OA
ENDROOT
BRANCH   1   3
HETATM    3  C9  UNL     1     -33.137   6.434   3.482  1.00 20.00     0.055 C 
BRANCH   3   4
HETATM    4  C7  UNL     1     -34.205   6.999   4.437  1.00 20.00     0.007 C 
HETATM    5  C2  UNL     1     -33.655   7.366   5.807  1.00 20.00     0.006 C 
ENDBRANCH   3   4
BRANCH   3   6
HETATM    6  C8  UNL     1     -33.394   4.949   3.160  1.00 20.00     0.007 C 
HETATM    7  C3  UNL     1     -34.244   4.247   4.211  1.00 20.00     0.006 C 
ENDBRANCH   3   6
ENDBRANCH   1   3
BRANCH   1   8
HETATM    8  C10 UNL     1     -32.190   8.481   2.085  1.00 20.00     0.010 C 
HETATM    9  C4  UNL     1     -32.975   9.797   2.004  1.00 20.00     0.022 C 
HETATM   10  C5  UNL     1     -31.240   8.506   3.290  1.00 20.00     0.022 C 
HETATM   11  C6  UNL     1     -31.347   8.342   0.804  1.00 20.00     0.022 C 
ENDBRANCH   1   8
TORSDOF 4
ENDMDL
MODEL 4
REMARK VINA RESULT:      -3.9     11.310     12.507
REMARK  4 active torsions:
REMARK  status: ('A' for Active; 'I' for Inactive)
REMARK    1  A    between atoms: C1_1  and  C9_9 
REMARK    2  A    between atoms: C1_1  and  C10_10 
REMARK    3  A    between atoms: C7_7  and  C9_9 
REMARK    4  A    between atoms: C8_8  and  C9_9 
ROOT
HETATM    1  C1  UNL     1     -35.178  14.424  -4.990  1.00 20.00     0.138 C 
HETATM    2  O11 UNL     1     -35.031  13.324  -4.450  1.00 20.00    -0.297 OA
ENDROOT
BRANCH   1   3
HETATM    3  C9  UNL     1     -36.184  14.584  -6.140  1.00 20.00     0.055 C 
BRANCH   3   4
HETATM    4  C7  UNL     1     -35.757  13.640  -7.280  1.00 20.00     0.007 C 
HETATM    5  C2  UNL     1     -34.404  13.994  -7.880  1.00 20.00     0.006 C 
ENDBRANCH   3   4
BRANCH   3   6
HETATM    6  C8  UNL     1     -37.615  14.277  -5.657  1.00 20.00     0.007 C 
HETATM    7  C3  UNL     1     -38.068  15.178  -4.516  1.00 20.00     0.006 C 
ENDBRANCH   3   6
ENDBRANCH   1   3
BRANCH   1   8
HETATM    8  C10 UNL     1     -34.356  15.656  -4.543  1.00 20.00     0.010 C 
HETATM    9  C4  UNL     1     -34.622  15.977  -3.067  1.00 20.00     0.022 C 
HETATM   10  C5  UNL     1     -32.861  15.395  -4.767  1.00 20.00     0.022 C 
HETATM   11  C6  UNL     1     -34.768  16.878  -5.385  1.00 20.00     0.022 C 
ENDBRANCH   1   8
TORSDOF 4
ENDMDL
MODEL 5
REMARK VINA RESULT:      -3.8     11.393     12.223
REMARK  4 active torsions:
REMARK  status: ('A' for Active; 'I' for Inactive)
REMARK    1  A    between atoms: C1_1  and  C9_9 
REMARK    2  A    between atoms: C1_1  and  C10_10 
REMARK    3  A    between atoms: C7_7  and  C9_9 
REMARK    4  A    between atoms: C8_8  and  C9_9 
ROOT
HETATM    1  C1  UNL     1     -35.810  15.823  -4.987  1.00 20.00     0.138 C 
HETATM    2  O11 UNL     1     -35.605  16.849  -5.642  1.00 20.00    -0.297 OA
ENDROOT
BRANCH   1   3
HETATM    3  C9  UNL     1     -35.164  15.657  -3.604  1.00 20.00     0.055 C 
BRANCH   3   4
HETATM    4  C7  UNL     1     -33.651  15.904  -3.751  1.00 20.00     0.007 C 
HETATM    5  C2  UNL     1     -32.922  14.769  -4.456  1.00 20.00     0.006 C 
ENDBRANCH   3   4
BRANCH   3   6
HETATM    6  C8  UNL     1     -35.799  16.626  -2.588  1.00 20.00     0.007 C 
HETATM    7  C3  UNL     1     -34.877  16.961  -1.423  1.00 20.00     0.006 C 
ENDBRANCH   3   6
ENDBRANCH   1   3
BRANCH   1   8
HETATM    8  C10 UNL     1     -36.697  14.682  -5.538  1.00 20.00     0.010 C 
HETATM    9  C4  UNL     1     -36.034  13.319  -5.301  1.00 20.00     0.022 C 
HETATM   10  C5  UNL     1     -38.077  14.723  -4.867  1.00 20.00     0.022 C 
HETATM   11  C6  UNL     1     -36.887  14.869  -7.054  1.00 20.00     0.022 C 
ENDBRANCH   1   8
TORSDOF 4
ENDMDL
MODEL 6
REMARK VINA RESULT:      -3.8     11.384     12.397
REMARK  4 active torsions:
REMARK  status: ('A' for Active; 'I' for Inactive)
REMARK    1  A    between atoms: C1_1  and  C9_9 
REMARK    2  A    between atoms: C1_1  and  C10_10 
REMARK    3  A    between atoms: C7_7  and  C9_9 
REMARK    4  A    between atoms: C8_8  and  C9_9 
ROOT
HETATM    1  C1  UNL     1     -34.962  14.616  -4.916  1.00 20.00     0.138 C 
HETATM    2  O11 UNL     1     -34.724  13.580  -4.289  1.00 20.00    -0.297 OA
ENDROOT
BRANCH   1   3
HETATM    3  C9  UNL     1     -34.909  15.974  -4.200  1.00 20.00     0.055 C 
BRANCH   3   4
HETATM    4  C7  UNL     1     -36.188  16.115  -3.353  1.00 20.00     0.007 C 
HETATM    5  C2  UNL     1     -37.219  17.049  -3.971  1.00 20.00     0.006 C 
ENDBRANCH   3   4
BRANCH   3   6
HETATM    6  C8  UNL     1     -33.641  16.080  -3.331  1.00 20.00     0.007 C 
HETATM    7  C3  UNL     1     -33.823  16.977  -2.114  1.00 20.00     0.006 C 
ENDBRANCH   3   6
ENDBRANCH   1   3
BRANCH   1   8
HETATM    8  C10 UNL     1     -35.332  14.579  -6.418  1.00 20.00     0.010 C 
HETATM    9  C4  UNL     1     -34.518  13.504  -7.149  1.00 20.00     0.022 C 
HETATM   10  C5  UNL     1     -36.834  14.308  -6.580  1.00 20.00     0.022 C 
HETATM   11  C6  UNL     1     -35.012  15.944  -7.056  1.00 20.00     0.022 C 
ENDBRANCH   1   8
TORSDOF 4
ENDMDL
MODEL 7
REMARK VINA RESULT:      -3.8     11.262     12.310
REMARK  4 active torsions:
REMARK  status: ('A' for Active; 'I' for Inactive)
REMARK    1  A    between atoms: C1_1  and  C9_9 
REMARK    2  A    between atoms: C1_1  and  C10_10 
REMARK    3  A    between atoms: C7_7  and  C9_9 
REMARK    4  A    between atoms: C8_8  and  C9_9 
ROOT
HETATM    1  C1  UNL     1     -35.458  14.749  -4.881  1.00 20.00     0.138 C 
HETATM    2  O11 UNL     1     -35.154  13.606  -4.527  1.00 20.00    -0.297 OA
ENDROOT
BRANCH   1   3
HETATM    3  C9  UNL     1     -34.548  15.931  -4.519  1.00 20.00     0.055 C 
BRANCH   3   4
HETATM    4  C7  UNL     1     -34.394  15.961  -2.987  1.00 20.00     0.007 C 
HETATM    5  C2  UNL     1     -35.561  16.632  -2.277  1.00 20.00     0.006 C 
ENDBRANCH   3   4
BRANCH   3   6
HETATM    6  C8  UNL     1     -33.183  15.802  -5.222  1.00 20.00     0.007 C 
HETATM    7  C3  UNL     1     -33.291  15.789  -6.741  1.00 20.00     0.006 C 
ENDBRANCH   3   6
ENDBRANCH   1   3
BRANCH   1   8
HETATM    8  C10 UNL     1     -36.756  15.024  -5.677  1.00 20.00     0.010 C 
HETATM    9  C4  UNL     1     -36.710  14.328  -7.044  1.00 20.00     0.022 C 
HETATM   10  C5  UNL     1     -37.972  14.540  -4.877  1.00 20.00     0.022 C 
HETATM   11  C6  UNL     1     -36.899  16.539  -5.912  1.00 20.00     0.022 C 
ENDBRANCH   1   8
TORSDOF 4
ENDMDL
MODEL 8
REMARK VINA RESULT:      -3.7     11.255     12.382
REMARK  4 active torsions:
REMARK  status: ('A' for Active; 'I' for Inactive)
REMARK    1  A    between atoms: C1_1  and  C9_9 
REMARK    2  A    between atoms: C1_1  and  C10_10 
REMARK    3  A    between atoms: C7_7  and  C9_9 
REMARK    4  A    between atoms: C8_8  and  C9_9 
ROOT
HETATM    1  C1  UNL     1     -35.336  15.714  -5.471  1.00 20.00     0.138 C 
HETATM    2  O11 UNL     1     -35.184  16.843  -5.947  1.00 20.00    -0.297 OA
ENDROOT
BRANCH   1   3
HETATM    3  C9  UNL     1     -35.024  15.459  -3.989  1.00 20.00     0.055 C 
BRANCH   3   4
HETATM    4  C7  UNL     1     -33.505  15.616  -3.790  1.00 20.00     0.007 C 
HETATM    5  C2  UNL     1     -32.709  14.401  -4.247  1.00 20.00     0.006 C 
ENDBRANCH   3   4
BRANCH   3   6
HETATM    6  C8  UNL     1     -35.815  16.431  -3.092  1.00 20.00     0.007 C 
HETATM    7  C3  UNL     1     -35.111  16.741  -1.778  1.00 20.00     0.006 C 
ENDBRANCH   3   6
ENDBRANCH   1   3
BRANCH   1   8
HETATM    8  C10 UNL     1     -35.825  14.533  -6.343  1.00 20.00     0.010 C 
HETATM    9  C4  UNL     1     -37.108  14.911  -7.096  1.00 20.00     0.022 C 
HETATM   10  C5  UNL     1     -34.728  14.129  -7.337  1.00 20.00     0.022 C 
HETATM   11  C6  UNL     1     -36.133  13.325  -5.440  1.00 20.00     0.022 C 
ENDBRANCH   1   8
TORSDOF 4
ENDMDL
MODEL 9
REMARK VINA RESULT:      -3.7     11.290     12.644
REMARK  4 active torsions:
REMARK  status: ('A' for Active; 'I' for Inactive)
REMARK    1  A    between atoms: C1_1  and  C9_9 
REMARK    2  A    between atoms: C1_1  and  C10_10 
REMARK    3  A    between atoms: C7_7  and  C9_9 
REMARK    4  A    between atoms: C8_8  and  C9_9 
ROOT
HETATM    1  C1  UNL     1     -34.295  14.759  -5.372  1.00 20.00     0.138 C 
HETATM    2  O11 UNL     1     -33.623  13.900  -4.793  1.00 20.00    -0.297 OA
ENDROOT
BRANCH   1   3
HETATM    3  C9  UNL     1     -34.597  16.093  -4.675  1.00 20.00     0.055 C 
BRANCH   3   4
HETATM    4  C7  UNL     1     -34.719  15.823  -3.163  1.00 20.00     0.007 C 
HETATM    5  C2  UNL     1     -33.886  16.771  -2.313  1.00 20.00     0.006 C 
ENDBRANCH   3   4
BRANCH   3   6
HETATM    6  C8  UNL     1     -33.494  17.127  -4.977  1.00 20.00     0.007 C 
HETATM    7  C3  UNL     1     -33.959  18.244  -5.901  1.00 20.00     0.006 C 
ENDBRANCH   3   6
ENDBRANCH   1   3
BRANCH   1   8
HETATM    8  C10 UNL     1     -34.859  14.516  -6.792  1.00 20.00     0.010 C 
HETATM    9  C4  UNL     1     -33.838  14.932  -7.858  1.00 20.00     0.022 C 
HETATM   10  C5  UNL     1     -35.227  13.036  -6.961  1.00 20.00     0.022 C 
HETATM   11  C6  UNL     1     -36.132  15.359  -6.987  1.00 20.00     0.022 C 
ENDBRANCH   1   8
TORSDOF 4
ENDMDL
