MODEL 1
REMARK VINA RESULT:      -4.4      0.000      0.000
REMARK  4 active torsions:
REMARK  status: ('A' for Active; 'I' for Inactive)
REMARK    1  A    between atoms: C5_5  and  C6_6 
REMARK    2  A    between atoms: C6_6  and  C9_9 
REMARK    3  A    between atoms: C7_7  and  C9_9 
REMARK    4  A    between atoms: C8_8  and  C9_9 
ROOT
HETATM    1  C4  UNL     1     -35.094   6.759   3.471  1.00 20.00     0.016 C 
HETATM    2  C9  UNL     1     -33.554   6.551   3.526  1.00 20.00    -0.029 C 
ENDROOT
BRANCH   2   3
HETATM    3  C6  UNL     1     -33.004   7.182   2.202  1.00 20.00     0.010 C 
BRANCH   3   4
HETATM    4  C5  UNL     1     -32.024   8.354   2.321  1.00 20.00    -0.004 C 
HETATM    5  C1  UNL     1     -32.161   9.305   1.139  1.00 20.00     0.005 C 
ENDBRANCH   3   4
ENDBRANCH   2   3
BRANCH   2   6
HETATM    6  C7  UNL     1     -33.070   7.359   4.770  1.00 20.00     0.124 C 
HETATM    7 CL10 UNL     1     -34.062   7.193   6.239  1.00 20.00    -0.130 Cl
ENDBRANCH   2   6
BRANCH   2   8
HETATM    8  C8  UNL     1     -33.212   5.014   3.646  1.00 20.00    -0.014 C 
HETATM    9  C2  UNL     1     -32.903   4.339   2.299  1.00 20.00     0.010 C 
HETATM   10  C3  UNL     1     -34.294   4.185   4.357  1.00 20.00     0.010 C 
ENDBRANCH   2   8
TORSDOF 4
ENDMDL
MODEL 2
REMARK VINA RESULT:      -4.2      1.980      2.839
REMARK  4 active torsions:
REMARK  status: ('A' for Active; 'I' for Inactive)
REMARK    1  A    between atoms: C5_5  and  C6_6 
REMARK    2  A    between atoms: C6_6  and  C9_9 
REMARK    3  A    between atoms: C7_7  and  C9_9 
REMARK    4  A    between atoms: C8_8  and  C9_9 
ROOT
HETATM    1  C4  UNL     1     -31.674   8.069   3.878  1.00 20.00     0.016 C 
HETATM    2  C9  UNL     1     -32.856   7.235   3.309  1.00 20.00    -0.029 C 
ENDROOT
BRANCH   2   3
HETATM    3  C6  UNL     1     -33.210   7.902   1.935  1.00 20.00     0.010 C 
BRANCH   3   4
HETATM    4  C5  UNL     1     -32.186   8.864   1.323  1.00 20.00    -0.004 C 
HETATM    5  C1  UNL     1     -32.804  10.232   1.069  1.00 20.00     0.005 C 
ENDBRANCH   3   4
ENDBRANCH   2   3
BRANCH   2   6
HETATM    6  C7  UNL     1     -32.287   5.798   3.097  1.00 20.00     0.124 C 
HETATM    7 CL10 UNL     1     -33.193   4.761   1.970  1.00 20.00    -0.130 Cl
ENDBRANCH   2   6
BRANCH   2   8
HETATM    8  C8  UNL     1     -34.073   7.250   4.314  1.00 20.00    -0.014 C 
HETATM    9  C2  UNL     1     -33.660   7.353   5.791  1.00 20.00     0.010 C 
HETATM   10  C3  UNL     1     -35.022   6.049   4.168  1.00 20.00     0.010 C 
ENDBRANCH   2   8
TORSDOF 4
ENDMDL
MODEL 3
REMARK VINA RESULT:      -4.1      1.223      3.902
REMARK  4 active torsions:
REMARK  status: ('A' for Active; 'I' for Inactive)
REMARK    1  A    between atoms: C5_5  and  C6_6 
REMARK    2  A    between atoms: C6_6  and  C9_9 
REMARK    3  A    between atoms: C7_7  and  C9_9 
REMARK    4  A    between atoms: C8_8  and  C9_9 
ROOT
HETATM    1  C4  UNL     1     -31.301   8.123   3.663  1.00 20.00     0.016 C 
HETATM    2  C9  UNL     1     -32.620   7.808   2.902  1.00 20.00    -0.029 C 
ENDROOT
BRANCH   2   3
HETATM    3  C6  UNL     1     -32.591   6.262   2.648  1.00 20.00     0.010 C 
BRANCH   3   4
HETATM    4  C5  UNL     1     -33.924   5.506   2.686  1.00 20.00    -0.004 C 
HETATM    5  C1  UNL     1     -33.948   4.496   3.826  1.00 20.00     0.005 C 
ENDBRANCH   3   4
ENDBRANCH   2   3
BRANCH   2   6
HETATM    6  C7  UNL     1     -33.769   8.189   3.887  1.00 20.00     0.124 C 
HETATM    7 CL10 UNL     1     -33.586   7.602   5.557  1.00 20.00    -0.130 Cl
ENDBRANCH   2   6
BRANCH   2   8
HETATM    8  C8  UNL     1     -32.689   8.635   1.559  1.00 20.00    -0.014 C 
HETATM    9  C2  UNL     1     -31.429   8.513   0.687  1.00 20.00     0.010 C 
HETATM   10  C3  UNL     1     -32.987  10.130   1.758  1.00 20.00     0.010 C 
ENDBRANCH   2   8
TORSDOF 4
ENDMDL
MODEL 4
REMARK VINA RESULT:      -3.9      0.875      1.468
REMARK  4 active torsions:
REMARK  status: ('A' for Active; 'I' for Inactive)
REMARK    1  A    between atoms: C5_5  and  C6_6 
REMARK    2  A    between atoms: C6_6  and  C9_9 
REMARK    3  A    between atoms: C7_7  and  C9_9 
REMARK    4  A    between atoms: C8_8  and  C9_9 
ROOT
HETATM    1  C4  UNL     1     -35.342   6.736   3.166  1.00 20.00     0.016 C 
HETATM    2  C9  UNL     1     -34.088   6.105   3.836  1.00 20.00    -0.029 C 
ENDROOT
BRANCH   2   3
HETATM    3  C6  UNL     1     -32.883   7.000   3.383  1.00 20.00     0.010 C 
BRANCH   3   4
HETATM    4  C5  UNL     1     -33.130   8.021   2.268  1.00 20.00    -0.004 C 
HETATM    5  C1  UNL     1     -31.816   8.531   1.692  1.00 20.00     0.005 C 
ENDBRANCH   3   4
ENDBRANCH   2   3
BRANCH   2   6
HETATM    6  C7  UNL     1     -34.328   6.235   5.372  1.00 20.00     0.124 C 
HETATM    7 CL10 UNL     1     -33.532   7.613   6.170  1.00 20.00    -0.130 Cl
ENDBRANCH   2   6
BRANCH   2   8
HETATM    8  C8  UNL     1     -33.921   4.602   3.385  1.00 20.00    -0.014 C 
HETATM    9  C2  UNL     1     -33.826   3.608   4.554  1.00 20.00     0.010 C 
HETATM   10  C3  UNL     1     -32.724   4.356   2.453  1.00 20.00     0.010 C 
ENDBRANCH   2   8
TORSDOF 4
ENDMDL
MODEL 5
REMARK VINA RESULT:      -3.9      1.660      2.560
REMARK  4 active torsions:
REMARK  status: ('A' for Active; 'I' for Inactive)
REMARK    1  A    between atoms: C5_5  and  C6_6 
REMARK    2  A    between atoms: C6_6  and  C9_9 
REMARK    3  A    between atoms: C7_7  and  C9_9 
REMARK    4  A    between atoms: C8_8  and  C9_9 
ROOT
HETATM    1  C4  UNL     1     -32.979   5.004   3.193  1.00 20.00     0.016 C 
HETATM    2  C9  UNL     1     -33.734   6.326   3.509  1.00 20.00    -0.029 C 
ENDROOT
BRANCH   2   3
HETATM    3  C6  UNL     1     -32.667   7.462   3.337  1.00 20.00     0.010 C 
BRANCH   3   4
HETATM    4  C5  UNL     1     -32.253   7.846   1.913  1.00 20.00    -0.004 C 
HETATM    5  C1  UNL     1     -32.471   9.332   1.661  1.00 20.00     0.005 C 
ENDBRANCH   3   4
ENDBRANCH   2   3
BRANCH   2   6
HETATM    6  C7  UNL     1     -34.846   6.440   2.419  1.00 20.00     0.124 C 
HETATM    7 CL10 UNL     1     -36.523   6.388   3.013  1.00 20.00    -0.130 Cl
ENDBRANCH   2   6
BRANCH   2   8
HETATM    8  C8  UNL     1     -34.334   6.282   4.968  1.00 20.00    -0.014 C 
HETATM    9  C2  UNL     1     -33.629   7.222   5.959  1.00 20.00     0.010 C 
HETATM   10  C3  UNL     1     -34.369   4.876   5.588  1.00 20.00     0.010 C 
ENDBRANCH   2   8
TORSDOF 4
ENDMDL
MODEL 6
REMARK VINA RESULT:      -3.8     11.562     12.492
REMARK  4 active torsions:
REMARK  status: ('A' for Active; 'I' for Inactive)
REMARK    1  A    between atoms: C5_5  and  C6_6 
REMARK    2  A    between atoms: C6_6  and  C9_9 
REMARK    3  A    between atoms: C7_7  and  C9_9 
REMARK    4  A    between atoms: C8_8  and  C9_9 
ROOT
HETATM    1  C4  UNL     1     -36.598  15.965  -3.788  1.00 20.00     0.016 C 
HETATM    2  C9  UNL     1     -35.045  15.948  -3.865  1.00 20.00    -0.029 C 
ENDROOT
BRANCH   2   3
HETATM    3  C6  UNL     1     -34.666  14.474  -4.241  1.00 20.00     0.010 C 
BRANCH   3   4
HETATM    4  C5  UNL     1     -35.739  13.608  -4.908  1.00 20.00    -0.004 C 
HETATM    5  C1  UNL     1     -35.454  13.431  -6.394  1.00 20.00     0.005 C 
ENDBRANCH   3   4
ENDBRANCH   2   3
BRANCH   2   6
HETATM    6  C7  UNL     1     -34.675  16.928  -5.021  1.00 20.00     0.124 C 
HETATM    7 CL10 UNL     1     -33.394  16.377  -6.127  1.00 20.00    -0.130 Cl
ENDBRANCH   2   6
BRANCH   2   8
HETATM    8  C8  UNL     1     -34.422  16.393  -2.485  1.00 20.00    -0.014 C 
HETATM    9  C2  UNL     1     -35.463  16.854  -1.452  1.00 20.00     0.010 C 
HETATM   10  C3  UNL     1     -33.353  17.492  -2.606  1.00 20.00     0.010 C 
ENDBRANCH   2   8
TORSDOF 4
ENDMDL
MODEL 7
REMARK VINA RESULT:      -3.8     11.595     12.448
REMARK  4 active torsions:
REMARK  status: ('A' for Active; 'I' for Inactive)
REMARK    1  A    between atoms: C5_5  and  C6_6 
REMARK    2  A    between atoms: C6_6  and  C9_9 
REMARK    3  A    between atoms: C7_7  and  C9_9 
REMARK    4  A    between atoms: C8_8  and  C9_9 
ROOT
HETATM    1  C4  UNL     1     -33.068  14.555  -4.288  1.00 20.00     0.016 C 
HETATM    2  C9  UNL     1     -34.082  15.732  -4.213  1.00 20.00    -0.029 C 
ENDROOT
BRANCH   2   3
HETATM    3  C6  UNL     1     -33.781  16.451  -2.853  1.00 20.00     0.010 C 
BRANCH   3   4
HETATM    4  C5  UNL     1     -34.949  16.674  -1.888  1.00 20.00    -0.004 C 
HETATM    5  C1  UNL     1     -34.528  17.543  -0.710  1.00 20.00     0.005 C 
ENDBRANCH   3   4
ENDBRANCH   2   3
BRANCH   2   6
HETATM    6  C7  UNL     1     -33.735  16.658  -5.420  1.00 20.00     0.124 C 
HETATM    7 CL10 UNL     1     -33.466  15.837  -6.976  1.00 20.00    -0.130 Cl
ENDBRANCH   2   6
BRANCH   2   8
HETATM    8  C8  UNL     1     -35.562  15.187  -4.288  1.00 20.00    -0.014 C 
HETATM    9  C2  UNL     1     -35.671  13.757  -4.843  1.00 20.00     0.010 C 
HETATM   10  C3  UNL     1     -36.519  16.083  -5.090  1.00 20.00     0.010 C 
ENDBRANCH   2   8
TORSDOF 4
ENDMDL
MODEL 8
REMARK VINA RESULT:      -3.8      2.061      4.080
REMARK  4 active torsions:
REMARK  status: ('A' for Active; 'I' for Inactive)
REMARK    1  A    between atoms: C5_5  and  C6_6 
REMARK    2  A    between atoms: C6_6  and  C9_9 
REMARK    3  A    between atoms: C7_7  and  C9_9 
REMARK    4  A    between atoms: C8_8  and  C9_9 
ROOT
HETATM    1  C4  UNL     1     -34.433   6.487   1.963  1.00 20.00     0.016 C 
HETATM    2  C9  UNL     1     -33.323   6.667   3.039  1.00 20.00    -0.029 C 
ENDROOT
BRANCH   2   3
HETATM    3  C6  UNL     1     -34.060   7.233   4.301  1.00 20.00     0.010 C 
BRANCH   3   4
HETATM    4  C5  UNL     1     -33.847   6.512   5.636  1.00 20.00    -0.004 C 
HETATM    5  C1  UNL     1     -34.734   5.279   5.740  1.00 20.00     0.005 C 
ENDBRANCH   3   4
ENDBRANCH   2   3
BRANCH   2   6
HETATM    6  C7  UNL     1     -32.774   5.233   3.313  1.00 20.00     0.124 C 
HETATM    7 CL10 UNL     1     -32.944   4.067   1.978  1.00 20.00    -0.130 Cl
ENDBRANCH   2   6
BRANCH   2   8
HETATM    8  C8  UNL     1     -32.201   7.644   2.511  1.00 20.00    -0.014 C 
HETATM    9  C2  UNL     1     -31.411   8.345   3.628  1.00 20.00     0.010 C 
HETATM   10  C3  UNL     1     -32.713   8.722   1.542  1.00 20.00     0.010 C 
ENDBRANCH   2   8
TORSDOF 4
ENDMDL
MODEL 9
REMARK VINA RESULT:      -3.7     11.074     12.553
REMARK  4 active torsions:
REMARK  status: ('A' for Active; 'I' for Inactive)
REMARK    1  A    between atoms: C5_5  and  C6_6 
REMARK    2  A    between atoms: C6_6  and  C9_9 
REMARK    3  A    between atoms: C7_7  and  C9_9 
REMARK    4  A    between atoms: C8_8  and  C9_9 
ROOT
HETATM    1  C4  UNL     1     -36.078  16.039  -3.471  1.00 20.00     0.016 C 
HETATM    2  C9  UNL     1     -34.683  15.723  -4.083  1.00 20.00    -0.029 C 
ENDROOT
BRANCH   2   3
HETATM    3  C6  UNL     1     -33.643  16.261  -3.040  1.00 20.00     0.010 C 
BRANCH   3   4
HETATM    4  C5  UNL     1     -34.180  17.000  -1.810  1.00 20.00    -0.004 C 
HETATM    5  C1  UNL     1     -33.147  17.976  -1.264  1.00 20.00     0.005 C 
ENDBRANCH   3   4
ENDBRANCH   2   3
BRANCH   2   6
HETATM    6  C7  UNL     1     -34.616  14.167  -4.181  1.00 20.00     0.124 C 
HETATM    7 CL10 UNL     1     -35.903  13.393  -5.137  1.00 20.00    -0.130 Cl
ENDBRANCH   2   6
BRANCH   2   8
HETATM    8  C8  UNL     1     -34.532  16.415  -5.493  1.00 20.00    -0.014 C 
HETATM    9  C2  UNL     1     -33.340  15.898  -6.315  1.00 20.00     0.010 C 
HETATM   10  C3  UNL     1     -34.438  17.948  -5.432  1.00 20.00     0.010 C 
ENDBRANCH   2   8
TORSDOF 4
ENDMDL
