MODEL 1
REMARK VINA RESULT:      -6.3      0.000      0.000
REMARK  4 active torsions:
REMARK  status: ('A' for Active; 'I' for Inactive)
REMARK    1  A    between atoms: C2_2  and  C6_6 
REMARK    2  A    between atoms: C2_2  and  C7_7 
REMARK    3  A    between atoms: C7_7  and  C8_8 
REMARK    4  A    between atoms: C8_8  and  C9_9 
ROOT
HETATM    1  C7  UNL     1     -33.385   7.334   2.442  1.00 20.00     0.039 C 
ENDROOT
BRANCH   1   2
HETATM    2  C2  UNL     1     -32.177   8.246   2.353  1.00 20.00    -0.089 C 
HETATM    3  C1  UNL     1     -31.334   8.371   3.392  1.00 20.00     0.014 C 
BRANCH   2   4
HETATM    4  C6  UNL     1     -31.938   9.007   1.069  1.00 20.00     0.029 C 
HETATM    5  C3  UNL     1     -32.675  10.339   1.017  1.00 20.00     0.010 C 
ENDBRANCH   2   4
ENDBRANCH   1   2
BRANCH   1   6
HETATM    6  C8  UNL     1     -33.244   6.159   3.441  1.00 20.00     0.003 C 
HETATM    7  C4  UNL     1     -33.217   4.806   2.710  1.00 20.00     0.011 C 
BRANCH   6   8
HETATM    8  C9  UNL     1     -34.322   6.159   4.558  1.00 20.00     0.082 C 
HETATM    9  C5  UNL     1     -34.631   4.765   5.096  1.00 20.00     0.027 C 
HETATM   10 CL10 UNL     1     -33.893   7.227   5.930  1.00 20.00    -0.125 Cl
ENDBRANCH   6   8
ENDBRANCH   1   6
TORSDOF 4
ENDMDL
MODEL 2
REMARK VINA RESULT:      -5.6      2.157      4.894
REMARK  4 active torsions:
REMARK  status: ('A' for Active; 'I' for Inactive)
REMARK    1  A    between atoms: C2_2  and  C6_6 
REMARK    2  A    between atoms: C2_2  and  C7_7 
REMARK    3  A    between atoms: C7_7  and  C8_8 
REMARK    4  A    between atoms: C8_8  and  C9_9 
ROOT
HETATM    1  C7  UNL     1     -33.693   7.421   3.219  1.00 20.00     0.039 C 
ENDROOT
BRANCH   1   2
HETATM    2  C2  UNL     1     -33.942   5.934   3.386  1.00 20.00    -0.089 C 
HETATM    3  C1  UNL     1     -33.183   5.034   2.739  1.00 20.00     0.014 C 
BRANCH   2   4
HETATM    4  C6  UNL     1     -35.060   5.486   4.300  1.00 20.00     0.029 C 
HETATM    5  C3  UNL     1     -34.575   5.100   5.691  1.00 20.00     0.010 C 
ENDBRANCH   2   4
ENDBRANCH   1   2
BRANCH   1   6
HETATM    6  C8  UNL     1     -32.339   7.786   2.561  1.00 20.00     0.003 C 
HETATM    7  C4  UNL     1     -31.376   8.417   3.580  1.00 20.00     0.011 C 
BRANCH   6   8
HETATM    8  C9  UNL     1     -32.482   8.689   1.307  1.00 20.00     0.082 C 
HETATM    9  C5  UNL     1     -32.735  10.156   1.647  1.00 20.00     0.027 C 
HETATM   10 CL10 UNL     1     -31.064   8.585   0.217  1.00 20.00    -0.125 Cl
ENDBRANCH   6   8
ENDBRANCH   1   6
TORSDOF 4
ENDMDL
MODEL 3
REMARK VINA RESULT:      -5.5      1.958      4.588
REMARK  4 active torsions:
REMARK  status: ('A' for Active; 'I' for Inactive)
REMARK    1  A    between atoms: C2_2  and  C6_6 
REMARK    2  A    between atoms: C2_2  and  C7_7 
REMARK    3  A    between atoms: C7_7  and  C8_8 
REMARK    4  A    between atoms: C8_8  and  C9_9 
ROOT
HETATM    1  C7  UNL     1     -33.584   7.722   2.516  1.00 20.00     0.039 C 
ENDROOT
BRANCH   1   2
HETATM    2  C2  UNL     1     -33.677   6.383   3.223  1.00 20.00    -0.089 C 
HETATM    3  C1  UNL     1     -33.118   5.284   2.688  1.00 20.00     0.014 C 
BRANCH   2   4
HETATM    4  C6  UNL     1     -34.407   6.313   4.545  1.00 20.00     0.029 C 
HETATM    5  C3  UNL     1     -33.776   7.184   5.623  1.00 20.00     0.010 C 
ENDBRANCH   2   4
ENDBRANCH   1   2
BRANCH   1   6
HETATM    6  C8  UNL     1     -32.157   8.126   2.069  1.00 20.00     0.003 C 
HETATM    7  C4  UNL     1     -31.272   8.473   3.277  1.00 20.00     0.011 C 
BRANCH   6   8
HETATM    8  C9  UNL     1     -32.136   9.274   1.024  1.00 20.00     0.082 C 
HETATM    9  C5  UNL     1     -32.882   8.931  -0.263  1.00 20.00     0.027 C 
HETATM   10 CL10 UNL     1     -32.782  10.812   1.675  1.00 20.00    -0.125 Cl
ENDBRANCH   6   8
ENDBRANCH   1   6
TORSDOF 4
ENDMDL
MODEL 4
REMARK VINA RESULT:      -5.4      1.165      1.622
REMARK  4 active torsions:
REMARK  status: ('A' for Active; 'I' for Inactive)
REMARK    1  A    between atoms: C2_2  and  C6_6 
REMARK    2  A    between atoms: C2_2  and  C7_7 
REMARK    3  A    between atoms: C7_7  and  C8_8 
REMARK    4  A    between atoms: C8_8  and  C9_9 
ROOT
HETATM    1  C7  UNL     1     -32.886   6.630   2.924  1.00 20.00     0.039 C 
ENDROOT
BRANCH   1   2
HETATM    2  C2  UNL     1     -32.300   7.966   2.509  1.00 20.00    -0.089 C 
HETATM    3  C1  UNL     1     -31.290   8.518   3.202  1.00 20.00     0.014 C 
BRANCH   2   4
HETATM    4  C6  UNL     1     -32.873   8.661   1.294  1.00 20.00     0.029 C 
HETATM    5  C3  UNL     1     -32.524  10.142   1.233  1.00 20.00     0.010 C 
ENDBRANCH   2   4
ENDBRANCH   1   2
BRANCH   1   6
HETATM    6  C8  UNL     1     -34.031   6.715   3.963  1.00 20.00     0.003 C 
HETATM    7  C4  UNL     1     -33.572   7.431   5.244  1.00 20.00     0.011 C 
BRANCH   6   8
HETATM    8  C9  UNL     1     -34.666   5.339   4.301  1.00 20.00     0.082 C 
HETATM    9  C5  UNL     1     -33.943   4.165   3.646  1.00 20.00     0.027 C 
HETATM   10 CL10 UNL     1     -34.772   5.042   6.065  1.00 20.00    -0.125 Cl
ENDBRANCH   6   8
ENDBRANCH   1   6
TORSDOF 4
ENDMDL
MODEL 5
REMARK VINA RESULT:      -5.2      1.394      2.092
REMARK  4 active torsions:
REMARK  status: ('A' for Active; 'I' for Inactive)
REMARK    1  A    between atoms: C2_2  and  C6_6 
REMARK    2  A    between atoms: C2_2  and  C7_7 
REMARK    3  A    between atoms: C7_7  and  C8_8 
REMARK    4  A    between atoms: C8_8  and  C9_9 
ROOT
HETATM    1  C7  UNL     1     -32.126   7.580   3.245  1.00 20.00     0.039 C 
ENDROOT
BRANCH   1   2
HETATM    2  C2  UNL     1     -32.097   8.481   2.025  1.00 20.00    -0.089 C 
HETATM    3  C1  UNL     1     -31.318   8.185   0.971  1.00 20.00     0.014 C 
BRANCH   2   4
HETATM    4  C6  UNL     1     -32.969   9.716   2.017  1.00 20.00     0.029 C 
HETATM    5  C3  UNL     1     -32.722  10.614   0.812  1.00 20.00     0.010 C 
ENDBRANCH   2   4
ENDBRANCH   1   2
BRANCH   1   6
HETATM    6  C8  UNL     1     -33.540   7.268   3.793  1.00 20.00     0.003 C 
HETATM    7  C4  UNL     1     -33.580   7.373   5.326  1.00 20.00     0.011 C 
BRANCH   6   8
HETATM    8  C9  UNL     1     -34.102   5.900   3.321  1.00 20.00     0.082 C 
HETATM    9  C5  UNL     1     -33.049   5.012   2.662  1.00 20.00     0.027 C 
HETATM   10 CL10 UNL     1     -34.887   4.983   4.645  1.00 20.00    -0.125 Cl
ENDBRANCH   6   8
ENDBRANCH   1   6
TORSDOF 4
ENDMDL
MODEL 6
REMARK VINA RESULT:      -5.1      1.440      2.098
REMARK  4 active torsions:
REMARK  status: ('A' for Active; 'I' for Inactive)
REMARK    1  A    between atoms: C2_2  and  C6_6 
REMARK    2  A    between atoms: C2_2  and  C7_7 
REMARK    3  A    between atoms: C7_7  and  C8_8 
REMARK    4  A    between atoms: C8_8  and  C9_9 
ROOT
HETATM    1  C7  UNL     1     -32.135   7.708   2.747  1.00 20.00     0.039 C 
ENDROOT
BRANCH   1   2
HETATM    2  C2  UNL     1     -32.210   8.909   1.824  1.00 20.00    -0.089 C 
HETATM    3  C1  UNL     1     -32.465  10.135   2.311  1.00 20.00     0.014 C 
BRANCH   2   4
HETATM    4  C6  UNL     1     -31.985   8.698   0.344  1.00 20.00     0.029 C 
HETATM    5  C3  UNL     1     -33.053   9.353  -0.522  1.00 20.00     0.010 C 
ENDBRANCH   2   4
ENDBRANCH   1   2
BRANCH   1   6
HETATM    6  C8  UNL     1     -33.440   7.398   3.522  1.00 20.00     0.003 C 
HETATM    7  C4  UNL     1     -33.234   7.532   5.039  1.00 20.00     0.011 C 
BRANCH   6   8
HETATM    8  C9  UNL     1     -34.057   6.017   3.171  1.00 20.00     0.082 C 
HETATM    9  C5  UNL     1     -33.032   5.015   2.648  1.00 20.00     0.027 C 
HETATM   10 CL10 UNL     1     -34.934   5.283   4.550  1.00 20.00    -0.125 Cl
ENDBRANCH   6   8
ENDBRANCH   1   6
TORSDOF 4
ENDMDL
MODEL 7
REMARK VINA RESULT:      -5.0      2.088      4.436
REMARK  4 active torsions:
REMARK  status: ('A' for Active; 'I' for Inactive)
REMARK    1  A    between atoms: C2_2  and  C6_6 
REMARK    2  A    between atoms: C2_2  and  C7_7 
REMARK    3  A    between atoms: C7_7  and  C8_8 
REMARK    4  A    between atoms: C8_8  and  C9_9 
ROOT
HETATM    1  C7  UNL     1     -34.661   6.768   3.676  1.00 20.00     0.039 C 
ENDROOT
BRANCH   1   2
HETATM    2  C2  UNL     1     -34.240   6.451   5.098  1.00 20.00    -0.089 C 
HETATM    3  C1  UNL     1     -33.628   7.378   5.856  1.00 20.00     0.014 C 
BRANCH   2   4
HETATM    4  C6  UNL     1     -34.529   5.073   5.648  1.00 20.00     0.029 C 
HETATM    5  C3  UNL     1     -34.427   3.977   4.597  1.00 20.00     0.010 C 
ENDBRANCH   2   4
ENDBRANCH   1   2
BRANCH   1   6
HETATM    6  C8  UNL     1     -33.498   6.865   2.657  1.00 20.00     0.003 C 
HETATM    7  C4  UNL     1     -32.501   5.708   2.837  1.00 20.00     0.011 C 
BRANCH   6   8
HETATM    8  C9  UNL     1     -32.763   8.232   2.681  1.00 20.00     0.082 C 
HETATM    9  C5  UNL     1     -31.377   8.160   3.318  1.00 20.00     0.027 C 
HETATM   10 CL10 UNL     1     -32.615   8.964   1.052  1.00 20.00    -0.125 Cl
ENDBRANCH   6   8
ENDBRANCH   1   6
TORSDOF 4
ENDMDL
MODEL 8
REMARK VINA RESULT:      -5.0      2.426      4.892
REMARK  4 active torsions:
REMARK  status: ('A' for Active; 'I' for Inactive)
REMARK    1  A    between atoms: C2_2  and  C6_6 
REMARK    2  A    between atoms: C2_2  and  C7_7 
REMARK    3  A    between atoms: C7_7  and  C8_8 
REMARK    4  A    between atoms: C8_8  and  C9_9 
ROOT
HETATM    1  C7  UNL     1     -32.129   8.141   2.980  1.00 20.00     0.039 C 
ENDROOT
BRANCH   1   2
HETATM    2  C2  UNL     1     -33.093   7.126   3.562  1.00 20.00    -0.089 C 
HETATM    3  C1  UNL     1     -33.491   6.064   2.841  1.00 20.00     0.014 C 
BRANCH   2   4
HETATM    4  C6  UNL     1     -33.594   7.330   4.974  1.00 20.00     0.029 C 
HETATM    5  C3  UNL     1     -34.371   6.136   5.511  1.00 20.00     0.010 C 
ENDBRANCH   2   4
ENDBRANCH   1   2
BRANCH   1   6
HETATM    6  C8  UNL     1     -32.285   8.392   1.459  1.00 20.00     0.003 C 
HETATM    7  C4  UNL     1     -30.915   8.520   0.772  1.00 20.00     0.011 C 
BRANCH   6   8
HETATM    8  C9  UNL     1     -33.186   9.609   1.119  1.00 20.00     0.082 C 
HETATM    9  C5  UNL     1     -32.627  10.934   1.632  1.00 20.00     0.027 C 
HETATM   10 CL10 UNL     1     -33.511   9.758  -0.637  1.00 20.00    -0.125 Cl
ENDBRANCH   6   8
ENDBRANCH   1   6
TORSDOF 4
ENDMDL
MODEL 9
REMARK VINA RESULT:      -4.9      2.132      4.328
REMARK  4 active torsions:
REMARK  status: ('A' for Active; 'I' for Inactive)
REMARK    1  A    between atoms: C2_2  and  C6_6 
REMARK    2  A    between atoms: C2_2  and  C7_7 
REMARK    3  A    between atoms: C7_7  and  C8_8 
REMARK    4  A    between atoms: C8_8  and  C9_9 
ROOT
HETATM    1  C7  UNL     1     -34.796   6.384   3.433  1.00 20.00     0.039 C 
ENDROOT
BRANCH   1   2
HETATM    2  C2  UNL     1     -34.562   5.451   4.605  1.00 20.00    -0.089 C 
HETATM    3  C1  UNL     1     -34.437   4.127   4.414  1.00 20.00     0.014 C 
BRANCH   2   4
HETATM    4  C6  UNL     1     -34.466   6.042   5.993  1.00 20.00     0.029 C 
HETATM    5  C3  UNL     1     -33.733   7.376   6.025  1.00 20.00     0.010 C 
ENDBRANCH   2   4
ENDBRANCH   1   2
BRANCH   1   6
HETATM    6  C8  UNL     1     -33.576   6.578   2.499  1.00 20.00     0.003 C 
HETATM    7  C4  UNL     1     -32.525   5.478   2.719  1.00 20.00     0.011 C 
BRANCH   6   8
HETATM    8  C9  UNL     1     -32.929   7.985   2.606  1.00 20.00     0.082 C 
HETATM    9  C5  UNL     1     -31.598   7.981   3.353  1.00 20.00     0.027 C 
HETATM   10 CL10 UNL     1     -32.694   8.759   1.007  1.00 20.00    -0.125 Cl
ENDBRANCH   6   8
ENDBRANCH   1   6
TORSDOF 4
ENDMDL
