MODEL 1
REMARK VINA RESULT:      -5.9      0.000      0.000
REMARK  4 active torsions:
REMARK  status: ('A' for Active; 'I' for Inactive)
REMARK    1  A    between atoms: C2_2  and  C6_6 
REMARK    2  A    between atoms: C2_2  and  C7_7 
REMARK    3  A    between atoms: C7_7  and  C8_8 
REMARK    4  A    between atoms: C8_8  and  C9_9 
ROOT
HETATM    1  C7  UNL     1     -33.183   6.887   2.989  1.00 20.00     0.039 C 
ENDROOT
BRANCH   1   2
HETATM    2  C2  UNL     1     -33.949   6.644   4.277  1.00 20.00    -0.089 C 
HETATM    3  C1  UNL     1     -33.703   7.382   5.372  1.00 20.00     0.014 C 
BRANCH   2   4
HETATM    4  C6  UNL     1     -34.999   5.555   4.299  1.00 20.00     0.029 C 
HETATM    5  C3  UNL     1     -34.415   4.164   4.508  1.00 20.00     0.010 C 
ENDBRANCH   2   4
ENDBRANCH   1   2
BRANCH   1   6
HETATM    6  C8  UNL     1     -32.583   8.307   2.846  1.00 20.00     0.003 C 
HETATM    7  C4  UNL     1     -31.147   8.366   3.391  1.00 20.00     0.011 C 
BRANCH   6   8
HETATM    8  C9  UNL     1     -32.646   8.856   1.395  1.00 20.00     0.082 C 
HETATM    9  C5  UNL     1     -32.926  10.354   1.329  1.00 20.00     0.027 C 
HETATM   10 CL10 UNL     1     -31.160   8.501   0.459  1.00 20.00    -0.125 Cl
ENDBRANCH   6   8
ENDBRANCH   1   6
TORSDOF 4
ENDMDL
MODEL 2
REMARK VINA RESULT:      -5.8      2.408      4.771
REMARK  4 active torsions:
REMARK  status: ('A' for Active; 'I' for Inactive)
REMARK    1  A    between atoms: C2_2  and  C6_6 
REMARK    2  A    between atoms: C2_2  and  C7_7 
REMARK    3  A    between atoms: C7_7  and  C8_8 
REMARK    4  A    between atoms: C8_8  and  C9_9 
ROOT
HETATM    1  C7  UNL     1     -33.539   7.853   3.037  1.00 20.00     0.039 C 
ENDROOT
BRANCH   1   2
HETATM    2  C2  UNL     1     -32.217   8.371   2.502  1.00 20.00    -0.089 C 
HETATM    3  C1  UNL     1     -31.105   8.321   3.253  1.00 20.00     0.014 C 
BRANCH   2   4
HETATM    4  C6  UNL     1     -32.178   8.941   1.101  1.00 20.00     0.029 C 
HETATM    5  C3  UNL     1     -32.677  10.377   1.024  1.00 20.00     0.010 C 
ENDBRANCH   2   4
ENDBRANCH   1   2
BRANCH   1   6
HETATM    6  C8  UNL     1     -33.419   6.727   4.092  1.00 20.00     0.003 C 
HETATM    7  C4  UNL     1     -33.972   7.174   5.455  1.00 20.00     0.011 C 
BRANCH   6   8
HETATM    8  C9  UNL     1     -34.073   5.393   3.642  1.00 20.00     0.082 C 
HETATM    9  C5  UNL     1     -33.209   4.595   2.671  1.00 20.00     0.027 C 
HETATM   10 CL10 UNL     1     -34.516   4.341   5.024  1.00 20.00    -0.125 Cl
ENDBRANCH   6   8
ENDBRANCH   1   6
TORSDOF 4
ENDMDL
MODEL 3
REMARK VINA RESULT:      -5.7      2.484      4.790
REMARK  4 active torsions:
REMARK  status: ('A' for Active; 'I' for Inactive)
REMARK    1  A    between atoms: C2_2  and  C6_6 
REMARK    2  A    between atoms: C2_2  and  C7_7 
REMARK    3  A    between atoms: C7_7  and  C8_8 
REMARK    4  A    between atoms: C8_8  and  C9_9 
ROOT
HETATM    1  C7  UNL     1     -32.920   6.710   2.693  1.00 20.00     0.039 C 
ENDROOT
BRANCH   1   2
HETATM    2  C2  UNL     1     -32.135   7.991   2.476  1.00 20.00    -0.089 C 
HETATM    3  C1  UNL     1     -31.357   8.493   3.449  1.00 20.00     0.014 C 
BRANCH   2   4
HETATM    4  C6  UNL     1     -32.243   8.687   1.138  1.00 20.00     0.029 C 
HETATM    5  C3  UNL     1     -32.697  10.136   1.251  1.00 20.00     0.010 C 
ENDBRANCH   2   4
ENDBRANCH   1   2
BRANCH   1   6
HETATM    6  C8  UNL     1     -34.067   6.816   3.726  1.00 20.00     0.003 C 
HETATM    7  C4  UNL     1     -35.314   6.049   3.258  1.00 20.00     0.011 C 
BRANCH   6   8
HETATM    8  C9  UNL     1     -33.650   6.372   5.154  1.00 20.00     0.082 C 
HETATM    9  C5  UNL     1     -33.717   7.499   6.180  1.00 20.00     0.027 C 
HETATM   10 CL10 UNL     1     -34.613   4.984   5.754  1.00 20.00    -0.125 Cl
ENDBRANCH   6   8
ENDBRANCH   1   6
TORSDOF 4
ENDMDL
MODEL 4
REMARK VINA RESULT:      -5.7      2.226      4.745
REMARK  4 active torsions:
REMARK  status: ('A' for Active; 'I' for Inactive)
REMARK    1  A    between atoms: C2_2  and  C6_6 
REMARK    2  A    between atoms: C2_2  and  C7_7 
REMARK    3  A    between atoms: C7_7  and  C8_8 
REMARK    4  A    between atoms: C8_8  and  C9_9 
ROOT
HETATM    1  C7  UNL     1     -33.823   7.743   3.080  1.00 20.00     0.039 C 
ENDROOT
BRANCH   1   2
HETATM    2  C2  UNL     1     -32.381   8.084   2.753  1.00 20.00    -0.089 C 
HETATM    3  C1  UNL     1     -31.439   8.074   3.711  1.00 20.00     0.014 C 
BRANCH   2   4
HETATM    4  C6  UNL     1     -32.025   8.430   1.325  1.00 20.00     0.029 C 
HETATM    5  C3  UNL     1     -32.535   9.798   0.895  1.00 20.00     0.010 C 
ENDBRANCH   2   4
ENDBRANCH   1   2
BRANCH   1   6
HETATM    6  C8  UNL     1     -34.138   6.229   3.139  1.00 20.00     0.003 C 
HETATM    7  C4  UNL     1     -32.918   5.387   2.732  1.00 20.00     0.011 C 
BRANCH   6   8
HETATM    8  C9  UNL     1     -34.691   5.770   4.515  1.00 20.00     0.082 C 
HETATM    9  C5  UNL     1     -34.416   4.300   4.816  1.00 20.00     0.027 C 
HETATM   10 CL10 UNL     1     -34.075   6.766   5.872  1.00 20.00    -0.125 Cl
ENDBRANCH   6   8
ENDBRANCH   1   6
TORSDOF 4
ENDMDL
MODEL 5
REMARK VINA RESULT:      -5.7      0.645      1.572
REMARK  4 active torsions:
REMARK  status: ('A' for Active; 'I' for Inactive)
REMARK    1  A    between atoms: C2_2  and  C6_6 
REMARK    2  A    between atoms: C2_2  and  C7_7 
REMARK    3  A    between atoms: C7_7  and  C8_8 
REMARK    4  A    between atoms: C8_8  and  C9_9 
ROOT
HETATM    1  C7  UNL     1     -33.007   6.609   2.532  1.00 20.00     0.039 C 
ENDROOT
BRANCH   1   2
HETATM    2  C2  UNL     1     -33.874   6.088   3.664  1.00 20.00    -0.089 C 
HETATM    3  C1  UNL     1     -34.089   4.771   3.814  1.00 20.00     0.014 C 
BRANCH   2   4
HETATM    4  C6  UNL     1     -34.486   7.084   4.623  1.00 20.00     0.029 C 
HETATM    5  C3  UNL     1     -33.769   7.144   5.965  1.00 20.00     0.010 C 
ENDBRANCH   2   4
ENDBRANCH   1   2
BRANCH   1   6
HETATM    6  C8  UNL     1     -32.661   8.115   2.616  1.00 20.00     0.003 C 
HETATM    7  C4  UNL     1     -31.352   8.347   3.387  1.00 20.00     0.011 C 
BRANCH   6   8
HETATM    8  C9  UNL     1     -32.615   8.812   1.229  1.00 20.00     0.082 C 
HETATM    9  C5  UNL     1     -32.895  10.310   1.297  1.00 20.00     0.027 C 
HETATM   10 CL10 UNL     1     -31.061   8.549   0.377  1.00 20.00    -0.125 Cl
ENDBRANCH   6   8
ENDBRANCH   1   6
TORSDOF 4
ENDMDL
MODEL 6
REMARK VINA RESULT:      -5.7      2.075      4.823
REMARK  4 active torsions:
REMARK  status: ('A' for Active; 'I' for Inactive)
REMARK    1  A    between atoms: C2_2  and  C6_6 
REMARK    2  A    between atoms: C2_2  and  C7_7 
REMARK    3  A    between atoms: C7_7  and  C8_8 
REMARK    4  A    between atoms: C8_8  and  C9_9 
ROOT
HETATM    1  C7  UNL     1     -32.314   7.837   3.032  1.00 20.00     0.039 C 
ENDROOT
BRANCH   1   2
HETATM    2  C2  UNL     1     -32.112   8.605   1.738  1.00 20.00    -0.089 C 
HETATM    3  C1  UNL     1     -31.067   8.336   0.937  1.00 20.00     0.014 C 
BRANCH   2   4
HETATM    4  C6  UNL     1     -33.114   9.674   1.366  1.00 20.00     0.029 C 
HETATM    5  C3  UNL     1     -33.213   9.908  -0.135  1.00 20.00     0.010 C 
ENDBRANCH   2   4
ENDBRANCH   1   2
BRANCH   1   6
HETATM    6  C8  UNL     1     -33.478   6.817   3.009  1.00 20.00     0.003 C 
HETATM    7  C4  UNL     1     -32.985   5.414   2.618  1.00 20.00     0.011 C 
BRANCH   6   8
HETATM    8  C9  UNL     1     -34.278   6.770   4.338  1.00 20.00     0.082 C 
HETATM    9  C5  UNL     1     -34.719   5.362   4.727  1.00 20.00     0.027 C 
HETATM   10 CL10 UNL     1     -33.382   7.497   5.709  1.00 20.00    -0.125 Cl
ENDBRANCH   6   8
ENDBRANCH   1   6
TORSDOF 4
ENDMDL
MODEL 7
REMARK VINA RESULT:      -5.2      1.439      2.006
REMARK  4 active torsions:
REMARK  status: ('A' for Active; 'I' for Inactive)
REMARK    1  A    between atoms: C2_2  and  C6_6 
REMARK    2  A    between atoms: C2_2  and  C7_7 
REMARK    3  A    between atoms: C7_7  and  C8_8 
REMARK    4  A    between atoms: C8_8  and  C9_9 
ROOT
HETATM    1  C7  UNL     1     -34.105   6.917   3.770  1.00 20.00     0.039 C 
ENDROOT
BRANCH   1   2
HETATM    2  C2  UNL     1     -34.113   6.636   5.261  1.00 20.00    -0.089 C 
HETATM    3  C1  UNL     1     -33.597   7.521   6.130  1.00 20.00     0.014 C 
BRANCH   2   4
HETATM    4  C6  UNL     1     -34.720   5.339   5.749  1.00 20.00     0.029 C 
HETATM    5  C3  UNL     1     -34.439   4.161   4.826  1.00 20.00     0.010 C 
ENDBRANCH   2   4
ENDBRANCH   1   2
BRANCH   1   6
HETATM    6  C8  UNL     1     -32.811   6.494   3.033  1.00 20.00     0.003 C 
HETATM    7  C4  UNL     1     -33.111   5.490   1.909  1.00 20.00     0.011 C 
BRANCH   6   8
HETATM    8  C9  UNL     1     -31.990   7.697   2.495  1.00 20.00     0.082 C 
HETATM    9  C5  UNL     1     -32.817   8.660   1.649  1.00 20.00     0.027 C 
HETATM   10 CL10 UNL     1     -31.180   8.618   3.802  1.00 20.00    -0.125 Cl
ENDBRANCH   6   8
ENDBRANCH   1   6
TORSDOF 4
ENDMDL
MODEL 8
REMARK VINA RESULT:      -5.1      1.521      2.305
REMARK  4 active torsions:
REMARK  status: ('A' for Active; 'I' for Inactive)
REMARK    1  A    between atoms: C2_2  and  C6_6 
REMARK    2  A    between atoms: C2_2  and  C7_7 
REMARK    3  A    between atoms: C7_7  and  C8_8 
REMARK    4  A    between atoms: C8_8  and  C9_9 
ROOT
HETATM    1  C7  UNL     1     -34.584   6.391   3.299  1.00 20.00     0.039 C 
ENDROOT
BRANCH   1   2
HETATM    2  C2  UNL     1     -33.884   5.048   3.397  1.00 20.00    -0.089 C 
HETATM    3  C1  UNL     1     -32.911   4.716   2.533  1.00 20.00     0.014 C 
BRANCH   2   4
HETATM    4  C6  UNL     1     -34.302   4.093   4.493  1.00 20.00     0.029 C 
HETATM    5  C3  UNL     1     -34.690   4.798   5.786  1.00 20.00     0.010 C 
ENDBRANCH   2   4
ENDBRANCH   1   2
BRANCH   1   6
HETATM    6  C8  UNL     1     -33.705   7.612   3.667  1.00 20.00     0.003 C 
HETATM    7  C4  UNL     1     -33.299   7.583   5.148  1.00 20.00     0.011 C 
BRANCH   6   8
HETATM    8  C9  UNL     1     -32.458   7.767   2.755  1.00 20.00     0.082 C 
HETATM    9  C5  UNL     1     -32.667   8.754   1.610  1.00 20.00     0.027 C 
HETATM   10 CL10 UNL     1     -30.991   8.239   3.668  1.00 20.00    -0.125 Cl
ENDBRANCH   6   8
ENDBRANCH   1   6
TORSDOF 4
ENDMDL
MODEL 9
REMARK VINA RESULT:      -4.7      1.183      2.566
REMARK  4 active torsions:
REMARK  status: ('A' for Active; 'I' for Inactive)
REMARK    1  A    between atoms: C2_2  and  C6_6 
REMARK    2  A    between atoms: C2_2  and  C7_7 
REMARK    3  A    between atoms: C7_7  and  C8_8 
REMARK    4  A    between atoms: C8_8  and  C9_9 
ROOT
HETATM    1  C7  UNL     1     -34.501   6.400   3.552  1.00 20.00     0.039 C 
ENDROOT
BRANCH   1   2
HETATM    2  C2  UNL     1     -34.531   5.512   4.783  1.00 20.00    -0.089 C 
HETATM    3  C1  UNL     1     -34.549   4.174   4.664  1.00 20.00     0.014 C 
BRANCH   2   4
HETATM    4  C6  UNL     1     -34.536   6.166   6.146  1.00 20.00     0.029 C 
HETATM    5  C3  UNL     1     -33.730   7.457   6.195  1.00 20.00     0.010 C 
ENDBRANCH   2   4
ENDBRANCH   1   2
BRANCH   1   6
HETATM    6  C8  UNL     1     -33.111   6.540   2.885  1.00 20.00     0.003 C 
HETATM    7  C4  UNL     1     -33.042   5.755   1.565  1.00 20.00     0.011 C 
BRANCH   6   8
HETATM    8  C9  UNL     1     -32.679   8.016   2.672  1.00 20.00     0.082 C 
HETATM    9  C5  UNL     1     -31.412   8.389   3.435  1.00 20.00     0.027 C 
HETATM   10 CL10 UNL     1     -32.459   8.428   0.942  1.00 20.00    -0.125 Cl
ENDBRANCH   6   8
ENDBRANCH   1   6
TORSDOF 4
ENDMDL
