MODEL 1
REMARK VINA RESULT:      -4.0      0.000      0.000
REMARK  6 active torsions:
REMARK  status: ('A' for Active; 'I' for Inactive)
REMARK    1  A    between atoms: C5_5  and  C7_7 
REMARK    2  A    between atoms: C6_6  and  C11_11 
REMARK    3  A    between atoms: C7_7  and  C8_8 
REMARK    4  A    between atoms: C8_8  and  C11_11 
REMARK    5  A    between atoms: C9_9  and  C11_11 
REMARK    6  A    between atoms: C10_10  and  C11_11 
ROOT
HETATM    1  C11 UNL     1     -34.895  15.799  -4.133  1.00 20.00    -0.025 C 
ENDROOT
BRANCH   1   2
HETATM    2  C6  UNL     1     -34.679  14.250  -4.318  1.00 20.00     0.006 C 
HETATM    3  C2  UNL     1     -35.788  13.491  -5.043  1.00 20.00     0.006 C 
ENDBRANCH   1   2
BRANCH   1   4
HETATM    4  C8  UNL     1     -34.179  16.218  -2.801  1.00 20.00     0.011 C 
BRANCH   4   5
HETATM    5  C7  UNL     1     -35.072  16.844  -1.716  1.00 20.00     0.000 C 
BRANCH   5   6
HETATM    6  C5  UNL     1     -34.235  17.639  -0.711  1.00 20.00    -0.005 C 
HETATM    7  C1  UNL     1     -32.893  18.043  -1.299  1.00 20.00     0.005 C 
ENDBRANCH   5   6
ENDBRANCH   4   5
ENDBRANCH   1   4
BRANCH   1   8
HETATM    8  C9  UNL     1     -36.441  16.029  -4.065  1.00 20.00     0.124 C 
HETATM    9 CL12 UNL     1     -37.152  17.011  -5.374  1.00 20.00    -0.130 Cl
ENDBRANCH   1   8
BRANCH   1  10
HETATM   10  C10 UNL     1     -34.270  16.583  -5.368  1.00 20.00    -0.013 C 
HETATM   11  C3  UNL     1     -33.612  17.922  -4.987  1.00 20.00     0.010 C 
HETATM   12  C4  UNL     1     -33.261  15.795  -6.216  1.00 20.00     0.010 C 
ENDBRANCH   1  10
TORSDOF 6
ENDMDL
MODEL 2
REMARK VINA RESULT:      -3.9      1.563      2.604
REMARK  6 active torsions:
REMARK  status: ('A' for Active; 'I' for Inactive)
REMARK    1  A    between atoms: C5_5  and  C7_7 
REMARK    2  A    between atoms: C6_6  and  C11_11 
REMARK    3  A    between atoms: C7_7  and  C8_8 
REMARK    4  A    between atoms: C8_8  and  C11_11 
REMARK    5  A    between atoms: C9_9  and  C11_11 
REMARK    6  A    between atoms: C10_10  and  C11_11 
ROOT
HETATM    1  C11 UNL     1     -34.678  16.256  -3.565  1.00 20.00    -0.025 C 
ENDROOT
BRANCH   1   2
HETATM    2  C6  UNL     1     -36.198  16.400  -3.181  1.00 20.00     0.006 C 
HETATM    3  C2  UNL     1     -37.012  17.404  -3.994  1.00 20.00     0.006 C 
ENDBRANCH   1   2
BRANCH   1   4
HETATM    4  C8  UNL     1     -33.834  16.769  -2.345  1.00 20.00     0.011 C 
BRANCH   4   5
HETATM    5  C7  UNL     1     -34.628  17.197  -1.100  1.00 20.00     0.000 C 
BRANCH   5   6
HETATM    6  C5  UNL     1     -33.890  18.296  -0.331  1.00 20.00    -0.005 C 
HETATM    7  C1  UNL     1     -32.435  18.396  -0.760  1.00 20.00     0.005 C 
ENDBRANCH   5   6
ENDBRANCH   4   5
ENDBRANCH   1   4
BRANCH   1   8
HETATM    8  C9  UNL     1     -34.455  17.132  -4.842  1.00 20.00     0.124 C 
HETATM    9 CL12 UNL     1     -33.327  18.504  -4.673  1.00 20.00    -0.130 Cl
ENDBRANCH   1   8
BRANCH   1  10
HETATM   10  C10 UNL     1     -34.340  14.732  -3.870  1.00 20.00    -0.013 C 
HETATM   11  C3  UNL     1     -35.380  14.032  -4.765  1.00 20.00     0.010 C 
HETATM   12  C4  UNL     1     -32.953  14.464  -4.473  1.00 20.00     0.010 C 
ENDBRANCH   1  10
TORSDOF 6
ENDMDL
MODEL 3
REMARK VINA RESULT:      -3.9     11.330     12.558
REMARK  6 active torsions:
REMARK  status: ('A' for Active; 'I' for Inactive)
REMARK    1  A    between atoms: C5_5  and  C7_7 
REMARK    2  A    between atoms: C6_6  and  C11_11 
REMARK    3  A    between atoms: C7_7  and  C8_8 
REMARK    4  A    between atoms: C8_8  and  C11_11 
REMARK    5  A    between atoms: C9_9  and  C11_11 
REMARK    6  A    between atoms: C10_10  and  C11_11 
ROOT
HETATM    1  C11 UNL     1     -33.652   6.241   3.655  1.00 20.00    -0.025 C 
ENDROOT
BRANCH   1   2
HETATM    2  C6  UNL     1     -34.771   6.325   2.550  1.00 20.00     0.006 C 
HETATM    3  C2  UNL     1     -36.213   6.396   3.046  1.00 20.00     0.006 C 
ENDBRANCH   1   2
BRANCH   1   4
HETATM    4  C8  UNL     1     -32.629   7.398   3.378  1.00 20.00     0.011 C 
BRANCH   4   5
HETATM    5  C7  UNL     1     -32.527   7.882   1.922  1.00 20.00     0.000 C 
BRANCH   5   6
HETATM    6  C5  UNL     1     -32.222   9.381   1.864  1.00 20.00    -0.005 C 
HETATM    7  C1  UNL     1     -32.685   9.994   0.551  1.00 20.00     0.005 C 
ENDBRANCH   5   6
ENDBRANCH   4   5
ENDBRANCH   1   4
BRANCH   1   8
HETATM    8  C9  UNL     1     -32.993   4.829   3.518  1.00 20.00     0.124 C 
HETATM    9 CL12 UNL     1     -32.864   4.174   1.863  1.00 20.00    -0.130 Cl
ENDBRANCH   1   8
BRANCH   1  10
HETATM   10  C10 UNL     1     -34.305   6.413   5.096  1.00 20.00    -0.013 C 
HETATM   11  C3  UNL     1     -34.497   5.086   5.854  1.00 20.00     0.010 C 
HETATM   12  C4  UNL     1     -33.586   7.386   6.042  1.00 20.00     0.010 C 
ENDBRANCH   1  10
TORSDOF 6
ENDMDL
MODEL 4
REMARK VINA RESULT:      -3.9      2.069      3.264
REMARK  6 active torsions:
REMARK  status: ('A' for Active; 'I' for Inactive)
REMARK    1  A    between atoms: C5_5  and  C7_7 
REMARK    2  A    between atoms: C6_6  and  C11_11 
REMARK    3  A    between atoms: C7_7  and  C8_8 
REMARK    4  A    between atoms: C8_8  and  C11_11 
REMARK    5  A    between atoms: C9_9  and  C11_11 
REMARK    6  A    between atoms: C10_10  and  C11_11 
ROOT
HETATM    1  C11 UNL     1     -34.540  15.546  -5.031  1.00 20.00    -0.025 C 
ENDROOT
BRANCH   1   2
HETATM    2  C6  UNL     1     -34.823  17.049  -5.406  1.00 20.00     0.006 C 
HETATM    3  C2  UNL     1     -34.079  17.597  -6.621  1.00 20.00     0.006 C 
ENDBRANCH   1   2
BRANCH   1   4
HETATM    4  C8  UNL     1     -35.035  15.326  -3.559  1.00 20.00     0.011 C 
BRANCH   4   5
HETATM    5  C7  UNL     1     -35.683  16.539  -2.871  1.00 20.00     0.000 C 
BRANCH   5   6
HETATM    6  C5  UNL     1     -34.956  16.883  -1.568  1.00 20.00    -0.005 C 
HETATM    7  C1  UNL     1     -33.513  17.288  -1.826  1.00 20.00     0.005 C 
ENDBRANCH   5   6
ENDBRANCH   4   5
ENDBRANCH   1   4
BRANCH   1   8
HETATM    8  C9  UNL     1     -32.996  15.334  -5.169  1.00 20.00     0.124 C 
HETATM    9 CL12 UNL     1     -32.279  14.058  -4.149  1.00 20.00    -0.130 Cl
ENDBRANCH   1   8
BRANCH   1  10
HETATM   10  C10 UNL     1     -35.323  14.584  -6.028  1.00 20.00    -0.013 C 
HETATM   11  C3  UNL     1     -34.425  13.926  -7.092  1.00 20.00     0.010 C 
HETATM   12  C4  UNL     1     -36.152  13.472  -5.369  1.00 20.00     0.010 C 
ENDBRANCH   1  10
TORSDOF 6
ENDMDL
MODEL 5
REMARK VINA RESULT:      -3.8      1.883      3.184
REMARK  6 active torsions:
REMARK  status: ('A' for Active; 'I' for Inactive)
REMARK    1  A    between atoms: C5_5  and  C7_7 
REMARK    2  A    between atoms: C6_6  and  C11_11 
REMARK    3  A    between atoms: C7_7  and  C8_8 
REMARK    4  A    between atoms: C8_8  and  C11_11 
REMARK    5  A    between atoms: C9_9  and  C11_11 
REMARK    6  A    between atoms: C10_10  and  C11_11 
ROOT
HETATM    1  C11 UNL     1     -34.769  15.619  -4.121  1.00 20.00    -0.025 C 
ENDROOT
BRANCH   1   2
HETATM    2  C6  UNL     1     -33.728  16.501  -4.908  1.00 20.00     0.006 C 
HETATM    3  C2  UNL     1     -33.830  16.476  -6.431  1.00 20.00     0.006 C 
ENDBRANCH   1   2
BRANCH   1   4
HETATM    4  C8  UNL     1     -34.880  16.204  -2.669  1.00 20.00     0.011 C 
BRANCH   4   5
HETATM    5  C7  UNL     1     -33.689  17.047  -2.182  1.00 20.00     0.000 C 
BRANCH   5   6
HETATM    6  C5  UNL     1     -34.009  17.728  -0.849  1.00 20.00    -0.005 C 
HETATM    7  C1  UNL     1     -35.409  17.381  -0.368  1.00 20.00     0.005 C 
ENDBRANCH   5   6
ENDBRANCH   4   5
ENDBRANCH   1   4
BRANCH   1   8
HETATM    8  C9  UNL     1     -34.209  14.158  -4.124  1.00 20.00     0.124 C 
HETATM    9 CL12 UNL     1     -32.432  13.993  -4.143  1.00 20.00    -0.130 Cl
ENDBRANCH   1   8
BRANCH   1  10
HETATM   10  C10 UNL     1     -36.182  15.674  -4.850  1.00 20.00    -0.013 C 
HETATM   11  C3  UNL     1     -36.789  14.287  -5.135  1.00 20.00     0.010 C 
HETATM   12  C4  UNL     1     -37.260  16.517  -4.152  1.00 20.00     0.010 C 
ENDBRANCH   1  10
TORSDOF 6
ENDMDL
MODEL 6
REMARK VINA RESULT:      -3.8      1.269      4.179
REMARK  6 active torsions:
REMARK  status: ('A' for Active; 'I' for Inactive)
REMARK    1  A    between atoms: C5_5  and  C7_7 
REMARK    2  A    between atoms: C6_6  and  C11_11 
REMARK    3  A    between atoms: C7_7  and  C8_8 
REMARK    4  A    between atoms: C8_8  and  C11_11 
REMARK    5  A    between atoms: C9_9  and  C11_11 
REMARK    6  A    between atoms: C10_10  and  C11_11 
ROOT
HETATM    1  C11 UNL     1     -34.605  16.461  -3.423  1.00 20.00    -0.025 C 
ENDROOT
BRANCH   1   2
HETATM    2  C6  UNL     1     -33.766  17.378  -4.390  1.00 20.00     0.006 C 
HETATM    3  C2  UNL     1     -34.562  18.279  -5.332  1.00 20.00     0.006 C 
ENDBRANCH   1   2
BRANCH   1   4
HETATM    4  C8  UNL     1     -34.275  14.970  -3.785  1.00 20.00     0.011 C 
BRANCH   4   5
HETATM    5  C7  UNL     1     -33.436  14.747  -5.054  1.00 20.00     0.000 C 
BRANCH   5   6
HETATM    6  C5  UNL     1     -34.305  14.221  -6.199  1.00 20.00    -0.005 C 
HETATM    7  C1  UNL     1     -33.978  14.914  -7.512  1.00 20.00     0.005 C 
ENDBRANCH   5   6
ENDBRANCH   4   5
ENDBRANCH   1   4
BRANCH   1   8
HETATM    8  C9  UNL     1     -36.110  16.806  -3.674  1.00 20.00     0.124 C 
HETATM    9 CL12 UNL     1     -37.177  15.438  -4.090  1.00 20.00    -0.130 Cl
ENDBRANCH   1   8
BRANCH   1  10
HETATM   10  C10 UNL     1     -34.209  16.765  -1.913  1.00 20.00    -0.013 C 
HETATM   11  C3  UNL     1     -33.141  17.863  -1.759  1.00 20.00     0.010 C 
HETATM   12  C4  UNL     1     -35.375  17.118  -0.976  1.00 20.00     0.010 C 
ENDBRANCH   1  10
TORSDOF 6
ENDMDL
MODEL 7
REMARK VINA RESULT:      -3.8      1.574      2.436
REMARK  6 active torsions:
REMARK  status: ('A' for Active; 'I' for Inactive)
REMARK    1  A    between atoms: C5_5  and  C7_7 
REMARK    2  A    between atoms: C6_6  and  C11_11 
REMARK    3  A    between atoms: C7_7  and  C8_8 
REMARK    4  A    between atoms: C8_8  and  C11_11 
REMARK    5  A    between atoms: C9_9  and  C11_11 
REMARK    6  A    between atoms: C10_10  and  C11_11 
ROOT
HETATM    1  C11 UNL     1     -33.981  16.861  -4.258  1.00 20.00    -0.025 C 
ENDROOT
BRANCH   1   2
HETATM    2  C6  UNL     1     -35.479  16.795  -4.741  1.00 20.00     0.006 C 
HETATM    3  C2  UNL     1     -36.405  15.867  -3.958  1.00 20.00     0.006 C 
ENDBRANCH   1   2
BRANCH   1   4
HETATM    4  C8  UNL     1     -33.965  16.517  -2.727  1.00 20.00     0.011 C 
BRANCH   4   5
HETATM    5  C7  UNL     1     -33.231  17.513  -1.814  1.00 20.00     0.000 C 
BRANCH   5   6
HETATM    6  C5  UNL     1     -34.077  17.854  -0.585  1.00 20.00    -0.005 C 
HETATM    7  C1  UNL     1     -35.456  17.218  -0.663  1.00 20.00     0.005 C 
ENDBRANCH   5   6
ENDBRANCH   4   5
ENDBRANCH   1   4
BRANCH   1   8
HETATM    8  C9  UNL     1     -33.485  18.318  -4.538  1.00 20.00     0.124 C 
HETATM    9 CL12 UNL     1     -34.181  19.129  -5.967  1.00 20.00    -0.130 Cl
ENDBRANCH   1   8
BRANCH   1  10
HETATM   10  C10 UNL     1     -33.106  15.810  -5.072  1.00 20.00    -0.013 C 
HETATM   11  C3  UNL     1     -33.004  14.430  -4.397  1.00 20.00     0.010 C 
HETATM   12  C4  UNL     1     -33.525  15.583  -6.532  1.00 20.00     0.010 C 
ENDBRANCH   1  10
TORSDOF 6
ENDMDL
MODEL 8
REMARK VINA RESULT:      -3.8      2.145      4.475
REMARK  6 active torsions:
REMARK  status: ('A' for Active; 'I' for Inactive)
REMARK    1  A    between atoms: C5_5  and  C7_7 
REMARK    2  A    between atoms: C6_6  and  C11_11 
REMARK    3  A    between atoms: C7_7  and  C8_8 
REMARK    4  A    between atoms: C8_8  and  C11_11 
REMARK    5  A    between atoms: C9_9  and  C11_11 
REMARK    6  A    between atoms: C10_10  and  C11_11 
ROOT
HETATM    1  C11 UNL     1     -34.897  15.681  -4.447  1.00 20.00    -0.025 C 
ENDROOT
BRANCH   1   2
HETATM    2  C6  UNL     1     -35.296  16.133  -2.992  1.00 20.00     0.006 C 
HETATM    3  C2  UNL     1     -34.196  16.784  -2.158  1.00 20.00     0.006 C 
ENDBRANCH   1   2
BRANCH   1   4
HETATM    4  C8  UNL     1     -35.513  14.257  -4.684  1.00 20.00     0.011 C 
BRANCH   4   5
HETATM    5  C7  UNL     1     -36.095  13.991  -6.082  1.00 20.00     0.000 C 
BRANCH   5   6
HETATM    6  C5  UNL     1     -35.129  13.156  -6.927  1.00 20.00    -0.005 C 
HETATM    7  C1  UNL     1     -34.242  14.036  -7.793  1.00 20.00     0.005 C 
ENDBRANCH   5   6
ENDBRANCH   4   5
ENDBRANCH   1   4
BRANCH   1   8
HETATM    8  C9  UNL     1     -33.334  15.660  -4.495  1.00 20.00     0.124 C 
HETATM    9 CL12 UNL     1     -32.556  14.075  -4.239  1.00 20.00    -0.130 Cl
ENDBRANCH   1   8
BRANCH   1  10
HETATM   10  C10 UNL     1     -35.472  16.717  -5.510  1.00 20.00    -0.013 C 
HETATM   11  C3  UNL     1     -36.549  17.658  -4.941  1.00 20.00     0.010 C 
HETATM   12  C4  UNL     1     -34.427  17.586  -6.226  1.00 20.00     0.010 C 
ENDBRANCH   1  10
TORSDOF 6
ENDMDL
MODEL 9
REMARK VINA RESULT:      -3.8      1.398      1.863
REMARK  6 active torsions:
REMARK  status: ('A' for Active; 'I' for Inactive)
REMARK    1  A    between atoms: C5_5  and  C7_7 
REMARK    2  A    between atoms: C6_6  and  C11_11 
REMARK    3  A    between atoms: C7_7  and  C8_8 
REMARK    4  A    between atoms: C8_8  and  C11_11 
REMARK    5  A    between atoms: C9_9  and  C11_11 
REMARK    6  A    between atoms: C10_10  and  C11_11 
ROOT
HETATM    1  C11 UNL     1     -34.963  16.004  -4.564  1.00 20.00    -0.025 C 
ENDROOT
BRANCH   1   2
HETATM    2  C6  UNL     1     -34.298  14.760  -3.864  1.00 20.00     0.006 C 
HETATM    3  C2  UNL     1     -32.879  14.410  -4.305  1.00 20.00     0.006 C 
ENDBRANCH   1   2
BRANCH   1   4
HETATM    4  C8  UNL     1     -35.505  16.947  -3.434  1.00 20.00     0.011 C 
BRANCH   4   5
HETATM    5  C7  UNL     1     -35.178  16.535  -1.989  1.00 20.00     0.000 C 
BRANCH   5   6
HETATM    6  C5  UNL     1     -34.488  17.676  -1.237  1.00 20.00    -0.005 C 
HETATM    7  C1  UNL     1     -33.006  17.748  -1.570  1.00 20.00     0.005 C 
ENDBRANCH   5   6
ENDBRANCH   4   5
ENDBRANCH   1   4
BRANCH   1   8
HETATM    8  C9  UNL     1     -36.114  15.446  -5.466  1.00 20.00     0.124 C 
HETATM    9 CL12 UNL     1     -36.387  13.684  -5.399  1.00 20.00    -0.130 Cl
ENDBRANCH   1   8
BRANCH   1  10
HETATM   10  C10 UNL     1     -33.883  16.765  -5.451  1.00 20.00    -0.013 C 
HETATM   11  C3  UNL     1     -34.100  16.607  -6.967  1.00 20.00     0.010 C 
HETATM   12  C4  UNL     1     -33.717  18.263  -5.159  1.00 20.00     0.010 C 
ENDBRANCH   1  10
TORSDOF 6
ENDMDL
