MODEL 1
REMARK VINA RESULT:      -4.0      0.000      0.000
REMARK  2 active torsions:
REMARK  status: ('A' for Active; 'I' for Inactive)
REMARK    1  A    between atoms: C4_4  and  C7_7 
REMARK    2  A    between atoms: C4_4  and  C8_8 
ROOT
HETATM    1  C1  UNL     1     -36.317  15.438  -3.967  1.00 20.00     0.039 C 
HETATM    2  C2  UNL     1     -36.495  14.260  -4.907  1.00 20.00     0.168 C 
HETATM    3  C3  UNL     1     -34.306  14.237  -4.103  1.00 20.00     0.178 C 
HETATM    4  C4  UNL     1     -34.814  15.671  -3.988  1.00 20.00    -0.001 C 
HETATM    5  O9  UNL     1     -35.267  13.519  -4.893  1.00 20.00    -0.390 OA
ENDROOT
BRANCH   4   6
HETATM    6  C7  UNL     1     -34.400  16.497  -5.218  1.00 20.00     0.126 C 
HETATM    7 CL10 UNL     1     -33.053  15.707  -6.055  1.00 20.00    -0.130 Cl
ENDBRANCH   4   6
BRANCH   4   8
HETATM    8  C8  UNL     1     -34.312  16.361  -2.720  1.00 20.00    -0.011 C 
HETATM    9  C5  UNL     1     -33.499  17.599  -3.081  1.00 20.00     0.010 C 
HETATM   10  C6  UNL     1     -35.485  16.722  -1.819  1.00 20.00     0.010 C 
ENDBRANCH   4   8
TORSDOF 2
ENDMDL
MODEL 2
REMARK VINA RESULT:      -3.8      1.882      2.552
REMARK  2 active torsions:
REMARK  status: ('A' for Active; 'I' for Inactive)
REMARK    1  A    between atoms: C4_4  and  C7_7 
REMARK    2  A    between atoms: C4_4  and  C8_8 
ROOT
HETATM    1  C1  UNL     1     -33.266  16.248  -4.825  1.00 20.00     0.039 C 
HETATM    2  C2  UNL     1     -33.534  16.171  -6.316  1.00 20.00     0.168 C 
HETATM    3  C3  UNL     1     -35.580  16.148  -5.198  1.00 20.00     0.178 C 
HETATM    4  C4  UNL     1     -34.524  15.646  -4.218  1.00 20.00    -0.001 C 
HETATM    5  O9  UNL     1     -34.958  16.191  -6.491  1.00 20.00    -0.390 OA
ENDROOT
BRANCH   4   6
HETATM    6  C7  UNL     1     -34.460  14.109  -4.224  1.00 20.00     0.126 C 
HETATM    7 CL10 UNL     1     -35.912  13.443  -4.991  1.00 20.00    -0.130 Cl
ENDBRANCH   4   6
BRANCH   4   8
HETATM    8  C8  UNL     1     -34.778  16.138  -2.793  1.00 20.00    -0.011 C 
HETATM    9  C5  UNL     1     -33.609  16.990  -2.314  1.00 20.00     0.010 C 
HETATM   10  C6  UNL     1     -36.084  16.920  -2.732  1.00 20.00     0.010 C 
ENDBRANCH   4   8
TORSDOF 2
ENDMDL
MODEL 3
REMARK VINA RESULT:      -3.8      1.463      1.939
REMARK  2 active torsions:
REMARK  status: ('A' for Active; 'I' for Inactive)
REMARK    1  A    between atoms: C4_4  and  C7_7 
REMARK    2  A    between atoms: C4_4  and  C8_8 
ROOT
HETATM    1  C1  UNL     1     -36.792  15.526  -4.028  1.00 20.00     0.039 C 
HETATM    2  C2  UNL     1     -37.918  14.868  -4.801  1.00 20.00     0.168 C 
HETATM    3  C3  UNL     1     -35.998  13.567  -5.046  1.00 20.00     0.178 C 
HETATM    4  C4  UNL     1     -35.543  14.984  -4.708  1.00 20.00    -0.001 C 
HETATM    5  O9  UNL     1     -37.402  13.641  -5.336  1.00 20.00    -0.390 OA
ENDROOT
BRANCH   4   6
HETATM    6  C7  UNL     1     -35.224  15.774  -5.987  1.00 20.00     0.126 C 
HETATM    7 CL10 UNL     1     -35.117  14.673  -7.372  1.00 20.00    -0.130 Cl
ENDBRANCH   4   6
BRANCH   4   8
HETATM    8  C8  UNL     1     -34.324  14.994  -3.786  1.00 20.00    -0.011 C 
HETATM    9  C5  UNL     1     -33.043  14.900  -4.606  1.00 20.00     0.010 C 
HETATM   10  C6  UNL     1     -34.329  16.249  -2.922  1.00 20.00     0.010 C 
ENDBRANCH   4   8
TORSDOF 2
ENDMDL
MODEL 4
REMARK VINA RESULT:      -3.8     11.052     11.951
REMARK  2 active torsions:
REMARK  status: ('A' for Active; 'I' for Inactive)
REMARK    1  A    between atoms: C4_4  and  C7_7 
REMARK    2  A    between atoms: C4_4  and  C8_8 
ROOT
HETATM    1  C1  UNL     1     -32.142   7.205   3.608  1.00 20.00     0.039 C 
HETATM    2  C2  UNL     1     -31.755   7.978   2.361  1.00 20.00     0.168 C 
HETATM    3  C3  UNL     1     -33.996   8.417   2.835  1.00 20.00     0.178 C 
HETATM    4  C4  UNL     1     -33.652   7.077   3.480  1.00 20.00    -0.001 C 
HETATM    5  O9  UNL     1     -32.896   8.758   1.977  1.00 20.00    -0.390 OA
ENDROOT
BRANCH   4   6
HETATM    6  C7  UNL     1     -34.031   5.911   2.552  1.00 20.00     0.126 C 
HETATM    7 CL10 UNL     1     -32.763   4.673   2.583  1.00 20.00    -0.130 Cl
ENDBRANCH   4   6
BRANCH   4   8
HETATM    8  C8  UNL     1     -34.340   6.895   4.833  1.00 20.00    -0.011 C 
HETATM    9  C5  UNL     1     -34.675   5.426   5.060  1.00 20.00     0.010 C 
HETATM   10  C6  UNL     1     -33.454   7.431   5.950  1.00 20.00     0.010 C 
ENDBRANCH   4   8
TORSDOF 2
ENDMDL
MODEL 5
REMARK VINA RESULT:      -3.8      2.176      2.916
REMARK  2 active torsions:
REMARK  status: ('A' for Active; 'I' for Inactive)
REMARK    1  A    between atoms: C4_4  and  C7_7 
REMARK    2  A    between atoms: C4_4  and  C8_8 
ROOT
HETATM    1  C1  UNL     1     -34.906  14.913  -6.634  1.00 20.00     0.039 C 
HETATM    2  C2  UNL     1     -34.498  13.516  -7.062  1.00 20.00     0.168 C 
HETATM    3  C3  UNL     1     -36.029  13.333  -5.312  1.00 20.00     0.178 C 
HETATM    4  C4  UNL     1     -35.381  14.710  -5.203  1.00 20.00    -0.001 C 
HETATM    5  O9  UNL     1     -35.268  12.593  -6.280  1.00 20.00    -0.390 OA
ENDROOT
BRANCH   4   6
HETATM    6  C7  UNL     1     -34.193  14.678  -4.226  1.00 20.00     0.126 C 
HETATM    7 CL10 UNL     1     -34.366  15.962  -3.017  1.00 20.00    -0.130 Cl
ENDBRANCH   4   6
BRANCH   4   8
HETATM    8  C8  UNL     1     -36.375  15.782  -4.760  1.00 20.00    -0.011 C 
HETATM    9  C5  UNL     1     -36.513  16.851  -5.837  1.00 20.00     0.010 C 
HETATM   10  C6  UNL     1     -37.724  15.150  -4.444  1.00 20.00     0.010 C 
ENDBRANCH   4   8
TORSDOF 2
ENDMDL
MODEL 6
REMARK VINA RESULT:      -3.6     11.126     12.159
REMARK  2 active torsions:
REMARK  status: ('A' for Active; 'I' for Inactive)
REMARK    1  A    between atoms: C4_4  and  C7_7 
REMARK    2  A    between atoms: C4_4  and  C8_8 
ROOT
HETATM    1  C1  UNL     1     -33.409   7.290   1.986  1.00 20.00     0.039 C 
HETATM    2  C2  UNL     1     -32.706   8.631   1.899  1.00 20.00     0.168 C 
HETATM    3  C3  UNL     1     -31.789   7.433   3.677  1.00 20.00     0.178 C 
HETATM    4  C4  UNL     1     -33.190   6.879   3.435  1.00 20.00    -0.001 C 
HETATM    5  O9  UNL     1     -31.678   8.635   2.900  1.00 20.00    -0.390 OA
ENDROOT
BRANCH   4   6
HETATM    6  C7  UNL     1     -34.212   7.558   4.362  1.00 20.00     0.126 C 
HETATM    7 CL10 UNL     1     -33.625   7.538   6.033  1.00 20.00    -0.130 Cl
ENDBRANCH   4   6
BRANCH   4   8
HETATM    8  C8  UNL     1     -33.254   5.365   3.629  1.00 20.00    -0.011 C 
HETATM    9  C5  UNL     1     -34.610   4.964   4.197  1.00 20.00     0.010 C 
HETATM   10  C6  UNL     1     -32.984   4.653   2.310  1.00 20.00     0.010 C 
ENDBRANCH   4   8
TORSDOF 2
ENDMDL
MODEL 7
REMARK VINA RESULT:      -3.6      1.501      1.848
REMARK  2 active torsions:
REMARK  status: ('A' for Active; 'I' for Inactive)
REMARK    1  A    between atoms: C4_4  and  C7_7 
REMARK    2  A    between atoms: C4_4  and  C8_8 
ROOT
HETATM    1  C1  UNL     1     -35.333  17.743  -4.259  1.00 20.00     0.039 C 
HETATM    2  C2  UNL     1     -36.175  17.220  -5.407  1.00 20.00     0.168 C 
HETATM    3  C3  UNL     1     -35.734  15.451  -3.953  1.00 20.00     0.178 C 
HETATM    4  C4  UNL     1     -34.637  16.491  -3.744  1.00 20.00    -0.001 C 
HETATM    5  O9  UNL     1     -36.455  15.841  -5.132  1.00 20.00    -0.390 OA
ENDROOT
BRANCH   4   6
HETATM    6  C7  UNL     1     -33.400  16.158  -4.595  1.00 20.00     0.126 C 
HETATM    7 CL10 UNL     1     -32.919  14.473  -4.334  1.00 20.00    -0.130 Cl
ENDBRANCH   4   6
BRANCH   4   8
HETATM    8  C8  UNL     1     -34.228  16.611  -2.277  1.00 20.00    -0.011 C 
HETATM    9  C5  UNL     1     -33.193  17.718  -2.108  1.00 20.00     0.010 C 
HETATM   10  C6  UNL     1     -35.452  16.872  -1.409  1.00 20.00     0.010 C 
ENDBRANCH   4   8
TORSDOF 2
ENDMDL
MODEL 8
REMARK VINA RESULT:      -3.5      2.264      3.680
REMARK  2 active torsions:
REMARK  status: ('A' for Active; 'I' for Inactive)
REMARK    1  A    between atoms: C4_4  and  C7_7 
REMARK    2  A    between atoms: C4_4  and  C8_8 
ROOT
HETATM    1  C1  UNL     1     -36.571  13.899  -5.298  1.00 20.00     0.039 C 
HETATM    2  C2  UNL     1     -37.415  14.932  -4.577  1.00 20.00     0.168 C 
HETATM    3  C3  UNL     1     -35.604  16.020  -5.563  1.00 20.00     0.178 C 
HETATM    4  C4  UNL     1     -35.203  14.561  -5.369  1.00 20.00    -0.001 C 
HETATM    5  O9  UNL     1     -36.826  16.214  -4.835  1.00 20.00    -0.390 OA
ENDROOT
BRANCH   4   6
HETATM    6  C7  UNL     1     -34.431  14.378  -4.051  1.00 20.00     0.126 C 
HETATM    7 CL10 UNL     1     -33.602  15.883  -3.618  1.00 20.00    -0.130 Cl
ENDBRANCH   4   6
BRANCH   4   8
HETATM    8  C8  UNL     1     -34.359  14.035  -6.529  1.00 20.00    -0.011 C 
HETATM    9  C5  UNL     1     -35.168  13.049  -7.364  1.00 20.00     0.010 C 
HETATM   10  C6  UNL     1     -33.860  15.192  -7.384  1.00 20.00     0.010 C 
ENDBRANCH   4   8
TORSDOF 2
ENDMDL
MODEL 9
REMARK VINA RESULT:      -3.5      2.392      3.180
REMARK  2 active torsions:
REMARK  status: ('A' for Active; 'I' for Inactive)
REMARK    1  A    between atoms: C4_4  and  C7_7 
REMARK    2  A    between atoms: C4_4  and  C8_8 
ROOT
HETATM    1  C1  UNL     1     -35.201  14.659  -5.076  1.00 20.00     0.039 C 
HETATM    2  C2  UNL     1     -35.891  13.314  -5.194  1.00 20.00     0.168 C 
HETATM    3  C3  UNL     1     -34.486  13.585  -7.036  1.00 20.00     0.178 C 
HETATM    4  C4  UNL     1     -34.821  14.979  -6.514  1.00 20.00    -0.001 C 
HETATM    5  O9  UNL     1     -35.363  12.669  -6.361  1.00 20.00    -0.390 OA
ENDROOT
BRANCH   4   6
HETATM    6  C7  UNL     1     -36.013  15.577  -7.280  1.00 20.00     0.126 C 
HETATM    7 CL10 UNL     1     -37.029  16.525  -6.181  1.00 20.00    -0.130 Cl
ENDBRANCH   4   6
BRANCH   4   8
HETATM    8  C8  UNL     1     -33.629  15.932  -6.605  1.00 20.00    -0.011 C 
HETATM    9  C5  UNL     1     -33.875  16.982  -7.682  1.00 20.00     0.010 C 
HETATM   10  C6  UNL     1     -33.373  16.586  -5.254  1.00 20.00     0.010 C 
ENDBRANCH   4   8
TORSDOF 2
ENDMDL
