MODEL 1
REMARK VINA RESULT:      -5.1      0.000      0.000
REMARK  2 active torsions:
REMARK  status: ('A' for Active; 'I' for Inactive)
REMARK    1  A    between atoms: C4_4  and  C7_7 
REMARK    2  A    between atoms: C7_7  and  C8_8 
ROOT
HETATM    1  C1  UNL     1     -33.300   8.146   1.676  1.00 20.00     0.033 C 
HETATM    2  C2  UNL     1     -32.191   9.167   1.810  1.00 20.00     0.168 C 
HETATM    3  C3  UNL     1     -31.814   7.467   3.359  1.00 20.00     0.172 C 
HETATM    4  C4  UNL     1     -33.300   7.510   3.048  1.00 20.00     0.016 C 
HETATM    5  O9  UNL     1     -31.235   8.621   2.731  1.00 20.00    -0.391 OA
ENDROOT
BRANCH   4   6
HETATM    6  C7  UNL     1     -33.976   6.154   3.106  1.00 20.00     0.002 C 
HETATM    7  C5  UNL     1     -32.990   5.074   2.724  1.00 20.00     0.011 C 
BRANCH   6   8
HETATM    8  C8  UNL     1     -34.641   5.935   4.480  1.00 20.00     0.058 C 
HETATM    9  C6  UNL     1     -34.575   4.520   5.037  1.00 20.00     0.022 C 
HETATM   10 BR10 UNL     1     -33.865   7.162   5.808  1.00 20.00    -0.091 Br
ENDBRANCH   6   8
ENDBRANCH   4   6
TORSDOF 2
ENDMDL
MODEL 2
REMARK VINA RESULT:      -4.8      1.408      2.307
REMARK  2 active torsions:
REMARK  status: ('A' for Active; 'I' for Inactive)
REMARK    1  A    between atoms: C4_4  and  C7_7 
REMARK    2  A    between atoms: C7_7  and  C8_8 
ROOT
HETATM    1  C1  UNL     1     -31.665   8.481   0.728  1.00 20.00     0.033 C 
HETATM    2  C2  UNL     1     -32.036   9.748  -0.013  1.00 20.00     0.168 C 
HETATM    3  C3  UNL     1     -32.875   9.896   2.155  1.00 20.00     0.172 C 
HETATM    4  C4  UNL     1     -32.734   8.426   1.796  1.00 20.00     0.016 C 
HETATM    5  O9  UNL     1     -32.626  10.634   0.950  1.00 20.00    -0.391 OA
ENDROOT
BRANCH   4   6
HETATM    6  C7  UNL     1     -32.390   7.539   2.977  1.00 20.00     0.002 C 
HETATM    7  C5  UNL     1     -31.487   8.285   3.931  1.00 20.00     0.011 C 
BRANCH   6   8
HETATM    8  C8  UNL     1     -33.671   6.984   3.633  1.00 20.00     0.058 C 
HETATM    9  C6  UNL     1     -33.973   5.515   3.375  1.00 20.00     0.022 C 
HETATM   10 BR10 UNL     1     -33.612   7.273   5.578  1.00 20.00    -0.091 Br
ENDBRANCH   6   8
ENDBRANCH   4   6
TORSDOF 2
ENDMDL
MODEL 3
REMARK VINA RESULT:      -4.7      2.547      4.349
REMARK  2 active torsions:
REMARK  status: ('A' for Active; 'I' for Inactive)
REMARK    1  A    between atoms: C4_4  and  C7_7 
REMARK    2  A    between atoms: C7_7  and  C8_8 
ROOT
HETATM    1  C1  UNL     1     -34.100   6.894   4.502  1.00 20.00     0.033 C 
HETATM    2  C2  UNL     1     -34.526   5.445   4.399  1.00 20.00     0.168 C 
HETATM    3  C3  UNL     1     -32.985   5.877   2.705  1.00 20.00     0.172 C 
HETATM    4  C4  UNL     1     -33.659   7.185   3.084  1.00 20.00     0.016 C 
HETATM    5  O9  UNL     1     -33.697   4.839   3.396  1.00 20.00    -0.391 OA
ENDROOT
BRANCH   4   6
HETATM    6  C7  UNL     1     -32.758   8.398   2.949  1.00 20.00     0.002 C 
HETATM    7  C5  UNL     1     -31.354   8.041   3.378  1.00 20.00     0.011 C 
BRANCH   6   8
HETATM    8  C8  UNL     1     -32.847   8.985   1.526  1.00 20.00     0.058 C 
HETATM    9  C6  UNL     1     -33.052  10.491   1.436  1.00 20.00     0.022 C 
HETATM   10 BR10 UNL     1     -31.235   8.517   0.501  1.00 20.00    -0.091 Br
ENDBRANCH   6   8
ENDBRANCH   4   6
TORSDOF 2
ENDMDL
MODEL 4
REMARK VINA RESULT:      -4.6      1.198      1.383
REMARK  2 active torsions:
REMARK  status: ('A' for Active; 'I' for Inactive)
REMARK    1  A    between atoms: C4_4  and  C7_7 
REMARK    2  A    between atoms: C7_7  and  C8_8 
ROOT
HETATM    1  C1  UNL     1     -33.246   8.232   1.647  1.00 20.00     0.033 C 
HETATM    2  C2  UNL     1     -32.148   9.263   1.498  1.00 20.00     0.168 C 
HETATM    3  C3  UNL     1     -31.631   7.901   3.316  1.00 20.00     0.172 C 
HETATM    4  C4  UNL     1     -33.136   7.877   3.113  1.00 20.00     0.016 C 
HETATM    5  O9  UNL     1     -31.119   8.912   2.435  1.00 20.00    -0.391 OA
ENDROOT
BRANCH   4   6
HETATM    6  C7  UNL     1     -33.782   6.556   3.485  1.00 20.00     0.002 C 
HETATM    7  C5  UNL     1     -33.268   5.463   2.576  1.00 20.00     0.011 C 
BRANCH   6   8
HETATM    8  C8  UNL     1     -33.594   6.261   4.986  1.00 20.00     0.058 C 
HETATM    9  C6  UNL     1     -33.882   7.416   5.936  1.00 20.00     0.022 C 
HETATM   10 BR10 UNL     1     -34.708   4.729   5.517  1.00 20.00    -0.091 Br
ENDBRANCH   6   8
ENDBRANCH   4   6
TORSDOF 2
ENDMDL
MODEL 5
REMARK VINA RESULT:      -4.5      2.587      4.094
REMARK  2 active torsions:
REMARK  status: ('A' for Active; 'I' for Inactive)
REMARK    1  A    between atoms: C4_4  and  C7_7 
REMARK    2  A    between atoms: C7_7  and  C8_8 
ROOT
HETATM    1  C1  UNL     1     -34.374   4.976   4.179  1.00 20.00     0.033 C 
HETATM    2  C2  UNL     1     -34.714   4.964   5.654  1.00 20.00     0.168 C 
HETATM    3  C3  UNL     1     -33.889   7.074   5.111  1.00 20.00     0.172 C 
HETATM    4  C4  UNL     1     -33.333   6.072   4.114  1.00 20.00     0.016 C 
HETATM    5  O9  UNL     1     -34.552   6.309   6.129  1.00 20.00    -0.391 OA
ENDROOT
BRANCH   4   6
HETATM    6  C7  UNL     1     -33.117   6.645   2.727  1.00 20.00     0.002 C 
HETATM    7  C5  UNL     1     -34.374   6.478   1.905  1.00 20.00     0.011 C 
BRANCH   6   8
HETATM    8  C8  UNL     1     -32.614   8.100   2.810  1.00 20.00     0.058 C 
HETATM    9  C6  UNL     1     -31.266   8.304   3.489  1.00 20.00     0.022 C 
HETATM   10 BR10 UNL     1     -32.528   8.888   1.010  1.00 20.00    -0.091 Br
ENDBRANCH   6   8
ENDBRANCH   4   6
TORSDOF 2
ENDMDL
MODEL 6
REMARK VINA RESULT:      -4.5      2.272      4.171
REMARK  2 active torsions:
REMARK  status: ('A' for Active; 'I' for Inactive)
REMARK    1  A    between atoms: C4_4  and  C7_7 
REMARK    2  A    between atoms: C7_7  and  C8_8 
ROOT
HETATM    1  C1  UNL     1     -34.511   5.479   5.024  1.00 20.00     0.033 C 
HETATM    2  C2  UNL     1     -34.551   4.014   4.646  1.00 20.00     0.168 C 
HETATM    3  C3  UNL     1     -33.378   5.164   2.994  1.00 20.00     0.172 C 
HETATM    4  C4  UNL     1     -34.324   6.138   3.676  1.00 20.00     0.016 C 
HETATM    5  O9  UNL     1     -33.711   3.859   3.493  1.00 20.00    -0.391 OA
ENDROOT
BRANCH   4   6
HETATM    6  C7  UNL     1     -33.794   7.557   3.745  1.00 20.00     0.002 C 
HETATM    7  C5  UNL     1     -33.403   7.888   5.167  1.00 20.00     0.011 C 
BRANCH   6   8
HETATM    8  C8  UNL     1     -32.660   7.766   2.721  1.00 20.00     0.058 C 
HETATM    9  C6  UNL     1     -32.949   8.746   1.593  1.00 20.00     0.022 C 
HETATM   10 BR10 UNL     1     -31.019   8.345   3.640  1.00 20.00    -0.091 Br
ENDBRANCH   6   8
ENDBRANCH   4   6
TORSDOF 2
ENDMDL
MODEL 7
REMARK VINA RESULT:      -4.4      2.732      4.133
REMARK  2 active torsions:
REMARK  status: ('A' for Active; 'I' for Inactive)
REMARK    1  A    between atoms: C4_4  and  C7_7 
REMARK    2  A    between atoms: C7_7  and  C8_8 
ROOT
HETATM    1  C1  UNL     1     -33.765   6.932   5.263  1.00 20.00     0.033 C 
HETATM    2  C2  UNL     1     -34.638   6.117   6.193  1.00 20.00     0.168 C 
HETATM    3  C3  UNL     1     -34.357   4.918   4.216  1.00 20.00     0.172 C 
HETATM    4  C4  UNL     1     -34.174   6.395   3.910  1.00 20.00     0.016 C 
HETATM    5  O9  UNL     1     -34.831   4.839   5.568  1.00 20.00    -0.391 OA
ENDROOT
BRANCH   4   6
HETATM    6  C7  UNL     1     -33.176   6.671   2.802  1.00 20.00     0.002 C 
HETATM    7  C5  UNL     1     -33.792   6.335   1.464  1.00 20.00     0.011 C 
BRANCH   6   8
HETATM    8  C8  UNL     1     -32.641   8.114   2.899  1.00 20.00     0.058 C 
HETATM    9  C6  UNL     1     -31.302   8.285   3.604  1.00 20.00     0.022 C 
HETATM   10 BR10 UNL     1     -32.501   8.903   1.102  1.00 20.00    -0.091 Br
ENDBRANCH   6   8
ENDBRANCH   4   6
TORSDOF 2
ENDMDL
MODEL 8
REMARK VINA RESULT:      -4.4     11.284     12.019
REMARK  2 active torsions:
REMARK  status: ('A' for Active; 'I' for Inactive)
REMARK    1  A    between atoms: C4_4  and  C7_7 
REMARK    2  A    between atoms: C7_7  and  C8_8 
ROOT
HETATM    1  C1  UNL     1     -33.840  17.416  -1.218  1.00 20.00     0.033 C 
HETATM    2  C2  UNL     1     -32.859  18.569  -1.234  1.00 20.00     0.168 C 
HETATM    3  C3  UNL     1     -33.408  18.044  -3.437  1.00 20.00     0.172 C 
HETATM    4  C4  UNL     1     -33.617  16.805  -2.583  1.00 20.00     0.016 C 
HETATM    5  O9  UNL     1     -32.761  19.011  -2.596  1.00 20.00    -0.391 OA
ENDROOT
BRANCH   4   6
HETATM    6  C7  UNL     1     -34.750  15.917  -3.061  1.00 20.00     0.002 C 
HETATM    7  C5  UNL     1     -36.033  16.714  -3.119  1.00 20.00     0.011 C 
BRANCH   6   8
HETATM    8  C8  UNL     1     -34.380  15.230  -4.390  1.00 20.00     0.058 C 
HETATM    9  C6  UNL     1     -33.066  14.462  -4.404  1.00 20.00     0.022 C 
HETATM   10 BR10 UNL     1     -35.819  14.006  -4.940  1.00 20.00    -0.091 Br
ENDBRANCH   6   8
ENDBRANCH   4   6
TORSDOF 2
ENDMDL
MODEL 9
REMARK VINA RESULT:      -4.4      1.335      1.923
REMARK  2 active torsions:
REMARK  status: ('A' for Active; 'I' for Inactive)
REMARK    1  A    between atoms: C4_4  and  C7_7 
REMARK    2  A    between atoms: C7_7  and  C8_8 
ROOT
HETATM    1  C1  UNL     1     -33.350   7.855   1.998  1.00 20.00     0.033 C 
HETATM    2  C2  UNL     1     -32.560   8.892   1.229  1.00 20.00     0.168 C 
HETATM    3  C3  UNL     1     -31.359   8.329   3.145  1.00 20.00     0.172 C 
HETATM    4  C4  UNL     1     -32.831   8.056   3.404  1.00 20.00     0.016 C 
HETATM    5  O9  UNL     1     -31.291   9.019   1.887  1.00 20.00    -0.391 OA
ENDROOT
BRANCH   4   6
HETATM    6  C7  UNL     1     -33.080   6.882   4.333  1.00 20.00     0.002 C 
HETATM    7  C5  UNL     1     -33.716   7.371   5.613  1.00 20.00     0.011 C 
BRANCH   6   8
HETATM    8  C8  UNL     1     -33.885   5.781   3.615  1.00 20.00     0.058 C 
HETATM    9  C6  UNL     1     -33.083   4.828   2.740  1.00 20.00     0.022 C 
HETATM   10 BR10 UNL     1     -34.893   4.718   4.929  1.00 20.00    -0.091 Br
ENDBRANCH   6   8
ENDBRANCH   4   6
TORSDOF 2
ENDMDL
