MODEL 1
REMARK VINA RESULT:      -4.0      0.000      0.000
REMARK  4 active torsions:
REMARK  status: ('A' for Active; 'I' for Inactive)
REMARK    1  A    between atoms: C5_5  and  C8_8 
REMARK    2  A    between atoms: C6_6  and  C8_8 
REMARK    3  A    between atoms: C7_7  and  C8_8 
REMARK    4  A    between atoms: C7_7  and  S10_10 
ROOT
HETATM    1  C1  UNL     1     -33.474   7.588   5.098  1.00 20.00     0.074 C 
HETATM    2  C7  UNL     1     -33.480   7.488   3.625  1.00 20.00     0.157 C 
HETATM    3  N9  UNL     1     -33.477   7.668   6.256  1.00 20.00    -0.196 NA
ENDROOT
BRANCH   2   4
HETATM    4  C8  UNL     1     -33.971   6.088   3.150  1.00 20.00     0.012 C 
BRANCH   4   5
HETATM    5  C5  UNL     1     -35.115   5.521   4.033  1.00 20.00     0.002 C 
HETATM    6  C2  UNL     1     -34.657   4.438   5.004  1.00 20.00     0.005 C 
ENDBRANCH   4   5
BRANCH   4   7
HETATM    7  C6  UNL     1     -32.825   5.050   3.020  1.00 20.00     0.002 C 
HETATM    8  C3  UNL     1     -32.965   4.104   1.834  1.00 20.00     0.005 C 
ENDBRANCH   4   7
ENDBRANCH   2   4
BRANCH   2   9
HETATM    9  S10 UNL     1     -31.851   7.981   2.948  1.00 20.00    -0.154 SA
HETATM   10  C4  UNL     1     -32.448   8.904   1.516  1.00 20.00     0.091 C 
ENDBRANCH   2   9
TORSDOF 4
ENDMDL
MODEL 2
REMARK VINA RESULT:      -4.0     11.888     12.640
REMARK  4 active torsions:
REMARK  status: ('A' for Active; 'I' for Inactive)
REMARK    1  A    between atoms: C5_5  and  C8_8 
REMARK    2  A    between atoms: C6_6  and  C8_8 
REMARK    3  A    between atoms: C7_7  and  C8_8 
REMARK    4  A    between atoms: C7_7  and  S10_10 
ROOT
HETATM    1  C1  UNL     1     -35.853  13.884  -4.995  1.00 20.00     0.074 C 
HETATM    2  C7  UNL     1     -35.817  15.305  -4.594  1.00 20.00     0.157 C 
HETATM    3  N9  UNL     1     -35.875  12.769  -5.316  1.00 20.00    -0.196 NA
ENDROOT
BRANCH   2   4
HETATM    4  C8  UNL     1     -34.855  15.533  -3.389  1.00 20.00     0.012 C 
BRANCH   4   5
HETATM    5  C5  UNL     1     -35.431  16.523  -2.340  1.00 20.00     0.002 C 
HETATM    6  C2  UNL     1     -34.371  17.127  -1.425  1.00 20.00     0.005 C 
ENDBRANCH   4   5
BRANCH   4   7
HETATM    7  C6  UNL     1     -33.430  15.971  -3.818  1.00 20.00     0.002 C 
HETATM    8  C3  UNL     1     -33.362  16.633  -5.189  1.00 20.00     0.005 C 
ENDBRANCH   4   7
ENDBRANCH   2   4
BRANCH   2   9
HETATM    9  S10 UNL     1     -37.517  15.933  -4.324  1.00 20.00    -0.154 SA
HETATM   10  C4  UNL     1     -38.187  15.535  -5.952  1.00 20.00     0.091 C 
ENDBRANCH   2   9
TORSDOF 4
ENDMDL
MODEL 3
REMARK VINA RESULT:      -4.0     11.719     12.643
REMARK  4 active torsions:
REMARK  status: ('A' for Active; 'I' for Inactive)
REMARK    1  A    between atoms: C5_5  and  C8_8 
REMARK    2  A    between atoms: C6_6  and  C8_8 
REMARK    3  A    between atoms: C7_7  and  C8_8 
REMARK    4  A    between atoms: C7_7  and  S10_10 
ROOT
HETATM    1  C1  UNL     1     -34.083  14.796  -3.991  1.00 20.00     0.074 C 
HETATM    2  C7  UNL     1     -33.530  16.157  -3.844  1.00 20.00     0.157 C 
HETATM    3  N9  UNL     1     -34.510  13.723  -4.105  1.00 20.00    -0.196 NA
ENDROOT
BRANCH   2   4
HETATM    4  C8  UNL     1     -33.789  16.727  -2.417  1.00 20.00     0.012 C 
BRANCH   4   5
HETATM    5  C5  UNL     1     -35.290  16.693  -2.020  1.00 20.00     0.002 C 
HETATM    6  C2  UNL     1     -35.560  17.206  -0.610  1.00 20.00     0.005 C 
ENDBRANCH   4   5
BRANCH   4   7
HETATM    7  C6  UNL     1     -33.210  18.151  -2.212  1.00 20.00     0.002 C 
HETATM    8  C3  UNL     1     -32.340  18.303  -0.970  1.00 20.00     0.005 C 
ENDBRANCH   4   7
ENDBRANCH   2   4
BRANCH   2   9
HETATM    9  S10 UNL     1     -34.127  17.236  -5.200  1.00 20.00    -0.154 SA
HETATM   10  C4  UNL     1     -33.609  16.200  -6.585  1.00 20.00     0.091 C 
ENDBRANCH   2   9
TORSDOF 4
ENDMDL
MODEL 4
REMARK VINA RESULT:      -3.9     11.548     12.537
REMARK  4 active torsions:
REMARK  status: ('A' for Active; 'I' for Inactive)
REMARK    1  A    between atoms: C5_5  and  C8_8 
REMARK    2  A    between atoms: C6_6  and  C8_8 
REMARK    3  A    between atoms: C7_7  and  C8_8 
REMARK    4  A    between atoms: C7_7  and  S10_10 
ROOT
HETATM    1  C1  UNL     1     -35.277  13.785  -4.704  1.00 20.00     0.074 C 
HETATM    2  C7  UNL     1     -34.479  14.832  -4.035  1.00 20.00     0.157 C 
HETATM    3  N9  UNL     1     -35.905  12.959  -5.222  1.00 20.00    -0.196 NA
ENDROOT
BRANCH   2   4
HETATM    4  C8  UNL     1     -35.364  16.046  -3.620  1.00 20.00     0.012 C 
BRANCH   4   5
HETATM    5  C5  UNL     1     -35.167  16.452  -2.134  1.00 20.00     0.002 C 
HETATM    6  C2  UNL     1     -33.827  17.126  -1.859  1.00 20.00     0.005 C 
ENDBRANCH   4   5
BRANCH   4   7
HETATM    7  C6  UNL     1     -36.871  15.837  -3.926  1.00 20.00     0.002 C 
HETATM    8  C3  UNL     1     -37.438  16.792  -4.970  1.00 20.00     0.005 C 
ENDBRANCH   4   7
ENDBRANCH   2   4
BRANCH   2   9
HETATM    9  S10 UNL     1     -33.028  15.280  -5.061  1.00 20.00    -0.154 SA
HETATM   10  C4  UNL     1     -33.924  15.794  -6.542  1.00 20.00     0.091 C 
ENDBRANCH   2   9
TORSDOF 4
ENDMDL
MODEL 5
REMARK VINA RESULT:      -3.8     11.563     12.550
REMARK  4 active torsions:
REMARK  status: ('A' for Active; 'I' for Inactive)
REMARK    1  A    between atoms: C5_5  and  C8_8 
REMARK    2  A    between atoms: C6_6  and  C8_8 
REMARK    3  A    between atoms: C7_7  and  C8_8 
REMARK    4  A    between atoms: C7_7  and  S10_10 
ROOT
HETATM    1  C1  UNL     1     -35.239  13.764  -4.725  1.00 20.00     0.074 C 
HETATM    2  C7  UNL     1     -34.406  14.786  -4.060  1.00 20.00     0.157 C 
HETATM    3  N9  UNL     1     -35.894  12.956  -5.240  1.00 20.00    -0.196 NA
ENDROOT
BRANCH   2   4
HETATM    4  C8  UNL     1     -35.280  15.831  -3.303  1.00 20.00     0.012 C 
BRANCH   4   5
HETATM    5  C5  UNL     1     -36.052  16.776  -4.264  1.00 20.00     0.002 C 
HETATM    6  C2  UNL     1     -37.568  16.649  -4.157  1.00 20.00     0.005 C 
ENDBRANCH   4   5
BRANCH   4   7
HETATM    7  C6  UNL     1     -34.482  16.657  -2.261  1.00 20.00     0.002 C 
HETATM    8  C3  UNL     1     -35.290  17.076  -1.039  1.00 20.00     0.005 C 
ENDBRANCH   4   7
ENDBRANCH   2   4
BRANCH   2   9
HETATM    9  S10 UNL     1     -33.227  15.521  -5.254  1.00 20.00    -0.154 SA
HETATM   10  C4  UNL     1     -34.063  15.011  -6.771  1.00 20.00     0.091 C 
ENDBRANCH   2   9
TORSDOF 4
ENDMDL
MODEL 6
REMARK VINA RESULT:      -3.7     11.854     12.721
REMARK  4 active torsions:
REMARK  status: ('A' for Active; 'I' for Inactive)
REMARK    1  A    between atoms: C5_5  and  C8_8 
REMARK    2  A    between atoms: C6_6  and  C8_8 
REMARK    3  A    between atoms: C7_7  and  C8_8 
REMARK    4  A    between atoms: C7_7  and  S10_10 
ROOT
HETATM    1  C1  UNL     1     -35.928  13.920  -5.241  1.00 20.00     0.074 C 
HETATM    2  C7  UNL     1     -36.026  15.391  -5.177  1.00 20.00     0.157 C 
HETATM    3  N9  UNL     1     -35.847  12.763  -5.299  1.00 20.00    -0.196 NA
ENDROOT
BRANCH   2   4
HETATM    4  C8  UNL     1     -34.740  16.023  -4.565  1.00 20.00     0.012 C 
BRANCH   4   5
HETATM    5  C5  UNL     1     -33.441  15.525  -5.254  1.00 20.00     0.002 C 
HETATM    6  C2  UNL     1     -32.646  14.532  -4.412  1.00 20.00     0.005 C 
ENDBRANCH   4   5
BRANCH   4   7
HETATM    7  C6  UNL     1     -34.639  15.840  -3.028  1.00 20.00     0.002 C 
HETATM    8  C3  UNL     1     -34.186  17.085  -2.275  1.00 20.00     0.005 C 
ENDBRANCH   4   7
ENDBRANCH   2   4
BRANCH   2   9
HETATM    9  S10 UNL     1     -37.577  15.889  -4.337  1.00 20.00    -0.154 SA
HETATM   10  C4  UNL     1     -38.705  14.808  -5.243  1.00 20.00     0.091 C 
ENDBRANCH   2   9
TORSDOF 4
ENDMDL
MODEL 7
REMARK VINA RESULT:      -3.7     11.865     12.699
REMARK  4 active torsions:
REMARK  status: ('A' for Active; 'I' for Inactive)
REMARK    1  A    between atoms: C5_5  and  C8_8 
REMARK    2  A    between atoms: C6_6  and  C8_8 
REMARK    3  A    between atoms: C7_7  and  C8_8 
REMARK    4  A    between atoms: C7_7  and  S10_10 
ROOT
HETATM    1  C1  UNL     1     -37.035  14.502  -4.938  1.00 20.00     0.074 C 
HETATM    2  C7  UNL     1     -35.609  14.776  -5.206  1.00 20.00     0.157 C 
HETATM    3  N9  UNL     1     -38.154  14.283  -4.722  1.00 20.00    -0.196 NA
ENDROOT
BRANCH   2   4
HETATM    4  C8  UNL     1     -35.089  15.975  -4.357  1.00 20.00     0.012 C 
BRANCH   4   5
HETATM    5  C5  UNL     1     -33.616  15.793  -3.901  1.00 20.00     0.002 C 
HETATM    6  C2  UNL     1     -33.026  14.436  -4.270  1.00 20.00     0.005 C 
ENDBRANCH   4   5
BRANCH   4   7
HETATM    7  C6  UNL     1     -35.994  16.301  -3.140  1.00 20.00     0.002 C 
HETATM    8  C3  UNL     1     -35.233  16.678  -1.874  1.00 20.00     0.005 C 
ENDBRANCH   4   7
ENDBRANCH   2   4
BRANCH   2   9
HETATM    9  S10 UNL     1     -35.322  14.953  -7.007  1.00 20.00    -0.154 SA
HETATM   10  C4  UNL     1     -34.925  13.228  -7.363  1.00 20.00     0.091 C 
ENDBRANCH   2   9
TORSDOF 4
ENDMDL
MODEL 8
REMARK VINA RESULT:      -3.6     12.150     12.858
REMARK  4 active torsions:
REMARK  status: ('A' for Active; 'I' for Inactive)
REMARK    1  A    between atoms: C5_5  and  C8_8 
REMARK    2  A    between atoms: C6_6  and  C8_8 
REMARK    3  A    between atoms: C7_7  and  C8_8 
REMARK    4  A    between atoms: C7_7  and  S10_10 
ROOT
HETATM    1  C1  UNL     1     -36.045  17.071  -4.979  1.00 20.00     0.074 C 
HETATM    2  C7  UNL     1     -36.188  15.921  -4.065  1.00 20.00     0.157 C 
HETATM    3  N9  UNL     1     -35.937  17.980  -5.693  1.00 20.00    -0.196 NA
ENDROOT
BRANCH   2   4
HETATM    4  C8  UNL     1     -34.932  15.756  -3.156  1.00 20.00     0.012 C 
BRANCH   4   5
HETATM    5  C5  UNL     1     -34.957  16.697  -1.921  1.00 20.00     0.002 C 
HETATM    6  C2  UNL     1     -33.616  17.367  -1.639  1.00 20.00     0.005 C 
ENDBRANCH   4   5
BRANCH   4   7
HETATM    7  C6  UNL     1     -33.595  15.912  -3.927  1.00 20.00     0.002 C 
HETATM    8  C3  UNL     1     -32.983  14.598  -4.396  1.00 20.00     0.005 C 
ENDBRANCH   4   7
ENDBRANCH   2   4
BRANCH   2   9
HETATM    9  S10 UNL     1     -36.637  14.413  -5.004  1.00 20.00    -0.154 SA
HETATM   10  C4  UNL     1     -38.422  14.677  -5.054  1.00 20.00     0.091 C 
ENDBRANCH   2   9
TORSDOF 4
ENDMDL
MODEL 9
REMARK VINA RESULT:      -3.5     11.975     12.861
REMARK  4 active torsions:
REMARK  status: ('A' for Active; 'I' for Inactive)
REMARK    1  A    between atoms: C5_5  and  C8_8 
REMARK    2  A    between atoms: C6_6  and  C8_8 
REMARK    3  A    between atoms: C7_7  and  C8_8 
REMARK    4  A    between atoms: C7_7  and  S10_10 
ROOT
HETATM    1  C1  UNL     1     -33.121  14.811  -4.430  1.00 20.00     0.074 C 
HETATM    2  C7  UNL     1     -33.348  16.258  -4.615  1.00 20.00     0.157 C 
HETATM    3  N9  UNL     1     -32.936  13.675  -4.280  1.00 20.00    -0.196 NA
ENDROOT
BRANCH   2   4
HETATM    4  C8  UNL     1     -34.279  16.836  -3.507  1.00 20.00     0.012 C 
BRANCH   4   5
HETATM    5  C5  UNL     1     -33.526  17.123  -2.180  1.00 20.00     0.002 C 
HETATM    6  C2  UNL     1     -34.452  17.331  -0.986  1.00 20.00     0.005 C 
ENDBRANCH   4   5
BRANCH   4   7
HETATM    7  C6  UNL     1     -35.529  15.957  -3.238  1.00 20.00     0.002 C 
HETATM    8  C3  UNL     1     -36.827  16.519  -3.806  1.00 20.00     0.005 C 
ENDBRANCH   4   7
ENDBRANCH   2   4
BRANCH   2   9
HETATM    9  S10 UNL     1     -33.916  16.599  -6.324  1.00 20.00    -0.154 SA
HETATM   10  C4  UNL     1     -34.411  18.317  -6.080  1.00 20.00     0.091 C 
ENDBRANCH   2   9
TORSDOF 4
ENDMDL
